MODEL 1
REMARK VINA RESULT:     -11.4      0.000      0.000
REMARK SMILES O=C(CC1CC[NH+](C[C@H]2Cc3ccccc3O2)CC1)OCCOC(=O)c1ccc(-c2c3nc(c(-c4cccc(S(=O)(=O)[O-])c4F)c4ccc([nH]4)c(-c4cccc(S(=O)(=O)[O-])c4F)c4nc(c(-c5cccc(S(=O)(=O)[O-])c5F)c5ccc2[nH]5)C=C4)C=C3)cc1
REMARK SMILES IDX 21 1 20 2 2 3 1 4 3 5 4 6 5 7 19 8 6 9 18 10 7 11 8 13 9 14
REMARK SMILES IDX 10 15 17 16 11 17 16 18 12 19 15 20 13 21 14 22 22 23 23 24
REMARK SMILES IDX 24 25 25 26 26 27 27 28 88 29 28 30 87 31 29 32 30 33 31 34
REMARK SMILES IDX 81 35 32 36 86 37 80 38 82 39 33 40 85 41 79 42 78 43 34 45
REMARK SMILES IDX 66 46 46 47 65 48 47 49 50 50 64 51 83 52 48 53 49 54 63 56
REMARK SMILES IDX 84 57 51 58 35 59 36 60 44 61 37 62 39 63 45 64 38 65 40 66
REMARK SMILES IDX 41 67 42 68 43 69 67 70 68 71 76 72 69 73 71 74 77 75 70 76
REMARK SMILES IDX 72 77 73 78 74 79 75 80 52 81 53 82 61 83 54 84 56 85 62 86
REMARK SMILES IDX 55 87 57 88 58 89 59 90 60 91
REMARK H PARENT 7 12 82 44 50 55
REMARK Flexibility Score: inf
ROOT
ATOM      1  C   UNL A   1      31.188  31.460  26.125  1.00  0.00     0.274 C 
ENDROOT
BRANCH   1   2
ATOM      2  O   UNL A   1      32.296  30.554  26.295  1.00  0.00    -0.462 OA
BRANCH   2   3
ATOM      3  C   UNL A   1      32.454  29.457  25.516  1.00  0.00     0.306 C 
ATOM      4  O   UNL A   1      33.141  29.518  24.500  1.00  0.00    -0.252 OA
BRANCH   3   5
ATOM      5  C   UNL A   1      31.665  28.221  25.886  1.00  0.00     0.126 C 
BRANCH   5   6
ATOM      6  C   UNL A   1      31.380  27.255  24.722  1.00  0.00     0.011 C 
ATOM      7  C   UNL A   1      30.232  26.272  24.989  1.00  0.00     0.066 C 
ATOM      8  C   UNL A   1      32.627  26.409  24.406  1.00  0.00     0.066 C 
ATOM      9  C   UNL A   1      30.556  25.304  26.131  1.00  0.00     0.262 C 
ATOM     10  C   UNL A   1      32.947  25.411  25.529  1.00  0.00     0.262 C 
ATOM     11  N   UNL A   1      31.803  24.580  25.895  1.00  0.00    -0.332 N 
ATOM     12  H   UNL A   1      31.622  24.060  25.036  1.00  0.00     0.348 HD
BRANCH  11  13
ATOM     13  C   UNL A   1      32.090  23.532  26.898  1.00  0.00     0.308 C 
BRANCH  13  14
ATOM     14  C   UNL A   1      33.072  22.336  26.681  1.00  0.00     0.232 C 
ATOM     15  C   UNL A   1      33.166  21.781  25.256  1.00  0.00     0.090 C 
ATOM     16  O   UNL A   1      34.416  22.633  27.164  1.00  0.00    -0.484 OA
ATOM     17  C   UNL A   1      34.485  22.335  24.884  1.00  0.00    -0.002 A 
ATOM     18  C   UNL A   1      35.168  22.720  26.020  1.00  0.00     0.123 A 
ATOM     19  C   UNL A   1      35.050  22.493  23.637  1.00  0.00     0.007 A 
ATOM     20  C   UNL A   1      36.450  23.232  25.963  1.00  0.00     0.047 A 
ATOM     21  C   UNL A   1      36.327  23.052  23.543  1.00  0.00     0.001 A 
ATOM     22  C   UNL A   1      37.029  23.408  24.704  1.00  0.00     0.004 A 
ENDBRANCH  13  14
ENDBRANCH  11  13
ENDBRANCH   5   6
ENDBRANCH   3   5
ENDBRANCH   2   3
ENDBRANCH   1   2
BRANCH   1  23
ATOM     23  C   UNL A   1      31.462  32.775  26.847  1.00  0.00     0.275 C 
BRANCH  23  24
ATOM     24  O   UNL A   1      32.874  33.051  26.820  1.00  0.00    -0.458 OA
BRANCH  24  25
ATOM     25  C   UNL A   1      33.374  33.760  27.859  1.00  0.00     0.338 C 
ATOM     26  O   UNL A   1      32.871  34.747  28.372  1.00  0.00    -0.246 OA
BRANCH  25  27
ATOM     27  C   UNL A   1      34.606  33.109  28.375  1.00  0.00     0.060 A 
ATOM     28  C   UNL A   1      34.467  31.864  28.995  1.00  0.00     0.016 A 
ATOM     29  C   UNL A   1      35.879  33.680  28.250  1.00  0.00     0.016 A 
ATOM     30  C   UNL A   1      35.596  31.168  29.432  1.00  0.00     0.010 A 
ATOM     31  C   UNL A   1      37.006  33.001  28.731  1.00  0.00     0.010 A 
ATOM     32  C   UNL A   1      36.876  31.733  29.316  1.00  0.00    -0.014 A 
BRANCH  32  33
ATOM     33  C   UNL A   1      38.030  31.046  29.954  1.00  0.00     0.031 A 
ATOM     34  C   UNL A   1      38.419  31.461  31.347  1.00  0.00     0.074 A 
ATOM     35  C   UNL A   1      38.717  30.065  29.337  1.00  0.00     0.049 A 
ATOM     36  N   UNL A   1      39.250  30.890  32.179  1.00  0.00    -0.248 NA
ATOM     37  C   UNL A   1      37.749  32.656  31.887  1.00  0.00     0.031 C 
ATOM     38  C   UNL A   1      38.448  29.543  27.997  1.00  0.00     0.029 A 
ATOM     39  N   UNL A   1      39.803  29.339  29.763  1.00  0.00    -0.354 N 
ATOM     40  C   UNL A   1      39.157  31.622  33.354  1.00  0.00     0.074 A 
ATOM     41  C   UNL A   1      38.194  32.676  33.132  1.00  0.00     0.031 C 
ATOM     42  C   UNL A   1      39.367  28.606  27.699  1.00  0.00     0.029 A 
ATOM     43  C   UNL A   1      40.291  28.460  28.823  1.00  0.00     0.049 A 
ATOM     44  H   UNL A   1      40.198  29.437  30.660  1.00  0.00     0.167 HD
ATOM     45  C   UNL A   1      39.823  31.450  34.519  1.00  0.00     0.034 A 
ATOM     46  C   UNL A   1      41.364  27.643  28.866  1.00  0.00     0.034 A 
ATOM     47  C   UNL A   1      40.896  30.520  34.705  1.00  0.00     0.049 A 
ATOM     48  C   UNL A   1      42.198  27.585  30.124  1.00  0.00     0.074 A 
ATOM     49  C   UNL A   1      41.688  30.332  35.822  1.00  0.00     0.029 A 
ATOM     50  N   UNL A   1      41.377  29.672  33.720  1.00  0.00    -0.354 N 
ATOM     51  N   UNL A   1      41.989  28.162  31.284  1.00  0.00    -0.248 NA
ATOM     52  C   UNL A   1      43.404  26.742  30.087  1.00  0.00     0.031 C 
ATOM     53  C   UNL A   1      42.681  29.402  35.496  1.00  0.00     0.029 A 
ATOM     54  C   UNL A   1      42.482  28.984  34.188  1.00  0.00     0.049 A 
ATOM     55  H   UNL A   1      40.990  29.574  32.821  1.00  0.00     0.167 HD
ATOM     56  C   UNL A   1      43.011  27.723  32.121  1.00  0.00     0.074 A 
ATOM     57  C   UNL A   1      43.830  26.820  31.341  1.00  0.00     0.031 C 
ATOM     58  C   UNL A   1      43.256  28.046  33.416  1.00  0.00     0.034 A 
BRANCH  45  59
ATOM     59  C   UNL A   1      39.412  32.340  35.655  1.00  0.00     0.023 A 
ATOM     60  C   UNL A   1      38.451  31.878  36.577  1.00  0.00     0.012 A 
ATOM     61  C   UNL A   1      39.927  33.642  35.778  1.00  0.00     0.148 A 
ATOM     62  C   UNL A   1      37.985  32.713  37.591  1.00  0.00     0.002 A 
ATOM     63  C   UNL A   1      39.475  34.461  36.805  1.00  0.00     0.091 A 
ATOM     64  F   UNL A   1      40.804  34.073  34.860  1.00  0.00    -0.205 F 
ATOM     65  C   UNL A   1      38.499  34.002  37.706  1.00  0.00     0.022 A 
BRANCH  63  66
ATOM     66  S   UNL A   1      40.095  36.128  37.040  1.00  0.00     0.127 S 
ATOM     67  O   UNL A   1      39.288  36.584  38.172  1.00  0.00    -0.237 OA
ATOM     68  O   UNL A   1      41.505  35.893  37.351  1.00  0.00    -0.237 OA
ATOM     69  O   UNL A   1      39.860  36.820  35.781  1.00  0.00    -0.744 OA
ENDBRANCH  63  66
ENDBRANCH  45  59
BRANCH  46  70
ATOM     70  C   UNL A   1      41.711  26.781  27.697  1.00  0.00     0.023 A 
ATOM     71  C   UNL A   1      42.316  27.360  26.565  1.00  0.00     0.012 A 
ATOM     72  C   UNL A   1      41.421  25.403  27.689  1.00  0.00     0.148 A 
ATOM     73  C   UNL A   1      42.596  26.590  25.435  1.00  0.00     0.002 A 
ATOM     74  C   UNL A   1      41.747  24.632  26.579  1.00  0.00     0.091 A 
ATOM     75  F   UNL A   1      40.825  24.874  28.768  1.00  0.00    -0.205 F 
ATOM     76  C   UNL A   1      42.320  25.226  25.444  1.00  0.00     0.022 A 
BRANCH  74  77
ATOM     77  S   UNL A   1      41.522  22.850  26.540  1.00  0.00     0.127 S 
ATOM     78  O   UNL A   1      40.068  22.733  26.462  1.00  0.00    -0.237 OA
ATOM     79  O   UNL A   1      42.237  22.484  25.318  1.00  0.00    -0.237 OA
ATOM     80  O   UNL A   1      42.130  22.350  27.766  1.00  0.00    -0.744 OA
ENDBRANCH  74  77
ENDBRANCH  46  70
BRANCH  58  81
ATOM     81  C   UNL A   1      44.437  27.408  34.099  1.00  0.00     0.023 A 
ATOM     82  C   UNL A   1      45.702  28.027  34.035  1.00  0.00     0.012 A 
ATOM     83  C   UNL A   1      44.268  26.262  34.901  1.00  0.00     0.148 A 
ATOM     84  C   UNL A   1      46.782  27.503  34.747  1.00  0.00     0.002 A 
ATOM     85  C   UNL A   1      45.336  25.776  35.645  1.00  0.00     0.091 A 
ATOM     86  F   UNL A   1      43.063  25.673  34.929  1.00  0.00    -0.205 F 
ATOM     87  C   UNL A   1      46.596  26.389  35.561  1.00  0.00     0.022 A 
BRANCH  85  88
ATOM     88  S   UNL A   1      45.150  24.415  36.804  1.00  0.00     0.127 S 
ATOM     89  O   UNL A   1      44.760  23.320  35.919  1.00  0.00    -0.237 OA
ATOM     90  O   UNL A   1      46.495  24.296  37.367  1.00  0.00    -0.237 OA
ATOM     91  O   UNL A   1      44.136  24.844  37.759  1.00  0.00    -0.744 OA
ENDBRANCH  85  88
ENDBRANCH  58  81
ENDBRANCH  32  33
ENDBRANCH  25  27
ENDBRANCH  24  25
ENDBRANCH  23  24
ENDBRANCH   1  23
TORSDOF 17
ENDMDL
MODEL 2
REMARK VINA RESULT:     -11.4      1.251      2.032
REMARK SMILES O=C(CC1CC[NH+](C[C@H]2Cc3ccccc3O2)CC1)OCCOC(=O)c1ccc(-c2c3nc(c(-c4cccc(S(=O)(=O)[O-])c4F)c4ccc([nH]4)c(-c4cccc(S(=O)(=O)[O-])c4F)c4nc(c(-c5cccc(S(=O)(=O)[O-])c5F)c5ccc2[nH]5)C=C4)C=C3)cc1
REMARK SMILES IDX 21 1 20 2 2 3 1 4 3 5 4 6 5 7 19 8 6 9 18 10 7 11 8 13 9 14
REMARK SMILES IDX 10 15 17 16 11 17 16 18 12 19 15 20 13 21 14 22 22 23 23 24
REMARK SMILES IDX 24 25 25 26 26 27 27 28 88 29 28 30 87 31 29 32 30 33 31 34
REMARK SMILES IDX 81 35 32 36 86 37 80 38 82 39 33 40 85 41 79 42 78 43 34 45
REMARK SMILES IDX 66 46 46 47 65 48 47 49 50 50 64 51 83 52 48 53 49 54 63 56
REMARK SMILES IDX 84 57 51 58 35 59 36 60 44 61 37 62 39 63 45 64 38 65 40 66
REMARK SMILES IDX 41 67 42 68 43 69 67 70 68 71 76 72 69 73 71 74 77 75 70 76
REMARK SMILES IDX 72 77 73 78 74 79 75 80 52 81 53 82 61 83 54 84 56 85 62 86
REMARK SMILES IDX 55 87 57 88 58 89 59 90 60 91
REMARK H PARENT 7 12 82 44 50 55
REMARK Flexibility Score: inf
ROOT
ATOM      1  C   UNL A   1      31.604  30.913  26.561  1.00  0.00     0.274 C 
ENDROOT
BRANCH   1   2
ATOM      2  O   UNL A   1      32.921  30.461  26.191  1.00  0.00    -0.462 OA
BRANCH   2   3
ATOM      3  C   UNL A   1      33.174  29.171  25.865  1.00  0.00     0.306 C 
ATOM      4  O   UNL A   1      34.259  28.668  26.140  1.00  0.00    -0.252 OA
BRANCH   3   5
ATOM      5  C   UNL A   1      32.125  28.438  25.060  1.00  0.00     0.126 C 
BRANCH   5   6
ATOM      6  C   UNL A   1      31.864  29.008  23.654  1.00  0.00     0.011 C 
ATOM      7  C   UNL A   1      30.779  28.261  22.865  1.00  0.00     0.066 C 
ATOM      8  C   UNL A   1      33.148  28.956  22.805  1.00  0.00     0.066 C 
ATOM      9  C   UNL A   1      31.185  26.818  22.551  1.00  0.00     0.262 C 
ATOM     10  C   UNL A   1      33.550  27.516  22.455  1.00  0.00     0.262 C 
ATOM     11  N   UNL A   1      32.463  26.752  21.848  1.00  0.00    -0.332 N 
ATOM     12  H   UNL A   1      32.290  27.263  20.982  1.00  0.00     0.348 HD
BRANCH  11  13
ATOM     13  C   UNL A   1      32.833  25.393  21.397  1.00  0.00     0.308 C 
BRANCH  13  14
ATOM     14  C   UNL A   1      33.328  24.247  22.337  1.00  0.00     0.232 C 
ATOM     15  C   UNL A   1      34.128  24.674  23.572  1.00  0.00     0.090 C 
ATOM     16  O   UNL A   1      32.238  23.373  22.758  1.00  0.00    -0.484 OA
ATOM     17  C   UNL A   1      33.092  24.450  24.602  1.00  0.00    -0.002 A 
ATOM     18  C   UNL A   1      32.097  23.639  24.096  1.00  0.00     0.123 A 
ATOM     19  C   UNL A   1      33.023  24.924  25.894  1.00  0.00     0.007 A 
ATOM     20  C   UNL A   1      31.024  23.233  24.866  1.00  0.00     0.047 A 
ATOM     21  C   UNL A   1      31.926  24.570  26.683  1.00  0.00     0.001 A 
ATOM     22  C   UNL A   1      30.937  23.716  26.174  1.00  0.00     0.004 A 
ENDBRANCH  13  14
ENDBRANCH  11  13
ENDBRANCH   5   6
ENDBRANCH   3   5
ENDBRANCH   2   3
ENDBRANCH   1   2
BRANCH   1  23
ATOM     23  C   UNL A   1      31.576  32.435  26.670  1.00  0.00     0.275 C 
BRANCH  23  24
ATOM     24  O   UNL A   1      32.924  32.939  26.686  1.00  0.00    -0.458 OA
BRANCH  24  25
ATOM     25  C   UNL A   1      33.325  33.563  27.817  1.00  0.00     0.338 C 
ATOM     26  O   UNL A   1      32.736  34.461  28.398  1.00  0.00    -0.246 OA
BRANCH  25  27
ATOM     27  C   UNL A   1      34.568  32.934  28.333  1.00  0.00     0.060 A 
ATOM     28  C   UNL A   1      34.437  31.752  29.066  1.00  0.00     0.016 A 
ATOM     29  C   UNL A   1      35.843  33.466  28.103  1.00  0.00     0.016 A 
ATOM     30  C   UNL A   1      35.573  31.073  29.512  1.00  0.00     0.010 A 
ATOM     31  C   UNL A   1      36.980  32.809  28.592  1.00  0.00     0.010 A 
ATOM     32  C   UNL A   1      36.856  31.599  29.291  1.00  0.00    -0.014 A 
BRANCH  32  33
ATOM     33  C   UNL A   1      38.026  30.947  29.936  1.00  0.00     0.031 A 
ATOM     34  C   UNL A   1      38.399  31.379  31.328  1.00  0.00     0.074 A 
ATOM     35  C   UNL A   1      38.742  29.983  29.325  1.00  0.00     0.049 A 
ATOM     36  N   UNL A   1      39.243  30.835  32.164  1.00  0.00    -0.248 NA
ATOM     37  C   UNL A   1      37.695  32.557  31.860  1.00  0.00     0.031 C 
ATOM     38  C   UNL A   1      38.491  29.448  27.987  1.00  0.00     0.029 A 
ATOM     39  N   UNL A   1      39.846  29.288  29.758  1.00  0.00    -0.354 N 
ATOM     40  C   UNL A   1      39.127  31.569  33.336  1.00  0.00     0.074 A 
ATOM     41  C   UNL A   1      38.135  32.596  33.107  1.00  0.00     0.031 C 
ATOM     42  C   UNL A   1      39.436  28.535  27.696  1.00  0.00     0.029 A 
ATOM     43  C   UNL A   1      40.360  28.419  28.823  1.00  0.00     0.049 A 
ATOM     44  H   UNL A   1      40.235  29.402  30.655  1.00  0.00     0.167 HD
ATOM     45  C   UNL A   1      39.793  31.421  34.504  1.00  0.00     0.034 A 
ATOM     46  C   UNL A   1      41.455  27.632  28.873  1.00  0.00     0.034 A 
ATOM     47  C   UNL A   1      40.891  30.521  34.697  1.00  0.00     0.049 A 
ATOM     48  C   UNL A   1      42.286  27.602  30.134  1.00  0.00     0.074 A 
ATOM     49  C   UNL A   1      41.684  30.360  35.818  1.00  0.00     0.029 A 
ATOM     50  N   UNL A   1      41.398  29.682  33.718  1.00  0.00    -0.354 N 
ATOM     51  N   UNL A   1      42.058  28.179  31.290  1.00  0.00    -0.248 NA
ATOM     52  C   UNL A   1      43.515  26.792  30.104  1.00  0.00     0.031 C 
ATOM     53  C   UNL A   1      42.703  29.455  35.498  1.00  0.00     0.029 A 
ATOM     54  C   UNL A   1      42.520  29.027  34.192  1.00  0.00     0.049 A 
ATOM     55  H   UNL A   1      41.016  29.570  32.818  1.00  0.00     0.167 HD
ATOM     56  C   UNL A   1      43.089  27.771  32.132  1.00  0.00     0.074 A 
ATOM     57  C   UNL A   1      43.935  26.887  31.359  1.00  0.00     0.031 C 
ATOM     58  C   UNL A   1      43.321  28.106  33.426  1.00  0.00     0.034 A 
BRANCH  45  59
ATOM     59  C   UNL A   1      39.355  32.304  35.634  1.00  0.00     0.023 A 
ATOM     60  C   UNL A   1      38.345  31.852  36.508  1.00  0.00     0.012 A 
ATOM     61  C   UNL A   1      39.894  33.592  35.799  1.00  0.00     0.148 A 
ATOM     62  C   UNL A   1      37.855  32.683  37.514  1.00  0.00     0.002 A 
ATOM     63  C   UNL A   1      39.417  34.406  36.818  1.00  0.00     0.091 A 
ATOM     64  F   UNL A   1      40.819  34.014  34.925  1.00  0.00    -0.205 F 
ATOM     65  C   UNL A   1      38.394  33.958  37.670  1.00  0.00     0.022 A 
BRANCH  63  66
ATOM     66  S   UNL A   1      40.065  36.055  37.104  1.00  0.00     0.127 S 
ATOM     67  O   UNL A   1      39.749  36.718  35.839  1.00  0.00    -0.237 OA
ATOM     68  O   UNL A   1      39.269  36.507  38.246  1.00  0.00    -0.237 OA
ATOM     69  O   UNL A   1      41.482  35.882  37.386  1.00  0.00    -0.744 OA
ENDBRANCH  63  66
ENDBRANCH  45  59
BRANCH  46  70
ATOM     70  C   UNL A   1      41.829  26.774  27.709  1.00  0.00     0.023 A 
ATOM     71  C   UNL A   1      42.492  27.351  26.608  1.00  0.00     0.012 A 
ATOM     72  C   UNL A   1      41.507  25.404  27.673  1.00  0.00     0.148 A 
ATOM     73  C   UNL A   1      42.801  26.587  25.482  1.00  0.00     0.002 A 
ATOM     74  C   UNL A   1      41.860  24.637  26.568  1.00  0.00     0.091 A 
ATOM     75  F   UNL A   1      40.856  24.877  28.720  1.00  0.00    -0.205 F 
ATOM     76  C   UNL A   1      42.492  25.229  25.464  1.00  0.00     0.022 A 
BRANCH  74  77
ATOM     77  S   UNL A   1      41.595  22.861  26.499  1.00  0.00     0.127 S 
ATOM     78  O   UNL A   1      42.236  22.512  25.233  1.00  0.00    -0.237 OA
ATOM     79  O   UNL A   1      42.303  22.406  27.695  1.00  0.00    -0.237 OA
ATOM     80  O   UNL A   1      40.151  22.677  26.547  1.00  0.00    -0.744 OA
ENDBRANCH  74  77
ENDBRANCH  46  70
BRANCH  58  81
ATOM     81  C   UNL A   1      44.518  27.504  34.115  1.00  0.00     0.023 A 
ATOM     82  C   UNL A   1      45.751  28.185  34.102  1.00  0.00     0.012 A 
ATOM     83  C   UNL A   1      44.388  26.325  34.875  1.00  0.00     0.148 A 
ATOM     84  C   UNL A   1      46.840  27.691  34.821  1.00  0.00     0.002 A 
ATOM     85  C   UNL A   1      45.462  25.866  35.628  1.00  0.00     0.091 A 
ATOM     86  F   UNL A   1      43.212  25.678  34.856  1.00  0.00    -0.205 F 
ATOM     87  C   UNL A   1      46.692  26.543  35.594  1.00  0.00     0.022 A 
BRANCH  85  88
ATOM     88  S   UNL A   1      45.318  24.460  36.737  1.00  0.00     0.127 S 
ATOM     89  O   UNL A   1      44.024  24.709  37.370  1.00  0.00    -0.237 OA
ATOM     90  O   UNL A   1      45.337  23.327  35.811  1.00  0.00    -0.237 OA
ATOM     91  O   UNL A   1      46.475  24.532  37.620  1.00  0.00    -0.744 OA
ENDBRANCH  85  88
ENDBRANCH  58  81
ENDBRANCH  32  33
ENDBRANCH  25  27
ENDBRANCH  24  25
ENDBRANCH  23  24
ENDBRANCH   1  23
TORSDOF 17
ENDMDL
MODEL 3
REMARK VINA RESULT:     -11.4      1.708      2.049
REMARK SMILES O=C(CC1CC[NH+](C[C@H]2Cc3ccccc3O2)CC1)OCCOC(=O)c1ccc(-c2c3nc(c(-c4cccc(S(=O)(=O)[O-])c4F)c4ccc([nH]4)c(-c4cccc(S(=O)(=O)[O-])c4F)c4nc(c(-c5cccc(S(=O)(=O)[O-])c5F)c5ccc2[nH]5)C=C4)C=C3)cc1
REMARK SMILES IDX 21 1 20 2 2 3 1 4 3 5 4 6 5 7 19 8 6 9 18 10 7 11 8 13 9 14
REMARK SMILES IDX 10 15 17 16 11 17 16 18 12 19 15 20 13 21 14 22 22 23 23 24
REMARK SMILES IDX 24 25 25 26 26 27 27 28 88 29 28 30 87 31 29 32 30 33 31 34
REMARK SMILES IDX 81 35 32 36 86 37 80 38 82 39 33 40 85 41 79 42 78 43 34 45
REMARK SMILES IDX 66 46 46 47 65 48 47 49 50 50 64 51 83 52 48 53 49 54 63 56
REMARK SMILES IDX 84 57 51 58 35 59 36 60 44 61 37 62 39 63 45 64 38 65 40 66
REMARK SMILES IDX 41 67 42 68 43 69 67 70 68 71 76 72 69 73 71 74 77 75 70 76
REMARK SMILES IDX 72 77 73 78 74 79 75 80 52 81 53 82 61 83 54 84 56 85 62 86
REMARK SMILES IDX 55 87 57 88 58 89 59 90 60 91
REMARK H PARENT 7 12 82 44 50 55
REMARK Flexibility Score: inf
ROOT
ATOM      1  C   UNL A   1      31.426  31.638  26.202  1.00  0.00     0.274 C 
ENDROOT
BRANCH   1   2
ATOM      2  O   UNL A   1      31.808  30.447  26.919  1.00  0.00    -0.462 OA
BRANCH   2   3
ATOM      3  C   UNL A   1      32.409  29.400  26.304  1.00  0.00     0.306 C 
ATOM      4  O   UNL A   1      33.631  29.286  26.338  1.00  0.00    -0.252 OA
BRANCH   3   5
ATOM      5  C   UNL A   1      31.533  28.472  25.494  1.00  0.00     0.126 C 
BRANCH   5   6
ATOM      6  C   UNL A   1      31.201  28.960  24.073  1.00  0.00     0.011 C 
ATOM      7  C   UNL A   1      30.209  28.065  23.317  1.00  0.00     0.066 C 
ATOM      8  C   UNL A   1      32.479  29.032  23.216  1.00  0.00     0.066 C 
ATOM      9  C   UNL A   1      30.781  26.670  23.047  1.00  0.00     0.262 C 
ATOM     10  C   UNL A   1      33.047  27.638  22.909  1.00  0.00     0.262 C 
ATOM     11  N   UNL A   1      32.055  26.732  22.335  1.00  0.00    -0.332 N 
ATOM     12  H   UNL A   1      31.820  27.191  21.455  1.00  0.00     0.348 HD
BRANCH  11  13
ATOM     13  C   UNL A   1      32.582  25.412  21.926  1.00  0.00     0.308 C 
BRANCH  13  14
ATOM     14  C   UNL A   1      32.681  24.164  22.861  1.00  0.00     0.232 C 
ATOM     15  C   UNL A   1      33.589  23.026  22.385  1.00  0.00     0.090 C 
ATOM     16  O   UNL A   1      33.050  24.527  24.225  1.00  0.00    -0.484 OA
ATOM     17  C   UNL A   1      34.722  23.238  23.311  1.00  0.00    -0.002 A 
ATOM     18  C   UNL A   1      34.320  24.029  24.369  1.00  0.00     0.123 A 
ATOM     19  C   UNL A   1      36.017  22.773  23.234  1.00  0.00     0.007 A 
ATOM     20  C   UNL A   1      35.172  24.347  25.408  1.00  0.00     0.047 A 
ATOM     21  C   UNL A   1      36.916  23.118  24.246  1.00  0.00     0.001 A 
ATOM     22  C   UNL A   1      36.491  23.891  25.336  1.00  0.00     0.004 A 
ENDBRANCH  13  14
ENDBRANCH  11  13
ENDBRANCH   5   6
ENDBRANCH   3   5
ENDBRANCH   2   3
ENDBRANCH   1   2
BRANCH   1  23
ATOM     23  C   UNL A   1      31.835  32.882  26.985  1.00  0.00     0.275 C 
BRANCH  23  24
ATOM     24  O   UNL A   1      32.926  32.557  27.865  1.00  0.00    -0.458 OA
BRANCH  24  25
ATOM     25  C   UNL A   1      33.938  33.453  27.935  1.00  0.00     0.338 C 
ATOM     26  O   UNL A   1      33.863  34.650  27.702  1.00  0.00    -0.246 OA
BRANCH  25  27
ATOM     27  C   UNL A   1      35.170  32.794  28.438  1.00  0.00     0.060 A 
ATOM     28  C   UNL A   1      35.030  31.548  29.055  1.00  0.00     0.016 A 
ATOM     29  C   UNL A   1      36.445  33.358  28.305  1.00  0.00     0.016 A 
ATOM     30  C   UNL A   1      36.158  30.845  29.481  1.00  0.00     0.010 A 
ATOM     31  C   UNL A   1      37.572  32.672  28.775  1.00  0.00     0.010 A 
ATOM     32  C   UNL A   1      37.440  31.402  29.357  1.00  0.00    -0.014 A 
BRANCH  32  33
ATOM     33  C   UNL A   1      38.596  30.707  29.983  1.00  0.00     0.031 A 
ATOM     34  C   UNL A   1      39.014  31.133  31.364  1.00  0.00     0.074 A 
ATOM     35  C   UNL A   1      39.259  29.710  29.366  1.00  0.00     0.049 A 
ATOM     36  N   UNL A   1      39.851  30.561  32.188  1.00  0.00    -0.248 NA
ATOM     37  C   UNL A   1      38.370  32.344  31.901  1.00  0.00     0.031 C 
ATOM     38  C   UNL A   1      38.959  29.176  28.038  1.00  0.00     0.029 A 
ATOM     39  N   UNL A   1      40.342  28.974  29.782  1.00  0.00    -0.354 N 
ATOM     40  C   UNL A   1      39.789  31.308  33.356  1.00  0.00     0.074 A 
ATOM     41  C   UNL A   1      38.836  32.373  33.138  1.00  0.00     0.031 C 
ATOM     42  C   UNL A   1      39.859  28.223  27.735  1.00  0.00     0.029 A 
ATOM     43  C   UNL A   1      40.801  28.077  28.845  1.00  0.00     0.049 A 
ATOM     44  H   UNL A   1      40.753  29.077  30.671  1.00  0.00     0.167 HD
ATOM     45  C   UNL A   1      40.472  31.141  34.511  1.00  0.00     0.034 A 
ATOM     46  C   UNL A   1      41.863  27.246  28.879  1.00  0.00     0.034 A 
ATOM     47  C   UNL A   1      41.536  30.198  34.690  1.00  0.00     0.049 A 
ATOM     48  C   UNL A   1      42.718  27.191  30.123  1.00  0.00     0.074 A 
ATOM     49  C   UNL A   1      42.344  30.013  35.796  1.00  0.00     0.029 A 
ATOM     50  N   UNL A   1      41.989  29.332  33.707  1.00  0.00    -0.354 N 
ATOM     51  N   UNL A   1      42.537  27.785  31.279  1.00  0.00    -0.248 NA
ATOM     52  C   UNL A   1      43.911  26.331  30.076  1.00  0.00     0.031 C 
ATOM     53  C   UNL A   1      43.319  29.064  35.463  1.00  0.00     0.029 A 
ATOM     54  C   UNL A   1      43.091  28.635  34.165  1.00  0.00     0.049 A 
ATOM     55  H   UNL A   1      41.584  29.229  32.816  1.00  0.00     0.167 HD
ATOM     56  C   UNL A   1      43.567  27.341  32.104  1.00  0.00     0.074 A 
ATOM     57  C   UNL A   1      44.360  26.418  31.321  1.00  0.00     0.031 C 
ATOM     58  C   UNL A   1      43.839  27.676  33.391  1.00  0.00     0.034 A 
BRANCH  45  59
ATOM     59  C   UNL A   1      40.094  32.050  35.643  1.00  0.00     0.023 A 
ATOM     60  C   UNL A   1      40.918  33.153  35.943  1.00  0.00     0.012 A 
ATOM     61  C   UNL A   1      38.967  31.785  36.440  1.00  0.00     0.148 A 
ATOM     62  C   UNL A   1      40.642  33.965  37.042  1.00  0.00     0.002 A 
ATOM     63  C   UNL A   1      38.684  32.611  37.520  1.00  0.00     0.091 A 
ATOM     64  F   UNL A   1      38.227  30.701  36.161  1.00  0.00    -0.205 F 
ATOM     65  C   UNL A   1      39.523  33.695  37.828  1.00  0.00     0.022 A 
BRANCH  63  66
ATOM     66  S   UNL A   1      37.256  32.350  38.574  1.00  0.00     0.127 S 
ATOM     67  O   UNL A   1      36.194  32.979  37.791  1.00  0.00    -0.237 OA
ATOM     68  O   UNL A   1      37.182  30.890  38.640  1.00  0.00    -0.237 OA
ATOM     69  O   UNL A   1      37.572  32.996  39.839  1.00  0.00    -0.744 OA
ENDBRANCH  63  66
ENDBRANCH  45  59
BRANCH  46  70
ATOM     70  C   UNL A   1      42.178  26.365  27.715  1.00  0.00     0.023 A 
ATOM     71  C   UNL A   1      42.936  26.878  26.644  1.00  0.00     0.012 A 
ATOM     72  C   UNL A   1      41.710  25.039  27.649  1.00  0.00     0.148 A 
ATOM     73  C   UNL A   1      43.195  26.097  25.516  1.00  0.00     0.002 A 
ATOM     74  C   UNL A   1      42.012  24.250  26.545  1.00  0.00     0.091 A 
ATOM     75  F   UNL A   1      40.972  24.576  28.669  1.00  0.00    -0.205 F 
ATOM     76  C   UNL A   1      42.740  24.782  25.469  1.00  0.00     0.022 A 
BRANCH  74  77
ATOM     77  S   UNL A   1      41.557  22.515  26.442  1.00  0.00     0.127 S 
ATOM     78  O   UNL A   1      40.109  22.595  26.263  1.00  0.00    -0.237 OA
ATOM     79  O   UNL A   1      42.302  22.079  25.261  1.00  0.00    -0.237 OA
ATOM     80  O   UNL A   1      42.006  21.917  27.693  1.00  0.00    -0.744 OA
ENDBRANCH  74  77
ENDBRANCH  46  70
BRANCH  58  81
ATOM     81  C   UNL A   1      45.023  27.030  34.060  1.00  0.00     0.023 A 
ATOM     82  C   UNL A   1      46.284  27.658  34.015  1.00  0.00     0.012 A 
ATOM     83  C   UNL A   1      44.860  25.865  34.835  1.00  0.00     0.148 A 
ATOM     84  C   UNL A   1      47.366  27.125  34.716  1.00  0.00     0.002 A 
ATOM     85  C   UNL A   1      45.929  25.367  35.570  1.00  0.00     0.091 A 
ATOM     86  F   UNL A   1      43.658  25.267  34.847  1.00  0.00    -0.205 F 
ATOM     87  C   UNL A   1      47.186  25.991  35.503  1.00  0.00     0.022 A 
BRANCH  85  88
ATOM     88  S   UNL A   1      45.750  23.978  36.695  1.00  0.00     0.127 S 
ATOM     89  O   UNL A   1      47.102  23.854  37.235  1.00  0.00    -0.237 OA
ATOM     90  O   UNL A   1      44.755  24.473  37.648  1.00  0.00    -0.237 OA
ATOM     91  O   UNL A   1      45.293  22.863  35.877  1.00  0.00    -0.744 OA
ENDBRANCH  85  88
ENDBRANCH  58  81
ENDBRANCH  32  33
ENDBRANCH  25  27
ENDBRANCH  24  25
ENDBRANCH  23  24
ENDBRANCH   1  23
TORSDOF 17
ENDMDL
