MODEL 1
REMARK VINA RESULT:     -12.3      0.000      0.000
REMARK SMILES COc1cccc(Cn2c(=O)c(=O)n(CC(=O)OCCOC(=O)c3ccc(-c4c5nc(c(-c6cccc(S(=O)(=O)[O-])c6F)c6ccc([nH]6)c(-c6cccc(S(=O)(=O)[O-])c6F)c6nc(c(-c7cccc(S(=O)(=O)[O-])c7F)c7ccc4[nH]7)C=C6)C=C5)cc3)c3ccccc32)c1
REMARK SMILES IDX 19 1 18 2 16 3 17 4 15 5 14 6 9 7 10 8 92 9 11 10 12 11
REMARK SMILES IDX 87 12 91 13 13 14 88 15 90 16 89 17 8 18 7 19 3 20 4 21
REMARK SMILES IDX 93 22 5 23 6 24 2 25 1 26 20 27 21 28 22 29 23 30 24 31
REMARK SMILES IDX 25 32 86 33 26 34 85 35 27 36 28 37 29 38 79 39 30 40 84 41
REMARK SMILES IDX 78 42 80 43 31 44 83 45 77 46 76 47 32 49 64 50 44 51 63 52
REMARK SMILES IDX 45 53 48 54 62 55 81 56 46 57 47 58 61 60 82 61 49 62 33 63
REMARK SMILES IDX 34 64 42 65 35 66 37 67 43 68 36 69 38 70 39 71 40 72 41 73
REMARK SMILES IDX 65 74 66 75 74 76 67 77 69 78 75 79 68 80 70 81 71 82 72 83
REMARK SMILES IDX 73 84 50 85 51 86 59 87 52 88 54 89 60 90 53 91 55 92 56 93
REMARK SMILES IDX 57 94 58 95
REMARK H PARENT 80 48 48 59
REMARK Flexibility Score: inf
ROOT
ATOM      1  C   UNL A   1      31.729  28.536  24.202  1.00  0.00     0.274 C 
ENDROOT
BRANCH   1   2
ATOM      2  O   UNL A   1      33.061  28.413  23.688  1.00  0.00    -0.461 OA
BRANCH   2   3
ATOM      3  C   UNL A   1      33.329  27.180  23.183  1.00  0.00     0.326 C 
ATOM      4  O   UNL A   1      33.565  26.935  22.003  1.00  0.00    -0.250 OA
BRANCH   3   5
ATOM      5  C   UNL A   1      33.659  26.200  24.289  1.00  0.00     0.248 C 
BRANCH   5   6
ATOM      6  N   UNL A   1      33.218  24.839  24.141  1.00  0.00    -0.291 N 
ATOM      7  N   UNL A   1      33.663  22.542  25.685  1.00  0.00    -0.298 N 
ATOM      8  C   UNL A   1      34.705  23.325  25.225  1.00  0.00     0.317 A 
ATOM      9  C   UNL A   1      32.392  23.177  25.769  1.00  0.00     0.068 A 
ATOM     10  O   UNL A   1      35.799  23.483  25.748  1.00  0.00    -0.263 OA
ATOM     11  C   UNL A   1      34.329  24.039  23.941  1.00  0.00     0.317 A 
ATOM     12  C   UNL A   1      32.195  24.379  25.034  1.00  0.00     0.069 A 
ATOM     13  C   UNL A   1      31.417  22.775  26.686  1.00  0.00     0.028 A 
ATOM     14  O   UNL A   1      35.056  24.043  22.959  1.00  0.00    -0.263 OA
ATOM     15  C   UNL A   1      31.009  25.110  25.183  1.00  0.00     0.028 A 
ATOM     16  C   UNL A   1      30.267  23.556  26.874  1.00  0.00     0.002 A 
ATOM     17  C   UNL A   1      30.056  24.707  26.115  1.00  0.00     0.002 A 
BRANCH   7  18
ATOM     18  C   UNL A   1      33.965  21.149  25.973  1.00  0.00     0.162 C 
BRANCH  18  19
ATOM     19  C   UNL A   1      33.045  20.282  25.090  1.00  0.00    -0.024 A 
ATOM     20  C   UNL A   1      32.623  17.981  24.378  1.00  0.00     0.119 A 
ATOM     21  C   UNL A   1      32.314  18.457  23.103  1.00  0.00     0.046 A 
ATOM     22  C   UNL A   1      32.906  18.901  25.389  1.00  0.00     0.052 A 
ATOM     23  C   UNL A   1      32.298  19.826  22.832  1.00  0.00     0.004 A 
ATOM     24  C   UNL A   1      32.683  20.738  23.815  1.00  0.00     0.006 A 
BRANCH  20  25
ATOM     25  O   UNL A   1      32.723  16.620  24.452  1.00  0.00    -0.497 OA
ATOM     26  C   UNL A   1      33.618  16.039  25.388  1.00  0.00     0.278 C 
ENDBRANCH  20  25
ENDBRANCH  18  19
ENDBRANCH   7  18
ENDBRANCH   5   6
ENDBRANCH   3   5
ENDBRANCH   2   3
ENDBRANCH   1   2
BRANCH   1  27
ATOM     27  C   UNL A   1      31.683  29.713  25.183  1.00  0.00     0.275 C 
BRANCH  27  28
ATOM     28  O   UNL A   1      33.004  30.070  25.659  1.00  0.00    -0.458 OA
BRANCH  28  29
ATOM     29  C   UNL A   1      33.059  30.980  26.660  1.00  0.00     0.338 C 
ATOM     30  O   UNL A   1      32.218  31.826  26.927  1.00  0.00    -0.246 OA
BRANCH  29  31
ATOM     31  C   UNL A   1      34.263  30.800  27.492  1.00  0.00     0.060 A 
ATOM     32  C   UNL A   1      35.093  31.886  27.786  1.00  0.00     0.016 A 
ATOM     33  C   UNL A   1      34.666  29.513  27.832  1.00  0.00     0.016 A 
ATOM     34  C   UNL A   1      36.351  31.691  28.347  1.00  0.00     0.010 A 
ATOM     35  C   UNL A   1      35.888  29.325  28.484  1.00  0.00     0.010 A 
ATOM     36  C   UNL A   1      36.750  30.410  28.730  1.00  0.00    -0.014 A 
BRANCH  36  37
ATOM     37  C   UNL A   1      38.036  30.199  29.438  1.00  0.00     0.031 A 
ATOM     38  C   UNL A   1      39.063  29.259  28.876  1.00  0.00     0.074 A 
ATOM     39  C   UNL A   1      38.231  30.787  30.635  1.00  0.00     0.049 A 
ATOM     40  N   UNL A   1      40.122  28.757  29.452  1.00  0.00    -0.248 NA
ATOM     41  C   UNL A   1      38.861  28.811  27.488  1.00  0.00     0.031 C 
ATOM     42  C   UNL A   1      37.306  31.723  31.277  1.00  0.00     0.029 A 
ATOM     43  N   UNL A   1      39.247  30.647  31.546  1.00  0.00    -0.354 N 
ATOM     44  C   UNL A   1      40.672  27.875  28.530  1.00  0.00     0.074 A 
ATOM     45  C   UNL A   1      39.842  27.929  27.345  1.00  0.00     0.031 C 
ATOM     46  C   UNL A   1      37.777  32.048  32.488  1.00  0.00     0.029 A 
ATOM     47  C   UNL A   1      38.999  31.293  32.735  1.00  0.00     0.049 A 
ATOM     48  H   UNL A   1      40.071  30.137  31.367  1.00  0.00     0.167 HD
ATOM     49  C   UNL A   1      41.769  27.093  28.666  1.00  0.00     0.034 A 
ATOM     50  C   UNL A   1      39.642  31.237  33.916  1.00  0.00     0.034 A 
ATOM     51  C   UNL A   1      42.616  27.093  29.828  1.00  0.00     0.049 A 
ATOM     52  C   UNL A   1      40.865  30.376  34.035  1.00  0.00     0.074 A 
ATOM     53  C   UNL A   1      43.792  26.394  30.038  1.00  0.00     0.029 A 
ATOM     54  N   UNL A   1      42.378  27.828  30.981  1.00  0.00    -0.354 N 
ATOM     55  N   UNL A   1      41.424  29.613  33.126  1.00  0.00    -0.248 NA
ATOM     56  C   UNL A   1      41.559  30.382  35.329  1.00  0.00     0.031 C 
ATOM     57  C   UNL A   1      44.256  26.696  31.324  1.00  0.00     0.029 A 
ATOM     58  C   UNL A   1      43.378  27.594  31.909  1.00  0.00     0.049 A 
ATOM     59  H   UNL A   1      41.609  28.428  31.118  1.00  0.00     0.167 HD
ATOM     60  C   UNL A   1      42.545  29.062  33.731  1.00  0.00     0.074 A 
ATOM     61  C   UNL A   1      42.600  29.600  35.076  1.00  0.00     0.031 C 
ATOM     62  C   UNL A   1      43.438  28.175  33.226  1.00  0.00     0.034 A 
BRANCH  49  63
ATOM     63  C   UNL A   1      42.130  26.183  27.522  1.00  0.00     0.023 A 
ATOM     64  C   UNL A   1      42.863  26.688  26.429  1.00  0.00     0.012 A 
ATOM     65  C   UNL A   1      41.793  24.815  27.555  1.00  0.00     0.148 A 
ATOM     66  C   UNL A   1      43.232  25.851  25.375  1.00  0.00     0.002 A 
ATOM     67  C   UNL A   1      42.197  23.980  26.518  1.00  0.00     0.091 A 
ATOM     68  F   UNL A   1      41.071  24.357  28.587  1.00  0.00    -0.205 F 
ATOM     69  C   UNL A   1      42.909  24.498  25.425  1.00  0.00     0.022 A 
BRANCH  67  70
ATOM     70  S   UNL A   1      41.884  22.211  26.532  1.00  0.00     0.127 S 
ATOM     71  O   UNL A   1      42.658  21.765  25.374  1.00  0.00    -0.237 OA
ATOM     72  O   UNL A   1      42.435  21.806  27.825  1.00  0.00    -0.237 OA
ATOM     73  O   UNL A   1      40.439  22.063  26.419  1.00  0.00    -0.744 OA
ENDBRANCH  67  70
ENDBRANCH  49  63
BRANCH  50  74
ATOM     74  C   UNL A   1      39.129  32.037  35.064  1.00  0.00     0.023 A 
ATOM     75  C   UNL A   1      38.218  31.449  35.960  1.00  0.00     0.012 A 
ATOM     76  C   UNL A   1      39.607  33.337  35.322  1.00  0.00     0.148 A 
ATOM     77  C   UNL A   1      37.784  32.145  37.088  1.00  0.00     0.002 A 
ATOM     78  C   UNL A   1      39.217  34.002  36.477  1.00  0.00     0.091 A 
ATOM     79  F   UNL A   1      40.461  33.885  34.446  1.00  0.00    -0.205 F 
ATOM     80  C   UNL A   1      38.295  33.413  37.356  1.00  0.00     0.022 A 
BRANCH  78  81
ATOM     81  S   UNL A   1      39.943  35.570  36.971  1.00  0.00     0.127 S 
ATOM     82  O   UNL A   1      39.262  35.830  38.237  1.00  0.00    -0.237 OA
ATOM     83  O   UNL A   1      41.361  35.226  37.094  1.00  0.00    -0.237 OA
ATOM     84  O   UNL A   1      39.646  36.496  35.886  1.00  0.00    -0.744 OA
ENDBRANCH  78  81
ENDBRANCH  50  74
BRANCH  62  85
ATOM     85  C   UNL A   1      44.562  27.741  34.127  1.00  0.00     0.023 A 
ATOM     86  C   UNL A   1      45.766  28.472  34.135  1.00  0.00     0.012 A 
ATOM     87  C   UNL A   1      44.402  26.658  35.011  1.00  0.00     0.148 A 
ATOM     88  C   UNL A   1      46.806  28.114  34.991  1.00  0.00     0.002 A 
ATOM     89  C   UNL A   1      45.426  26.333  35.892  1.00  0.00     0.091 A 
ATOM     90  F   UNL A   1      43.257  25.961  34.971  1.00  0.00    -0.205 F 
ATOM     91  C   UNL A   1      46.631  27.052  35.877  1.00  0.00     0.022 A 
BRANCH  89  92
ATOM     92  S   UNL A   1      45.250  25.038  37.125  1.00  0.00     0.127 S 
ATOM     93  O   UNL A   1      45.098  23.849  36.289  1.00  0.00    -0.237 OA
ATOM     94  O   UNL A   1      46.520  25.117  37.847  1.00  0.00    -0.237 OA
ATOM     95  O   UNL A   1      44.085  25.402  37.920  1.00  0.00    -0.744 OA
ENDBRANCH  89  92
ENDBRANCH  62  85
ENDBRANCH  36  37
ENDBRANCH  29  31
ENDBRANCH  28  29
ENDBRANCH  27  28
ENDBRANCH   1  27
TORSDOF 18
ENDMDL
MODEL 2
REMARK VINA RESULT:     -11.8      4.753     10.005
REMARK SMILES COc1cccc(Cn2c(=O)c(=O)n(CC(=O)OCCOC(=O)c3ccc(-c4c5nc(c(-c6cccc(S(=O)(=O)[O-])c6F)c6ccc([nH]6)c(-c6cccc(S(=O)(=O)[O-])c6F)c6nc(c(-c7cccc(S(=O)(=O)[O-])c7F)c7ccc4[nH]7)C=C6)C=C5)cc3)c3ccccc32)c1
REMARK SMILES IDX 19 1 18 2 16 3 17 4 15 5 14 6 9 7 10 8 92 9 11 10 12 11
REMARK SMILES IDX 87 12 91 13 13 14 88 15 90 16 89 17 8 18 7 19 3 20 4 21
REMARK SMILES IDX 93 22 5 23 6 24 2 25 1 26 20 27 21 28 22 29 23 30 24 31
REMARK SMILES IDX 25 32 86 33 26 34 85 35 27 36 28 37 29 38 79 39 30 40 84 41
REMARK SMILES IDX 78 42 80 43 31 44 83 45 77 46 76 47 32 49 64 50 44 51 63 52
REMARK SMILES IDX 45 53 48 54 62 55 81 56 46 57 47 58 61 60 82 61 49 62 33 63
REMARK SMILES IDX 34 64 42 65 35 66 37 67 43 68 36 69 38 70 39 71 40 72 41 73
REMARK SMILES IDX 65 74 66 75 74 76 67 77 69 78 75 79 68 80 70 81 71 82 72 83
REMARK SMILES IDX 73 84 50 85 51 86 59 87 52 88 54 89 60 90 53 91 55 92 56 93
REMARK SMILES IDX 57 94 58 95
REMARK H PARENT 80 48 48 59
REMARK Flexibility Score: inf
ROOT
ATOM      1  C   UNL A   1      34.229  20.836  25.429  1.00  0.00     0.274 C 
ENDROOT
BRANCH   1   2
ATOM      2  O   UNL A   1      33.270  21.376  24.511  1.00  0.00    -0.461 OA
BRANCH   2   3
ATOM      3  C   UNL A   1      32.200  21.942  25.128  1.00  0.00     0.326 C 
ATOM      4  O   UNL A   1      31.290  21.325  25.673  1.00  0.00    -0.250 OA
BRANCH   3   5
ATOM      5  C   UNL A   1      32.437  23.416  25.383  1.00  0.00     0.248 C 
BRANCH   5   6
ATOM      6  N   UNL A   1      31.561  24.362  24.745  1.00  0.00    -0.291 N 
ATOM      7  N   UNL A   1      31.650  27.156  24.531  1.00  0.00    -0.298 N 
ATOM      8  C   UNL A   1      31.731  26.515  25.753  1.00  0.00     0.317 A 
ATOM      9  C   UNL A   1      32.002  26.379  23.392  1.00  0.00     0.068 A 
ATOM     10  O   UNL A   1      32.308  26.907  26.757  1.00  0.00    -0.263 OA
ATOM     11  C   UNL A   1      31.015  25.179  25.719  1.00  0.00     0.317 A 
ATOM     12  C   UNL A   1      32.019  24.964  23.527  1.00  0.00     0.069 A 
ATOM     13  C   UNL A   1      32.513  26.957  22.226  1.00  0.00     0.028 A 
ATOM     14  O   UNL A   1      30.224  24.840  26.586  1.00  0.00    -0.263 OA
ATOM     15  C   UNL A   1      32.481  24.161  22.475  1.00  0.00     0.028 A 
ATOM     16  C   UNL A   1      33.038  26.141  21.212  1.00  0.00     0.002 A 
ATOM     17  C   UNL A   1      33.006  24.751  21.328  1.00  0.00     0.002 A 
BRANCH   7  18
ATOM     18  C   UNL A   1      31.159  28.524  24.539  1.00  0.00     0.162 C 
BRANCH  18  19
ATOM     19  C   UNL A   1      29.973  28.599  23.557  1.00  0.00    -0.024 A 
ATOM     20  C   UNL A   1      28.607  30.156  22.257  1.00  0.00     0.119 A 
ATOM     21  C   UNL A   1      27.488  29.370  22.534  1.00  0.00     0.046 A 
ATOM     22  C   UNL A   1      29.860  29.723  22.698  1.00  0.00     0.052 A 
ATOM     23  C   UNL A   1      27.608  28.177  23.250  1.00  0.00     0.004 A 
ATOM     24  C   UNL A   1      28.842  27.801  23.780  1.00  0.00     0.006 A 
BRANCH  20  25
ATOM     25  O   UNL A   1      28.311  31.350  21.663  1.00  0.00    -0.497 OA
ATOM     26  C   UNL A   1      28.647  32.559  22.327  1.00  0.00     0.278 C 
ENDBRANCH  20  25
ENDBRANCH  18  19
ENDBRANCH   7  18
ENDBRANCH   5   6
ENDBRANCH   3   5
ENDBRANCH   2   3
ENDBRANCH   1   2
BRANCH   1  27
ATOM     27  C   UNL A   1      35.639  21.096  24.882  1.00  0.00     0.275 C 
BRANCH  27  28
ATOM     28  O   UNL A   1      36.463  21.812  25.836  1.00  0.00    -0.458 OA
BRANCH  28  29
ATOM     29  C   UNL A   1      37.801  21.642  25.723  1.00  0.00     0.338 C 
ATOM     30  O   UNL A   1      38.378  20.764  25.099  1.00  0.00    -0.246 OA
BRANCH  29  31
ATOM     31  C   UNL A   1      38.544  22.720  26.402  1.00  0.00     0.060 A 
ATOM     32  C   UNL A   1      38.101  24.044  26.329  1.00  0.00     0.016 A 
ATOM     33  C   UNL A   1      39.786  22.438  26.962  1.00  0.00     0.016 A 
ATOM     34  C   UNL A   1      38.917  25.092  26.743  1.00  0.00     0.010 A 
ATOM     35  C   UNL A   1      40.566  23.483  27.466  1.00  0.00     0.010 A 
ATOM     36  C   UNL A   1      40.146  24.821  27.344  1.00  0.00    -0.014 A 
BRANCH  36  37
ATOM     37  C   UNL A   1      40.975  25.919  27.899  1.00  0.00     0.031 A 
ATOM     38  C   UNL A   1      40.341  27.006  28.718  1.00  0.00     0.074 A 
ATOM     39  C   UNL A   1      42.284  25.979  27.582  1.00  0.00     0.049 A 
ATOM     40  N   UNL A   1      40.834  28.160  29.077  1.00  0.00    -0.248 NA
ATOM     41  C   UNL A   1      38.962  26.769  29.176  1.00  0.00     0.031 C 
ATOM     42  C   UNL A   1      43.010  24.977  26.798  1.00  0.00     0.029 A 
ATOM     43  N   UNL A   1      43.224  26.945  27.838  1.00  0.00    -0.354 N 
ATOM     44  C   UNL A   1      39.806  28.822  29.737  1.00  0.00     0.074 A 
ATOM     45  C   UNL A   1      38.667  27.928  29.749  1.00  0.00     0.031 C 
ATOM     46  C   UNL A   1      44.269  25.394  26.609  1.00  0.00     0.029 A 
ATOM     47  C   UNL A   1      44.420  26.718  27.196  1.00  0.00     0.049 A 
ATOM     48  H   UNL A   1      43.060  27.721  28.422  1.00  0.00     0.167 HD
ATOM     49  C   UNL A   1      39.817  30.062  30.280  1.00  0.00     0.034 A 
ATOM     50  C   UNL A   1      45.496  27.511  27.041  1.00  0.00     0.034 A 
ATOM     51  C   UNL A   1      40.975  30.915  30.311  1.00  0.00     0.049 A 
ATOM     52  C   UNL A   1      45.490  28.874  27.667  1.00  0.00     0.074 A 
ATOM     53  C   UNL A   1      41.114  32.159  30.900  1.00  0.00     0.029 A 
ATOM     54  N   UNL A   1      42.196  30.613  29.724  1.00  0.00    -0.354 N 
ATOM     55  N   UNL A   1      44.541  29.453  28.362  1.00  0.00    -0.248 NA
ATOM     56  C   UNL A   1      46.704  29.684  27.508  1.00  0.00     0.031 C 
ATOM     57  C   UNL A   1      42.415  32.614  30.657  1.00  0.00     0.029 A 
ATOM     58  C   UNL A   1      43.091  31.648  29.929  1.00  0.00     0.049 A 
ATOM     59  H   UNL A   1      42.396  29.782  29.234  1.00  0.00     0.167 HD
ATOM     60  C   UNL A   1      45.049  30.689  28.740  1.00  0.00     0.074 A 
ATOM     61  C   UNL A   1      46.400  30.762  28.218  1.00  0.00     0.031 C 
ATOM     62  C   UNL A   1      44.446  31.682  29.439  1.00  0.00     0.034 A 
BRANCH  49  63
ATOM     63  C   UNL A   1      38.543  30.568  30.904  1.00  0.00     0.023 A 
ATOM     64  C   UNL A   1      38.328  30.406  32.287  1.00  0.00     0.012 A 
ATOM     65  C   UNL A   1      37.586  31.256  30.131  1.00  0.00     0.148 A 
ATOM     66  C   UNL A   1      37.167  30.896  32.886  1.00  0.00     0.002 A 
ATOM     67  C   UNL A   1      36.449  31.773  30.743  1.00  0.00     0.091 A 
ATOM     68  F   UNL A   1      37.793  31.376  28.813  1.00  0.00    -0.205 F 
ATOM     69  C   UNL A   1      36.235  31.588  32.118  1.00  0.00     0.022 A 
BRANCH  67  70
ATOM     70  S   UNL A   1      35.228  32.737  29.843  1.00  0.00     0.127 S 
ATOM     71  O   UNL A   1      34.747  31.764  28.863  1.00  0.00    -0.237 OA
ATOM     72  O   UNL A   1      34.263  33.074  30.890  1.00  0.00    -0.237 OA
ATOM     73  O   UNL A   1      35.948  33.879  29.297  1.00  0.00    -0.744 OA
ENDBRANCH  67  70
ENDBRANCH  49  63
BRANCH  50  74
ATOM     74  C   UNL A   1      46.664  27.008  26.262  1.00  0.00     0.023 A 
ATOM     75  C   UNL A   1      46.695  27.198  24.868  1.00  0.00     0.012 A 
ATOM     76  C   UNL A   1      47.777  26.431  26.904  1.00  0.00     0.148 A 
ATOM     77  C   UNL A   1      47.810  26.811  24.125  1.00  0.00     0.002 A 
ATOM     78  C   UNL A   1      48.908  26.102  26.166  1.00  0.00     0.091 A 
ATOM     79  F   UNL A   1      47.720  26.243  28.230  1.00  0.00    -0.205 F 
ATOM     80  C   UNL A   1      48.922  26.280  24.775  1.00  0.00     0.022 A 
BRANCH  78  81
ATOM     81  S   UNL A   1      50.433  25.556  26.945  1.00  0.00     0.127 S 
ATOM     82  O   UNL A   1      50.010  24.319  27.597  1.00  0.00    -0.237 OA
ATOM     83  O   UNL A   1      51.317  25.373  25.792  1.00  0.00    -0.237 OA
ATOM     84  O   UNL A   1      50.828  26.641  27.833  1.00  0.00    -0.744 OA
ENDBRANCH  78  81
ENDBRANCH  50  74
BRANCH  62  85
ATOM     85  C   UNL A   1      45.247  32.929  29.695  1.00  0.00     0.023 A 
ATOM     86  C   UNL A   1      46.060  33.008  30.842  1.00  0.00     0.012 A 
ATOM     87  C   UNL A   1      45.248  33.989  28.769  1.00  0.00     0.148 A 
ATOM     88  C   UNL A   1      46.843  34.136  31.078  1.00  0.00     0.002 A 
ATOM     89  C   UNL A   1      46.064  35.092  28.989  1.00  0.00     0.091 A 
ATOM     90  F   UNL A   1      44.449  33.903  27.696  1.00  0.00    -0.205 F 
ATOM     91  C   UNL A   1      46.854  35.173  30.146  1.00  0.00     0.022 A 
BRANCH  89  92
ATOM     92  S   UNL A   1      46.204  36.429  27.797  1.00  0.00     0.127 S 
ATOM     93  O   UNL A   1      44.844  36.966  27.788  1.00  0.00    -0.237 OA
ATOM     94  O   UNL A   1      47.200  37.301  28.418  1.00  0.00    -0.237 OA
ATOM     95  O   UNL A   1      46.643  35.809  26.554  1.00  0.00    -0.744 OA
ENDBRANCH  89  92
ENDBRANCH  62  85
ENDBRANCH  36  37
ENDBRANCH  29  31
ENDBRANCH  28  29
ENDBRANCH  27  28
ENDBRANCH   1  27
TORSDOF 18
ENDMDL
MODEL 3
REMARK VINA RESULT:     -11.6      1.318      2.140
REMARK SMILES COc1cccc(Cn2c(=O)c(=O)n(CC(=O)OCCOC(=O)c3ccc(-c4c5nc(c(-c6cccc(S(=O)(=O)[O-])c6F)c6ccc([nH]6)c(-c6cccc(S(=O)(=O)[O-])c6F)c6nc(c(-c7cccc(S(=O)(=O)[O-])c7F)c7ccc4[nH]7)C=C6)C=C5)cc3)c3ccccc32)c1
REMARK SMILES IDX 19 1 18 2 16 3 17 4 15 5 14 6 9 7 10 8 92 9 11 10 12 11
REMARK SMILES IDX 87 12 91 13 13 14 88 15 90 16 89 17 8 18 7 19 3 20 4 21
REMARK SMILES IDX 93 22 5 23 6 24 2 25 1 26 20 27 21 28 22 29 23 30 24 31
REMARK SMILES IDX 25 32 86 33 26 34 85 35 27 36 28 37 29 38 79 39 30 40 84 41
REMARK SMILES IDX 78 42 80 43 31 44 83 45 77 46 76 47 32 49 64 50 44 51 63 52
REMARK SMILES IDX 45 53 48 54 62 55 81 56 46 57 47 58 61 60 82 61 49 62 33 63
REMARK SMILES IDX 34 64 42 65 35 66 37 67 43 68 36 69 38 70 39 71 40 72 41 73
REMARK SMILES IDX 65 74 66 75 74 76 67 77 69 78 75 79 68 80 70 81 71 82 72 83
REMARK SMILES IDX 73 84 50 85 51 86 59 87 52 88 54 89 60 90 53 91 55 92 56 93
REMARK SMILES IDX 57 94 58 95
REMARK H PARENT 80 48 48 59
REMARK Flexibility Score: inf
ROOT
ATOM      1  C   UNL A   1      31.940  28.400  25.517  1.00  0.00     0.274 C 
ENDROOT
BRANCH   1   2
ATOM      2  O   UNL A   1      32.790  27.578  24.707  1.00  0.00    -0.461 OA
BRANCH   2   3
ATOM      3  C   UNL A   1      32.768  27.920  23.392  1.00  0.00     0.326 C 
ATOM      4  O   UNL A   1      33.760  28.095  22.690  1.00  0.00    -0.250 OA
BRANCH   3   5
ATOM      5  C   UNL A   1      31.391  27.709  22.798  1.00  0.00     0.248 C 
BRANCH   5   6
ATOM      6  N   UNL A   1      30.935  26.358  22.612  1.00  0.00    -0.291 N 
ATOM      7  N   UNL A   1      32.212  23.883  22.932  1.00  0.00    -0.298 N 
ATOM      8  C   UNL A   1      32.752  24.886  22.150  1.00  0.00     0.317 A 
ATOM      9  C   UNL A   1      31.279  24.296  23.925  1.00  0.00     0.068 A 
ATOM     10  O   UNL A   1      33.935  25.091  21.922  1.00  0.00    -0.263 OA
ATOM     11  C   UNL A   1      31.667  25.785  21.587  1.00  0.00     0.317 A 
ATOM     12  C   UNL A   1      30.685  25.581  23.791  1.00  0.00     0.069 A 
ATOM     13  C   UNL A   1      31.082  23.576  25.107  1.00  0.00     0.028 A 
ATOM     14  O   UNL A   1      31.624  26.096  20.406  1.00  0.00    -0.263 OA
ATOM     15  C   UNL A   1      29.860  26.085  24.805  1.00  0.00     0.028 A 
ATOM     16  C   UNL A   1      30.311  24.127  26.142  1.00  0.00     0.002 A 
ATOM     17  C   UNL A   1      29.690  25.366  25.985  1.00  0.00     0.002 A 
BRANCH   7  18
ATOM     18  C   UNL A   1      32.608  22.520  22.617  1.00  0.00     0.162 C 
BRANCH  18  19
ATOM     19  C   UNL A   1      33.461  22.000  23.791  1.00  0.00    -0.024 A 
ATOM     20  C   UNL A   1      35.733  21.975  24.694  1.00  0.00     0.119 A 
ATOM     21  C   UNL A   1      35.529  20.658  25.108  1.00  0.00     0.046 A 
ATOM     22  C   UNL A   1      34.670  22.670  24.113  1.00  0.00     0.052 A 
ATOM     23  C   UNL A   1      34.292  20.034  24.936  1.00  0.00     0.004 A 
ATOM     24  C   UNL A   1      33.265  20.693  24.260  1.00  0.00     0.006 A 
BRANCH  20  25
ATOM     25  O   UNL A   1      37.026  22.399  24.814  1.00  0.00    -0.497 OA
ATOM     26  C   UNL A   1      37.286  23.730  25.235  1.00  0.00     0.278 C 
ENDBRANCH  20  25
ENDBRANCH  18  19
ENDBRANCH   7  18
ENDBRANCH   5   6
ENDBRANCH   3   5
ENDBRANCH   2   3
ENDBRANCH   1   2
BRANCH   1  27
ATOM     27  C   UNL A   1      32.559  29.799  25.624  1.00  0.00     0.275 C 
BRANCH  27  28
ATOM     28  O   UNL A   1      32.351  30.382  26.934  1.00  0.00    -0.458 OA
BRANCH  28  29
ATOM     29  C   UNL A   1      33.019  31.530  27.196  1.00  0.00     0.338 C 
ATOM     30  O   UNL A   1      32.581  32.668  27.106  1.00  0.00    -0.246 OA
BRANCH  29  31
ATOM     31  C   UNL A   1      34.379  31.265  27.700  1.00  0.00     0.060 A 
ATOM     32  C   UNL A   1      34.736  29.989  28.148  1.00  0.00     0.016 A 
ATOM     33  C   UNL A   1      35.249  32.333  27.896  1.00  0.00     0.016 A 
ATOM     34  C   UNL A   1      35.917  29.786  28.853  1.00  0.00     0.010 A 
ATOM     35  C   UNL A   1      36.480  32.110  28.520  1.00  0.00     0.010 A 
ATOM     36  C   UNL A   1      36.817  30.839  29.021  1.00  0.00    -0.014 A 
BRANCH  36  37
ATOM     37  C   UNL A   1      38.134  30.613  29.665  1.00  0.00     0.031 A 
ATOM     38  C   UNL A   1      39.134  29.688  29.035  1.00  0.00     0.074 A 
ATOM     39  C   UNL A   1      38.383  31.173  30.865  1.00  0.00     0.049 A 
ATOM     40  N   UNL A   1      40.218  29.173  29.551  1.00  0.00    -0.248 NA
ATOM     41  C   UNL A   1      38.870  29.272  27.648  1.00  0.00     0.031 C 
ATOM     42  C   UNL A   1      37.488  32.093  31.570  1.00  0.00     0.029 A 
ATOM     43  N   UNL A   1      39.440  31.013  31.725  1.00  0.00    -0.354 N 
ATOM     44  C   UNL A   1      40.727  28.314  28.584  1.00  0.00     0.074 A 
ATOM     45  C   UNL A   1      39.843  28.395  27.439  1.00  0.00     0.031 C 
ATOM     46  C   UNL A   1      38.014  32.390  32.766  1.00  0.00     0.029 A 
ATOM     47  C   UNL A   1      39.245  31.631  32.940  1.00  0.00     0.049 A 
ATOM     48  H   UNL A   1      40.254  30.509  31.498  1.00  0.00     0.167 HD
ATOM     49  C   UNL A   1      41.828  27.530  28.651  1.00  0.00     0.034 A 
ATOM     50  C   UNL A   1      39.942  31.548  34.088  1.00  0.00     0.034 A 
ATOM     51  C   UNL A   1      42.728  27.505  29.774  1.00  0.00     0.049 A 
ATOM     52  C   UNL A   1      41.169  30.687  34.131  1.00  0.00     0.074 A 
ATOM     53  C   UNL A   1      43.912  26.803  29.914  1.00  0.00     0.029 A 
ATOM     54  N   UNL A   1      42.542  28.212  30.953  1.00  0.00    -0.354 N 
ATOM     55  N   UNL A   1      41.686  29.946  33.180  1.00  0.00    -0.248 NA
ATOM     56  C   UNL A   1      41.921  30.664  35.392  1.00  0.00     0.031 C 
ATOM     57  C   UNL A   1      44.434  27.075  31.184  1.00  0.00     0.029 A 
ATOM     58  C   UNL A   1      43.583  27.958  31.829  1.00  0.00     0.049 A 
ATOM     59  H   UNL A   1      41.780  28.808  31.139  1.00  0.00     0.167 HD
ATOM     60  C   UNL A   1      42.834  29.382  33.721  1.00  0.00     0.074 A 
ATOM     61  C   UNL A   1      42.950  29.889  35.074  1.00  0.00     0.031 C 
ATOM     62  C   UNL A   1      43.703  28.508  33.155  1.00  0.00     0.034 A 
BRANCH  49  63
ATOM     63  C   UNL A   1      42.137  26.648  27.471  1.00  0.00     0.023 A 
ATOM     64  C   UNL A   1      42.794  27.186  26.346  1.00  0.00     0.012 A 
ATOM     65  C   UNL A   1      41.829  25.273  27.499  1.00  0.00     0.148 A 
ATOM     66  C   UNL A   1      43.114  26.375  25.257  1.00  0.00     0.002 A 
ATOM     67  C   UNL A   1      42.185  24.465  26.425  1.00  0.00     0.091 A 
ATOM     68  F   UNL A   1      41.179  24.783  28.564  1.00  0.00    -0.205 F 
ATOM     69  C   UNL A   1      42.821  25.015  25.301  1.00  0.00     0.022 A 
BRANCH  67  70
ATOM     70  S   UNL A   1      41.906  22.689  26.424  1.00  0.00     0.127 S 
ATOM     71  O   UNL A   1      42.533  22.291  27.684  1.00  0.00    -0.237 OA
ATOM     72  O   UNL A   1      40.446  22.602  26.417  1.00  0.00    -0.237 OA
ATOM     73  O   UNL A   1      42.546  22.188  25.216  1.00  0.00    -0.744 OA
ENDBRANCH  67  70
ENDBRANCH  49  63
BRANCH  50  74
ATOM     74  C   UNL A   1      39.481  32.321  35.276  1.00  0.00     0.023 A 
ATOM     75  C   UNL A   1      38.708  31.676  36.259  1.00  0.00     0.012 A 
ATOM     76  C   UNL A   1      39.881  33.656  35.481  1.00  0.00     0.148 A 
ATOM     77  C   UNL A   1      38.332  32.351  37.421  1.00  0.00     0.002 A 
ATOM     78  C   UNL A   1      39.553  34.304  36.666  1.00  0.00     0.091 A 
ATOM     79  F   UNL A   1      40.603  34.257  34.524  1.00  0.00    -0.205 F 
ATOM     80  C   UNL A   1      38.768  33.658  37.632  1.00  0.00     0.022 A 
BRANCH  78  81
ATOM     81  S   UNL A   1      40.201  35.928  37.080  1.00  0.00     0.127 S 
ATOM     82  O   UNL A   1      39.734  36.733  35.954  1.00  0.00    -0.237 OA
ATOM     83  O   UNL A   1      39.536  36.208  38.354  1.00  0.00    -0.237 OA
ATOM     84  O   UNL A   1      41.644  35.757  37.185  1.00  0.00    -0.744 OA
ENDBRANCH  78  81
ENDBRANCH  50  74
BRANCH  62  85
ATOM     85  C   UNL A   1      44.867  28.055  33.994  1.00  0.00     0.023 A 
ATOM     86  C   UNL A   1      46.052  28.815  34.004  1.00  0.00     0.012 A 
ATOM     87  C   UNL A   1      44.763  26.921  34.820  1.00  0.00     0.148 A 
ATOM     88  C   UNL A   1      47.128  28.438  34.804  1.00  0.00     0.002 A 
ATOM     89  C   UNL A   1      45.824  26.575  35.648  1.00  0.00     0.091 A 
ATOM     90  F   UNL A   1      43.634  26.198  34.778  1.00  0.00    -0.205 F 
ATOM     91  C   UNL A   1      47.010  27.325  35.635  1.00  0.00     0.022 A 
BRANCH  89  92
ATOM     92  S   UNL A   1      45.721  25.210  36.812  1.00  0.00     0.127 S 
ATOM     93  O   UNL A   1      45.589  24.062  35.916  1.00  0.00    -0.237 OA
ATOM     94  O   UNL A   1      47.004  25.295  37.510  1.00  0.00    -0.237 OA
ATOM     95  O   UNL A   1      44.563  25.489  37.651  1.00  0.00    -0.744 OA
ENDBRANCH  89  92
ENDBRANCH  62  85
ENDBRANCH  36  37
ENDBRANCH  29  31
ENDBRANCH  28  29
ENDBRANCH  27  28
ENDBRANCH   1  27
TORSDOF 18
ENDMDL
