MODEL 1
REMARK VINA RESULT:     -11.4      0.000      0.000
REMARK SMILES Cc1nc(C[N@@H+]2CCC[C@H]2C(=O)OCCOC(=O)c2ccc(-c3c4nc(c(-c5cccc(S(=O)(=O)[O-])c5F)c5ccc([nH]5)c(-c5cccc(S(=O)(=O)[O-])c5F)c5nc(c(-c6cccc(S(=O)(=O)[O-])c6F)c6ccc3[nH]6)C=C5)C=C4)cc2)cs1
REMARK SMILES IDX 15 1 14 2 13 3 11 4 12 5 10 6 6 7 7 8 8 10 9 11 5 12 4 13
REMARK SMILES IDX 1 14 2 15 3 16 83 17 82 18 16 19 17 20 18 21 19 22 20 23
REMARK SMILES IDX 81 24 21 25 80 26 22 27 23 28 24 29 74 30 25 31 79 32 73 33
REMARK SMILES IDX 75 34 26 35 78 36 72 37 71 38 27 40 59 41 39 42 58 43 40 44
REMARK SMILES IDX 43 45 57 46 76 47 41 48 42 49 56 51 77 52 44 53 28 54 29 55
REMARK SMILES IDX 37 56 30 57 32 58 38 59 31 60 33 61 34 62 35 63 36 64 60 65
REMARK SMILES IDX 61 66 69 67 62 68 64 69 70 70 63 71 65 72 66 73 67 74 68 75
REMARK SMILES IDX 45 76 46 77 54 78 47 79 49 80 55 81 48 82 50 83 51 84 52 85
REMARK SMILES IDX 53 86
REMARK H PARENT 6 9 75 39 43 50
REMARK Flexibility Score: inf
ROOT
ATOM      1  C   UNL A   1      36.888  21.306  24.671  1.00  0.00     0.275 C 
ENDROOT
BRANCH   1   2
ATOM      2  C   UNL A   1      36.529  22.509  23.802  1.00  0.00     0.274 C 
BRANCH   2   3
ATOM      3  O   UNL A   1      35.097  22.641  23.762  1.00  0.00    -0.458 OA
BRANCH   3   4
ATOM      4  C   UNL A   1      34.522  23.322  24.797  1.00  0.00     0.365 C 
ATOM      5  O   UNL A   1      34.941  24.375  25.262  1.00  0.00    -0.245 OA
BRANCH   4   6
ATOM      6  C   UNL A   1      33.248  22.596  25.264  1.00  0.00     0.295 C 
ATOM      7  N   UNL A   1      33.579  21.219  25.673  1.00  0.00    -0.318 N 
ATOM      8  C   UNL A   1      33.878  21.272  27.101  1.00  0.00     0.263 C 
ATOM      9  H   UNL A   1      34.404  20.869  25.186  1.00  0.00     0.349 HD
ATOM     10  C   UNL A   1      33.116  22.451  27.685  1.00  0.00     0.068 C 
ATOM     11  C   UNL A   1      32.645  23.272  26.496  1.00  0.00     0.083 C 
BRANCH   7  12
ATOM     12  C   UNL A   1      32.574  20.231  25.256  1.00  0.00     0.321 C 
BRANCH  12  13
ATOM     13  C   UNL A   1      33.066  18.818  25.097  1.00  0.00     0.106 A 
ATOM     14  C   UNL A   1      32.324  15.292  25.756  1.00  0.00     0.079 C 
ATOM     15  C   UNL A   1      32.877  16.617  25.358  1.00  0.00     0.090 A 
ATOM     16  N   UNL A   1      32.320  17.777  25.641  1.00  0.00    -0.241 NA
ATOM     17  S   UNL A   1      34.337  16.703  24.459  1.00  0.00    -0.127 S 
ATOM     18  C   UNL A   1      34.189  18.406  24.402  1.00  0.00     0.096 A 
ENDBRANCH  12  13
ENDBRANCH   7  12
ENDBRANCH   4   6
ENDBRANCH   3   4
ENDBRANCH   2   3
ENDBRANCH   1   2
BRANCH   1  19
ATOM     19  O   UNL A   1      37.461  21.762  25.912  1.00  0.00    -0.458 OA
BRANCH  19  20
ATOM     20  C   UNL A   1      38.779  21.504  26.083  1.00  0.00     0.338 C 
ATOM     21  O   UNL A   1      39.372  20.463  25.869  1.00  0.00    -0.246 OA
BRANCH  20  22
ATOM     22  C   UNL A   1      39.438  22.736  26.537  1.00  0.00     0.060 A 
ATOM     23  C   UNL A   1      40.475  22.642  27.465  1.00  0.00     0.016 A 
ATOM     24  C   UNL A   1      39.000  23.980  26.092  1.00  0.00     0.016 A 
ATOM     25  C   UNL A   1      41.076  23.793  27.969  1.00  0.00     0.010 A 
ATOM     26  C   UNL A   1      39.637  25.134  26.557  1.00  0.00     0.010 A 
ATOM     27  C   UNL A   1      40.677  25.050  27.502  1.00  0.00    -0.014 A 
BRANCH  27  28
ATOM     28  C   UNL A   1      41.363  26.277  27.977  1.00  0.00     0.031 A 
ATOM     29  C   UNL A   1      40.604  27.321  28.744  1.00  0.00     0.074 A 
ATOM     30  C   UNL A   1      42.663  26.467  27.676  1.00  0.00     0.049 A 
ATOM     31  N   UNL A   1      40.990  28.514  29.110  1.00  0.00    -0.248 NA
ATOM     32  C   UNL A   1      39.231  26.980  29.151  1.00  0.00     0.031 C 
ATOM     33  C   UNL A   1      43.511  25.516  26.954  1.00  0.00     0.029 A 
ATOM     34  N   UNL A   1      43.492  27.534  27.918  1.00  0.00    -0.354 N 
ATOM     35  C   UNL A   1      39.894  29.091  29.738  1.00  0.00     0.074 A 
ATOM     36  C   UNL A   1      38.830  28.109  29.719  1.00  0.00     0.031 C 
ATOM     37  C   UNL A   1      44.734  26.045  26.801  1.00  0.00     0.029 A 
ATOM     38  C   UNL A   1      44.741  27.393  27.358  1.00  0.00     0.049 A 
ATOM     39  H   UNL A   1      43.220  28.323  28.441  1.00  0.00     0.167 HD
ATOM     40  C   UNL A   1      39.788  30.324  30.286  1.00  0.00     0.034 A 
ATOM     41  C   UNL A   1      45.761  28.268  27.260  1.00  0.00     0.034 A 
ATOM     42  C   UNL A   1      40.866  31.275  30.350  1.00  0.00     0.049 A 
ATOM     43  C   UNL A   1      45.598  29.646  27.838  1.00  0.00     0.074 A 
ATOM     44  C   UNL A   1      40.880  32.519  30.956  1.00  0.00     0.029 A 
ATOM     45  N   UNL A   1      42.116  31.095  29.778  1.00  0.00    -0.354 N 
ATOM     46  N   UNL A   1      44.593  30.142  28.518  1.00  0.00    -0.248 NA
ATOM     47  C   UNL A   1      46.711  30.586  27.638  1.00  0.00     0.031 C 
ATOM     48  C   UNL A   1      42.133  33.100  30.732  1.00  0.00     0.029 A 
ATOM     49  C   UNL A   1      42.902  32.214  29.994  1.00  0.00     0.049 A 
ATOM     50  H   UNL A   1      42.403  30.289  29.290  1.00  0.00     0.167 HD
ATOM     51  C   UNL A   1      44.953  31.445  28.836  1.00  0.00     0.074 A 
ATOM     52  C   UNL A   1      46.284  31.652  28.302  1.00  0.00     0.031 C 
ATOM     53  C   UNL A   1      44.239  32.392  29.490  1.00  0.00     0.034 A 
BRANCH  40  54
ATOM     54  C   UNL A   1      38.468  30.716  30.889  1.00  0.00     0.023 A 
ATOM     55  C   UNL A   1      38.221  30.459  32.251  1.00  0.00     0.012 A 
ATOM     56  C   UNL A   1      37.503  31.402  30.125  1.00  0.00     0.148 A 
ATOM     57  C   UNL A   1      37.024  30.864  32.842  1.00  0.00     0.002 A 
ATOM     58  C   UNL A   1      36.327  31.831  30.728  1.00  0.00     0.091 A 
ATOM     59  F   UNL A   1      37.750  31.612  28.824  1.00  0.00    -0.205 F 
ATOM     60  C   UNL A   1      36.084  31.558  32.085  1.00  0.00     0.022 A 
BRANCH  58  61
ATOM     61  S   UNL A   1      35.085  32.787  29.850  1.00  0.00     0.127 S 
ATOM     62  O   UNL A   1      34.578  31.803  28.895  1.00  0.00    -0.237 OA
ATOM     63  O   UNL A   1      34.149  33.136  30.919  1.00  0.00    -0.237 OA
ATOM     64  O   UNL A   1      35.790  33.920  29.268  1.00  0.00    -0.744 OA
ENDBRANCH  58  61
ENDBRANCH  40  54
BRANCH  41  65
ATOM     65  C   UNL A   1      47.028  27.862  26.588  1.00  0.00     0.023 A 
ATOM     66  C   UNL A   1      48.074  27.324  27.362  1.00  0.00     0.012 A 
ATOM     67  C   UNL A   1      47.190  27.970  25.194  1.00  0.00     0.148 A 
ATOM     68  C   UNL A   1      49.264  26.914  26.758  1.00  0.00     0.002 A 
ATOM     69  C   UNL A   1      48.355  27.509  24.593  1.00  0.00     0.091 A 
ATOM     70  F   UNL A   1      46.196  28.515  24.477  1.00  0.00    -0.205 F 
ATOM     71  C   UNL A   1      49.400  26.993  25.374  1.00  0.00     0.022 A 
BRANCH  69  72
ATOM     72  S   UNL A   1      48.545  27.451  22.807  1.00  0.00     0.127 S 
ATOM     73  O   UNL A   1      49.864  28.052  22.626  1.00  0.00    -0.237 OA
ATOM     74  O   UNL A   1      48.479  26.015  22.535  1.00  0.00    -0.237 OA
ATOM     75  O   UNL A   1      47.419  28.210  22.277  1.00  0.00    -0.744 OA
ENDBRANCH  69  72
ENDBRANCH  41  65
BRANCH  53  76
ATOM     76  C   UNL A   1      44.872  33.746  29.661  1.00  0.00     0.023 A 
ATOM     77  C   UNL A   1      45.647  34.002  30.809  1.00  0.00     0.012 A 
ATOM     78  C   UNL A   1      44.767  34.732  28.660  1.00  0.00     0.148 A 
ATOM     79  C   UNL A   1      46.292  35.227  30.970  1.00  0.00     0.002 A 
ATOM     80  C   UNL A   1      45.447  35.934  28.808  1.00  0.00     0.091 A 
ATOM     81  F   UNL A   1      44.009  34.472  27.585  1.00  0.00    -0.205 F 
ATOM     82  C   UNL A   1      46.202  36.188  29.964  1.00  0.00     0.022 A 
BRANCH  80  83
ATOM     83  S   UNL A   1      45.459  37.196  27.528  1.00  0.00     0.127 S 
ATOM     84  O   UNL A   1      46.022  36.466  26.394  1.00  0.00    -0.237 OA
ATOM     85  O   UNL A   1      44.038  37.522  27.398  1.00  0.00    -0.237 OA
ATOM     86  O   UNL A   1      46.282  38.281  28.044  1.00  0.00    -0.744 OA
ENDBRANCH  80  83
ENDBRANCH  53  76
ENDBRANCH  27  28
ENDBRANCH  20  22
ENDBRANCH  19  20
ENDBRANCH   1  19
TORSDOF 16
ENDMDL
MODEL 2
REMARK VINA RESULT:     -10.9      1.074      7.891
REMARK SMILES Cc1nc(C[N@@H+]2CCC[C@H]2C(=O)OCCOC(=O)c2ccc(-c3c4nc(c(-c5cccc(S(=O)(=O)[O-])c5F)c5ccc([nH]5)c(-c5cccc(S(=O)(=O)[O-])c5F)c5nc(c(-c6cccc(S(=O)(=O)[O-])c6F)c6ccc3[nH]6)C=C5)C=C4)cc2)cs1
REMARK SMILES IDX 15 1 14 2 13 3 11 4 12 5 10 6 6 7 7 8 8 10 9 11 5 12 4 13
REMARK SMILES IDX 1 14 2 15 3 16 83 17 82 18 16 19 17 20 18 21 19 22 20 23
REMARK SMILES IDX 81 24 21 25 80 26 22 27 23 28 24 29 74 30 25 31 79 32 73 33
REMARK SMILES IDX 75 34 26 35 78 36 72 37 71 38 27 40 59 41 39 42 58 43 40 44
REMARK SMILES IDX 43 45 57 46 76 47 41 48 42 49 56 51 77 52 44 53 28 54 29 55
REMARK SMILES IDX 37 56 30 57 32 58 38 59 31 60 33 61 34 62 35 63 36 64 60 65
REMARK SMILES IDX 61 66 69 67 62 68 64 69 70 70 63 71 65 72 66 73 67 74 68 75
REMARK SMILES IDX 45 76 46 77 54 78 47 79 49 80 55 81 48 82 50 83 51 84 52 85
REMARK SMILES IDX 53 86
REMARK H PARENT 6 9 75 39 43 50
REMARK Flexibility Score: inf
ROOT
ATOM      1  C   UNL A   1      38.907  19.207  25.746  1.00  0.00     0.275 C 
ENDROOT
BRANCH   1   2
ATOM      2  C   UNL A   1      38.054  19.886  24.677  1.00  0.00     0.274 C 
BRANCH   2   3
ATOM      3  O   UNL A   1      36.780  20.230  25.248  1.00  0.00    -0.458 OA
BRANCH   3   4
ATOM      4  C   UNL A   1      36.407  21.541  25.152  1.00  0.00     0.365 C 
ATOM      5  O   UNL A   1      37.182  22.489  25.129  1.00  0.00    -0.245 OA
BRANCH   4   6
ATOM      6  C   UNL A   1      34.877  21.648  25.035  1.00  0.00     0.295 C 
ATOM      7  N   UNL A   1      34.236  20.714  25.978  1.00  0.00    -0.318 N 
ATOM      8  C   UNL A   1      34.031  21.455  27.220  1.00  0.00     0.263 C 
ATOM      9  H   UNL A   1      34.834  19.913  26.179  1.00  0.00     0.349 HD
ATOM     10  C   UNL A   1      33.909  22.927  26.860  1.00  0.00     0.068 C 
ATOM     11  C   UNL A   1      34.388  23.045  25.422  1.00  0.00     0.083 C 
BRANCH   7  12
ATOM     12  C   UNL A   1      33.055  20.043  25.419  1.00  0.00     0.321 C 
BRANCH  12  13
ATOM     13  C   UNL A   1      33.233  18.595  25.050  1.00  0.00     0.106 A 
ATOM     14  C   UNL A   1      32.152  15.165  25.752  1.00  0.00     0.079 C 
ATOM     15  C   UNL A   1      32.769  16.429  25.259  1.00  0.00     0.090 A 
ATOM     16  N   UNL A   1      32.526  17.625  25.755  1.00  0.00    -0.241 NA
ATOM     17  S   UNL A   1      33.878  16.389  23.949  1.00  0.00    -0.127 S 
ATOM     18  C   UNL A   1      34.005  18.094  24.018  1.00  0.00     0.096 A 
ENDBRANCH  12  13
ENDBRANCH   7  12
ENDBRANCH   4   6
ENDBRANCH   3   4
ENDBRANCH   2   3
ENDBRANCH   1   2
BRANCH   1  19
ATOM     19  O   UNL A   1      40.177  19.879  25.847  1.00  0.00    -0.458 OA
BRANCH  19  20
ATOM     20  C   UNL A   1      40.636  20.086  27.104  1.00  0.00     0.338 C 
ATOM     21  O   UNL A   1      40.779  19.267  27.993  1.00  0.00    -0.246 OA
BRANCH  20  22
ATOM     22  C   UNL A   1      41.009  21.501  27.236  1.00  0.00     0.060 A 
ATOM     23  C   UNL A   1      40.502  22.419  26.316  1.00  0.00     0.016 A 
ATOM     24  C   UNL A   1      41.896  21.911  28.227  1.00  0.00     0.016 A 
ATOM     25  C   UNL A   1      40.887  23.756  26.369  1.00  0.00     0.010 A 
ATOM     26  C   UNL A   1      42.244  23.263  28.314  1.00  0.00     0.010 A 
ATOM     27  C   UNL A   1      41.746  24.194  27.384  1.00  0.00    -0.014 A 
BRANCH  27  28
ATOM     28  C   UNL A   1      42.102  25.630  27.494  1.00  0.00     0.031 A 
ATOM     29  C   UNL A   1      43.409  26.130  26.951  1.00  0.00     0.074 A 
ATOM     30  C   UNL A   1      41.262  26.475  28.124  1.00  0.00     0.049 A 
ATOM     31  N   UNL A   1      43.956  27.310  27.082  1.00  0.00    -0.248 NA
ATOM     32  C   UNL A   1      44.207  25.180  26.158  1.00  0.00     0.031 C 
ATOM     33  C   UNL A   1      39.955  26.111  28.675  1.00  0.00     0.029 A 
ATOM     34  N   UNL A   1      41.392  27.807  28.429  1.00  0.00    -0.354 N 
ATOM     35  C   UNL A   1      45.187  27.231  26.442  1.00  0.00     0.074 A 
ATOM     36  C   UNL A   1      45.299  25.890  25.906  1.00  0.00     0.031 C 
ATOM     37  C   UNL A   1      39.409  27.188  29.260  1.00  0.00     0.029 A 
ATOM     38  C   UNL A   1      40.349  28.300  29.180  1.00  0.00     0.049 A 
ATOM     39  H   UNL A   1      42.155  28.357  28.139  1.00  0.00     0.167 HD
ATOM     40  C   UNL A   1      46.131  28.191  26.308  1.00  0.00     0.034 A 
ATOM     41  C   UNL A   1      40.189  29.496  29.780  1.00  0.00     0.034 A 
ATOM     42  C   UNL A   1      45.990  29.537  26.796  1.00  0.00     0.049 A 
ATOM     43  C   UNL A   1      41.276  30.527  29.651  1.00  0.00     0.074 A 
ATOM     44  C   UNL A   1      46.858  30.603  26.638  1.00  0.00     0.029 A 
ATOM     45  N   UNL A   1      44.920  29.999  27.545  1.00  0.00    -0.354 N 
ATOM     46  N   UNL A   1      42.387  30.472  28.958  1.00  0.00    -0.248 NA
ATOM     47  C   UNL A   1      41.087  31.786  30.386  1.00  0.00     0.031 C 
ATOM     48  C   UNL A   1      46.320  31.706  27.312  1.00  0.00     0.029 A 
ATOM     49  C   UNL A   1      45.115  31.328  27.881  1.00  0.00     0.049 A 
ATOM     50  H   UNL A   1      44.135  29.461  27.801  1.00  0.00     0.167 HD
ATOM     51  C   UNL A   1      43.025  31.688  29.163  1.00  0.00     0.074 A 
ATOM     52  C   UNL A   1      42.160  32.474  30.020  1.00  0.00     0.031 C 
ATOM     53  C   UNL A   1      44.227  32.109  28.703  1.00  0.00     0.034 A 
BRANCH  40  54
ATOM     54  C   UNL A   1      47.398  27.835  25.582  1.00  0.00     0.023 A 
ATOM     55  C   UNL A   1      48.525  27.411  26.313  1.00  0.00     0.012 A 
ATOM     56  C   UNL A   1      47.451  27.853  24.174  1.00  0.00     0.148 A 
ATOM     57  C   UNL A   1      49.692  27.025  25.655  1.00  0.00     0.002 A 
ATOM     58  C   UNL A   1      48.606  27.436  23.524  1.00  0.00     0.091 A 
ATOM     59  F   UNL A   1      46.376  28.285  23.500  1.00  0.00    -0.205 F 
ATOM     60  C   UNL A   1      49.729  27.027  24.263  1.00  0.00     0.022 A 
BRANCH  58  61
ATOM     61  S   UNL A   1      48.727  27.344  21.734  1.00  0.00     0.127 S 
ATOM     62  O   UNL A   1      47.569  28.135  21.320  1.00  0.00    -0.237 OA
ATOM     63  O   UNL A   1      50.021  27.977  21.476  1.00  0.00    -0.237 OA
ATOM     64  O   UNL A   1      48.669  25.927  21.402  1.00  0.00    -0.744 OA
ENDBRANCH  58  61
ENDBRANCH  40  54
BRANCH  41  65
ATOM     65  C   UNL A   1      38.947  29.781  30.553  1.00  0.00     0.023 A 
ATOM     66  C   UNL A   1      38.790  29.219  31.834  1.00  0.00     0.012 A 
ATOM     67  C   UNL A   1      37.944  30.628  30.045  1.00  0.00     0.148 A 
ATOM     68  C   UNL A   1      37.647  29.485  32.590  1.00  0.00     0.002 A 
ATOM     69  C   UNL A   1      36.834  30.934  30.826  1.00  0.00     0.091 A 
ATOM     70  F   UNL A   1      38.094  31.129  28.811  1.00  0.00    -0.205 F 
ATOM     71  C   UNL A   1      36.677  30.353  32.093  1.00  0.00     0.022 A 
BRANCH  69  72
ATOM     72  S   UNL A   1      35.615  32.148  30.310  1.00  0.00     0.127 S 
ATOM     73  O   UNL A   1      35.045  31.515  29.123  1.00  0.00    -0.237 OA
ATOM     74  O   UNL A   1      34.722  32.200  31.468  1.00  0.00    -0.237 OA
ATOM     75  O   UNL A   1      36.367  33.375  30.082  1.00  0.00    -0.744 OA
ENDBRANCH  69  72
ENDBRANCH  41  65
BRANCH  53  76
ATOM     76  C   UNL A   1      44.691  33.478  29.121  1.00  0.00     0.023 A 
ATOM     77  C   UNL A   1      45.420  33.621  30.317  1.00  0.00     0.012 A 
ATOM     78  C   UNL A   1      44.476  34.603  28.301  1.00  0.00     0.148 A 
ATOM     79  C   UNL A   1      45.911  34.868  30.703  1.00  0.00     0.002 A 
ATOM     80  C   UNL A   1      45.003  35.834  28.670  1.00  0.00     0.091 A 
ATOM     81  F   UNL A   1      43.762  34.446  27.175  1.00  0.00    -0.205 F 
ATOM     82  C   UNL A   1      45.714  35.970  29.874  1.00  0.00     0.022 A 
BRANCH  80  83
ATOM     83  S   UNL A   1      44.873  37.290  27.626  1.00  0.00     0.127 S 
ATOM     84  O   UNL A   1      45.676  36.900  26.468  1.00  0.00    -0.237 OA
ATOM     85  O   UNL A   1      43.433  37.364  27.372  1.00  0.00    -0.237 OA
ATOM     86  O   UNL A   1      45.404  38.395  28.412  1.00  0.00    -0.744 OA
ENDBRANCH  80  83
ENDBRANCH  53  76
ENDBRANCH  27  28
ENDBRANCH  20  22
ENDBRANCH  19  20
ENDBRANCH   1  19
TORSDOF 16
ENDMDL
MODEL 3
REMARK VINA RESULT:     -10.9      5.964     10.801
REMARK SMILES Cc1nc(C[N@@H+]2CCC[C@H]2C(=O)OCCOC(=O)c2ccc(-c3c4nc(c(-c5cccc(S(=O)(=O)[O-])c5F)c5ccc([nH]5)c(-c5cccc(S(=O)(=O)[O-])c5F)c5nc(c(-c6cccc(S(=O)(=O)[O-])c6F)c6ccc3[nH]6)C=C5)C=C4)cc2)cs1
REMARK SMILES IDX 15 1 14 2 13 3 11 4 12 5 10 6 6 7 7 8 8 10 9 11 5 12 4 13
REMARK SMILES IDX 1 14 2 15 3 16 83 17 82 18 16 19 17 20 18 21 19 22 20 23
REMARK SMILES IDX 81 24 21 25 80 26 22 27 23 28 24 29 74 30 25 31 79 32 73 33
REMARK SMILES IDX 75 34 26 35 78 36 72 37 71 38 27 40 59 41 39 42 58 43 40 44
REMARK SMILES IDX 43 45 57 46 76 47 41 48 42 49 56 51 77 52 44 53 28 54 29 55
REMARK SMILES IDX 37 56 30 57 32 58 38 59 31 60 33 61 34 62 35 63 36 64 60 65
REMARK SMILES IDX 61 66 69 67 62 68 64 69 70 70 63 71 65 72 66 73 67 74 68 75
REMARK SMILES IDX 45 76 46 77 54 78 47 79 49 80 55 81 48 82 50 83 51 84 52 85
REMARK SMILES IDX 53 86
REMARK H PARENT 6 9 75 39 43 50
REMARK Flexibility Score: inf
ROOT
ATOM      1  C   UNL A   1      31.820  30.141  26.951  1.00  0.00     0.275 C 
ENDROOT
BRANCH   1   2
ATOM      2  C   UNL A   1      31.753  28.661  27.322  1.00  0.00     0.274 C 
BRANCH   2   3
ATOM      3  O   UNL A   1      31.415  27.902  26.148  1.00  0.00    -0.458 OA
BRANCH   3   4
ATOM      4  C   UNL A   1      32.436  27.209  25.560  1.00  0.00     0.365 C 
ATOM      5  O   UNL A   1      33.583  27.158  25.985  1.00  0.00    -0.245 OA
BRANCH   4   6
ATOM      6  C   UNL A   1      31.921  26.470  24.313  1.00  0.00     0.295 C 
ATOM      7  N   UNL A   1      32.133  27.303  23.115  1.00  0.00    -0.318 N 
ATOM      8  C   UNL A   1      33.447  26.945  22.588  1.00  0.00     0.263 C 
ATOM      9  H   UNL A   1      32.140  28.297  23.344  1.00  0.00     0.349 HD
ATOM     10  C   UNL A   1      33.734  25.512  23.009  1.00  0.00     0.068 C 
ATOM     11  C   UNL A   1      32.703  25.176  24.074  1.00  0.00     0.083 C 
BRANCH   7  12
ATOM     12  C   UNL A   1      31.014  27.248  22.164  1.00  0.00     0.321 C 
BRANCH  12  13
ATOM     13  C   UNL A   1      29.917  28.255  22.379  1.00  0.00     0.106 A 
ATOM     14  C   UNL A   1      28.530  31.463  21.280  1.00  0.00     0.079 C 
ATOM     15  C   UNL A   1      28.860  30.158  21.920  1.00  0.00     0.090 A 
ATOM     16  N   UNL A   1      29.920  29.429  21.633  1.00  0.00    -0.241 NA
ATOM     17  S   UNL A   1      27.820  29.502  23.118  1.00  0.00    -0.127 S 
ATOM     18  C   UNL A   1      28.831  28.125  23.226  1.00  0.00     0.096 A 
ENDBRANCH  12  13
ENDBRANCH   7  12
ENDBRANCH   4   6
ENDBRANCH   3   4
ENDBRANCH   2   3
ENDBRANCH   1   2
BRANCH   1  19
ATOM     19  O   UNL A   1      33.184  30.504  26.664  1.00  0.00    -0.458 OA
BRANCH  19  20
ATOM     20  C   UNL A   1      33.650  31.599  27.309  1.00  0.00     0.338 C 
ATOM     21  O   UNL A   1      33.120  32.690  27.413  1.00  0.00    -0.246 OA
BRANCH  20  22
ATOM     22  C   UNL A   1      34.930  31.254  27.944  1.00  0.00     0.060 A 
ATOM     23  C   UNL A   1      35.081  29.988  28.510  1.00  0.00     0.016 A 
ATOM     24  C   UNL A   1      35.954  32.193  28.030  1.00  0.00     0.016 A 
ATOM     25  C   UNL A   1      36.254  29.652  29.179  1.00  0.00     0.010 A 
ATOM     26  C   UNL A   1      37.152  31.839  28.657  1.00  0.00     0.010 A 
ATOM     27  C   UNL A   1      37.310  30.567  29.240  1.00  0.00    -0.014 A 
BRANCH  27  28
ATOM     28  C   UNL A   1      38.592  30.190  29.886  1.00  0.00     0.031 A 
ATOM     29  C   UNL A   1      39.505  29.195  29.231  1.00  0.00     0.074 A 
ATOM     30  C   UNL A   1      38.909  30.715  31.086  1.00  0.00     0.049 A 
ATOM     31  N   UNL A   1      40.586  28.634  29.707  1.00  0.00    -0.248 NA
ATOM     32  C   UNL A   1      39.158  28.772  27.864  1.00  0.00     0.031 C 
ATOM     33  C   UNL A   1      38.111  31.706  31.811  1.00  0.00     0.029 A 
ATOM     34  N   UNL A   1      39.973  30.471  31.918  1.00  0.00    -0.354 N 
ATOM     35  C   UNL A   1      41.018  27.750  28.726  1.00  0.00     0.074 A 
ATOM     36  C   UNL A   1      40.091  27.861  27.619  1.00  0.00     0.031 C 
ATOM     37  C   UNL A   1      38.706  31.977  32.983  1.00  0.00     0.029 A 
ATOM     38  C   UNL A   1      39.890  31.137  33.120  1.00  0.00     0.049 A 
ATOM     39  H   UNL A   1      40.721  29.878  31.680  1.00  0.00     0.167 HD
ATOM     40  C   UNL A   1      42.093  26.928  28.745  1.00  0.00     0.034 A 
ATOM     41  C   UNL A   1      40.653  31.045  34.227  1.00  0.00     0.034 A 
ATOM     42  C   UNL A   1      43.040  26.862  29.826  1.00  0.00     0.049 A 
ATOM     43  C   UNL A   1      41.814  30.089  34.235  1.00  0.00     0.074 A 
ATOM     44  C   UNL A   1      44.205  26.119  29.904  1.00  0.00     0.029 A 
ATOM     45  N   UNL A   1      42.926  27.554  31.022  1.00  0.00    -0.354 N 
ATOM     46  N   UNL A   1      42.269  29.336  33.264  1.00  0.00    -0.248 NA
ATOM     47  C   UNL A   1      42.567  29.972  35.492  1.00  0.00     0.031 C 
ATOM     48  C   UNL A   1      44.785  26.347  31.157  1.00  0.00     0.029 A 
ATOM     49  C   UNL A   1      43.985  27.238  31.856  1.00  0.00     0.049 A 
ATOM     50  H   UNL A   1      42.199  28.180  31.246  1.00  0.00     0.167 HD
ATOM     51  C   UNL A   1      43.366  28.663  33.786  1.00  0.00     0.074 A 
ATOM     52  C   UNL A   1      43.528  29.123  35.150  1.00  0.00     0.031 C 
ATOM     53  C   UNL A   1      44.155  27.732  33.197  1.00  0.00     0.034 A 
BRANCH  40  54
ATOM     54  C   UNL A   1      42.325  26.045  27.552  1.00  0.00     0.023 A 
ATOM     55  C   UNL A   1      43.009  26.555  26.431  1.00  0.00     0.012 A 
ATOM     56  C   UNL A   1      41.931  24.692  27.568  1.00  0.00     0.148 A 
ATOM     57  C   UNL A   1      43.283  25.736  25.336  1.00  0.00     0.002 A 
ATOM     58  C   UNL A   1      42.236  23.875  26.488  1.00  0.00     0.091 A 
ATOM     59  F   UNL A   1      41.258  24.236  28.635  1.00  0.00    -0.205 F 
ATOM     60  C   UNL A   1      42.906  24.395  25.368  1.00  0.00     0.022 A 
BRANCH  58  61
ATOM     61  S   UNL A   1      41.847  22.120  26.466  1.00  0.00     0.127 S 
ATOM     62  O   UNL A   1      40.392  22.143  26.334  1.00  0.00    -0.237 OA
ATOM     63  O   UNL A   1      42.560  21.659  25.272  1.00  0.00    -0.237 OA
ATOM     64  O   UNL A   1      42.356  21.582  27.719  1.00  0.00    -0.744 OA
ENDBRANCH  58  61
ENDBRANCH  40  54
BRANCH  41  65
ATOM     65  C   UNL A   1      40.343  31.887  35.416  1.00  0.00     0.023 A 
ATOM     66  C   UNL A   1      41.121  33.032  35.670  1.00  0.00     0.012 A 
ATOM     67  C   UNL A   1      39.267  31.583  36.272  1.00  0.00     0.148 A 
ATOM     68  C   UNL A   1      40.840  33.852  36.765  1.00  0.00     0.002 A 
ATOM     69  C   UNL A   1      38.958  32.435  37.327  1.00  0.00     0.091 A 
ATOM     70  F   UNL A   1      38.556  30.472  36.034  1.00  0.00    -0.205 F 
ATOM     71  C   UNL A   1      39.751  33.562  37.584  1.00  0.00     0.022 A 
BRANCH  69  72
ATOM     72  S   UNL A   1      37.491  32.201  38.339  1.00  0.00     0.127 S 
ATOM     73  O   UNL A   1      37.911  32.779  39.613  1.00  0.00    -0.237 OA
ATOM     74  O   UNL A   1      36.487  32.977  37.611  1.00  0.00    -0.237 OA
ATOM     75  O   UNL A   1      37.249  30.764  38.338  1.00  0.00    -0.744 OA
ENDBRANCH  69  72
ENDBRANCH  41  65
BRANCH  53  76
ATOM     76  C   UNL A   1      45.262  27.136  34.023  1.00  0.00     0.023 A 
ATOM     77  C   UNL A   1      46.497  27.809  34.105  1.00  0.00     0.012 A 
ATOM     78  C   UNL A   1      45.060  25.962  34.775  1.00  0.00     0.148 A 
ATOM     79  C   UNL A   1      47.523  27.311  34.906  1.00  0.00     0.002 A 
ATOM     80  C   UNL A   1      46.072  25.495  35.603  1.00  0.00     0.091 A 
ATOM     81  F   UNL A   1      43.883  25.328  34.666  1.00  0.00    -0.205 F 
ATOM     82  C   UNL A   1      47.307  26.162  35.664  1.00  0.00     0.022 A 
BRANCH  80  83
ATOM     83  S   UNL A   1      45.856  24.072  36.680  1.00  0.00     0.127 S 
ATOM     84  O   UNL A   1      47.231  23.798  37.092  1.00  0.00    -0.237 OA
ATOM     85  O   UNL A   1      44.998  24.609  37.737  1.00  0.00    -0.237 OA
ATOM     86  O   UNL A   1      45.231  23.042  35.861  1.00  0.00    -0.744 OA
ENDBRANCH  80  83
ENDBRANCH  53  76
ENDBRANCH  27  28
ENDBRANCH  20  22
ENDBRANCH  19  20
ENDBRANCH   1  19
TORSDOF 16
ENDMDL
