MODEL 1
REMARK VINA RESULT:     -10.8      0.000      0.000
REMARK SMILES C[C@H](CSc1ccc(C(=O)N(C)C)cn1)C(=O)OCCOC(=O)c1ccc(-c2c3nc(c(-c4cccc(S(=O)(=O)[O-])c4F)c4ccc([nH]4)c(-c4cccc(S(=O)(=O)[O-])c4F)c4nc(c(-c5cccc(S(=O)(=O)[O-])c5F)c5ccc2[nH]5)C=C4)C=C3)cc1
REMARK SMILES IDX 19 1 18 2 16 3 17 4 2 5 1 6 3 7 4 8 5 9 6 10 15 11 7 12
REMARK SMILES IDX 14 13 8 14 9 15 10 16 11 17 12 18 13 19 20 20 21 21 22 22
REMARK SMILES IDX 23 23 24 24 25 25 86 26 26 27 85 28 27 29 28 30 29 31 79 32
REMARK SMILES IDX 30 33 84 34 78 35 80 36 31 37 83 38 77 39 76 40 32 42 64 43
REMARK SMILES IDX 44 44 63 45 45 46 48 47 62 48 81 49 46 50 47 51 61 53 82 54
REMARK SMILES IDX 49 55 33 56 34 57 42 58 35 59 37 60 43 61 36 62 38 63 39 64
REMARK SMILES IDX 40 65 41 66 65 67 66 68 74 69 67 70 69 71 75 72 68 73 70 74
REMARK SMILES IDX 71 75 72 76 73 77 50 78 51 79 59 80 52 81 54 82 60 83 53 84
REMARK SMILES IDX 55 85 56 86 57 87 58 88
REMARK H PARENT 80 41 48 52
REMARK Flexibility Score: inf
ROOT
ATOM      1  C   UNL A   1      31.560  29.004  25.667  1.00  0.00     0.274 C 
ENDROOT
BRANCH   1   2
ATOM      2  O   UNL A   1      32.240  28.053  26.513  1.00  0.00    -0.462 OA
BRANCH   2   3
ATOM      3  C   UNL A   1      31.808  26.768  26.438  1.00  0.00     0.309 C 
ATOM      4  O   UNL A   1      30.769  26.366  26.951  1.00  0.00    -0.252 OA
BRANCH   3   5
ATOM      5  C   UNL A   1      32.699  25.855  25.601  1.00  0.00     0.106 C 
ATOM      6  C   UNL A   1      34.163  26.235  25.808  1.00  0.00     0.021 C 
BRANCH   5   7
ATOM      7  C   UNL A   1      32.215  25.567  24.168  1.00  0.00     0.091 C 
BRANCH   7   8
ATOM      8  S   UNL A   1      30.481  25.054  23.913  1.00  0.00    -0.106 SA
BRANCH   8   9
ATOM      9  C   UNL A   1      29.826  26.596  23.347  1.00  0.00     0.096 A 
ATOM     10  C   UNL A   1      28.525  26.973  23.656  1.00  0.00     0.036 A 
ATOM     11  N   UNL A   1      30.655  27.361  22.610  1.00  0.00    -0.249 NA
ATOM     12  C   UNL A   1      28.053  28.200  23.189  1.00  0.00     0.018 A 
ATOM     13  C   UNL A   1      30.178  28.548  22.169  1.00  0.00     0.126 A 
ATOM     14  C   UNL A   1      28.886  28.994  22.402  1.00  0.00     0.058 A 
BRANCH  14  15
ATOM     15  C   UNL A   1      28.512  30.314  21.857  1.00  0.00     0.254 C 
ATOM     16  O   UNL A   1      27.985  30.324  20.744  1.00  0.00    -0.269 OA
ATOM     17  N   UNL A   1      28.722  31.481  22.590  1.00  0.00    -0.345 N 
ATOM     18  C   UNL A   1      29.137  31.560  23.983  1.00  0.00     0.146 C 
ATOM     19  C   UNL A   1      28.348  32.737  21.962  1.00  0.00     0.146 C 
ENDBRANCH  14  15
ENDBRANCH   8   9
ENDBRANCH   7   8
ENDBRANCH   5   7
ENDBRANCH   3   5
ENDBRANCH   2   3
ENDBRANCH   1   2
BRANCH   1  20
ATOM     20  C   UNL A   1      31.776  30.447  26.143  1.00  0.00     0.275 C 
BRANCH  20  21
ATOM     21  O   UNL A   1      33.164  30.828  26.144  1.00  0.00    -0.458 OA
BRANCH  21  22
ATOM     22  C   UNL A   1      33.534  31.625  27.171  1.00  0.00     0.338 C 
ATOM     23  O   UNL A   1      32.846  32.475  27.723  1.00  0.00    -0.246 OA
BRANCH  22  24
ATOM     24  C   UNL A   1      34.866  31.253  27.670  1.00  0.00     0.060 A 
ATOM     25  C   UNL A   1      35.059  29.917  28.020  1.00  0.00     0.016 A 
ATOM     26  C   UNL A   1      35.862  32.195  27.925  1.00  0.00     0.016 A 
ATOM     27  C   UNL A   1      36.217  29.512  28.667  1.00  0.00     0.010 A 
ATOM     28  C   UNL A   1      37.045  31.784  28.558  1.00  0.00     0.010 A 
ATOM     29  C   UNL A   1      37.217  30.445  28.957  1.00  0.00    -0.014 A 
BRANCH  29  30
ATOM     30  C   UNL A   1      38.398  29.998  29.736  1.00  0.00     0.031 A 
ATOM     31  C   UNL A   1      38.585  30.463  31.153  1.00  0.00     0.074 A 
ATOM     32  C   UNL A   1      39.260  29.118  29.192  1.00  0.00     0.049 A 
ATOM     33  N   UNL A   1      39.549  30.185  31.991  1.00  0.00    -0.248 NA
ATOM     34  C   UNL A   1      37.554  31.359  31.700  1.00  0.00     0.031 C 
ATOM     35  C   UNL A   1      39.163  28.570  27.839  1.00  0.00     0.029 A 
ATOM     36  N   UNL A   1      40.383  28.524  29.713  1.00  0.00    -0.354 N 
ATOM     37  C   UNL A   1      39.270  30.907  33.145  1.00  0.00     0.074 A 
ATOM     38  C   UNL A   1      38.043  31.634  32.902  1.00  0.00     0.031 C 
ATOM     39  C   UNL A   1      40.177  27.713  27.638  1.00  0.00     0.029 A 
ATOM     40  C   UNL A   1      41.016  27.681  28.832  1.00  0.00     0.049 A 
ATOM     41  H   UNL A   1      40.702  28.687  30.629  1.00  0.00     0.167 HD
ATOM     42  C   UNL A   1      39.964  30.947  34.307  1.00  0.00     0.034 A 
ATOM     43  C   UNL A   1      42.154  26.972  28.966  1.00  0.00     0.034 A 
ATOM     44  C   UNL A   1      41.151  30.178  34.567  1.00  0.00     0.049 A 
ATOM     45  C   UNL A   1      42.901  27.033  30.270  1.00  0.00     0.074 A 
ATOM     46  C   UNL A   1      41.907  30.126  35.724  1.00  0.00     0.029 A 
ATOM     47  N   UNL A   1      41.748  29.316  33.660  1.00  0.00    -0.354 N 
ATOM     48  N   UNL A   1      42.584  27.665  31.374  1.00  0.00    -0.248 NA
ATOM     49  C   UNL A   1      44.154  26.268  30.354  1.00  0.00     0.031 C 
ATOM     50  C   UNL A   1      42.967  29.237  35.514  1.00  0.00     0.029 A 
ATOM     51  C   UNL A   1      42.867  28.730  34.229  1.00  0.00     0.049 A 
ATOM     52  H   UNL A   1      41.426  29.146  32.745  1.00  0.00     0.167 HD
ATOM     53  C   UNL A   1      43.582  27.357  32.290  1.00  0.00     0.074 A 
ATOM     54  C   UNL A   1      44.501  26.460  31.620  1.00  0.00     0.031 C 
ATOM     55  C   UNL A   1      43.738  27.795  33.564  1.00  0.00     0.034 A 
BRANCH  42  56
ATOM     56  C   UNL A   1      39.437  31.836  35.400  1.00  0.00     0.023 A 
ATOM     57  C   UNL A   1      38.503  31.324  36.324  1.00  0.00     0.012 A 
ATOM     58  C   UNL A   1      39.893  33.161  35.540  1.00  0.00     0.148 A 
ATOM     59  C   UNL A   1      38.013  32.125  37.354  1.00  0.00     0.002 A 
ATOM     60  C   UNL A   1      39.425  33.942  36.590  1.00  0.00     0.091 A 
ATOM     61  F   UNL A   1      40.758  33.641  34.634  1.00  0.00    -0.205 F 
ATOM     62  C   UNL A   1      38.480  33.429  37.493  1.00  0.00     0.022 A 
BRANCH  60  63
ATOM     63  S   UNL A   1      40.022  35.612  36.880  1.00  0.00     0.127 S 
ATOM     64  O   UNL A   1      39.366  35.947  38.143  1.00  0.00    -0.237 OA
ATOM     65  O   UNL A   1      41.469  35.417  36.979  1.00  0.00    -0.237 OA
ATOM     66  O   UNL A   1      39.599  36.388  35.723  1.00  0.00    -0.744 OA
ENDBRANCH  60  63
ENDBRANCH  42  56
BRANCH  43  67
ATOM     67  C   UNL A   1      42.627  26.109  27.847  1.00  0.00     0.023 A 
ATOM     68  C   UNL A   1      43.629  26.586  26.981  1.00  0.00     0.012 A 
ATOM     69  C   UNL A   1      42.121  24.808  27.661  1.00  0.00     0.148 A 
ATOM     70  C   UNL A   1      44.107  25.789  25.940  1.00  0.00     0.002 A 
ATOM     71  C   UNL A   1      42.640  23.999  26.656  1.00  0.00     0.091 A 
ATOM     72  F   UNL A   1      41.147  24.380  28.476  1.00  0.00    -0.205 F 
ATOM     73  C   UNL A   1      43.623  24.492  25.786  1.00  0.00     0.022 A 
BRANCH  71  74
ATOM     74  S   UNL A   1      42.163  22.276  26.483  1.00  0.00     0.127 S 
ATOM     75  O   UNL A   1      40.743  22.388  26.160  1.00  0.00    -0.237 OA
ATOM     76  O   UNL A   1      43.012  21.829  25.377  1.00  0.00    -0.237 OA
ATOM     77  O   UNL A   1      42.481  21.659  27.763  1.00  0.00    -0.744 OA
ENDBRANCH  71  74
ENDBRANCH  43  67
BRANCH  55  78
ATOM     78  C   UNL A   1      44.939  27.301  34.325  1.00  0.00     0.023 A 
ATOM     79  C   UNL A   1      46.126  28.060  34.310  1.00  0.00     0.012 A 
ATOM     80  C   UNL A   1      44.873  26.131  35.104  1.00  0.00     0.148 A 
ATOM     81  C   UNL A   1      47.239  27.646  35.040  1.00  0.00     0.002 A 
ATOM     82  C   UNL A   1      45.974  25.747  35.862  1.00  0.00     0.091 A 
ATOM     83  F   UNL A   1      43.743  25.409  35.086  1.00  0.00    -0.205 F 
ATOM     84  C   UNL A   1      47.159  26.498  35.825  1.00  0.00     0.022 A 
BRANCH  82  85
ATOM     85  S   UNL A   1      45.918  24.329  36.964  1.00  0.00     0.127 S 
ATOM     86  O   UNL A   1      45.759  23.223  36.021  1.00  0.00    -0.237 OA
ATOM     87  O   UNL A   1      47.225  24.386  37.621  1.00  0.00    -0.237 OA
ATOM     88  O   UNL A   1      44.792  24.569  37.855  1.00  0.00    -0.744 OA
ENDBRANCH  82  85
ENDBRANCH  55  78
ENDBRANCH  29  30
ENDBRANCH  22  24
ENDBRANCH  21  22
ENDBRANCH  20  21
ENDBRANCH   1  20
TORSDOF 18
ENDMDL
MODEL 2
REMARK VINA RESULT:     -10.8      0.398      7.908
REMARK SMILES C[C@H](CSc1ccc(C(=O)N(C)C)cn1)C(=O)OCCOC(=O)c1ccc(-c2c3nc(c(-c4cccc(S(=O)(=O)[O-])c4F)c4ccc([nH]4)c(-c4cccc(S(=O)(=O)[O-])c4F)c4nc(c(-c5cccc(S(=O)(=O)[O-])c5F)c5ccc2[nH]5)C=C4)C=C3)cc1
REMARK SMILES IDX 19 1 18 2 16 3 17 4 2 5 1 6 3 7 4 8 5 9 6 10 15 11 7 12
REMARK SMILES IDX 14 13 8 14 9 15 10 16 11 17 12 18 13 19 20 20 21 21 22 22
REMARK SMILES IDX 23 23 24 24 25 25 86 26 26 27 85 28 27 29 28 30 29 31 79 32
REMARK SMILES IDX 30 33 84 34 78 35 80 36 31 37 83 38 77 39 76 40 32 42 64 43
REMARK SMILES IDX 44 44 63 45 45 46 48 47 62 48 81 49 46 50 47 51 61 53 82 54
REMARK SMILES IDX 49 55 33 56 34 57 42 58 35 59 37 60 43 61 36 62 38 63 39 64
REMARK SMILES IDX 40 65 41 66 65 67 66 68 74 69 67 70 69 71 75 72 68 73 70 74
REMARK SMILES IDX 71 75 72 76 73 77 50 78 51 79 59 80 52 81 54 82 60 83 53 84
REMARK SMILES IDX 55 85 56 86 57 87 58 88
REMARK H PARENT 80 41 48 52
REMARK Flexibility Score: inf
ROOT
ATOM      1  C   UNL A   1      31.495  29.046  25.688  1.00  0.00     0.274 C 
ENDROOT
BRANCH   1   2
ATOM      2  O   UNL A   1      32.423  28.120  26.292  1.00  0.00    -0.462 OA
BRANCH   2   3
ATOM      3  C   UNL A   1      32.004  26.832  26.395  1.00  0.00     0.309 C 
ATOM      4  O   UNL A   1      31.064  26.476  27.099  1.00  0.00    -0.252 OA
BRANCH   3   5
ATOM      5  C   UNL A   1      32.764  25.852  25.508  1.00  0.00     0.106 C 
ATOM      6  C   UNL A   1      34.261  26.142  25.585  1.00  0.00     0.021 C 
BRANCH   5   7
ATOM      7  C   UNL A   1      32.145  25.572  24.126  1.00  0.00     0.091 C 
BRANCH   7   8
ATOM      8  S   UNL A   1      30.381  25.111  24.030  1.00  0.00    -0.106 SA
BRANCH   8   9
ATOM      9  C   UNL A   1      29.737  26.640  23.419  1.00  0.00     0.096 A 
ATOM     10  C   UNL A   1      28.423  27.012  23.675  1.00  0.00     0.036 A 
ATOM     11  N   UNL A   1      30.587  27.401  22.702  1.00  0.00    -0.249 NA
ATOM     12  C   UNL A   1      27.960  28.229  23.175  1.00  0.00     0.018 A 
ATOM     13  C   UNL A   1      30.119  28.578  22.228  1.00  0.00     0.126 A 
ATOM     14  C   UNL A   1      28.816  29.018  22.407  1.00  0.00     0.058 A 
BRANCH  14  15
ATOM     15  C   UNL A   1      28.454  30.328  21.830  1.00  0.00     0.254 C 
ATOM     16  O   UNL A   1      27.940  30.317  20.711  1.00  0.00    -0.269 OA
ATOM     17  N   UNL A   1      28.660  31.509  22.542  1.00  0.00    -0.345 N 
ATOM     18  C   UNL A   1      29.057  31.615  23.937  1.00  0.00     0.146 C 
ATOM     19  C   UNL A   1      28.297  32.753  21.883  1.00  0.00     0.146 C 
ENDBRANCH  14  15
ENDBRANCH   8   9
ENDBRANCH   7   8
ENDBRANCH   5   7
ENDBRANCH   3   5
ENDBRANCH   2   3
ENDBRANCH   1   2
BRANCH   1  20
ATOM     20  C   UNL A   1      31.649  30.462  26.261  1.00  0.00     0.275 C 
BRANCH  20  21
ATOM     21  O   UNL A   1      32.986  30.977  26.113  1.00  0.00    -0.458 OA
BRANCH  21  22
ATOM     22  C   UNL A   1      33.369  31.845  27.075  1.00  0.00     0.338 C 
ATOM     23  O   UNL A   1      32.706  32.766  27.538  1.00  0.00    -0.246 OA
BRANCH  22  24
ATOM     24  C   UNL A   1      34.676  31.467  27.632  1.00  0.00     0.060 A 
ATOM     25  C   UNL A   1      34.843  30.133  28.003  1.00  0.00     0.016 A 
ATOM     26  C   UNL A   1      35.669  32.403  27.919  1.00  0.00     0.016 A 
ATOM     27  C   UNL A   1      35.969  29.725  28.700  1.00  0.00     0.010 A 
ATOM     28  C   UNL A   1      36.822  31.988  28.604  1.00  0.00     0.010 A 
ATOM     29  C   UNL A   1      36.965  30.653  29.023  1.00  0.00    -0.014 A 
BRANCH  29  30
ATOM     30  C   UNL A   1      38.109  30.203  29.853  1.00  0.00     0.031 A 
ATOM     31  C   UNL A   1      39.142  29.279  29.274  1.00  0.00     0.074 A 
ATOM     32  C   UNL A   1      38.254  30.683  31.103  1.00  0.00     0.049 A 
ATOM     33  N   UNL A   1      40.208  28.775  29.839  1.00  0.00    -0.248 NA
ATOM     34  C   UNL A   1      38.954  28.865  27.873  1.00  0.00     0.031 C 
ATOM     35  C   UNL A   1      37.334  31.611  31.762  1.00  0.00     0.029 A 
ATOM     36  N   UNL A   1      39.233  30.463  32.040  1.00  0.00    -0.354 N 
ATOM     37  C   UNL A   1      40.791  27.949  28.886  1.00  0.00     0.074 A 
ATOM     38  C   UNL A   1      39.962  28.021  27.702  1.00  0.00     0.031 C 
ATOM     39  C   UNL A   1      37.796  31.889  32.991  1.00  0.00     0.029 A 
ATOM     40  C   UNL A   1      39.022  31.131  33.222  1.00  0.00     0.049 A 
ATOM     41  H   UNL A   1      40.012  29.883  31.879  1.00  0.00     0.167 HD
ATOM     42  C   UNL A   1      41.922  27.212  28.982  1.00  0.00     0.034 A 
ATOM     43  C   UNL A   1      39.728  31.122  34.369  1.00  0.00     0.034 A 
ATOM     44  C   UNL A   1      42.776  27.188  30.139  1.00  0.00     0.049 A 
ATOM     45  C   UNL A   1      40.983  30.296  34.446  1.00  0.00     0.074 A 
ATOM     46  C   UNL A   1      43.960  26.496  30.321  1.00  0.00     0.029 A 
ATOM     47  N   UNL A   1      42.542  27.896  31.308  1.00  0.00    -0.354 N 
ATOM     48  N   UNL A   1      41.557  29.578  33.510  1.00  0.00    -0.248 NA
ATOM     49  C   UNL A   1      41.700  30.293  35.729  1.00  0.00     0.031 C 
ATOM     50  C   UNL A   1      44.440  26.783  31.605  1.00  0.00     0.029 A 
ATOM     51  C   UNL A   1      43.557  27.657  32.218  1.00  0.00     0.049 A 
ATOM     52  H   UNL A   1      41.767  28.483  31.468  1.00  0.00     0.167 HD
ATOM     53  C   UNL A   1      42.711  29.057  34.082  1.00  0.00     0.074 A 
ATOM     54  C   UNL A   1      42.769  29.565  35.438  1.00  0.00     0.031 C 
ATOM     55  C   UNL A   1      43.628  28.217  33.544  1.00  0.00     0.034 A 
BRANCH  42  56
ATOM     56  C   UNL A   1      42.318  26.388  27.787  1.00  0.00     0.023 A 
ATOM     57  C   UNL A   1      43.125  26.960  26.784  1.00  0.00     0.012 A 
ATOM     58  C   UNL A   1      41.927  25.039  27.676  1.00  0.00     0.148 A 
ATOM     59  C   UNL A   1      43.517  26.210  25.675  1.00  0.00     0.002 A 
ATOM     60  C   UNL A   1      42.351  24.288  26.584  1.00  0.00     0.091 A 
ATOM     61  F   UNL A   1      41.134  24.520  28.624  1.00  0.00    -0.205 F 
ATOM     62  C   UNL A   1      43.138  24.874  25.580  1.00  0.00     0.022 A 
BRANCH  60  63
ATOM     63  S   UNL A   1      41.961  22.542  26.415  1.00  0.00     0.127 S 
ATOM     64  O   UNL A   1      42.607  22.216  25.146  1.00  0.00    -0.237 OA
ATOM     65  O   UNL A   1      42.605  21.960  27.594  1.00  0.00    -0.237 OA
ATOM     66  O   UNL A   1      40.507  22.461  26.425  1.00  0.00    -0.744 OA
ENDBRANCH  60  63
ENDBRANCH  42  56
BRANCH  43  67
ATOM     67  C   UNL A   1      39.286  31.959  35.520  1.00  0.00     0.023 A 
ATOM     68  C   UNL A   1      38.445  31.399  36.501  1.00  0.00     0.012 A 
ATOM     69  C   UNL A   1      39.724  33.289  35.670  1.00  0.00     0.148 A 
ATOM     70  C   UNL A   1      38.036  32.153  37.601  1.00  0.00     0.002 A 
ATOM     71  C   UNL A   1      39.358  34.017  36.796  1.00  0.00     0.091 A 
ATOM     72  F   UNL A   1      40.501  33.816  34.712  1.00  0.00    -0.205 F 
ATOM     73  C   UNL A   1      38.503  33.456  37.756  1.00  0.00     0.022 A 
BRANCH  71  74
ATOM     74  S   UNL A   1      40.027  35.650  37.129  1.00  0.00     0.127 S 
ATOM     75  O   UNL A   1      39.387  35.985  38.398  1.00  0.00    -0.237 OA
ATOM     76  O   UNL A   1      41.465  35.385  37.216  1.00  0.00    -0.237 OA
ATOM     77  O   UNL A   1      39.641  36.464  35.984  1.00  0.00    -0.744 OA
ENDBRANCH  71  74
ENDBRANCH  43  67
BRANCH  55  78
ATOM     78  C   UNL A   1      44.783  27.800  34.415  1.00  0.00     0.023 A 
ATOM     79  C   UNL A   1      45.952  28.587  34.434  1.00  0.00     0.012 A 
ATOM     80  C   UNL A   1      44.688  26.678  35.259  1.00  0.00     0.148 A 
ATOM     81  C   UNL A   1      47.019  28.247  35.264  1.00  0.00     0.002 A 
ATOM     82  C   UNL A   1      45.740  26.369  36.114  1.00  0.00     0.091 A 
ATOM     83  F   UNL A   1      43.576  25.928  35.209  1.00  0.00    -0.205 F 
ATOM     84  C   UNL A   1      46.909  27.147  36.111  1.00  0.00     0.022 A 
BRANCH  82  85
ATOM     85  S   UNL A   1      45.637  25.019  37.295  1.00  0.00     0.127 S 
ATOM     86  O   UNL A   1      46.746  25.325  38.197  1.00  0.00    -0.237 OA
ATOM     87  O   UNL A   1      44.308  25.209  37.878  1.00  0.00    -0.237 OA
ATOM     88  O   UNL A   1      45.776  23.801  36.509  1.00  0.00    -0.744 OA
ENDBRANCH  82  85
ENDBRANCH  55  78
ENDBRANCH  29  30
ENDBRANCH  22  24
ENDBRANCH  21  22
ENDBRANCH  20  21
ENDBRANCH   1  20
TORSDOF 18
ENDMDL
MODEL 3
REMARK VINA RESULT:     -10.7      4.907     10.006
REMARK SMILES C[C@H](CSc1ccc(C(=O)N(C)C)cn1)C(=O)OCCOC(=O)c1ccc(-c2c3nc(c(-c4cccc(S(=O)(=O)[O-])c4F)c4ccc([nH]4)c(-c4cccc(S(=O)(=O)[O-])c4F)c4nc(c(-c5cccc(S(=O)(=O)[O-])c5F)c5ccc2[nH]5)C=C4)C=C3)cc1
REMARK SMILES IDX 19 1 18 2 16 3 17 4 2 5 1 6 3 7 4 8 5 9 6 10 15 11 7 12
REMARK SMILES IDX 14 13 8 14 9 15 10 16 11 17 12 18 13 19 20 20 21 21 22 22
REMARK SMILES IDX 23 23 24 24 25 25 86 26 26 27 85 28 27 29 28 30 29 31 79 32
REMARK SMILES IDX 30 33 84 34 78 35 80 36 31 37 83 38 77 39 76 40 32 42 64 43
REMARK SMILES IDX 44 44 63 45 45 46 48 47 62 48 81 49 46 50 47 51 61 53 82 54
REMARK SMILES IDX 49 55 33 56 34 57 42 58 35 59 37 60 43 61 36 62 38 63 39 64
REMARK SMILES IDX 40 65 41 66 65 67 66 68 74 69 67 70 69 71 75 72 68 73 70 74
REMARK SMILES IDX 71 75 72 76 73 77 50 78 51 79 59 80 52 81 54 82 60 83 53 84
REMARK SMILES IDX 55 85 56 86 57 87 58 88
REMARK H PARENT 80 41 48 52
REMARK Flexibility Score: inf
ROOT
ATOM      1  C   UNL A   1      35.517  22.350  25.068  1.00  0.00     0.274 C 
ENDROOT
BRANCH   1   2
ATOM      2  O   UNL A   1      34.842  22.176  23.804  1.00  0.00    -0.462 OA
BRANCH   2   3
ATOM      3  C   UNL A   1      33.485  22.202  23.840  1.00  0.00     0.309 C 
ATOM      4  O   UNL A   1      32.796  22.874  23.079  1.00  0.00    -0.252 OA
BRANCH   3   5
ATOM      5  C   UNL A   1      32.867  21.271  24.878  1.00  0.00     0.106 C 
ATOM      6  C   UNL A   1      32.566  19.917  24.240  1.00  0.00     0.021 C 
BRANCH   5   7
ATOM      7  C   UNL A   1      31.803  21.896  25.799  1.00  0.00     0.091 C 
BRANCH   7   8
ATOM      8  S   UNL A   1      32.352  22.942  27.190  1.00  0.00    -0.106 SA
BRANCH   8   9
ATOM      9  C   UNL A   1      32.098  24.528  26.451  1.00  0.00     0.096 A 
ATOM     10  C   UNL A   1      33.152  25.217  25.862  1.00  0.00     0.036 A 
ATOM     11  N   UNL A   1      30.841  25.014  26.499  1.00  0.00    -0.249 NA
ATOM     12  C   UNL A   1      32.902  26.464  25.289  1.00  0.00     0.018 A 
ATOM     13  C   UNL A   1      30.621  26.223  25.935  1.00  0.00     0.126 A 
ATOM     14  C   UNL A   1      31.614  26.995  25.352  1.00  0.00     0.058 A 
BRANCH  14  15
ATOM     15  C   UNL A   1      31.217  28.296  24.777  1.00  0.00     0.254 C 
ATOM     16  O   UNL A   1      31.406  29.291  25.476  1.00  0.00    -0.269 OA
ATOM     17  N   UNL A   1      30.685  28.381  23.490  1.00  0.00    -0.345 N 
ATOM     18  C   UNL A   1      30.620  27.305  22.513  1.00  0.00     0.146 C 
ATOM     19  C   UNL A   1      30.298  29.699  23.018  1.00  0.00     0.146 C 
ENDBRANCH  14  15
ENDBRANCH   8   9
ENDBRANCH   7   8
ENDBRANCH   5   7
ENDBRANCH   3   5
ENDBRANCH   2   3
ENDBRANCH   1   2
BRANCH   1  20
ATOM     20  C   UNL A   1      36.500  21.206  25.353  1.00  0.00     0.275 C 
BRANCH  20  21
ATOM     21  O   UNL A   1      37.847  21.521  24.952  1.00  0.00    -0.458 OA
BRANCH  21  22
ATOM     22  C   UNL A   1      38.798  21.203  25.859  1.00  0.00     0.338 C 
ATOM     23  O   UNL A   1      39.265  20.090  26.070  1.00  0.00    -0.246 OA
BRANCH  22  24
ATOM     24  C   UNL A   1      39.337  22.411  26.500  1.00  0.00     0.060 A 
ATOM     25  C   UNL A   1      38.811  23.634  26.086  1.00  0.00     0.016 A 
ATOM     26  C   UNL A   1      40.419  22.375  27.379  1.00  0.00     0.016 A 
ATOM     27  C   UNL A   1      39.381  24.828  26.499  1.00  0.00     0.010 A 
ATOM     28  C   UNL A   1      40.984  23.582  27.818  1.00  0.00     0.010 A 
ATOM     29  C   UNL A   1      40.485  24.815  27.358  1.00  0.00    -0.014 A 
BRANCH  29  30
ATOM     30  C   UNL A   1      41.129  26.106  27.702  1.00  0.00     0.031 A 
ATOM     31  C   UNL A   1      42.519  26.408  27.213  1.00  0.00     0.074 A 
ATOM     32  C   UNL A   1      40.438  27.034  28.391  1.00  0.00     0.049 A 
ATOM     33  N   UNL A   1      43.248  27.474  27.409  1.00  0.00    -0.248 NA
ATOM     34  C   UNL A   1      43.175  25.374  26.395  1.00  0.00     0.031 C 
ATOM     35  C   UNL A   1      39.072  26.868  28.890  1.00  0.00     0.029 A 
ATOM     36  N   UNL A   1      40.786  28.301  28.786  1.00  0.00    -0.354 N 
ATOM     37  C   UNL A   1      44.464  27.224  26.785  1.00  0.00     0.074 A 
ATOM     38  C   UNL A   1      44.374  25.904  26.199  1.00  0.00     0.031 C 
ATOM     39  C   UNL A   1      38.693  27.994  29.515  1.00  0.00     0.029 A 
ATOM     40  C   UNL A   1      39.801  28.945  29.497  1.00  0.00     0.049 A 
ATOM     41  H   UNL A   1      41.658  28.710  28.580  1.00  0.00     0.167 HD
ATOM     42  C   UNL A   1      45.550  28.027  26.694  1.00  0.00     0.034 A 
ATOM     43  C   UNL A   1      39.796  30.159  30.080  1.00  0.00     0.034 A 
ATOM     44  C   UNL A   1      45.617  29.361  27.227  1.00  0.00     0.049 A 
ATOM     45  C   UNL A   1      41.015  31.031  29.959  1.00  0.00     0.074 A 
ATOM     46  C   UNL A   1      46.662  30.265  27.159  1.00  0.00     0.029 A 
ATOM     47  N   UNL A   1      44.590  29.988  27.919  1.00  0.00    -0.354 N 
ATOM     48  N   UNL A   1      42.129  30.806  29.304  1.00  0.00    -0.248 NA
ATOM     49  C   UNL A   1      40.972  32.333  30.641  1.00  0.00     0.031 C 
ATOM     50  C   UNL A   1      46.269  31.438  27.815  1.00  0.00     0.029 A 
ATOM     51  C   UNL A   1      44.978  31.265  28.286  1.00  0.00     0.049 A 
ATOM     52  H   UNL A   1      43.715  29.584  28.119  1.00  0.00     0.167 HD
ATOM     53  C   UNL A   1      42.908  31.943  29.474  1.00  0.00     0.074 A 
ATOM     54  C   UNL A   1      42.128  32.868  30.272  1.00  0.00     0.031 C 
ATOM     55  C   UNL A   1      44.165  32.192  29.031  1.00  0.00     0.034 A 
BRANCH  42  56
ATOM     56  C   UNL A   1      46.751  27.491  25.964  1.00  0.00     0.023 A 
ATOM     57  C   UNL A   1      46.852  27.665  24.569  1.00  0.00     0.012 A 
ATOM     58  C   UNL A   1      47.797  26.853  26.659  1.00  0.00     0.148 A 
ATOM     59  C   UNL A   1      47.963  27.189  23.874  1.00  0.00     0.002 A 
ATOM     60  C   UNL A   1      48.918  26.413  25.963  1.00  0.00     0.091 A 
ATOM     61  F   UNL A   1      47.670  26.670  27.982  1.00  0.00    -0.205 F 
ATOM     62  C   UNL A   1      48.999  26.573  24.571  1.00  0.00     0.022 A 
BRANCH  60  63
ATOM     63  S   UNL A   1      50.326  25.665  26.792  1.00  0.00     0.127 S 
ATOM     64  O   UNL A   1      50.678  26.696  27.767  1.00  0.00    -0.237 OA
ATOM     65  O   UNL A   1      49.744  24.453  27.371  1.00  0.00    -0.237 OA
ATOM     66  O   UNL A   1      51.311  25.418  25.749  1.00  0.00    -0.744 OA
ENDBRANCH  60  63
ENDBRANCH  42  56
BRANCH  43  67
ATOM     67  C   UNL A   1      38.576  30.636  30.790  1.00  0.00     0.023 A 
ATOM     68  C   UNL A   1      38.469  30.452  32.182  1.00  0.00     0.012 A 
ATOM     69  C   UNL A   1      37.543  31.305  30.105  1.00  0.00     0.148 A 
ATOM     70  C   UNL A   1      37.348  30.910  32.876  1.00  0.00     0.002 A 
ATOM     71  C   UNL A   1      36.455  31.808  30.810  1.00  0.00     0.091 A 
ATOM     72  F   UNL A   1      37.647  31.447  28.776  1.00  0.00    -0.205 F 
ATOM     73  C   UNL A   1      36.349  31.599  32.193  1.00  0.00     0.022 A 
BRANCH  71  74
ATOM     74  S   UNL A   1      35.199  32.820  30.021  1.00  0.00     0.127 S 
ATOM     75  O   UNL A   1      34.278  33.073  31.126  1.00  0.00    -0.237 OA
ATOM     76  O   UNL A   1      35.970  33.985  29.582  1.00  0.00    -0.237 OA
ATOM     77  O   UNL A   1      34.680  32.006  28.930  1.00  0.00    -0.744 OA
ENDBRANCH  71  74
ENDBRANCH  43  67
BRANCH  55  78
ATOM     78  C   UNL A   1      44.775  33.522  29.386  1.00  0.00     0.023 A 
ATOM     79  C   UNL A   1      45.548  33.637  30.558  1.00  0.00     0.012 A 
ATOM     80  C   UNL A   1      44.640  34.633  28.532  1.00  0.00     0.148 A 
ATOM     81  C   UNL A   1      46.158  34.847  30.887  1.00  0.00     0.002 A 
ATOM     82  C   UNL A   1      45.286  35.824  28.846  1.00  0.00     0.091 A 
ATOM     83  F   UNL A   1      43.880  34.511  27.434  1.00  0.00    -0.205 F 
ATOM     84  C   UNL A   1      46.037  35.935  30.027  1.00  0.00     0.022 A 
BRANCH  82  85
ATOM     85  S   UNL A   1      45.247  37.243  27.744  1.00  0.00     0.127 S 
ATOM     86  O   UNL A   1      45.790  38.299  28.595  1.00  0.00    -0.237 OA
ATOM     87  O   UNL A   1      46.131  36.822  26.655  1.00  0.00    -0.237 OA
ATOM     88  O   UNL A   1      43.852  37.397  27.354  1.00  0.00    -0.744 OA
ENDBRANCH  82  85
ENDBRANCH  55  78
ENDBRANCH  29  30
ENDBRANCH  22  24
ENDBRANCH  21  22
ENDBRANCH  20  21
ENDBRANCH   1  20
TORSDOF 18
ENDMDL
