MODEL 1
REMARK VINA RESULT:     -11.8      0.000      0.000
REMARK SMILES COc1cc(/C=C2\SC(=S)N([C@H](C)C(=O)OCCOC(=O)c3ccc(-c4c5nc(c(-c6cccc(S(=O)(=O)[O-])c6F)c6ccc([nH]6)c(-c6cccc(S(=O)(=O)[O-])c6F)c6nc(c(-c7cccc(S(=O)(=O)[O-])c7F)c7ccc4[nH]7)C=C6)C=C5)cc3)C2=O)ccc1OCc1ccc(Cl)cc1Cl
REMARK SMILES IDX 17 1 16 2 14 3 15 4 12 5 13 6 11 7 6 8 7 9 8 10 85 11 9 12
REMARK SMILES IDX 86 13 10 14 5 15 3 16 4 17 89 18 88 19 87 20 2 21 1 22 90 23
REMARK SMILES IDX 91 24 92 25 93 26 98 27 94 28 97 29 99 30 95 31 96 32 18 33
REMARK SMILES IDX 19 34 20 35 21 36 22 37 23 38 84 39 24 40 83 41 25 42 26 43
REMARK SMILES IDX 27 44 77 45 28 46 82 47 76 48 78 49 29 50 81 51 75 52 74 53
REMARK SMILES IDX 30 55 62 56 42 57 61 58 43 59 46 60 60 61 79 62 44 63 45 64
REMARK SMILES IDX 59 66 80 67 47 68 31 69 32 70 40 71 33 72 35 73 41 74 34 75
REMARK SMILES IDX 36 76 37 77 38 78 39 79 63 80 64 81 72 82 65 83 67 84 73 85
REMARK SMILES IDX 66 86 68 87 69 88 70 89 71 90 48 91 49 92 57 93 50 94 52 95
REMARK SMILES IDX 58 96 51 97 53 98 54 99 55 100 56 101
REMARK H PARENT 78 54 46 65
REMARK Flexibility Score: inf
ROOT
ATOM      1  C   UNL A   1      31.402  30.588  26.049  1.00  0.00     0.274 C 
ENDROOT
BRANCH   1   2
ATOM      2  O   UNL A   1      30.922  29.740  24.992  1.00  0.00    -0.461 OA
BRANCH   2   3
ATOM      3  C   UNL A   1      30.060  30.302  24.103  1.00  0.00     0.329 C 
ATOM      4  O   UNL A   1      29.494  31.379  24.254  1.00  0.00    -0.250 OA
BRANCH   3   5
ATOM      5  C   UNL A   1      29.808  29.396  22.887  1.00  0.00     0.199 C 
ATOM      6  C   UNL A   1      30.053  30.041  21.527  1.00  0.00     0.044 C 
BRANCH   5   7
ATOM      7  N   UNL A   1      30.522  28.120  23.056  1.00  0.00    -0.279 N 
ATOM      8  C   UNL A   1      30.228  24.630  23.889  1.00  0.00     0.029 C 
ATOM      9  C   UNL A   1      30.711  25.839  23.585  1.00  0.00     0.081 C 
ATOM     10  S   UNL A   1      32.344  26.326  23.408  1.00  0.00    -0.054 SA
ATOM     11  C   UNL A   1      29.813  27.008  23.474  1.00  0.00     0.266 C 
ATOM     12  C   UNL A   1      31.894  27.976  22.993  1.00  0.00     0.149 C 
ATOM     13  O   UNL A   1      28.634  26.976  23.801  1.00  0.00    -0.268 OA
ATOM     14  S   UNL A   1      33.044  29.133  22.642  1.00  0.00    -0.052 S 
BRANCH   8  15
ATOM     15  C   UNL A   1      31.062  23.544  24.395  1.00  0.00    -0.020 A 
ATOM     16  C   UNL A   1      32.341  22.392  26.110  1.00  0.00     0.161 A 
ATOM     17  C   UNL A   1      31.521  23.464  25.713  1.00  0.00     0.058 A 
ATOM     18  C   UNL A   1      32.680  21.406  25.169  1.00  0.00     0.161 A 
ATOM     19  C   UNL A   1      32.149  21.463  23.876  1.00  0.00     0.051 A 
ATOM     20  C   UNL A   1      31.367  22.535  23.482  1.00  0.00     0.012 A 
BRANCH  16  21
ATOM     21  O   UNL A   1      32.776  22.233  27.400  1.00  0.00    -0.493 OA
ATOM     22  C   UNL A   1      34.092  22.708  27.678  1.00  0.00     0.278 C 
ENDBRANCH  16  21
BRANCH  18  23
ATOM     23  O   UNL A   1      33.549  20.359  25.300  1.00  0.00    -0.485 OA
BRANCH  23  24
ATOM     24  C   UNL A   1      34.795  20.350  24.612  1.00  0.00     0.267 C 
BRANCH  24  25
ATOM     25  C   UNL A   1      35.832  21.429  24.890  1.00  0.00     0.008 A 
ATOM     26  C   UNL A   1      36.900  21.061  25.735  1.00  0.00     0.010 A 
ATOM     27  C   UNL A   1      35.827  22.733  24.370  1.00  0.00     0.049 A 
ATOM     28  C   UNL A   1      37.867  21.985  26.128  1.00  0.00     0.021 A 
ATOM     29  C   UNL A   1      36.770  23.674  24.804  1.00  0.00     0.041 A 
ATOM     30  Cl  UNL A   1      34.750  23.258  23.127  1.00  0.00    -0.084 Cl
ATOM     31  C   UNL A   1      37.777  23.298  25.687  1.00  0.00     0.042 A 
ATOM     32  Cl  UNL A   1      38.936  24.456  26.210  1.00  0.00    -0.084 Cl
ENDBRANCH  24  25
ENDBRANCH  23  24
ENDBRANCH  18  23
ENDBRANCH   8  15
ENDBRANCH   5   7
ENDBRANCH   3   5
ENDBRANCH   2   3
ENDBRANCH   1   2
BRANCH   1  33
ATOM     33  C   UNL A   1      32.909  30.421  26.256  1.00  0.00     0.275 C 
BRANCH  33  34
ATOM     34  O   UNL A   1      33.305  30.764  27.597  1.00  0.00    -0.458 OA
BRANCH  34  35
ATOM     35  C   UNL A   1      34.178  31.790  27.687  1.00  0.00     0.338 C 
ATOM     36  O   UNL A   1      33.914  32.988  27.629  1.00  0.00    -0.246 OA
BRANCH  35  37
ATOM     37  C   UNL A   1      35.510  31.299  28.059  1.00  0.00     0.060 A 
ATOM     38  C   UNL A   1      35.649  29.923  28.261  1.00  0.00     0.016 A 
ATOM     39  C   UNL A   1      36.582  32.162  28.294  1.00  0.00     0.016 A 
ATOM     40  C   UNL A   1      36.846  29.397  28.720  1.00  0.00     0.010 A 
ATOM     41  C   UNL A   1      37.788  31.632  28.766  1.00  0.00     0.010 A 
ATOM     42  C   UNL A   1      37.914  30.252  29.006  1.00  0.00    -0.014 A 
BRANCH  42  43
ATOM     43  C   UNL A   1      39.108  29.684  29.665  1.00  0.00     0.031 A 
ATOM     44  C   UNL A   1      39.452  30.122  31.061  1.00  0.00     0.074 A 
ATOM     45  C   UNL A   1      39.831  28.735  29.045  1.00  0.00     0.049 A 
ATOM     46  N   UNL A   1      40.438  29.736  31.826  1.00  0.00    -0.248 NA
ATOM     47  C   UNL A   1      38.565  31.123  31.676  1.00  0.00     0.031 C 
ATOM     48  C   UNL A   1      39.566  28.217  27.703  1.00  0.00     0.029 A 
ATOM     49  N   UNL A   1      40.936  28.041  29.463  1.00  0.00    -0.354 N 
ATOM     50  C   UNL A   1      40.315  30.472  32.998  1.00  0.00     0.074 A 
ATOM     51  C   UNL A   1      39.161  31.330  32.842  1.00  0.00     0.031 C 
ATOM     52  C   UNL A   1      40.492  27.290  27.403  1.00  0.00     0.029 A 
ATOM     53  C   UNL A   1      41.425  27.170  28.519  1.00  0.00     0.049 A 
ATOM     54  H   UNL A   1      41.341  28.155  30.353  1.00  0.00     0.167 HD
ATOM     55  C   UNL A   1      41.087  30.425  34.109  1.00  0.00     0.034 A 
ATOM     56  C   UNL A   1      42.511  26.374  28.553  1.00  0.00     0.034 A 
ATOM     57  C   UNL A   1      42.209  29.542  34.272  1.00  0.00     0.049 A 
ATOM     58  C   UNL A   1      43.348  26.339  29.804  1.00  0.00     0.074 A 
ATOM     59  C   UNL A   1      43.045  29.402  35.365  1.00  0.00     0.029 A 
ATOM     60  N   UNL A   1      42.653  28.645  33.311  1.00  0.00    -0.354 N 
ATOM     61  N   UNL A   1      43.170  26.979  30.936  1.00  0.00    -0.248 NA
ATOM     62  C   UNL A   1      44.516  25.446  29.796  1.00  0.00     0.031 C 
ATOM     63  C   UNL A   1      44.000  28.425  35.062  1.00  0.00     0.029 A 
ATOM     64  C   UNL A   1      43.750  27.947  33.785  1.00  0.00     0.049 A 
ATOM     65  H   UNL A   1      42.246  28.522  32.423  1.00  0.00     0.167 HD
ATOM     66  C   UNL A   1      44.185  26.547  31.782  1.00  0.00     0.074 A 
ATOM     67  C   UNL A   1      44.957  25.569  31.041  1.00  0.00     0.031 C 
ATOM     68  C   UNL A   1      44.469  26.939  33.050  1.00  0.00     0.034 A 
BRANCH  55  69
ATOM     69  C   UNL A   1      40.720  31.341  35.246  1.00  0.00     0.023 A 
ATOM     70  C   UNL A   1      41.554  32.435  35.554  1.00  0.00     0.012 A 
ATOM     71  C   UNL A   1      39.539  31.139  35.984  1.00  0.00     0.148 A 
ATOM     72  C   UNL A   1      41.230  33.300  36.599  1.00  0.00     0.002 A 
ATOM     73  C   UNL A   1      39.205  32.027  37.001  1.00  0.00     0.091 A 
ATOM     74  F   UNL A   1      38.776  30.076  35.695  1.00  0.00    -0.205 F 
ATOM     75  C   UNL A   1      40.052  33.101  37.316  1.00  0.00     0.022 A 
BRANCH  73  76
ATOM     76  S   UNL A   1      37.677  31.890  37.936  1.00  0.00     0.127 S 
ATOM     77  O   UNL A   1      36.768  32.711  37.138  1.00  0.00    -0.237 OA
ATOM     78  O   UNL A   1      37.407  30.453  37.881  1.00  0.00    -0.237 OA
ATOM     79  O   UNL A   1      37.978  32.398  39.267  1.00  0.00    -0.744 OA
ENDBRANCH  73  76
ENDBRANCH  55  69
BRANCH  56  80
ATOM     80  C   UNL A   1      42.838  25.512  27.383  1.00  0.00     0.023 A 
ATOM     81  C   UNL A   1      43.628  26.029  26.339  1.00  0.00     0.012 A 
ATOM     82  C   UNL A   1      42.396  24.177  27.313  1.00  0.00     0.148 A 
ATOM     83  C   UNL A   1      43.948  25.241  25.232  1.00  0.00     0.002 A 
ATOM     84  C   UNL A   1      42.764  23.380  26.236  1.00  0.00     0.091 A 
ATOM     85  F   UNL A   1      41.626  23.708  28.306  1.00  0.00    -0.205 F 
ATOM     86  C   UNL A   1      43.527  23.914  25.186  1.00  0.00     0.022 A 
BRANCH  84  87
ATOM     87  S   UNL A   1      42.376  21.627  26.166  1.00  0.00     0.127 S 
ATOM     88  O   UNL A   1      42.634  21.207  27.540  1.00  0.00    -0.237 OA
ATOM     89  O   UNL A   1      40.964  21.641  25.781  1.00  0.00    -0.237 OA
ATOM     90  O   UNL A   1      43.265  21.073  25.152  1.00  0.00    -0.744 OA
ENDBRANCH  84  87
ENDBRANCH  56  80
BRANCH  68  91
ATOM     91  C   UNL A   1      45.652  26.294  33.722  1.00  0.00     0.023 A 
ATOM     92  C   UNL A   1      46.906  26.935  33.689  1.00  0.00     0.012 A 
ATOM     93  C   UNL A   1      45.510  25.089  34.437  1.00  0.00     0.148 A 
ATOM     94  C   UNL A   1      48.010  26.368  34.325  1.00  0.00     0.002 A 
ATOM     95  C   UNL A   1      46.605  24.552  35.106  1.00  0.00     0.091 A 
ATOM     96  F   UNL A   1      44.315  24.479  34.441  1.00  0.00    -0.205 F 
ATOM     97  C   UNL A   1      47.856  25.184  35.043  1.00  0.00     0.022 A 
BRANCH  95  98
ATOM     98  S   UNL A   1      46.461  23.080  36.126  1.00  0.00     0.127 S 
ATOM     99  O   UNL A   1      45.315  23.410  36.972  1.00  0.00    -0.237 OA
ATOM    100  O   UNL A   1      46.205  22.032  35.136  1.00  0.00    -0.237 OA
ATOM    101  O   UNL A   1      47.740  22.954  36.812  1.00  0.00    -0.744 OA
ENDBRANCH  95  98
ENDBRANCH  68  91
ENDBRANCH  42  43
ENDBRANCH  35  37
ENDBRANCH  34  35
ENDBRANCH  33  34
ENDBRANCH   1  33
TORSDOF 20
ENDMDL
MODEL 2
REMARK VINA RESULT:     -11.6      2.176      2.973
REMARK SMILES COc1cc(/C=C2\SC(=S)N([C@H](C)C(=O)OCCOC(=O)c3ccc(-c4c5nc(c(-c6cccc(S(=O)(=O)[O-])c6F)c6ccc([nH]6)c(-c6cccc(S(=O)(=O)[O-])c6F)c6nc(c(-c7cccc(S(=O)(=O)[O-])c7F)c7ccc4[nH]7)C=C6)C=C5)cc3)C2=O)ccc1OCc1ccc(Cl)cc1Cl
REMARK SMILES IDX 17 1 16 2 14 3 15 4 12 5 13 6 11 7 6 8 7 9 8 10 85 11 9 12
REMARK SMILES IDX 86 13 10 14 5 15 3 16 4 17 89 18 88 19 87 20 2 21 1 22 90 23
REMARK SMILES IDX 91 24 92 25 93 26 98 27 94 28 97 29 99 30 95 31 96 32 18 33
REMARK SMILES IDX 19 34 20 35 21 36 22 37 23 38 84 39 24 40 83 41 25 42 26 43
REMARK SMILES IDX 27 44 77 45 28 46 82 47 76 48 78 49 29 50 81 51 75 52 74 53
REMARK SMILES IDX 30 55 62 56 42 57 61 58 43 59 46 60 60 61 79 62 44 63 45 64
REMARK SMILES IDX 59 66 80 67 47 68 31 69 32 70 40 71 33 72 35 73 41 74 34 75
REMARK SMILES IDX 36 76 37 77 38 78 39 79 63 80 64 81 72 82 65 83 67 84 73 85
REMARK SMILES IDX 66 86 68 87 69 88 70 89 71 90 48 91 49 92 57 93 50 94 52 95
REMARK SMILES IDX 58 96 51 97 53 98 54 99 55 100 56 101
REMARK H PARENT 78 54 46 65
REMARK Flexibility Score: inf
ROOT
ATOM      1  C   UNL A   1      30.715  31.882  25.594  1.00  0.00     0.274 C 
ENDROOT
BRANCH   1   2
ATOM      2  O   UNL A   1      30.047  30.942  24.735  1.00  0.00    -0.461 OA
BRANCH   2   3
ATOM      3  C   UNL A   1      29.351  31.461  23.687  1.00  0.00     0.329 C 
ATOM      4  O   UNL A   1      28.973  32.624  23.600  1.00  0.00    -0.250 OA
BRANCH   3   5
ATOM      5  C   UNL A   1      29.021  30.399  22.627  1.00  0.00     0.199 C 
ATOM      6  C   UNL A   1      29.443  30.743  21.202  1.00  0.00     0.044 C 
BRANCH   5   7
ATOM      7  N   UNL A   1      29.504  29.082  23.069  1.00  0.00    -0.279 N 
ATOM      8  C   UNL A   1      32.375  26.949  23.488  1.00  0.00     0.029 C 
ATOM      9  C   UNL A   1      31.124  27.420  23.433  1.00  0.00     0.081 C 
ATOM     10  S   UNL A   1      29.656  26.597  23.752  1.00  0.00    -0.054 SA
ATOM     11  C   UNL A   1      30.849  28.786  22.939  1.00  0.00     0.266 C 
ATOM     12  C   UNL A   1      28.688  28.037  23.454  1.00  0.00     0.149 C 
ATOM     13  O   UNL A   1      31.703  29.488  22.414  1.00  0.00    -0.268 OA
ATOM     14  S   UNL A   1      27.026  28.016  23.596  1.00  0.00    -0.052 S 
BRANCH   8  15
ATOM     15  C   UNL A   1      32.686  25.527  23.579  1.00  0.00    -0.020 A 
ATOM     16  C   UNL A   1      34.056  23.629  24.237  1.00  0.00     0.161 A 
ATOM     17  C   UNL A   1      33.822  25.017  24.216  1.00  0.00     0.058 A 
ATOM     18  C   UNL A   1      33.131  22.772  23.621  1.00  0.00     0.161 A 
ATOM     19  C   UNL A   1      31.963  23.294  23.055  1.00  0.00     0.051 A 
ATOM     20  C   UNL A   1      31.751  24.661  23.011  1.00  0.00     0.012 A 
BRANCH  16  21
ATOM     21  O   UNL A   1      35.122  23.070  24.891  1.00  0.00    -0.493 OA
ATOM     22  C   UNL A   1      36.293  22.856  24.106  1.00  0.00     0.278 C 
ENDBRANCH  16  21
BRANCH  18  23
ATOM     23  O   UNL A   1      33.216  21.423  23.416  1.00  0.00    -0.485 OA
BRANCH  23  24
ATOM     24  C   UNL A   1      32.220  20.540  23.921  1.00  0.00     0.267 C 
BRANCH  24  25
ATOM     25  C   UNL A   1      32.549  19.074  24.166  1.00  0.00     0.008 A 
ATOM     26  C   UNL A   1      32.664  18.680  25.516  1.00  0.00     0.010 A 
ATOM     27  C   UNL A   1      32.722  18.091  23.179  1.00  0.00     0.049 A 
ATOM     28  C   UNL A   1      33.040  17.385  25.865  1.00  0.00     0.021 A 
ATOM     29  C   UNL A   1      33.149  16.803  23.528  1.00  0.00     0.041 A 
ATOM     30  Cl  UNL A   1      32.360  18.342  21.510  1.00  0.00    -0.084 Cl
ATOM     31  C   UNL A   1      33.314  16.460  24.866  1.00  0.00     0.042 A 
ATOM     32  Cl  UNL A   1      33.831  14.875  25.289  1.00  0.00    -0.084 Cl
ENDBRANCH  24  25
ENDBRANCH  23  24
ENDBRANCH  18  23
ENDBRANCH   8  15
ENDBRANCH   5   7
ENDBRANCH   3   5
ENDBRANCH   2   3
ENDBRANCH   1   2
BRANCH   1  33
ATOM     33  C   UNL A   1      31.460  31.169  26.725  1.00  0.00     0.275 C 
BRANCH  33  34
ATOM     34  O   UNL A   1      32.887  31.292  26.586  1.00  0.00    -0.458 OA
BRANCH  34  35
ATOM     35  C   UNL A   1      33.458  32.223  27.382  1.00  0.00     0.338 C 
ATOM     36  O   UNL A   1      32.932  33.245  27.813  1.00  0.00    -0.246 OA
BRANCH  35  37
ATOM     37  C   UNL A   1      34.774  31.764  27.843  1.00  0.00     0.060 A 
ATOM     38  C   UNL A   1      34.900  30.411  28.167  1.00  0.00     0.016 A 
ATOM     39  C   UNL A   1      35.839  32.643  28.043  1.00  0.00     0.016 A 
ATOM     40  C   UNL A   1      36.078  29.925  28.713  1.00  0.00     0.010 A 
ATOM     41  C   UNL A   1      37.025  32.156  28.603  1.00  0.00     0.010 A 
ATOM     42  C   UNL A   1      37.137  30.801  28.964  1.00  0.00    -0.014 A 
BRANCH  42  43
ATOM     43  C   UNL A   1      38.304  30.291  29.713  1.00  0.00     0.031 A 
ATOM     44  C   UNL A   1      38.512  30.732  31.134  1.00  0.00     0.074 A 
ATOM     45  C   UNL A   1      39.124  29.388  29.147  1.00  0.00     0.049 A 
ATOM     46  N   UNL A   1      39.454  30.393  31.973  1.00  0.00    -0.248 NA
ATOM     47  C   UNL A   1      37.527  31.679  31.683  1.00  0.00     0.031 C 
ATOM     48  C   UNL A   1      38.995  28.870  27.785  1.00  0.00     0.029 A 
ATOM     49  N   UNL A   1      40.229  28.750  29.648  1.00  0.00    -0.354 N 
ATOM     50  C   UNL A   1      39.199  31.110  33.136  1.00  0.00     0.074 A 
ATOM     51  C   UNL A   1      38.017  31.906  32.894  1.00  0.00     0.031 C 
ATOM     52  C   UNL A   1      39.989  27.997  27.555  1.00  0.00     0.029 A 
ATOM     53  C   UNL A   1      40.837  27.915  28.741  1.00  0.00     0.049 A 
ATOM     54  H   UNL A   1      40.555  28.877  30.568  1.00  0.00     0.167 HD
ATOM     55  C   UNL A   1      39.882  31.092  34.305  1.00  0.00     0.034 A 
ATOM     56  C   UNL A   1      41.958  27.178  28.856  1.00  0.00     0.034 A 
ATOM     57  C   UNL A   1      41.034  30.269  34.551  1.00  0.00     0.049 A 
ATOM     58  C   UNL A   1      42.694  27.175  30.170  1.00  0.00     0.074 A 
ATOM     59  C   UNL A   1      41.787  30.163  35.706  1.00  0.00     0.029 A 
ATOM     60  N   UNL A   1      41.600  29.407  33.624  1.00  0.00    -0.354 N 
ATOM     61  N   UNL A   1      42.393  27.794  31.288  1.00  0.00    -0.248 NA
ATOM     62  C   UNL A   1      43.906  26.347  30.250  1.00  0.00     0.031 C 
ATOM     63  C   UNL A   1      42.814  29.241  35.474  1.00  0.00     0.029 A 
ATOM     64  C   UNL A   1      42.693  28.763  34.179  1.00  0.00     0.049 A 
ATOM     65  H   UNL A   1      41.273  29.270  32.705  1.00  0.00     0.167 HD
ATOM     66  C   UNL A   1      43.360  27.408  32.209  1.00  0.00     0.074 A 
ATOM     67  C   UNL A   1      44.239  26.480  31.527  1.00  0.00     0.031 C 
ATOM     68  C   UNL A   1      43.521  27.802  33.498  1.00  0.00     0.034 A 
BRANCH  55  69
ATOM     69  C   UNL A   1      39.378  31.976  35.413  1.00  0.00     0.023 A 
ATOM     70  C   UNL A   1      38.430  31.474  36.327  1.00  0.00     0.012 A 
ATOM     71  C   UNL A   1      39.867  33.287  35.570  1.00  0.00     0.148 A 
ATOM     72  C   UNL A   1      37.954  32.274  37.365  1.00  0.00     0.002 A 
ATOM     73  C   UNL A   1      39.414  34.066  36.630  1.00  0.00     0.091 A 
ATOM     74  F   UNL A   1      40.745  33.755  34.674  1.00  0.00    -0.205 F 
ATOM     75  C   UNL A   1      38.452  33.566  37.522  1.00  0.00     0.022 A 
BRANCH  73  76
ATOM     76  S   UNL A   1      40.046  35.717  36.950  1.00  0.00     0.127 S 
ATOM     77  O   UNL A   1      39.348  36.066  38.186  1.00  0.00    -0.237 OA
ATOM     78  O   UNL A   1      41.481  35.474  37.109  1.00  0.00    -0.237 OA
ATOM     79  O   UNL A   1      39.694  36.512  35.782  1.00  0.00    -0.744 OA
ENDBRANCH  73  76
ENDBRANCH  55  69
BRANCH  56  80
ATOM     80  C   UNL A   1      42.423  26.347  27.711  1.00  0.00     0.023 A 
ATOM     81  C   UNL A   1      43.298  26.903  26.759  1.00  0.00     0.012 A 
ATOM     82  C   UNL A   1      42.026  25.002  27.576  1.00  0.00     0.148 A 
ATOM     83  C   UNL A   1      43.748  26.143  25.677  1.00  0.00     0.002 A 
ATOM     84  C   UNL A   1      42.521  24.234  26.529  1.00  0.00     0.091 A 
ATOM     85  F   UNL A   1      41.174  24.496  28.480  1.00  0.00    -0.205 F 
ATOM     86  C   UNL A   1      43.369  24.807  25.569  1.00  0.00     0.022 A 
BRANCH  84  87
ATOM     87  S   UNL A   1      42.189  22.474  26.393  1.00  0.00     0.127 S 
ATOM     88  O   UNL A   1      40.733  22.451  26.275  1.00  0.00    -0.237 OA
ATOM     89  O   UNL A   1      42.910  22.120  25.170  1.00  0.00    -0.237 OA
ATOM     90  O   UNL A   1      42.740  21.881  27.604  1.00  0.00    -0.744 OA
ENDBRANCH  84  87
ENDBRANCH  56  80
BRANCH  68  91
ATOM     91  C   UNL A   1      44.680  27.215  34.259  1.00  0.00     0.023 A 
ATOM     92  C   UNL A   1      45.938  27.847  34.208  1.00  0.00     0.012 A 
ATOM     93  C   UNL A   1      44.510  26.076  35.070  1.00  0.00     0.148 A 
ATOM     94  C   UNL A   1      47.019  27.333  34.923  1.00  0.00     0.002 A 
ATOM     95  C   UNL A   1      45.582  25.597  35.816  1.00  0.00     0.091 A 
ATOM     96  F   UNL A   1      43.312  25.473  35.091  1.00  0.00    -0.205 F 
ATOM     97  C   UNL A   1      46.838  26.216  35.735  1.00  0.00     0.022 A 
BRANCH  95  98
ATOM     98  S   UNL A   1      45.400  24.218  36.955  1.00  0.00     0.127 S 
ATOM     99  O   UNL A   1      46.745  24.113  37.516  1.00  0.00    -0.237 OA
ATOM    100  O   UNL A   1      44.386  24.710  37.890  1.00  0.00    -0.237 OA
ATOM    101  O   UNL A   1      44.962  23.094  36.138  1.00  0.00    -0.744 OA
ENDBRANCH  95  98
ENDBRANCH  68  91
ENDBRANCH  42  43
ENDBRANCH  35  37
ENDBRANCH  34  35
ENDBRANCH  33  34
ENDBRANCH   1  33
TORSDOF 20
ENDMDL
MODEL 3
REMARK VINA RESULT:     -11.4      2.744      8.210
REMARK SMILES COc1cc(/C=C2\SC(=S)N([C@H](C)C(=O)OCCOC(=O)c3ccc(-c4c5nc(c(-c6cccc(S(=O)(=O)[O-])c6F)c6ccc([nH]6)c(-c6cccc(S(=O)(=O)[O-])c6F)c6nc(c(-c7cccc(S(=O)(=O)[O-])c7F)c7ccc4[nH]7)C=C6)C=C5)cc3)C2=O)ccc1OCc1ccc(Cl)cc1Cl
REMARK SMILES IDX 17 1 16 2 14 3 15 4 12 5 13 6 11 7 6 8 7 9 8 10 85 11 9 12
REMARK SMILES IDX 86 13 10 14 5 15 3 16 4 17 89 18 88 19 87 20 2 21 1 22 90 23
REMARK SMILES IDX 91 24 92 25 93 26 98 27 94 28 97 29 99 30 95 31 96 32 18 33
REMARK SMILES IDX 19 34 20 35 21 36 22 37 23 38 84 39 24 40 83 41 25 42 26 43
REMARK SMILES IDX 27 44 77 45 28 46 82 47 76 48 78 49 29 50 81 51 75 52 74 53
REMARK SMILES IDX 30 55 62 56 42 57 61 58 43 59 46 60 60 61 79 62 44 63 45 64
REMARK SMILES IDX 59 66 80 67 47 68 31 69 32 70 40 71 33 72 35 73 41 74 34 75
REMARK SMILES IDX 36 76 37 77 38 78 39 79 63 80 64 81 72 82 65 83 67 84 73 85
REMARK SMILES IDX 66 86 68 87 69 88 70 89 71 90 48 91 49 92 57 93 50 94 52 95
REMARK SMILES IDX 58 96 51 97 53 98 54 99 55 100 56 101
REMARK H PARENT 78 54 46 65
REMARK Flexibility Score: inf
ROOT
ATOM      1  C   UNL A   1      32.589  28.128  26.650  1.00  0.00     0.274 C 
ENDROOT
BRANCH   1   2
ATOM      2  O   UNL A   1      31.979  27.417  25.560  1.00  0.00    -0.461 OA
BRANCH   2   3
ATOM      3  C   UNL A   1      31.056  26.473  25.887  1.00  0.00     0.329 C 
ATOM      4  O   UNL A   1      30.317  26.519  26.865  1.00  0.00    -0.250 OA
BRANCH   3   5
ATOM      5  C   UNL A   1      31.078  25.279  24.921  1.00  0.00     0.199 C 
ATOM      6  C   UNL A   1      30.371  25.501  23.588  1.00  0.00     0.044 C 
BRANCH   5   7
ATOM      7  N   UNL A   1      32.456  24.785  24.766  1.00  0.00    -0.279 N 
ATOM      8  C   UNL A   1      35.078  22.773  26.194  1.00  0.00     0.029 C 
ATOM      9  C   UNL A   1      34.385  23.612  25.417  1.00  0.00     0.081 C 
ATOM     10  S   UNL A   1      34.915  24.484  24.042  1.00  0.00    -0.054 SA
ATOM     11  C   UNL A   1      32.999  23.995  25.762  1.00  0.00     0.266 C 
ATOM     12  C   UNL A   1      33.326  25.191  23.772  1.00  0.00     0.149 C 
ATOM     13  O   UNL A   1      32.475  23.705  26.830  1.00  0.00    -0.268 OA
ATOM     14  S   UNL A   1      33.035  26.228  22.498  1.00  0.00    -0.052 S 
BRANCH   8  15
ATOM     15  C   UNL A   1      36.532  22.663  26.145  1.00  0.00    -0.020 A 
ATOM     16  C   UNL A   1      38.796  23.445  26.561  1.00  0.00     0.161 A 
ATOM     17  C   UNL A   1      37.404  23.621  26.673  1.00  0.00     0.058 A 
ATOM     18  C   UNL A   1      39.290  22.295  25.925  1.00  0.00     0.161 A 
ATOM     19  C   UNL A   1      38.404  21.313  25.470  1.00  0.00     0.051 A 
ATOM     20  C   UNL A   1      37.036  21.504  25.556  1.00  0.00     0.012 A 
BRANCH  16  21
ATOM     21  O   UNL A   1      39.697  24.322  27.106  1.00  0.00    -0.493 OA
ATOM     22  C   UNL A   1      40.201  25.326  26.226  1.00  0.00     0.278 C 
ENDBRANCH  16  21
BRANCH  18  23
ATOM     23  O   UNL A   1      40.581  21.983  25.601  1.00  0.00    -0.485 OA
BRANCH  23  24
ATOM     24  C   UNL A   1      41.269  20.927  26.264  1.00  0.00     0.267 C 
BRANCH  24  25
ATOM     25  C   UNL A   1      42.704  20.592  25.885  1.00  0.00     0.008 A 
ATOM     26  C   UNL A   1      43.536  21.687  25.573  1.00  0.00     0.010 A 
ATOM     27  C   UNL A   1      43.267  19.307  25.842  1.00  0.00     0.049 A 
ATOM     28  C   UNL A   1      44.846  21.502  25.135  1.00  0.00     0.021 A 
ATOM     29  C   UNL A   1      44.567  19.117  25.353  1.00  0.00     0.041 A 
ATOM     30  Cl  UNL A   1      42.471  17.897  26.442  1.00  0.00    -0.084 Cl
ATOM     31  C   UNL A   1      45.344  20.213  24.994  1.00  0.00     0.042 A 
ATOM     32  Cl  UNL A   1      46.942  19.975  24.403  1.00  0.00    -0.084 Cl
ENDBRANCH  24  25
ENDBRANCH  23  24
ENDBRANCH  18  23
ENDBRANCH   8  15
ENDBRANCH   5   7
ENDBRANCH   3   5
ENDBRANCH   2   3
ENDBRANCH   1   2
BRANCH   1  33
ATOM     33  C   UNL A   1      32.357  29.636  26.532  1.00  0.00     0.275 C 
BRANCH  33  34
ATOM     34  O   UNL A   1      33.590  30.352  26.338  1.00  0.00    -0.458 OA
BRANCH  34  35
ATOM     35  C   UNL A   1      33.844  31.305  27.261  1.00  0.00     0.338 C 
ATOM     36  O   UNL A   1      33.084  32.197  27.627  1.00  0.00    -0.246 OA
BRANCH  35  37
ATOM     37  C   UNL A   1      35.118  31.035  27.938  1.00  0.00     0.060 A 
ATOM     38  C   UNL A   1      35.294  29.758  28.479  1.00  0.00     0.016 A 
ATOM     39  C   UNL A   1      36.085  32.023  28.125  1.00  0.00     0.016 A 
ATOM     40  C   UNL A   1      36.422  29.460  29.228  1.00  0.00     0.010 A 
ATOM     41  C   UNL A   1      37.220  31.726  28.888  1.00  0.00     0.010 A 
ATOM     42  C   UNL A   1      37.377  30.452  29.464  1.00  0.00    -0.014 A 
BRANCH  42  43
ATOM     43  C   UNL A   1      38.470  30.159  30.414  1.00  0.00     0.031 A 
ATOM     44  C   UNL A   1      39.616  29.295  29.970  1.00  0.00     0.074 A 
ATOM     45  C   UNL A   1      38.466  30.720  31.636  1.00  0.00     0.049 A 
ATOM     46  N   UNL A   1      40.680  28.932  30.634  1.00  0.00    -0.248 NA
ATOM     47  C   UNL A   1      39.555  28.775  28.594  1.00  0.00     0.031 C 
ATOM     48  C   UNL A   1      37.418  31.598  32.157  1.00  0.00     0.029 A 
ATOM     49  N   UNL A   1      39.373  30.633  32.660  1.00  0.00    -0.354 N 
ATOM     50  C   UNL A   1      41.399  28.112  29.774  1.00  0.00     0.074 A 
ATOM     51  C   UNL A   1      40.649  28.027  28.540  1.00  0.00     0.031 C 
ATOM     52  C   UNL A   1      37.738  31.963  33.410  1.00  0.00     0.029 A 
ATOM     53  C   UNL A   1      38.997  31.326  33.786  1.00  0.00     0.049 A 
ATOM     54  H   UNL A   1      40.213  30.124  32.595  1.00  0.00     0.167 HD
ATOM     55  C   UNL A   1      42.587  27.498  29.988  1.00  0.00     0.034 A 
ATOM     56  C   UNL A   1      39.598  31.422  34.987  1.00  0.00     0.034 A 
ATOM     57  C   UNL A   1      43.346  27.618  31.203  1.00  0.00     0.049 A 
ATOM     58  C   UNL A   1      40.920  30.732  35.195  1.00  0.00     0.074 A 
ATOM     59  C   UNL A   1      44.569  27.052  31.514  1.00  0.00     0.029 A 
ATOM     60  N   UNL A   1      42.954  28.358  32.308  1.00  0.00    -0.354 N 
ATOM     61  N   UNL A   1      41.629  30.029  34.343  1.00  0.00    -0.248 NA
ATOM     62  C   UNL A   1      41.543  30.876  36.519  1.00  0.00     0.031 C 
ATOM     63  C   UNL A   1      44.913  27.445  32.814  1.00  0.00     0.029 A 
ATOM     64  C   UNL A   1      43.910  28.266  33.305  1.00  0.00     0.049 A 
ATOM     65  H   UNL A   1      42.119  28.875  32.375  1.00  0.00     0.167 HD
ATOM     66  C   UNL A   1      42.791  29.670  35.018  1.00  0.00     0.074 A 
ATOM     67  C   UNL A   1      42.703  30.259  36.339  1.00  0.00     0.031 C 
ATOM     68  C   UNL A   1      43.827  28.905  34.593  1.00  0.00     0.034 A 
BRANCH  55  69
ATOM     69  C   UNL A   1      43.146  26.661  28.870  1.00  0.00     0.023 A 
ATOM     70  C   UNL A   1      42.838  25.287  28.808  1.00  0.00     0.012 A 
ATOM     71  C   UNL A   1      43.944  27.239  27.865  1.00  0.00     0.148 A 
ATOM     72  C   UNL A   1      43.340  24.494  27.777  1.00  0.00     0.002 A 
ATOM     73  C   UNL A   1      44.411  26.449  26.820  1.00  0.00     0.091 A 
ATOM     74  F   UNL A   1      44.250  28.540  27.958  1.00  0.00    -0.205 F 
ATOM     75  C   UNL A   1      44.119  25.076  26.778  1.00  0.00     0.022 A 
BRANCH  73  76
ATOM     76  S   UNL A   1      45.366  27.123  25.455  1.00  0.00     0.127 S 
ATOM     77  O   UNL A   1      45.926  25.911  24.859  1.00  0.00    -0.237 OA
ATOM     78  O   UNL A   1      44.335  27.778  24.649  1.00  0.00    -0.237 OA
ATOM     79  O   UNL A   1      46.332  28.033  26.056  1.00  0.00    -0.744 OA
ENDBRANCH  73  76
ENDBRANCH  55  69
BRANCH  56  80
ATOM     80  C   UNL A   1      38.979  32.242  36.065  1.00  0.00     0.023 A 
ATOM     81  C   UNL A   1      39.163  33.637  36.070  1.00  0.00     0.012 A 
ATOM     82  C   UNL A   1      38.186  31.650  37.068  1.00  0.00     0.148 A 
ATOM     83  C   UNL A   1      38.592  34.426  37.070  1.00  0.00     0.002 A 
ATOM     84  C   UNL A   1      37.574  32.447  38.029  1.00  0.00     0.091 A 
ATOM     85  F   UNL A   1      38.040  30.317  37.061  1.00  0.00    -0.205 F 
ATOM     86  C   UNL A   1      37.788  33.833  38.041  1.00  0.00     0.022 A 
BRANCH  84  87
ATOM     87  S   UNL A   1      36.420  31.778  39.232  1.00  0.00     0.127 S 
ATOM     88  O   UNL A   1      35.225  32.580  38.979  1.00  0.00    -0.237 OA
ATOM     89  O   UNL A   1      36.321  30.378  38.817  1.00  0.00    -0.237 OA
ATOM     90  O   UNL A   1      37.056  31.972  40.529  1.00  0.00    -0.744 OA
ENDBRANCH  84  87
ENDBRANCH  56  80
BRANCH  68  91
ATOM     91  C   UNL A   1      44.959  28.678  35.559  1.00  0.00     0.023 A 
ATOM     92  C   UNL A   1      46.109  29.489  35.487  1.00  0.00     0.012 A 
ATOM     93  C   UNL A   1      44.860  27.707  36.575  1.00  0.00     0.148 A 
ATOM     94  C   UNL A   1      47.159  29.311  36.387  1.00  0.00     0.002 A 
ATOM     95  C   UNL A   1      45.892  27.567  37.496  1.00  0.00     0.091 A 
ATOM     96  F   UNL A   1      43.768  26.928  36.617  1.00  0.00    -0.205 F 
ATOM     97  C   UNL A   1      47.046  28.359  37.398  1.00  0.00     0.022 A 
BRANCH  95  98
ATOM     98  S   UNL A   1      45.777  26.425  38.879  1.00  0.00     0.127 S 
ATOM     99  O   UNL A   1      45.619  25.142  38.197  1.00  0.00    -0.237 OA
ATOM    100  O   UNL A   1      47.066  26.605  39.548  1.00  0.00    -0.237 OA
ATOM    101  O   UNL A   1      44.632  26.874  39.660  1.00  0.00    -0.744 OA
ENDBRANCH  95  98
ENDBRANCH  68  91
ENDBRANCH  42  43
ENDBRANCH  35  37
ENDBRANCH  34  35
ENDBRANCH  33  34
ENDBRANCH   1  33
TORSDOF 20
ENDMDL
