MODEL 1
REMARK VINA RESULT:     -11.6      0.000      0.000
REMARK SMILES NC(=O)Nc1ccc(C(=O)N2C[C@@H](O)C[C@@H]2C(=O)OCCOC(=O)c2ccc(-c3c4nc(c(-c5cccc(S(=O)(=O)[O-])c5F)c5ccc([nH]5)c(-c5cccc(S(=O)(=O)[O-])c5F)c5nc(c(-c6cccc(S(=O)(=O)[O-])c6F)c6ccc3[nH]6)C=C5)C=C4)cc2)cc1
REMARK SMILES IDX 20 1 19 2 17 3 18 4 16 5 11 6 12 7 13 8 15 9 9 10 10 11 8 12
REMARK SMILES IDX 5 13 6 14 89 15 7 16 88 17 4 18 1 19 2 20 3 23 14 25 21 27
REMARK SMILES IDX 22 28 23 29 24 30 25 31 26 32 87 33 27 34 86 35 28 36 29 37
REMARK SMILES IDX 30 38 80 39 31 40 85 41 79 42 81 43 32 44 84 45 78 46 77 47
REMARK SMILES IDX 33 49 65 50 45 51 64 52 46 53 49 54 63 55 82 56 47 57 48 58
REMARK SMILES IDX 62 60 83 61 50 62 34 63 35 64 43 65 36 66 38 67 44 68 37 69
REMARK SMILES IDX 39 70 40 71 41 72 42 73 66 74 67 75 75 76 68 77 70 78 76 79
REMARK SMILES IDX 69 80 71 81 72 82 73 83 74 84 51 85 52 86 60 87 53 88 55 89
REMARK SMILES IDX 61 90 54 91 56 92 57 93 58 94 59 95
REMARK H PARENT 1 21 1 22 4 24 14 26 81 48 49 59
REMARK Flexibility Score: inf
ROOT
ATOM      1  C   UNL A   1      31.421  30.504  25.307  1.00  0.00     0.274 C 
ENDROOT
BRANCH   1   2
ATOM      2  O   UNL A   1      31.431  29.186  25.893  1.00  0.00    -0.461 OA
BRANCH   2   3
ATOM      3  C   UNL A   1      32.571  28.470  25.680  1.00  0.00     0.329 C 
ATOM      4  O   UNL A   1      33.653  28.993  25.445  1.00  0.00    -0.250 OA
BRANCH   3   5
ATOM      5  C   UNL A   1      32.369  26.961  25.917  1.00  0.00     0.198 C 
ATOM      6  N   UNL A   1      32.182  26.225  24.656  1.00  0.00    -0.322 N 
ATOM      7  C   UNL A   1      31.118  25.262  24.780  1.00  0.00     0.152 C 
ATOM      8  C   UNL A   1      30.170  25.960  25.740  1.00  0.00     0.136 C 
ATOM      9  C   UNL A   1      31.129  26.597  26.748  1.00  0.00     0.071 C 
BRANCH   6  10
ATOM     10  C   UNL A   1      33.213  26.003  23.766  1.00  0.00     0.254 C 
ATOM     11  O   UNL A   1      33.437  26.737  22.814  1.00  0.00    -0.269 OA
BRANCH  10  12
ATOM     12  C   UNL A   1      34.028  24.784  24.064  1.00  0.00     0.040 A 
ATOM     13  C   UNL A   1      35.342  22.399  24.765  1.00  0.00     0.042 A 
ATOM     14  C   UNL A   1      34.738  22.531  23.509  1.00  0.00     0.027 A 
ATOM     15  C   UNL A   1      35.360  23.495  25.627  1.00  0.00     0.027 A 
ATOM     16  C   UNL A   1      34.073  23.719  23.163  1.00  0.00     0.016 A 
ATOM     17  C   UNL A   1      34.708  24.675  25.283  1.00  0.00     0.016 A 
BRANCH  13  18
ATOM     18  N   UNL A   1      35.960  21.179  25.102  1.00  0.00    -0.308 N 
ATOM     19  N   UNL A   1      38.189  21.812  24.999  1.00  0.00    -0.351 N 
ATOM     20  C   UNL A   1      37.270  20.819  25.007  1.00  0.00     0.316 C 
ATOM     21  H   UNL A   1      39.147  21.595  24.931  1.00  0.00     0.161 HD
ATOM     22  H   UNL A   1      37.900  22.750  25.060  1.00  0.00     0.161 HD
ATOM     23  O   UNL A   1      37.638  19.649  25.004  1.00  0.00    -0.249 OA
ATOM     24  H   UNL A   1      35.358  20.487  25.459  1.00  0.00     0.171 HD
ENDBRANCH  13  18
ENDBRANCH  10  12
ENDBRANCH   6  10
BRANCH   8  25
ATOM     25  O   UNL A   1      29.246  25.088  26.363  1.00  0.00    -0.391 OA
ATOM     26  H   UNL A   1      29.452  24.172  26.119  1.00  0.00     0.211 HD
ENDBRANCH   8  25
ENDBRANCH   3   5
ENDBRANCH   2   3
ENDBRANCH   1   2
BRANCH   1  27
ATOM     27  C   UNL A   1      31.406  31.610  26.371  1.00  0.00     0.275 C 
BRANCH  27  28
ATOM     28  O   UNL A   1      32.384  31.409  27.409  1.00  0.00    -0.458 OA
BRANCH  28  29
ATOM     29  C   UNL A   1      33.212  32.460  27.623  1.00  0.00     0.338 C 
ATOM     30  O   UNL A   1      32.893  33.644  27.597  1.00  0.00    -0.246 OA
BRANCH  29  31
ATOM     31  C   UNL A   1      34.551  32.013  28.049  1.00  0.00     0.060 A 
ATOM     32  C   UNL A   1      34.694  30.667  28.391  1.00  0.00     0.016 A 
ATOM     33  C   UNL A   1      35.634  32.885  28.194  1.00  0.00     0.016 A 
ATOM     34  C   UNL A   1      35.901  30.176  28.868  1.00  0.00     0.010 A 
ATOM     35  C   UNL A   1      36.847  32.397  28.703  1.00  0.00     0.010 A 
ATOM     36  C   UNL A   1      36.979  31.042  29.056  1.00  0.00    -0.014 A 
BRANCH  36  37
ATOM     37  C   UNL A   1      38.175  30.516  29.753  1.00  0.00     0.031 A 
ATOM     38  C   UNL A   1      38.410  30.901  31.184  1.00  0.00     0.074 A 
ATOM     39  C   UNL A   1      38.977  29.622  29.150  1.00  0.00     0.049 A 
ATOM     40  N   UNL A   1      39.362  30.527  31.994  1.00  0.00    -0.248 NA
ATOM     41  C   UNL A   1      37.438  31.832  31.780  1.00  0.00     0.031 C 
ATOM     42  C   UNL A   1      38.809  29.140  27.782  1.00  0.00     0.029 A 
ATOM     43  N   UNL A   1      40.079  28.950  29.611  1.00  0.00    -0.354 N 
ATOM     44  C   UNL A   1      39.130  31.200  33.186  1.00  0.00     0.074 A 
ATOM     45  C   UNL A   1      37.947  32.010  32.990  1.00  0.00     0.031 C 
ATOM     46  C   UNL A   1      39.760  28.229  27.518  1.00  0.00     0.029 A 
ATOM     47  C   UNL A   1      40.638  28.106  28.679  1.00  0.00     0.049 A 
ATOM     48  H   UNL A   1      40.437  29.060  30.521  1.00  0.00     0.167 HD
ATOM     49  C   UNL A   1      39.836  31.145  34.339  1.00  0.00     0.034 A 
ATOM     50  C   UNL A   1      41.746  27.342  28.753  1.00  0.00     0.034 A 
ATOM     51  C   UNL A   1      41.011  30.336  34.524  1.00  0.00     0.049 A 
ATOM     52  C   UNL A   1      42.545  27.344  30.030  1.00  0.00     0.074 A 
ATOM     53  C   UNL A   1      41.807  30.219  35.648  1.00  0.00     0.029 A 
ATOM     54  N   UNL A   1      41.562  29.509  33.555  1.00  0.00    -0.354 N 
ATOM     55  N   UNL A   1      42.292  27.952  31.164  1.00  0.00    -0.248 NA
ATOM     56  C   UNL A   1      43.775  26.540  30.044  1.00  0.00     0.031 C 
ATOM     57  C   UNL A   1      42.861  29.348  35.348  1.00  0.00     0.029 A 
ATOM     58  C   UNL A   1      42.693  28.885  34.052  1.00  0.00     0.049 A 
ATOM     59  H   UNL A   1      41.201  29.384  32.648  1.00  0.00     0.167 HD
ATOM     60  C   UNL A   1      43.305  27.572  32.037  1.00  0.00     0.074 A 
ATOM     61  C   UNL A   1      44.167  26.667  31.304  1.00  0.00     0.031 C 
ATOM     62  C   UNL A   1      43.509  27.944  33.326  1.00  0.00     0.034 A 
BRANCH  49  63
ATOM     63  C   UNL A   1      39.358  32.006  35.479  1.00  0.00     0.023 A 
ATOM     64  C   UNL A   1      38.420  31.500  36.401  1.00  0.00     0.012 A 
ATOM     65  C   UNL A   1      39.844  33.319  35.638  1.00  0.00     0.148 A 
ATOM     66  C   UNL A   1      37.936  32.301  37.435  1.00  0.00     0.002 A 
ATOM     67  C   UNL A   1      39.394  34.095  36.698  1.00  0.00     0.091 A 
ATOM     68  F   UNL A   1      40.717  33.792  34.737  1.00  0.00    -0.205 F 
ATOM     69  C   UNL A   1      38.428  33.594  37.587  1.00  0.00     0.022 A 
BRANCH  67  70
ATOM     70  S   UNL A   1      40.023  35.745  37.023  1.00  0.00     0.127 S 
ATOM     71  O   UNL A   1      39.688  36.439  35.781  1.00  0.00    -0.237 OA
ATOM     72  O   UNL A   1      39.230  36.154  38.183  1.00  0.00    -0.237 OA
ATOM     73  O   UNL A   1      41.446  35.587  37.288  1.00  0.00    -0.744 OA
ENDBRANCH  67  70
ENDBRANCH  49  63
BRANCH  50  74
ATOM     74  C   UNL A   1      42.163  26.502  27.593  1.00  0.00     0.023 A 
ATOM     75  C   UNL A   1      42.879  27.088  26.530  1.00  0.00     0.012 A 
ATOM     76  C   UNL A   1      41.851  25.131  27.535  1.00  0.00     0.148 A 
ATOM     77  C   UNL A   1      43.246  26.330  25.417  1.00  0.00     0.002 A 
ATOM     78  C   UNL A   1      42.273  24.368  26.453  1.00  0.00     0.091 A 
ATOM     79  F   UNL A   1      41.154  24.594  28.547  1.00  0.00    -0.205 F 
ATOM     80  C   UNL A   1      42.952  24.969  25.382  1.00  0.00     0.022 A 
BRANCH  78  81
ATOM     81  S   UNL A   1      42.054  22.587  26.385  1.00  0.00     0.127 S 
ATOM     82  O   UNL A   1      40.600  22.462  26.436  1.00  0.00    -0.237 OA
ATOM     83  O   UNL A   1      42.659  22.262  25.094  1.00  0.00    -0.237 OA
ATOM     84  O   UNL A   1      42.773  22.057  27.535  1.00  0.00    -0.744 OA
ENDBRANCH  78  81
ENDBRANCH  50  74
BRANCH  62  85
ATOM     85  C   UNL A   1      44.674  27.325  34.055  1.00  0.00     0.023 A 
ATOM     86  C   UNL A   1      45.931  27.961  34.059  1.00  0.00     0.012 A 
ATOM     87  C   UNL A   1      44.497  26.138  34.795  1.00  0.00     0.148 A 
ATOM     88  C   UNL A   1      47.004  27.405  34.757  1.00  0.00     0.002 A 
ATOM     89  C   UNL A   1      45.555  25.620  35.532  1.00  0.00     0.091 A 
ATOM     90  F   UNL A   1      43.299  25.536  34.762  1.00  0.00    -0.205 F 
ATOM     91  C   UNL A   1      46.812  26.244  35.502  1.00  0.00     0.022 A 
BRANCH  89  92
ATOM     92  S   UNL A   1      45.372  24.189  36.601  1.00  0.00     0.127 S 
ATOM     93  O   UNL A   1      45.060  23.134  35.638  1.00  0.00    -0.237 OA
ATOM     94  O   UNL A   1      46.698  24.086  37.210  1.00  0.00    -0.237 OA
ATOM     95  O   UNL A   1      44.303  24.519  37.535  1.00  0.00    -0.744 OA
ENDBRANCH  89  92
ENDBRANCH  62  85
ENDBRANCH  36  37
ENDBRANCH  29  31
ENDBRANCH  28  29
ENDBRANCH  27  28
ENDBRANCH   1  27
TORSDOF 18
ENDMDL
MODEL 2
REMARK VINA RESULT:     -11.6      2.357      4.414
REMARK SMILES NC(=O)Nc1ccc(C(=O)N2C[C@@H](O)C[C@@H]2C(=O)OCCOC(=O)c2ccc(-c3c4nc(c(-c5cccc(S(=O)(=O)[O-])c5F)c5ccc([nH]5)c(-c5cccc(S(=O)(=O)[O-])c5F)c5nc(c(-c6cccc(S(=O)(=O)[O-])c6F)c6ccc3[nH]6)C=C5)C=C4)cc2)cc1
REMARK SMILES IDX 20 1 19 2 17 3 18 4 16 5 11 6 12 7 13 8 15 9 9 10 10 11 8 12
REMARK SMILES IDX 5 13 6 14 89 15 7 16 88 17 4 18 1 19 2 20 3 23 14 25 21 27
REMARK SMILES IDX 22 28 23 29 24 30 25 31 26 32 87 33 27 34 86 35 28 36 29 37
REMARK SMILES IDX 30 38 80 39 31 40 85 41 79 42 81 43 32 44 84 45 78 46 77 47
REMARK SMILES IDX 33 49 65 50 45 51 64 52 46 53 49 54 63 55 82 56 47 57 48 58
REMARK SMILES IDX 62 60 83 61 50 62 34 63 35 64 43 65 36 66 38 67 44 68 37 69
REMARK SMILES IDX 39 70 40 71 41 72 42 73 66 74 67 75 75 76 68 77 70 78 76 79
REMARK SMILES IDX 69 80 71 81 72 82 73 83 74 84 51 85 52 86 60 87 53 88 55 89
REMARK SMILES IDX 61 90 54 91 56 92 57 93 58 94 59 95
REMARK H PARENT 1 21 1 22 4 24 14 26 81 48 49 59
REMARK Flexibility Score: inf
ROOT
ATOM      1  C   UNL A   1      31.606  29.181  27.291  1.00  0.00     0.274 C 
ENDROOT
BRANCH   1   2
ATOM      2  O   UNL A   1      31.298  28.265  26.221  1.00  0.00    -0.461 OA
BRANCH   2   3
ATOM      3  C   UNL A   1      32.364  27.565  25.739  1.00  0.00     0.329 C 
ATOM      4  O   UNL A   1      33.194  27.029  26.463  1.00  0.00    -0.250 OA
BRANCH   3   5
ATOM      5  C   UNL A   1      32.314  27.403  24.207  1.00  0.00     0.198 C 
ATOM      6  N   UNL A   1      31.285  26.438  23.789  1.00  0.00    -0.322 N 
ATOM      7  C   UNL A   1      31.787  25.571  22.755  1.00  0.00     0.152 C 
ATOM      8  C   UNL A   1      33.254  25.445  23.134  1.00  0.00     0.136 C 
ATOM      9  C   UNL A   1      33.605  26.869  23.570  1.00  0.00     0.071 C 
BRANCH   6  10
ATOM     10  C   UNL A   1      29.934  26.716  23.859  1.00  0.00     0.254 C 
ATOM     11  O   UNL A   1      29.132  25.973  24.407  1.00  0.00    -0.269 OA
BRANCH  10  12
ATOM     12  C   UNL A   1      29.537  28.001  23.202  1.00  0.00     0.040 A 
ATOM     13  C   UNL A   1      28.765  30.272  21.735  1.00  0.00     0.042 A 
ATOM     14  C   UNL A   1      27.829  29.580  22.514  1.00  0.00     0.027 A 
ATOM     15  C   UNL A   1      30.101  29.873  21.768  1.00  0.00     0.027 A 
ATOM     16  C   UNL A   1      28.213  28.440  23.239  1.00  0.00     0.016 A 
ATOM     17  C   UNL A   1      30.484  28.748  22.491  1.00  0.00     0.016 A 
BRANCH  13  18
ATOM     18  N   UNL A   1      28.341  31.383  20.982  1.00  0.00    -0.308 N 
ATOM     19  N   UNL A   1      28.749  33.085  22.504  1.00  0.00    -0.351 N 
ATOM     20  C   UNL A   1      28.117  32.665  21.384  1.00  0.00     0.316 C 
ATOM     21  H   UNL A   1      28.615  34.004  22.829  1.00  0.00     0.161 HD
ATOM     22  H   UNL A   1      29.342  32.472  22.993  1.00  0.00     0.161 HD
ATOM     23  O   UNL A   1      27.437  33.455  20.737  1.00  0.00    -0.249 OA
ATOM     24  H   UNL A   1      28.183  31.208  20.026  1.00  0.00     0.171 HD
ENDBRANCH  13  18
ENDBRANCH  10  12
ENDBRANCH   6  10
BRANCH   8  25
ATOM     25  O   UNL A   1      34.078  24.993  22.076  1.00  0.00    -0.391 OA
ATOM     26  H   UNL A   1      33.523  24.647  21.360  1.00  0.00     0.211 HD
ENDBRANCH   8  25
ENDBRANCH   3   5
ENDBRANCH   2   3
ENDBRANCH   1   2
BRANCH   1  27
ATOM     27  C   UNL A   1      31.881  30.601  26.777  1.00  0.00     0.275 C 
BRANCH  27  28
ATOM     28  O   UNL A   1      33.282  30.867  26.571  1.00  0.00    -0.458 OA
BRANCH  28  29
ATOM     29  C   UNL A   1      33.813  31.797  27.400  1.00  0.00     0.338 C 
ATOM     30  O   UNL A   1      33.230  32.780  27.846  1.00  0.00    -0.246 OA
BRANCH  29  31
ATOM     31  C   UNL A   1      35.167  31.415  27.843  1.00  0.00     0.060 A 
ATOM     32  C   UNL A   1      35.400  30.058  28.075  1.00  0.00     0.016 A 
ATOM     33  C   UNL A   1      36.173  32.347  28.107  1.00  0.00     0.016 A 
ATOM     34  C   UNL A   1      36.624  29.617  28.560  1.00  0.00     0.010 A 
ATOM     35  C   UNL A   1      37.402  31.908  28.624  1.00  0.00     0.010 A 
ATOM     36  C   UNL A   1      37.625  30.541  28.866  1.00  0.00    -0.014 A 
BRANCH  36  37
ATOM     37  C   UNL A   1      38.832  30.045  29.566  1.00  0.00     0.031 A 
ATOM     38  C   UNL A   1      39.104  30.513  30.965  1.00  0.00     0.074 A 
ATOM     39  C   UNL A   1      39.610  29.107  29.000  1.00  0.00     0.049 A 
ATOM     40  N   UNL A   1      40.072  30.179  31.774  1.00  0.00    -0.248 NA
ATOM     41  C   UNL A   1      38.156  31.489  31.525  1.00  0.00     0.031 C 
ATOM     42  C   UNL A   1      39.406  28.545  27.668  1.00  0.00     0.029 A 
ATOM     43  N   UNL A   1      40.717  28.452  29.475  1.00  0.00    -0.354 N 
ATOM     44  C   UNL A   1      39.874  30.926  32.928  1.00  0.00     0.074 A 
ATOM     45  C   UNL A   1      38.694  31.735  32.710  1.00  0.00     0.031 C 
ATOM     46  C   UNL A   1      40.342  27.609  27.438  1.00  0.00     0.029 A 
ATOM     47  C   UNL A   1      41.245  27.548  28.584  1.00  0.00     0.049 A 
ATOM     48  H   UNL A   1      41.098  28.614  30.369  1.00  0.00     0.167 HD
ATOM     49  C   UNL A   1      40.607  30.933  34.065  1.00  0.00     0.034 A 
ATOM     50  C   UNL A   1      42.348  26.777  28.678  1.00  0.00     0.034 A 
ATOM     51  C   UNL A   1      41.778  30.124  34.272  1.00  0.00     0.049 A 
ATOM     52  C   UNL A   1      43.177  26.849  29.934  1.00  0.00     0.074 A 
ATOM     53  C   UNL A   1      42.600  30.067  35.382  1.00  0.00     0.029 A 
ATOM     54  N   UNL A   1      42.298  29.234  33.343  1.00  0.00    -0.354 N 
ATOM     55  N   UNL A   1      42.957  27.527  31.035  1.00  0.00    -0.248 NA
ATOM     56  C   UNL A   1      44.400  26.033  29.968  1.00  0.00     0.031 C 
ATOM     57  C   UNL A   1      43.638  29.168  35.112  1.00  0.00     0.029 A 
ATOM     58  C   UNL A   1      43.435  28.629  33.851  1.00  0.00     0.049 A 
ATOM     59  H   UNL A   1      41.915  29.059  32.454  1.00  0.00     0.167 HD
ATOM     60  C   UNL A   1      43.987  27.190  31.905  1.00  0.00     0.074 A 
ATOM     61  C   UNL A   1      44.822  26.233  31.209  1.00  0.00     0.031 C 
ATOM     62  C   UNL A   1      44.225  27.637  33.164  1.00  0.00     0.034 A 
BRANCH  49  63
ATOM     63  C   UNL A   1      40.165  31.867  35.161  1.00  0.00     0.023 A 
ATOM     64  C   UNL A   1      40.710  33.164  35.247  1.00  0.00     0.012 A 
ATOM     65  C   UNL A   1      39.205  31.457  36.107  1.00  0.00     0.148 A 
ATOM     66  C   UNL A   1      40.341  34.022  36.282  1.00  0.00     0.002 A 
ATOM     67  C   UNL A   1      38.807  32.334  37.108  1.00  0.00     0.091 A 
ATOM     68  F   UNL A   1      38.716  30.211  36.025  1.00  0.00    -0.205 F 
ATOM     69  C   UNL A   1      39.386  33.610  37.207  1.00  0.00     0.022 A 
BRANCH  67  70
ATOM     70  S   UNL A   1      37.529  31.924  38.301  1.00  0.00     0.127 S 
ATOM     71  O   UNL A   1      38.234  32.114  39.567  1.00  0.00    -0.237 OA
ATOM     72  O   UNL A   1      36.507  32.932  38.015  1.00  0.00    -0.237 OA
ATOM     73  O   UNL A   1      37.129  30.555  38.007  1.00  0.00    -0.744 OA
ENDBRANCH  67  70
ENDBRANCH  49  63
BRANCH  50  74
ATOM     74  C   UNL A   1      42.730  25.865  27.563  1.00  0.00     0.023 A 
ATOM     75  C   UNL A   1      43.655  26.298  26.592  1.00  0.00     0.012 A 
ATOM     76  C   UNL A   1      42.179  24.574  27.455  1.00  0.00     0.148 A 
ATOM     77  C   UNL A   1      43.997  25.476  25.518  1.00  0.00     0.002 A 
ATOM     78  C   UNL A   1      42.570  23.736  26.417  1.00  0.00     0.091 A 
ATOM     79  F   UNL A   1      41.287  24.184  28.376  1.00  0.00    -0.205 F 
ATOM     80  C   UNL A   1      43.463  24.192  25.435  1.00  0.00     0.022 A 
BRANCH  78  81
ATOM     81  S   UNL A   1      42.036  22.026  26.305  1.00  0.00     0.127 S 
ATOM     82  O   UNL A   1      42.826  21.538  25.178  1.00  0.00    -0.237 OA
ATOM     83  O   UNL A   1      42.434  21.504  27.612  1.00  0.00    -0.237 OA
ATOM     84  O   UNL A   1      40.596  22.076  26.091  1.00  0.00    -0.744 OA
ENDBRANCH  78  81
ENDBRANCH  50  74
BRANCH  62  85
ATOM     85  C   UNL A   1      45.401  27.051  33.902  1.00  0.00     0.023 A 
ATOM     86  C   UNL A   1      46.669  27.661  33.821  1.00  0.00     0.012 A 
ATOM     87  C   UNL A   1      45.227  25.925  34.733  1.00  0.00     0.148 A 
ATOM     88  C   UNL A   1      47.752  27.137  34.527  1.00  0.00     0.002 A 
ATOM     89  C   UNL A   1      46.298  25.443  35.475  1.00  0.00     0.091 A 
ATOM     90  F   UNL A   1      44.018  25.347  34.782  1.00  0.00    -0.205 F 
ATOM     91  C   UNL A   1      47.564  26.038  35.361  1.00  0.00     0.022 A 
BRANCH  89  92
ATOM     92  S   UNL A   1      46.123  24.099  36.654  1.00  0.00     0.127 S 
ATOM     93  O   UNL A   1      45.784  22.978  35.779  1.00  0.00    -0.237 OA
ATOM     94  O   UNL A   1      47.460  24.030  37.244  1.00  0.00    -0.237 OA
ATOM     95  O   UNL A   1      45.076  24.510  37.579  1.00  0.00    -0.744 OA
ENDBRANCH  89  92
ENDBRANCH  62  85
ENDBRANCH  36  37
ENDBRANCH  29  31
ENDBRANCH  28  29
ENDBRANCH  27  28
ENDBRANCH   1  27
TORSDOF 18
ENDMDL
MODEL 3
REMARK VINA RESULT:     -11.4      4.845     10.261
REMARK SMILES NC(=O)Nc1ccc(C(=O)N2C[C@@H](O)C[C@@H]2C(=O)OCCOC(=O)c2ccc(-c3c4nc(c(-c5cccc(S(=O)(=O)[O-])c5F)c5ccc([nH]5)c(-c5cccc(S(=O)(=O)[O-])c5F)c5nc(c(-c6cccc(S(=O)(=O)[O-])c6F)c6ccc3[nH]6)C=C5)C=C4)cc2)cc1
REMARK SMILES IDX 20 1 19 2 17 3 18 4 16 5 11 6 12 7 13 8 15 9 9 10 10 11 8 12
REMARK SMILES IDX 5 13 6 14 89 15 7 16 88 17 4 18 1 19 2 20 3 23 14 25 21 27
REMARK SMILES IDX 22 28 23 29 24 30 25 31 26 32 87 33 27 34 86 35 28 36 29 37
REMARK SMILES IDX 30 38 80 39 31 40 85 41 79 42 81 43 32 44 84 45 78 46 77 47
REMARK SMILES IDX 33 49 65 50 45 51 64 52 46 53 49 54 63 55 82 56 47 57 48 58
REMARK SMILES IDX 62 60 83 61 50 62 34 63 35 64 43 65 36 66 38 67 44 68 37 69
REMARK SMILES IDX 39 70 40 71 41 72 42 73 66 74 67 75 75 76 68 77 70 78 76 79
REMARK SMILES IDX 69 80 71 81 72 82 73 83 74 84 51 85 52 86 60 87 53 88 55 89
REMARK SMILES IDX 61 90 54 91 56 92 57 93 58 94 59 95
REMARK H PARENT 1 21 1 22 4 24 14 26 81 48 49 59
REMARK Flexibility Score: inf
ROOT
ATOM      1  C   UNL A   1      35.758  20.737  24.655  1.00  0.00     0.274 C 
ENDROOT
BRANCH   1   2
ATOM      2  O   UNL A   1      34.830  21.824  24.462  1.00  0.00    -0.461 OA
BRANCH   2   3
ATOM      3  C   UNL A   1      34.037  22.102  25.536  1.00  0.00     0.329 C 
ATOM      4  O   UNL A   1      34.427  22.013  26.693  1.00  0.00    -0.250 OA
BRANCH   3   5
ATOM      5  C   UNL A   1      32.669  22.678  25.122  1.00  0.00     0.198 C 
ATOM      6  N   UNL A   1      32.375  23.946  25.809  1.00  0.00    -0.322 N 
ATOM      7  C   UNL A   1      31.009  23.976  26.263  1.00  0.00     0.152 C 
ATOM      8  C   UNL A   1      30.755  22.515  26.598  1.00  0.00     0.136 C 
ATOM      9  C   UNL A   1      31.464  21.786  25.455  1.00  0.00     0.071 C 
BRANCH   6  10
ATOM     10  C   UNL A   1      33.025  25.125  25.504  1.00  0.00     0.254 C 
ATOM     11  O   UNL A   1      34.168  25.365  25.867  1.00  0.00    -0.269 OA
BRANCH  10  12
ATOM     12  C   UNL A   1      32.209  26.084  24.695  1.00  0.00     0.040 A 
ATOM     13  C   UNL A   1      30.458  27.724  23.228  1.00  0.00     0.042 A 
ATOM     14  C   UNL A   1      30.800  28.053  24.546  1.00  0.00     0.027 A 
ATOM     15  C   UNL A   1      31.067  26.623  22.626  1.00  0.00     0.027 A 
ATOM     16  C   UNL A   1      31.667  27.228  25.281  1.00  0.00     0.016 A 
ATOM     17  C   UNL A   1      31.931  25.809  23.351  1.00  0.00     0.016 A 
BRANCH  13  18
ATOM     18  N   UNL A   1      29.550  28.544  22.532  1.00  0.00    -0.308 N 
ATOM     19  N   UNL A   1      31.022  30.057  21.572  1.00  0.00    -0.351 N 
ATOM     20  C   UNL A   1      29.756  29.752  21.938  1.00  0.00     0.316 C 
ATOM     21  H   UNL A   1      31.216  30.919  21.140  1.00  0.00     0.161 HD
ATOM     22  H   UNL A   1      31.750  29.416  21.738  1.00  0.00     0.161 HD
ATOM     23  O   UNL A   1      28.842  30.521  21.663  1.00  0.00    -0.249 OA
ATOM     24  H   UNL A   1      28.633  28.192  22.465  1.00  0.00     0.171 HD
ENDBRANCH  13  18
ENDBRANCH  10  12
ENDBRANCH   6  10
BRANCH   8  25
ATOM     25  O   UNL A   1      29.383  22.178  26.674  1.00  0.00    -0.391 OA
ATOM     26  H   UNL A   1      29.234  21.607  27.444  1.00  0.00     0.211 HD
ENDBRANCH   8  25
ENDBRANCH   3   5
ENDBRANCH   2   3
ENDBRANCH   1   2
BRANCH   1  27
ATOM     27  C   UNL A   1      37.215  21.218  24.683  1.00  0.00     0.275 C 
BRANCH  27  28
ATOM     28  O   UNL A   1      37.707  21.455  26.016  1.00  0.00    -0.458 OA
BRANCH  28  29
ATOM     29  C   UNL A   1      39.052  21.369  26.151  1.00  0.00     0.338 C 
ATOM     30  O   UNL A   1      39.764  20.474  25.708  1.00  0.00    -0.246 OA
BRANCH  29  31
ATOM     31  C   UNL A   1      39.609  22.579  26.784  1.00  0.00     0.060 A 
ATOM     32  C   UNL A   1      39.044  23.803  26.422  1.00  0.00     0.016 A 
ATOM     33  C   UNL A   1      40.705  22.550  27.650  1.00  0.00     0.016 A 
ATOM     34  C   UNL A   1      39.551  24.997  26.915  1.00  0.00     0.010 A 
ATOM     35  C   UNL A   1      41.238  23.756  28.128  1.00  0.00     0.010 A 
ATOM     36  C   UNL A   1      40.671  24.986  27.749  1.00  0.00    -0.014 A 
BRANCH  36  37
ATOM     37  C   UNL A   1      41.295  26.286  28.085  1.00  0.00     0.031 A 
ATOM     38  C   UNL A   1      42.673  26.584  27.572  1.00  0.00     0.074 A 
ATOM     39  C   UNL A   1      40.597  27.226  28.745  1.00  0.00     0.049 A 
ATOM     40  N   UNL A   1      43.389  27.667  27.710  1.00  0.00    -0.248 NA
ATOM     41  C   UNL A   1      43.330  25.517  26.801  1.00  0.00     0.031 C 
ATOM     42  C   UNL A   1      39.234  27.060  29.241  1.00  0.00     0.029 A 
ATOM     43  N   UNL A   1      40.929  28.509  29.097  1.00  0.00    -0.354 N 
ATOM     44  C   UNL A   1      44.595  27.405  27.074  1.00  0.00     0.074 A 
ATOM     45  C   UNL A   1      44.514  26.057  26.553  1.00  0.00     0.031 C 
ATOM     46  C   UNL A   1      38.833  28.206  29.815  1.00  0.00     0.029 A 
ATOM     47  C   UNL A   1      39.932  29.168  29.777  1.00  0.00     0.049 A 
ATOM     48  H   UNL A   1      41.799  28.918  28.885  1.00  0.00     0.167 HD
ATOM     49  C   UNL A   1      45.669  28.215  26.933  1.00  0.00     0.034 A 
ATOM     50  C   UNL A   1      39.920  30.400  30.324  1.00  0.00     0.034 A 
ATOM     51  C   UNL A   1      45.739  29.555  27.452  1.00  0.00     0.049 A 
ATOM     52  C   UNL A   1      41.152  31.259  30.202  1.00  0.00     0.074 A 
ATOM     53  C   UNL A   1      46.786  30.454  27.377  1.00  0.00     0.029 A 
ATOM     54  N   UNL A   1      44.720  30.185  28.153  1.00  0.00    -0.354 N 
ATOM     55  N   UNL A   1      42.271  31.016  29.562  1.00  0.00    -0.248 NA
ATOM     56  C   UNL A   1      41.113  32.572  30.863  1.00  0.00     0.031 C 
ATOM     57  C   UNL A   1      46.414  31.617  28.062  1.00  0.00     0.029 A 
ATOM     58  C   UNL A   1      45.116  31.459  28.522  1.00  0.00     0.049 A 
ATOM     59  H   UNL A   1      43.844  29.785  28.357  1.00  0.00     0.167 HD
ATOM     60  C   UNL A   1      43.051  32.158  29.707  1.00  0.00     0.074 A 
ATOM     61  C   UNL A   1      42.268  33.099  30.483  1.00  0.00     0.031 C 
ATOM     62  C   UNL A   1      44.303  32.403  29.248  1.00  0.00     0.034 A 
BRANCH  49  63
ATOM     63  C   UNL A   1      46.861  27.656  26.202  1.00  0.00     0.023 A 
ATOM     64  C   UNL A   1      46.995  27.856  24.812  1.00  0.00     0.012 A 
ATOM     65  C   UNL A   1      47.851  26.932  26.894  1.00  0.00     0.148 A 
ATOM     66  C   UNL A   1      48.070  27.305  24.116  1.00  0.00     0.002 A 
ATOM     67  C   UNL A   1      48.945  26.427  26.202  1.00  0.00     0.091 A 
ATOM     68  F   UNL A   1      47.694  26.730  28.211  1.00  0.00    -0.205 F 
ATOM     69  C   UNL A   1      49.048  26.599  24.812  1.00  0.00     0.022 A 
BRANCH  67  70
ATOM     70  S   UNL A   1      50.293  25.569  27.020  1.00  0.00     0.127 S 
ATOM     71  O   UNL A   1      50.700  26.548  28.026  1.00  0.00    -0.237 OA
ATOM     72  O   UNL A   1      49.622  24.385  27.558  1.00  0.00    -0.237 OA
ATOM     73  O   UNL A   1      51.278  25.289  25.984  1.00  0.00    -0.744 OA
ENDBRANCH  67  70
ENDBRANCH  49  63
BRANCH  50  74
ATOM     74  C   UNL A   1      38.706  30.903  31.028  1.00  0.00     0.023 A 
ATOM     75  C   UNL A   1      38.618  30.797  32.431  1.00  0.00     0.012 A 
ATOM     76  C   UNL A   1      37.637  31.480  30.317  1.00  0.00     0.148 A 
ATOM     77  C   UNL A   1      37.475  31.226  33.106  1.00  0.00     0.002 A 
ATOM     78  C   UNL A   1      36.527  31.961  31.002  1.00  0.00     0.091 A 
ATOM     79  F   UNL A   1      37.729  31.557  28.982  1.00  0.00    -0.205 F 
ATOM     80  C   UNL A   1      36.434  31.816  32.394  1.00  0.00     0.022 A 
BRANCH  78  81
ATOM     81  S   UNL A   1      35.201  32.852  30.182  1.00  0.00     0.127 S 
ATOM     82  O   UNL A   1      35.911  34.000  29.625  1.00  0.00    -0.237 OA
ATOM     83  O   UNL A   1      34.746  31.869  29.200  1.00  0.00    -0.237 OA
ATOM     84  O   UNL A   1      34.228  33.156  31.222  1.00  0.00    -0.744 OA
ENDBRANCH  78  81
ENDBRANCH  50  74
BRANCH  62  85
ATOM     85  C   UNL A   1      44.889  33.766  29.513  1.00  0.00     0.023 A 
ATOM     86  C   UNL A   1      45.568  34.029  30.720  1.00  0.00     0.012 A 
ATOM     87  C   UNL A   1      44.821  34.771  28.526  1.00  0.00     0.148 A 
ATOM     88  C   UNL A   1      46.136  35.281  30.955  1.00  0.00     0.002 A 
ATOM     89  C   UNL A   1      45.438  35.997  28.745  1.00  0.00     0.091 A 
ATOM     90  F   UNL A   1      44.155  34.510  27.392  1.00  0.00    -0.205 F 
ATOM     91  C   UNL A   1      46.082  36.259  29.964  1.00  0.00     0.022 A 
BRANCH  89  92
ATOM     92  S   UNL A   1      45.508  37.277  27.486  1.00  0.00     0.127 S 
ATOM     93  O   UNL A   1      44.093  37.606  27.316  1.00  0.00    -0.237 OA
ATOM     94  O   UNL A   1      46.301  38.315  28.145  1.00  0.00    -0.237 OA
ATOM     95  O   UNL A   1      46.152  36.668  26.330  1.00  0.00    -0.744 OA
ENDBRANCH  89  92
ENDBRANCH  62  85
ENDBRANCH  36  37
ENDBRANCH  29  31
ENDBRANCH  28  29
ENDBRANCH  27  28
ENDBRANCH   1  27
TORSDOF 18
ENDMDL
