MODEL 1
REMARK VINA RESULT:     -11.9      0.000      0.000
REMARK SMILES COc1cc(OC(F)(F)F)cc2c1O[C@@H](C(F)(F)F)C(C(=O)OCCOC(=O)c1ccc(-c3c4nc(c(-c5cccc(S(=O)(=O)[O-])c5F)c5ccc([nH]5)c(-c5cccc(S(=O)(=O)[O-])c5F)c5nc(c(-c6cccc(S(=O)(=O)[O-])c6F)c6ccc3[nH]6)C=C5)C=C4)cc1)=C2
REMARK SMILES IDX 25 1 24 2 23 3 21 4 22 5 20 6 3 7 4 8 13 9 5 10 12 11 14 12
REMARK SMILES IDX 11 13 92 14 15 15 2 16 1 17 6 18 7 19 8 20 9 21 10 22 16 23
REMARK SMILES IDX 17 24 18 25 19 26 26 27 27 28 28 29 29 30 30 31 91 32 31 33
REMARK SMILES IDX 90 34 32 35 33 36 34 37 84 38 35 39 89 40 83 41 85 42 36 43
REMARK SMILES IDX 88 44 82 45 81 46 37 48 69 49 49 50 68 51 50 52 53 53 67 54
REMARK SMILES IDX 86 55 51 56 52 57 66 59 87 60 54 61 38 62 39 63 47 64 40 65
REMARK SMILES IDX 42 66 48 67 41 68 43 69 44 70 45 71 46 72 70 73 71 74 79 75
REMARK SMILES IDX 72 76 74 77 80 78 73 79 75 80 76 81 77 82 78 83 55 84 56 85
REMARK SMILES IDX 64 86 57 87 59 88 65 89 58 90 60 91 61 92 62 93 63 94
REMARK H PARENT 85 47 53 58
REMARK Flexibility Score: inf
ROOT
ATOM      1  C   UNL A   1      37.360  20.282  24.955  1.00  0.00     0.275 C 
ENDROOT
BRANCH   1   2
ATOM      2  C   UNL A   1      35.862  20.600  24.905  1.00  0.00     0.275 C 
BRANCH   2   3
ATOM      3  O   UNL A   1      35.585  21.954  25.318  1.00  0.00    -0.459 OA
BRANCH   3   4
ATOM      4  C   UNL A   1      35.367  22.842  24.313  1.00  0.00     0.338 C 
ATOM      5  O   UNL A   1      35.979  22.874  23.259  1.00  0.00    -0.246 OA
BRANCH   4   6
ATOM      6  C   UNL A   1      34.257  23.769  24.626  1.00  0.00     0.087 C 
ATOM      7  C   UNL A   1      31.004  26.293  25.307  1.00  0.00     0.165 A 
ATOM      8  C   UNL A   1      31.151  27.460  26.057  1.00  0.00     0.097 A 
ATOM      9  C   UNL A   1      32.118  25.512  24.995  1.00  0.00     0.170 A 
ATOM     10  C   UNL A   1      32.410  27.825  26.534  1.00  0.00     0.134 A 
ATOM     11  C   UNL A   1      33.371  25.820  25.530  1.00  0.00     0.025 A 
ATOM     12  O   UNL A   1      31.972  24.516  24.071  1.00  0.00    -0.471 OA
ATOM     13  C   UNL A   1      33.509  26.981  26.302  1.00  0.00     0.059 A 
ATOM     14  C   UNL A   1      34.507  24.945  25.233  1.00  0.00     0.027 C 
ATOM     15  C   UNL A   1      32.840  23.369  24.251  1.00  0.00     0.316 C 
BRANCH   7  16
ATOM     16  O   UNL A   1      29.741  26.003  24.858  1.00  0.00    -0.493 OA
ATOM     17  C   UNL A   1      29.365  26.853  23.768  1.00  0.00     0.278 C 
ENDBRANCH   7  16
BRANCH  10  18
ATOM     18  O   UNL A   1      32.697  28.962  27.239  1.00  0.00    -0.406 OA
BRANCH  18  19
ATOM     19  C   UNL A   1      33.297  30.032  26.523  1.00  0.00     0.573 C 
ATOM     20  F   UNL A   1      34.637  30.058  26.698  1.00  0.00    -0.132 F 
ATOM     21  F   UNL A   1      33.013  29.955  25.206  1.00  0.00    -0.132 F 
ATOM     22  F   UNL A   1      32.796  31.199  26.992  1.00  0.00    -0.132 F 
ENDBRANCH  18  19
ENDBRANCH  10  18
BRANCH  15  23
ATOM     23  C   UNL A   1      32.619  22.433  23.048  1.00  0.00     0.430 C 
ATOM     24  F   UNL A   1      32.972  21.159  23.334  1.00  0.00    -0.167 F 
ATOM     25  F   UNL A   1      31.298  22.389  22.730  1.00  0.00    -0.167 F 
ATOM     26  F   UNL A   1      33.281  22.840  21.945  1.00  0.00    -0.167 F 
ENDBRANCH  15  23
ENDBRANCH   4   6
ENDBRANCH   3   4
ENDBRANCH   2   3
ENDBRANCH   1   2
BRANCH   1  27
ATOM     27  O   UNL A   1      38.127  21.431  25.358  1.00  0.00    -0.458 OA
BRANCH  27  28
ATOM     28  C   UNL A   1      39.265  21.137  26.033  1.00  0.00     0.338 C 
ATOM     29  O   UNL A   1      39.862  20.073  26.019  1.00  0.00    -0.246 OA
BRANCH  28  30
ATOM     30  C   UNL A   1      39.823  22.352  26.660  1.00  0.00     0.060 A 
ATOM     31  C   UNL A   1      39.311  23.573  26.209  1.00  0.00     0.016 A 
ATOM     32  C   UNL A   1      40.824  22.329  27.633  1.00  0.00     0.016 A 
ATOM     33  C   UNL A   1      39.756  24.771  26.762  1.00  0.00     0.010 A 
ATOM     34  C   UNL A   1      41.309  23.538  28.154  1.00  0.00     0.010 A 
ATOM     35  C   UNL A   1      40.776  24.763  27.720  1.00  0.00    -0.014 A 
BRANCH  35  36
ATOM     36  C   UNL A   1      41.370  26.062  28.112  1.00  0.00     0.031 A 
ATOM     37  C   UNL A   1      42.767  26.377  27.659  1.00  0.00     0.074 A 
ATOM     38  C   UNL A   1      40.660  26.981  28.789  1.00  0.00     0.049 A 
ATOM     39  N   UNL A   1      43.431  27.499  27.740  1.00  0.00    -0.248 NA
ATOM     40  C   UNL A   1      43.503  25.281  27.010  1.00  0.00     0.031 C 
ATOM     41  C   UNL A   1      39.287  26.813  29.259  1.00  0.00     0.029 A 
ATOM     42  N   UNL A   1      41.005  28.247  29.192  1.00  0.00    -0.354 N 
ATOM     43  C   UNL A   1      44.665  27.248  27.154  1.00  0.00     0.074 A 
ATOM     44  C   UNL A   1      44.661  25.863  26.735  1.00  0.00     0.031 C 
ATOM     45  C   UNL A   1      38.907  27.935  29.898  1.00  0.00     0.029 A 
ATOM     46  C   UNL A   1      40.011  28.894  29.887  1.00  0.00     0.049 A 
ATOM     47  H   UNL A   1      41.881  28.653  29.002  1.00  0.00     0.167 HD
ATOM     48  C   UNL A   1      45.707  28.094  26.970  1.00  0.00     0.034 A 
ATOM     49  C   UNL A   1      39.995  30.124  30.442  1.00  0.00     0.034 A 
ATOM     50  C   UNL A   1      45.728  29.461  27.416  1.00  0.00     0.049 A 
ATOM     51  C   UNL A   1      41.194  31.026  30.282  1.00  0.00     0.074 A 
ATOM     52  C   UNL A   1      46.733  30.401  27.265  1.00  0.00     0.029 A 
ATOM     53  N   UNL A   1      44.712  30.076  28.131  1.00  0.00    -0.354 N 
ATOM     54  N   UNL A   1      42.303  30.821  29.611  1.00  0.00    -0.248 NA
ATOM     55  C   UNL A   1      41.119  32.347  30.923  1.00  0.00     0.031 C 
ATOM     56  C   UNL A   1      46.338  31.572  27.923  1.00  0.00     0.029 A 
ATOM     57  C   UNL A   1      45.069  31.376  28.445  1.00  0.00     0.049 A 
ATOM     58  H   UNL A   1      43.859  29.651  28.379  1.00  0.00     0.167 HD
ATOM     59  C   UNL A   1      43.030  32.005  29.703  1.00  0.00     0.074 A 
ATOM     60  C   UNL A   1      42.232  32.922  30.490  1.00  0.00     0.031 C 
ATOM     61  C   UNL A   1      44.248  32.304  29.184  1.00  0.00     0.034 A 
BRANCH  48  62
ATOM     62  C   UNL A   1      46.913  27.543  26.258  1.00  0.00     0.023 A 
ATOM     63  C   UNL A   1      47.029  27.690  24.859  1.00  0.00     0.012 A 
ATOM     64  C   UNL A   1      47.925  26.873  26.969  1.00  0.00     0.148 A 
ATOM     65  C   UNL A   1      48.110  27.136  24.176  1.00  0.00     0.002 A 
ATOM     66  C   UNL A   1      49.021  26.362  26.287  1.00  0.00     0.091 A 
ATOM     67  F   UNL A   1      47.782  26.718  28.293  1.00  0.00    -0.205 F 
ATOM     68  C   UNL A   1      49.110  26.479  24.889  1.00  0.00     0.022 A 
BRANCH  66  69
ATOM     69  S   UNL A   1      50.389  25.563  27.132  1.00  0.00     0.127 S 
ATOM     70  O   UNL A   1      49.752  24.351  27.643  1.00  0.00    -0.237 OA
ATOM     71  O   UNL A   1      51.339  25.338  26.041  1.00  0.00    -0.237 OA
ATOM     72  O   UNL A   1      50.843  26.512  28.139  1.00  0.00    -0.744 OA
ENDBRANCH  66  69
ENDBRANCH  48  62
BRANCH  49  73
ATOM     73  C   UNL A   1      38.776  30.610  31.149  1.00  0.00     0.023 A 
ATOM     74  C   UNL A   1      38.659  30.416  32.539  1.00  0.00     0.012 A 
ATOM     75  C   UNL A   1      37.735  31.256  30.453  1.00  0.00     0.148 A 
ATOM     76  C   UNL A   1      37.512  30.828  33.220  1.00  0.00     0.002 A 
ATOM     77  C   UNL A   1      36.617  31.706  31.146  1.00  0.00     0.091 A 
ATOM     78  F   UNL A   1      37.863  31.419  29.130  1.00  0.00    -0.205 F 
ATOM     79  C   UNL A   1      36.496  31.480  32.526  1.00  0.00     0.022 A 
BRANCH  77  80
ATOM     80  S   UNL A   1      35.297  32.637  30.359  1.00  0.00     0.127 S 
ATOM     81  O   UNL A   1      35.999  33.843  29.925  1.00  0.00    -0.237 OA
ATOM     82  O   UNL A   1      34.900  31.734  29.279  1.00  0.00    -0.237 OA
ATOM     83  O   UNL A   1      34.285  32.838  31.386  1.00  0.00    -0.744 OA
ENDBRANCH  77  80
ENDBRANCH  49  73
BRANCH  61  84
ATOM     84  C   UNL A   1      44.781  33.701  29.392  1.00  0.00     0.023 A 
ATOM     85  C   UNL A   1      45.426  34.045  30.596  1.00  0.00     0.012 A 
ATOM     86  C   UNL A   1      44.700  34.657  28.359  1.00  0.00     0.148 A 
ATOM     87  C   UNL A   1      45.942  35.327  30.785  1.00  0.00     0.002 A 
ATOM     88  C   UNL A   1      45.264  35.916  28.533  1.00  0.00     0.091 A 
ATOM     89  F   UNL A   1      44.066  34.323  27.225  1.00  0.00    -0.205 F 
ATOM     90  C   UNL A   1      45.872  36.259  29.750  1.00  0.00     0.022 A 
BRANCH  88  91
ATOM     91  S   UNL A   1      45.310  37.135  27.213  1.00  0.00     0.127 S 
ATOM     92  O   UNL A   1      46.165  38.170  27.792  1.00  0.00    -0.237 OA
ATOM     93  O   UNL A   1      45.920  36.385  26.114  1.00  0.00    -0.237 OA
ATOM     94  O   UNL A   1      43.924  37.521  26.980  1.00  0.00    -0.744 OA
ENDBRANCH  88  91
ENDBRANCH  61  84
ENDBRANCH  35  36
ENDBRANCH  28  30
ENDBRANCH  27  28
ENDBRANCH   1  27
TORSDOF 18
ENDMDL
MODEL 2
REMARK VINA RESULT:     -11.8      4.569      9.983
REMARK SMILES COc1cc(OC(F)(F)F)cc2c1O[C@@H](C(F)(F)F)C(C(=O)OCCOC(=O)c1ccc(-c3c4nc(c(-c5cccc(S(=O)(=O)[O-])c5F)c5ccc([nH]5)c(-c5cccc(S(=O)(=O)[O-])c5F)c5nc(c(-c6cccc(S(=O)(=O)[O-])c6F)c6ccc3[nH]6)C=C5)C=C4)cc1)=C2
REMARK SMILES IDX 25 1 24 2 23 3 21 4 22 5 20 6 3 7 4 8 13 9 5 10 12 11 14 12
REMARK SMILES IDX 11 13 92 14 15 15 2 16 1 17 6 18 7 19 8 20 9 21 10 22 16 23
REMARK SMILES IDX 17 24 18 25 19 26 26 27 27 28 28 29 29 30 30 31 91 32 31 33
REMARK SMILES IDX 90 34 32 35 33 36 34 37 84 38 35 39 89 40 83 41 85 42 36 43
REMARK SMILES IDX 88 44 82 45 81 46 37 48 69 49 49 50 68 51 50 52 53 53 67 54
REMARK SMILES IDX 86 55 51 56 52 57 66 59 87 60 54 61 38 62 39 63 47 64 40 65
REMARK SMILES IDX 42 66 48 67 41 68 43 69 44 70 45 71 46 72 70 73 71 74 79 75
REMARK SMILES IDX 72 76 74 77 80 78 73 79 75 80 76 81 77 82 78 83 55 84 56 85
REMARK SMILES IDX 64 86 57 87 59 88 65 89 58 90 60 91 61 92 62 93 63 94
REMARK H PARENT 85 47 53 58
REMARK Flexibility Score: inf
ROOT
ATOM      1  C   UNL A   1      31.534  30.920  26.381  1.00  0.00     0.275 C 
ENDROOT
BRANCH   1   2
ATOM      2  C   UNL A   1      31.480  30.014  25.146  1.00  0.00     0.275 C 
BRANCH   2   3
ATOM      3  O   UNL A   1      32.529  29.023  25.160  1.00  0.00    -0.459 OA
BRANCH   3   4
ATOM      4  C   UNL A   1      32.755  28.389  23.980  1.00  0.00     0.338 C 
ATOM      5  O   UNL A   1      32.868  28.939  22.897  1.00  0.00    -0.246 OA
BRANCH   4   6
ATOM      6  C   UNL A   1      32.887  26.926  24.154  1.00  0.00     0.087 C 
ATOM      7  C   UNL A   1      33.009  22.787  24.678  1.00  0.00     0.165 A 
ATOM      8  C   UNL A   1      34.188  22.152  25.068  1.00  0.00     0.097 A 
ATOM      9  C   UNL A   1      32.950  24.181  24.609  1.00  0.00     0.170 A 
ATOM     10  C   UNL A   1      35.325  22.910  25.349  1.00  0.00     0.134 A 
ATOM     11  C   UNL A   1      34.099  24.949  24.810  1.00  0.00     0.025 A 
ATOM     12  O   UNL A   1      31.726  24.769  24.455  1.00  0.00    -0.471 OA
ATOM     13  C   UNL A   1      35.287  24.304  25.179  1.00  0.00     0.059 A 
ATOM     14  C   UNL A   1      34.016  26.404  24.669  1.00  0.00     0.027 C 
ATOM     15  C   UNL A   1      31.730  26.032  23.741  1.00  0.00     0.316 C 
BRANCH   7  16
ATOM     16  O   UNL A   1      31.926  21.982  24.433  1.00  0.00    -0.493 OA
ATOM     17  C   UNL A   1      32.186  20.625  24.810  1.00  0.00     0.278 C 
ENDBRANCH   7  16
BRANCH  10  18
ATOM     18  O   UNL A   1      36.525  22.416  25.783  1.00  0.00    -0.406 OA
BRANCH  18  19
ATOM     19  C   UNL A   1      37.264  21.617  24.871  1.00  0.00     0.573 C 
ATOM     20  F   UNL A   1      37.082  22.020  23.594  1.00  0.00    -0.132 F 
ATOM     21  F   UNL A   1      38.580  21.632  25.169  1.00  0.00    -0.132 F 
ATOM     22  F   UNL A   1      36.829  20.339  24.967  1.00  0.00    -0.132 F 
ENDBRANCH  18  19
ENDBRANCH  10  18
BRANCH  15  23
ATOM     23  C   UNL A   1      30.296  26.590  23.791  1.00  0.00     0.430 C 
ATOM     24  F   UNL A   1      29.374  25.619  23.601  1.00  0.00    -0.167 F 
ATOM     25  F   UNL A   1      30.040  27.108  25.021  1.00  0.00    -0.167 F 
ATOM     26  F   UNL A   1      30.092  27.577  22.893  1.00  0.00    -0.167 F 
ENDBRANCH  15  23
ENDBRANCH   4   6
ENDBRANCH   3   4
ENDBRANCH   2   3
ENDBRANCH   1   2
BRANCH   1  27
ATOM     27  O   UNL A   1      32.739  30.706  27.137  1.00  0.00    -0.458 OA
BRANCH  27  28
ATOM     28  C   UNL A   1      33.416  31.838  27.445  1.00  0.00     0.338 C 
ATOM     29  O   UNL A   1      32.959  32.969  27.488  1.00  0.00    -0.246 OA
BRANCH  28  30
ATOM     30  C   UNL A   1      34.776  31.514  27.923  1.00  0.00     0.060 A 
ATOM     31  C   UNL A   1      35.002  30.185  28.295  1.00  0.00     0.016 A 
ATOM     32  C   UNL A   1      35.799  32.458  28.037  1.00  0.00     0.016 A 
ATOM     33  C   UNL A   1      36.260  29.779  28.731  1.00  0.00     0.010 A 
ATOM     34  C   UNL A   1      37.053  32.059  28.525  1.00  0.00     0.010 A 
ATOM     35  C   UNL A   1      37.287  30.719  28.874  1.00  0.00    -0.014 A 
BRANCH  35  36
ATOM     36  C   UNL A   1      38.533  30.288  29.550  1.00  0.00     0.031 A 
ATOM     37  C   UNL A   1      38.760  30.714  30.972  1.00  0.00     0.074 A 
ATOM     38  C   UNL A   1      39.411  29.468  28.946  1.00  0.00     0.049 A 
ATOM     39  N   UNL A   1      39.684  30.334  31.814  1.00  0.00    -0.248 NA
ATOM     40  C   UNL A   1      37.802  31.686  31.521  1.00  0.00     0.031 C 
ATOM     41  C   UNL A   1      39.292  28.957  27.582  1.00  0.00     0.029 A 
ATOM     42  N   UNL A   1      40.578  28.919  29.414  1.00  0.00    -0.354 N 
ATOM     43  C   UNL A   1      39.423  31.018  32.993  1.00  0.00     0.074 A 
ATOM     44  C   UNL A   1      38.262  31.849  32.753  1.00  0.00     0.031 C 
ATOM     45  C   UNL A   1      40.353  28.174  27.320  1.00  0.00     0.029 A 
ATOM     46  C   UNL A   1      41.226  28.133  28.492  1.00  0.00     0.049 A 
ATOM     47  H   UNL A   1      40.918  29.073  30.325  1.00  0.00     0.167 HD
ATOM     48  C   UNL A   1      40.081  30.957  34.176  1.00  0.00     0.034 A 
ATOM     49  C   UNL A   1      42.388  27.454  28.590  1.00  0.00     0.034 A 
ATOM     50  C   UNL A   1      41.256  30.161  34.408  1.00  0.00     0.049 A 
ATOM     51  C   UNL A   1      43.140  27.455  29.897  1.00  0.00     0.074 A 
ATOM     52  C   UNL A   1      41.986  30.024  35.575  1.00  0.00     0.029 A 
ATOM     53  N   UNL A   1      41.894  29.393  33.446  1.00  0.00    -0.354 N 
ATOM     54  N   UNL A   1      42.811  28.001  31.044  1.00  0.00    -0.248 NA
ATOM     55  C   UNL A   1      44.406  26.709  29.933  1.00  0.00     0.031 C 
ATOM     56  C   UNL A   1      43.088  29.203  35.308  1.00  0.00     0.029 A 
ATOM     57  C   UNL A   1      43.019  28.793  33.985  1.00  0.00     0.049 A 
ATOM     58  H   UNL A   1      41.591  29.289  32.515  1.00  0.00     0.167 HD
ATOM     59  C   UNL A   1      43.798  27.617  31.949  1.00  0.00     0.074 A 
ATOM     60  C   UNL A   1      44.733  26.789  31.216  1.00  0.00     0.031 C 
ATOM     61  C   UNL A   1      43.918  27.925  33.265  1.00  0.00     0.034 A 
BRANCH  48  62
ATOM     62  C   UNL A   1      39.535  31.793  35.302  1.00  0.00     0.023 A 
ATOM     63  C   UNL A   1      38.576  31.245  36.180  1.00  0.00     0.012 A 
ATOM     64  C   UNL A   1      39.962  33.121  35.486  1.00  0.00     0.148 A 
ATOM     65  C   UNL A   1      38.016  32.021  37.193  1.00  0.00     0.002 A 
ATOM     66  C   UNL A   1      39.432  33.874  36.526  1.00  0.00     0.091 A 
ATOM     67  F   UNL A   1      40.852  33.633  34.625  1.00  0.00    -0.205 F 
ATOM     68  C   UNL A   1      38.449  33.333  37.371  1.00  0.00     0.022 A 
BRANCH  66  69
ATOM     69  S   UNL A   1      39.982  35.548  36.873  1.00  0.00     0.127 S 
ATOM     70  O   UNL A   1      39.293  35.830  38.131  1.00  0.00    -0.237 OA
ATOM     71  O   UNL A   1      41.430  35.380  36.997  1.00  0.00    -0.237 OA
ATOM     72  O   UNL A   1      39.564  36.348  35.730  1.00  0.00    -0.744 OA
ENDBRANCH  66  69
ENDBRANCH  48  62
BRANCH  49  73
ATOM     73  C   UNL A   1      42.888  26.656  27.434  1.00  0.00     0.023 A 
ATOM     74  C   UNL A   1      43.723  27.268  26.479  1.00  0.00     0.012 A 
ATOM     75  C   UNL A   1      42.537  25.301  27.275  1.00  0.00     0.148 A 
ATOM     76  C   UNL A   1      44.175  26.555  25.368  1.00  0.00     0.002 A 
ATOM     77  C   UNL A   1      43.030  24.583  26.191  1.00  0.00     0.091 A 
ATOM     78  F   UNL A   1      41.732  24.743  28.188  1.00  0.00    -0.205 F 
ATOM     79  C   UNL A   1      43.836  25.212  25.228  1.00  0.00     0.022 A 
BRANCH  77  80
ATOM     80  S   UNL A   1      42.725  22.827  25.970  1.00  0.00     0.127 S 
ATOM     81  O   UNL A   1      43.511  22.248  27.058  1.00  0.00    -0.237 OA
ATOM     82  O   UNL A   1      41.275  22.751  26.151  1.00  0.00    -0.237 OA
ATOM     83  O   UNL A   1      43.187  22.508  24.627  1.00  0.00    -0.744 OA
ENDBRANCH  77  80
ENDBRANCH  49  73
BRANCH  61  84
ATOM     84  C   UNL A   1      45.070  27.319  34.030  1.00  0.00     0.023 A 
ATOM     85  C   UNL A   1      46.309  27.987  34.100  1.00  0.00     0.012 A 
ATOM     86  C   UNL A   1      44.901  26.111  34.736  1.00  0.00     0.148 A 
ATOM     87  C   UNL A   1      47.370  27.443  34.825  1.00  0.00     0.002 A 
ATOM     88  C   UNL A   1      45.945  25.602  35.501  1.00  0.00     0.091 A 
ATOM     89  F   UNL A   1      43.724  25.474  34.645  1.00  0.00    -0.205 F 
ATOM     90  C   UNL A   1      47.185  26.258  35.534  1.00  0.00     0.022 A 
BRANCH  88  91
ATOM     91  S   UNL A   1      45.756  24.140  36.528  1.00  0.00     0.127 S 
ATOM     92  O   UNL A   1      45.518  23.100  35.528  1.00  0.00    -0.237 OA
ATOM     93  O   UNL A   1      47.054  24.056  37.198  1.00  0.00    -0.237 OA
ATOM     94  O   UNL A   1      44.638  24.423  37.420  1.00  0.00    -0.744 OA
ENDBRANCH  88  91
ENDBRANCH  61  84
ENDBRANCH  35  36
ENDBRANCH  28  30
ENDBRANCH  27  28
ENDBRANCH   1  27
TORSDOF 18
ENDMDL
MODEL 3
REMARK VINA RESULT:     -11.6      1.376      1.669
REMARK SMILES COc1cc(OC(F)(F)F)cc2c1O[C@@H](C(F)(F)F)C(C(=O)OCCOC(=O)c1ccc(-c3c4nc(c(-c5cccc(S(=O)(=O)[O-])c5F)c5ccc([nH]5)c(-c5cccc(S(=O)(=O)[O-])c5F)c5nc(c(-c6cccc(S(=O)(=O)[O-])c6F)c6ccc3[nH]6)C=C5)C=C4)cc1)=C2
REMARK SMILES IDX 25 1 24 2 23 3 21 4 22 5 20 6 3 7 4 8 13 9 5 10 12 11 14 12
REMARK SMILES IDX 11 13 92 14 15 15 2 16 1 17 6 18 7 19 8 20 9 21 10 22 16 23
REMARK SMILES IDX 17 24 18 25 19 26 26 27 27 28 28 29 29 30 30 31 91 32 31 33
REMARK SMILES IDX 90 34 32 35 33 36 34 37 84 38 35 39 89 40 83 41 85 42 36 43
REMARK SMILES IDX 88 44 82 45 81 46 37 48 69 49 49 50 68 51 50 52 53 53 67 54
REMARK SMILES IDX 86 55 51 56 52 57 66 59 87 60 54 61 38 62 39 63 47 64 40 65
REMARK SMILES IDX 42 66 48 67 41 68 43 69 44 70 45 71 46 72 70 73 71 74 79 75
REMARK SMILES IDX 72 76 74 77 80 78 73 79 75 80 76 81 77 82 78 83 55 84 56 85
REMARK SMILES IDX 64 86 57 87 59 88 65 89 58 90 60 91 61 92 62 93 63 94
REMARK H PARENT 85 47 53 58
REMARK Flexibility Score: inf
ROOT
ATOM      1  C   UNL A   1      37.632  20.885  24.844  1.00  0.00     0.275 C 
ENDROOT
BRANCH   1   2
ATOM      2  C   UNL A   1      36.116  20.976  24.640  1.00  0.00     0.275 C 
BRANCH   2   3
ATOM      3  O   UNL A   1      35.617  22.305  24.899  1.00  0.00    -0.459 OA
BRANCH   3   4
ATOM      4  C   UNL A   1      35.373  23.066  23.801  1.00  0.00     0.338 C 
ATOM      5  O   UNL A   1      35.972  22.984  22.742  1.00  0.00    -0.246 OA
BRANCH   4   6
ATOM      6  C   UNL A   1      34.251  24.006  24.018  1.00  0.00     0.087 C 
ATOM      7  C   UNL A   1      30.948  26.516  24.474  1.00  0.00     0.165 A 
ATOM      8  C   UNL A   1      31.108  27.835  24.900  1.00  0.00     0.097 A 
ATOM      9  C   UNL A   1      32.066  25.718  24.222  1.00  0.00     0.170 A 
ATOM     10  C   UNL A   1      32.389  28.344  25.116  1.00  0.00     0.134 A 
ATOM     11  C   UNL A   1      33.351  26.186  24.509  1.00  0.00     0.025 A 
ATOM     12  O   UNL A   1      31.877  24.522  23.588  1.00  0.00    -0.471 OA
ATOM     13  C   UNL A   1      33.504  27.504  24.959  1.00  0.00     0.059 A 
ATOM     14  C   UNL A   1      34.496  25.301  24.292  1.00  0.00     0.027 C 
ATOM     15  C   UNL A   1      32.828  23.482  23.928  1.00  0.00     0.316 C 
BRANCH   7  16
ATOM     16  O   UNL A   1      29.663  26.086  24.267  1.00  0.00    -0.493 OA
ATOM     17  C   UNL A   1      28.873  27.089  23.619  1.00  0.00     0.278 C 
ENDBRANCH   7  16
BRANCH  10  18
ATOM     18  O   UNL A   1      32.683  29.628  25.488  1.00  0.00    -0.406 OA
BRANCH  18  19
ATOM     19  C   UNL A   1      32.840  29.879  26.878  1.00  0.00     0.573 C 
ATOM     20  F   UNL A   1      32.174  30.990  27.260  1.00  0.00    -0.132 F 
ATOM     21  F   UNL A   1      32.425  28.825  27.611  1.00  0.00    -0.132 F 
ATOM     22  F   UNL A   1      34.154  30.076  27.134  1.00  0.00    -0.132 F 
ENDBRANCH  18  19
ENDBRANCH  10  18
BRANCH  15  23
ATOM     23  C   UNL A   1      32.530  22.274  23.020  1.00  0.00     0.430 C 
ATOM     24  F   UNL A   1      31.205  22.141  22.785  1.00  0.00    -0.167 F 
ATOM     25  F   UNL A   1      33.106  22.454  21.803  1.00  0.00    -0.167 F 
ATOM     26  F   UNL A   1      33.011  21.116  23.521  1.00  0.00    -0.167 F 
ENDBRANCH  15  23
ENDBRANCH   4   6
ENDBRANCH   3   4
ENDBRANCH   2   3
ENDBRANCH   1   2
BRANCH   1  27
ATOM     27  O   UNL A   1      38.052  21.632  26.000  1.00  0.00    -0.458 OA
BRANCH  27  28
ATOM     28  C   UNL A   1      39.365  21.497  26.309  1.00  0.00     0.338 C 
ATOM     29  O   UNL A   1      40.093  20.570  25.992  1.00  0.00    -0.246 OA
BRANCH  28  30
ATOM     30  C   UNL A   1      39.879  22.733  26.933  1.00  0.00     0.060 A 
ATOM     31  C   UNL A   1      39.294  23.931  26.511  1.00  0.00     0.016 A 
ATOM     32  C   UNL A   1      40.909  22.751  27.876  1.00  0.00     0.016 A 
ATOM     33  C   UNL A   1      39.693  25.144  27.064  1.00  0.00     0.010 A 
ATOM     34  C   UNL A   1      41.347  23.978  28.396  1.00  0.00     0.010 A 
ATOM     35  C   UNL A   1      40.741  25.179  27.991  1.00  0.00    -0.014 A 
BRANCH  35  36
ATOM     36  C   UNL A   1      41.280  26.502  28.381  1.00  0.00     0.031 A 
ATOM     37  C   UNL A   1      42.692  26.841  27.999  1.00  0.00     0.074 A 
ATOM     38  C   UNL A   1      40.510  27.420  28.992  1.00  0.00     0.049 A 
ATOM     39  N   UNL A   1      43.324  27.982  28.085  1.00  0.00    -0.248 NA
ATOM     40  C   UNL A   1      43.490  25.748  27.422  1.00  0.00     0.031 C 
ATOM     41  C   UNL A   1      39.117  27.229  29.388  1.00  0.00     0.029 A 
ATOM     42  N   UNL A   1      40.801  28.705  29.379  1.00  0.00    -0.354 N 
ATOM     43  C   UNL A   1      44.594  27.748  27.576  1.00  0.00     0.074 A 
ATOM     44  C   UNL A   1      44.648  26.352  27.196  1.00  0.00     0.031 C 
ATOM     45  C   UNL A   1      38.675  28.357  29.974  1.00  0.00     0.029 A 
ATOM     46  C   UNL A   1      39.754  29.344  29.998  1.00  0.00     0.049 A 
ATOM     47  H   UNL A   1      41.676  29.128  29.227  1.00  0.00     0.167 HD
ATOM     48  C   UNL A   1      45.624  28.615  27.428  1.00  0.00     0.034 A 
ATOM     49  C   UNL A   1      39.677  30.586  30.518  1.00  0.00     0.034 A 
ATOM     50  C   UNL A   1      45.587  29.993  27.837  1.00  0.00     0.049 A 
ATOM     51  C   UNL A   1      40.861  31.514  30.401  1.00  0.00     0.074 A 
ATOM     52  C   UNL A   1      46.575  30.954  27.717  1.00  0.00     0.029 A 
ATOM     53  N   UNL A   1      44.517  30.600  28.476  1.00  0.00    -0.354 N 
ATOM     54  N   UNL A   1      42.011  31.321  29.799  1.00  0.00    -0.248 NA
ATOM     55  C   UNL A   1      40.717  32.849  31.000  1.00  0.00     0.031 C 
ATOM     56  C   UNL A   1      46.116  32.132  28.319  1.00  0.00     0.029 A 
ATOM     57  C   UNL A   1      44.824  31.917  28.775  1.00  0.00     0.049 A 
ATOM     58  H   UNL A   1      43.662  30.159  28.688  1.00  0.00     0.167 HD
ATOM     59  C   UNL A   1      42.702  32.526  29.899  1.00  0.00     0.074 A 
ATOM     60  C   UNL A   1      41.839  33.442  30.615  1.00  0.00     0.031 C 
ATOM     61  C   UNL A   1      43.940  32.842  29.441  1.00  0.00     0.034 A 
BRANCH  48  62
ATOM     62  C   UNL A   1      46.881  28.077  26.800  1.00  0.00     0.023 A 
ATOM     63  C   UNL A   1      47.931  27.612  27.622  1.00  0.00     0.012 A 
ATOM     64  C   UNL A   1      47.029  28.038  25.402  1.00  0.00     0.148 A 
ATOM     65  C   UNL A   1      49.125  27.164  27.061  1.00  0.00     0.002 A 
ATOM     66  C   UNL A   1      48.205  27.547  24.849  1.00  0.00     0.091 A 
ATOM     67  F   UNL A   1      46.033  28.510  24.639  1.00  0.00    -0.205 F 
ATOM     68  C   UNL A   1      49.260  27.124  25.676  1.00  0.00     0.022 A 
BRANCH  66  69
ATOM     69  S   UNL A   1      48.440  27.394  23.076  1.00  0.00     0.127 S 
ATOM     70  O   UNL A   1      48.275  25.955  22.880  1.00  0.00    -0.237 OA
ATOM     71  O   UNL A   1      47.346  28.210  22.547  1.00  0.00    -0.237 OA
ATOM     72  O   UNL A   1      49.770  27.921  22.804  1.00  0.00    -0.744 OA
ENDBRANCH  66  69
ENDBRANCH  48  62
BRANCH  49  73
ATOM     73  C   UNL A   1      38.408  31.059  31.142  1.00  0.00     0.023 A 
ATOM     74  C   UNL A   1      38.191  30.842  32.517  1.00  0.00     0.012 A 
ATOM     75  C   UNL A   1      37.419  31.715  30.383  1.00  0.00     0.148 A 
ATOM     76  C   UNL A   1      36.996  31.242  33.119  1.00  0.00     0.002 A 
ATOM     77  C   UNL A   1      36.253  32.152  31.000  1.00  0.00     0.091 A 
ATOM     78  F   UNL A   1      37.643  31.899  29.075  1.00  0.00    -0.205 F 
ATOM     79  C   UNL A   1      36.032  31.903  32.364  1.00  0.00     0.022 A 
BRANCH  77  80
ATOM     80  S   UNL A   1      34.991  33.094  30.134  1.00  0.00     0.127 S 
ATOM     81  O   UNL A   1      34.114  33.497  31.230  1.00  0.00    -0.237 OA
ATOM     82  O   UNL A   1      35.779  34.177  29.545  1.00  0.00    -0.237 OA
ATOM     83  O   UNL A   1      34.403  32.177  29.167  1.00  0.00    -0.744 OA
ENDBRANCH  77  80
ENDBRANCH  49  73
BRANCH  61  84
ATOM     84  C   UNL A   1      44.427  34.257  29.640  1.00  0.00     0.023 A 
ATOM     85  C   UNL A   1      45.158  34.603  30.793  1.00  0.00     0.012 A 
ATOM     86  C   UNL A   1      44.213  35.232  28.644  1.00  0.00     0.148 A 
ATOM     87  C   UNL A   1      45.631  35.903  30.972  1.00  0.00     0.002 A 
ATOM     88  C   UNL A   1      44.733  36.512  28.804  1.00  0.00     0.091 A 
ATOM     89  F   UNL A   1      43.498  34.896  27.561  1.00  0.00    -0.205 F 
ATOM     90  C   UNL A   1      45.430  36.854  29.973  1.00  0.00     0.022 A 
BRANCH  88  91
ATOM     91  S   UNL A   1      44.610  37.762  27.518  1.00  0.00     0.127 S 
ATOM     92  O   UNL A   1      44.916  38.984  28.259  1.00  0.00    -0.237 OA
ATOM     93  O   UNL A   1      45.647  37.345  26.574  1.00  0.00    -0.237 OA
ATOM     94  O   UNL A   1      43.251  37.665  26.998  1.00  0.00    -0.744 OA
ENDBRANCH  88  91
ENDBRANCH  61  84
ENDBRANCH  35  36
ENDBRANCH  28  30
ENDBRANCH  27  28
ENDBRANCH   1  27
TORSDOF 18
ENDMDL
