MODEL 1
REMARK VINA RESULT:     -11.8      0.000      0.000
REMARK SMILES Cc1cc(C)cc(Oc2nc3ccccn3c(=O)c2/C=C2\SC(=S)N(CCC(=O)OCCOC(=O)c3ccc(-c4c5nc(c(-c6cccc(S(=O)(=O)[O-])c6F)c6ccc([nH]6)c(-c6cccc(S(=O)(=O)[O-])c6F)c6nc(c(-c7cccc(S(=O)(=O)[O-])c7F)c7ccc4[nH]7)C=C6)C=C5)cc3)C2=O)c1
REMARK SMILES IDX 31 1 30 2 28 3 29 4 27 5 26 6 25 7 20 8 21 9 22 10 99 11
REMARK SMILES IDX 23 12 100 13 24 14 19 15 9 16 10 17 11 18 17 19 12 20 16 21
REMARK SMILES IDX 18 22 13 23 15 24 14 25 8 26 7 27 1 28 2 29 3 30 101 31 4 32
REMARK SMILES IDX 5 33 6 34 32 35 33 36 34 37 35 38 36 39 37 40 98 41 38 42
REMARK SMILES IDX 97 43 39 44 40 45 41 46 91 47 42 48 96 49 90 50 92 51 43 52
REMARK SMILES IDX 95 53 89 54 88 55 44 57 76 58 56 59 75 60 57 61 60 62 74 63
REMARK SMILES IDX 93 64 58 65 59 66 73 68 94 69 61 70 45 71 46 72 54 73 47 74
REMARK SMILES IDX 49 75 55 76 48 77 50 78 51 79 52 80 53 81 77 82 78 83 86 84
REMARK SMILES IDX 79 85 81 86 87 87 80 88 82 89 83 90 84 91 85 92 62 93 63 94
REMARK SMILES IDX 71 95 64 96 66 97 72 98 65 99 67 100 68 101 69 102 70 103
REMARK H PARENT 92 56 60 67
REMARK Flexibility Score: inf
ROOT
ATOM      1  C   UNL A   1      32.614  30.075  26.901  1.00  0.00     0.274 C 
ENDROOT
BRANCH   1   2
ATOM      2  O   UNL A   1      32.756  29.181  25.779  1.00  0.00    -0.462 OA
BRANCH   2   3
ATOM      3  C   UNL A   1      31.873  29.325  24.762  1.00  0.00     0.307 C 
ATOM      4  O   UNL A   1      30.934  30.108  24.749  1.00  0.00    -0.252 OA
BRANCH   3   5
ATOM      5  C   UNL A   1      32.134  28.344  23.644  1.00  0.00     0.144 C 
BRANCH   5   6
ATOM      6  C   UNL A   1      31.373  27.018  23.771  1.00  0.00     0.139 C 
BRANCH   6   7
ATOM      7  N   UNL A   1      32.259  25.863  23.609  1.00  0.00    -0.292 N 
ATOM      8  C   UNL A   1      33.469  23.014  25.356  1.00  0.00     0.041 C 
ATOM      9  C   UNL A   1      33.325  23.946  24.404  1.00  0.00     0.081 C 
ATOM     10  S   UNL A   1      33.525  23.808  22.704  1.00  0.00    -0.054 SA
ATOM     11  C   UNL A   1      32.807  25.282  24.736  1.00  0.00     0.266 C 
ATOM     12  C   UNL A   1      32.584  25.270  22.408  1.00  0.00     0.148 C 
ATOM     13  O   UNL A   1      32.870  25.748  25.860  1.00  0.00    -0.268 OA
ATOM     14  S   UNL A   1      32.167  25.754  20.866  1.00  0.00    -0.052 S 
BRANCH   8  15
ATOM     15  C   UNL A   1      33.950  21.673  25.106  1.00  0.00     0.104 A 
ATOM     16  C   UNL A   1      35.218  21.347  24.783  1.00  0.00     0.234 A 
ATOM     17  N   UNL A   1      35.637  20.053  24.592  1.00  0.00    -0.194 NA
ATOM     18  C   UNL A   1      34.783  19.096  24.773  1.00  0.00     0.143 A 
ATOM     19  C   UNL A   1      32.957  20.568  25.224  1.00  0.00     0.269 A 
ATOM     20  C   UNL A   1      35.234  17.684  24.612  1.00  0.00     0.048 A 
ATOM     21  N   UNL A   1      33.455  19.286  25.109  1.00  0.00    -0.267 N 
ATOM     22  O   UNL A   1      31.763  20.826  25.391  1.00  0.00    -0.268 OA
ATOM     23  C   UNL A   1      34.373  16.679  24.814  1.00  0.00     0.005 A 
ATOM     24  C   UNL A   1      32.593  18.214  25.300  1.00  0.00     0.096 A 
ATOM     25  C   UNL A   1      33.007  16.948  25.174  1.00  0.00     0.019 A 
BRANCH  16  26
ATOM     26  O   UNL A   1      36.173  22.319  24.477  1.00  0.00    -0.438 OA
BRANCH  26  27
ATOM     27  C   UNL A   1      37.235  22.593  25.310  1.00  0.00     0.130 A 
ATOM     28  C   UNL A   1      38.874  25.279  27.454  1.00  0.00     0.044 C 
ATOM     29  C   UNL A   1      38.602  23.975  26.764  1.00  0.00    -0.047 A 
ATOM     30  C   UNL A   1      39.548  22.944  26.845  1.00  0.00     0.007 A 
ATOM     31  C   UNL A   1      37.428  23.776  26.020  1.00  0.00     0.050 A 
ATOM     32  C   UNL A   1      39.328  21.721  26.206  1.00  0.00    -0.047 A 
ATOM     33  C   UNL A   1      40.331  20.613  26.356  1.00  0.00     0.044 C 
ATOM     34  C   UNL A   1      38.178  21.562  25.424  1.00  0.00     0.050 A 
ENDBRANCH  26  27
ENDBRANCH  16  26
ENDBRANCH   8  15
ENDBRANCH   6   7
ENDBRANCH   5   6
ENDBRANCH   3   5
ENDBRANCH   2   3
ENDBRANCH   1   2
BRANCH   1  35
ATOM     35  C   UNL A   1      33.884  30.898  27.130  1.00  0.00     0.275 C 
BRANCH  35  36
ATOM     36  O   UNL A   1      33.564  32.110  27.832  1.00  0.00    -0.458 OA
BRANCH  36  37
ATOM     37  C   UNL A   1      34.539  33.041  27.902  1.00  0.00     0.338 C 
ATOM     38  O   UNL A   1      34.595  34.134  27.375  1.00  0.00    -0.246 OA
BRANCH  37  39
ATOM     39  C   UNL A   1      35.602  32.534  28.770  1.00  0.00     0.060 A 
ATOM     40  C   UNL A   1      36.921  32.950  28.565  1.00  0.00     0.016 A 
ATOM     41  C   UNL A   1      35.283  31.576  29.730  1.00  0.00     0.016 A 
ATOM     42  C   UNL A   1      37.940  32.390  29.329  1.00  0.00     0.010 A 
ATOM     43  C   UNL A   1      36.301  31.038  30.510  1.00  0.00     0.010 A 
ATOM     44  C   UNL A   1      37.634  31.431  30.304  1.00  0.00    -0.014 A 
BRANCH  44  45
ATOM     45  C   UNL A   1      38.703  30.814  31.119  1.00  0.00     0.031 A 
ATOM     46  C   UNL A   1      38.960  31.318  32.509  1.00  0.00     0.074 A 
ATOM     47  C   UNL A   1      39.471  29.854  30.574  1.00  0.00     0.049 A 
ATOM     48  N   UNL A   1      39.927  31.010  33.330  1.00  0.00    -0.248 NA
ATOM     49  C   UNL A   1      38.006  32.307  33.041  1.00  0.00     0.031 C 
ATOM     50  C   UNL A   1      39.300  29.301  29.229  1.00  0.00     0.029 A 
ATOM     51  N   UNL A   1      40.566  29.198  31.071  1.00  0.00    -0.354 N 
ATOM     52  C   UNL A   1      39.720  31.785  34.465  1.00  0.00     0.074 A 
ATOM     53  C   UNL A   1      38.539  32.585  34.224  1.00  0.00     0.031 C 
ATOM     54  C   UNL A   1      40.273  28.403  29.000  1.00  0.00     0.029 A 
ATOM     55  C   UNL A   1      41.151  28.348  30.163  1.00  0.00     0.049 A 
ATOM     56  H   UNL A   1      40.900  29.323  31.989  1.00  0.00     0.167 HD
ATOM     57  C   UNL A   1      40.444  31.812  35.608  1.00  0.00     0.034 A 
ATOM     58  C   UNL A   1      42.285  27.627  30.255  1.00  0.00     0.034 A 
ATOM     59  C   UNL A   1      41.605  30.996  35.840  1.00  0.00     0.049 A 
ATOM     60  C   UNL A   1      43.078  27.690  31.532  1.00  0.00     0.074 A 
ATOM     61  C   UNL A   1      42.403  30.932  36.967  1.00  0.00     0.029 A 
ATOM     62  N   UNL A   1      42.131  30.096  34.924  1.00  0.00    -0.354 N 
ATOM     63  N   UNL A   1      42.823  28.362  32.629  1.00  0.00    -0.248 NA
ATOM     64  C   UNL A   1      44.302  26.879  31.594  1.00  0.00     0.031 C 
ATOM     65  C   UNL A   1      43.416  29.994  36.731  1.00  0.00     0.029 A 
ATOM     66  C   UNL A   1      43.241  29.468  35.460  1.00  0.00     0.049 A 
ATOM     67  H   UNL A   1      41.768  29.929  34.024  1.00  0.00     0.167 HD
ATOM     68  C   UNL A   1      43.832  28.028  33.524  1.00  0.00     0.074 A 
ATOM     69  C   UNL A   1      44.693  27.080  32.846  1.00  0.00     0.031 C 
ATOM     70  C   UNL A   1      44.042  28.480  34.786  1.00  0.00     0.034 A 
BRANCH  57  71
ATOM     71  C   UNL A   1      39.973  32.720  36.713  1.00  0.00     0.023 A 
ATOM     72  C   UNL A   1      40.488  34.029  36.793  1.00  0.00     0.012 A 
ATOM     73  C   UNL A   1      38.989  32.305  37.631  1.00  0.00     0.148 A 
ATOM     74  C   UNL A   1      40.048  34.906  37.784  1.00  0.00     0.002 A 
ATOM     75  C   UNL A   1      38.530  33.197  38.596  1.00  0.00     0.091 A 
ATOM     76  F   UNL A   1      38.530  31.048  37.554  1.00  0.00    -0.205 F 
ATOM     77  C   UNL A   1      39.064  34.494  38.678  1.00  0.00     0.022 A 
BRANCH  75  78
ATOM     78  S   UNL A   1      37.220  32.782  39.753  1.00  0.00     0.127 S 
ATOM     79  O   UNL A   1      36.089  32.561  38.853  1.00  0.00    -0.237 OA
ATOM     80  O   UNL A   1      37.739  31.571  40.388  1.00  0.00    -0.237 OA
ATOM     81  O   UNL A   1      37.097  33.927  40.644  1.00  0.00    -0.744 OA
ENDBRANCH  75  78
ENDBRANCH  57  71
BRANCH  58  82
ATOM     82  C   UNL A   1      42.705  26.750  29.127  1.00  0.00     0.023 A 
ATOM     83  C   UNL A   1      42.160  25.456  29.026  1.00  0.00     0.012 A 
ATOM     84  C   UNL A   1      43.605  27.194  28.139  1.00  0.00     0.148 A 
ATOM     85  C   UNL A   1      42.523  24.610  27.978  1.00  0.00     0.002 A 
ATOM     86  C   UNL A   1      43.923  26.365  27.068  1.00  0.00     0.091 A 
ATOM     87  F   UNL A   1      44.134  28.419  28.260  1.00  0.00    -0.205 F 
ATOM     88  C   UNL A   1      43.395  25.067  26.994  1.00  0.00     0.022 A 
BRANCH  86  89
ATOM     89  S   UNL A   1      44.934  26.935  25.697  1.00  0.00     0.127 S 
ATOM     90  O   UNL A   1      46.223  27.153  26.343  1.00  0.00    -0.237 OA
ATOM     91  O   UNL A   1      44.889  25.793  24.781  1.00  0.00    -0.237 OA
ATOM     92  O   UNL A   1      44.257  28.123  25.194  1.00  0.00    -0.744 OA
ENDBRANCH  86  89
ENDBRANCH  58  82
BRANCH  70  93
ATOM     93  C   UNL A   1      45.228  27.927  35.528  1.00  0.00     0.023 A 
ATOM     94  C   UNL A   1      46.459  28.607  35.472  1.00  0.00     0.012 A 
ATOM     95  C   UNL A   1      45.101  26.783  36.338  1.00  0.00     0.148 A 
ATOM     96  C   UNL A   1      47.557  28.141  36.194  1.00  0.00     0.002 A 
ATOM     97  C   UNL A   1      46.187  26.349  37.089  1.00  0.00     0.091 A 
ATOM     98  F   UNL A   1      43.924  26.139  36.359  1.00  0.00    -0.205 F 
ATOM     99  C   UNL A   1      47.418  27.022  37.011  1.00  0.00     0.022 A 
BRANCH  97 100
ATOM    100  S   UNL A   1      46.069  24.968  38.230  1.00  0.00     0.127 S 
ATOM    101  O   UNL A   1      45.263  25.538  39.307  1.00  0.00    -0.237 OA
ATOM    102  O   UNL A   1      45.383  23.954  37.426  1.00  0.00    -0.237 OA
ATOM    103  O   UNL A   1      47.440  24.625  38.583  1.00  0.00    -0.744 OA
ENDBRANCH  97 100
ENDBRANCH  70  93
ENDBRANCH  44  45
ENDBRANCH  37  39
ENDBRANCH  36  37
ENDBRANCH  35  36
ENDBRANCH   1  35
TORSDOF 19
ENDMDL
MODEL 2
REMARK VINA RESULT:     -11.6      1.492      7.262
REMARK SMILES Cc1cc(C)cc(Oc2nc3ccccn3c(=O)c2/C=C2\SC(=S)N(CCC(=O)OCCOC(=O)c3ccc(-c4c5nc(c(-c6cccc(S(=O)(=O)[O-])c6F)c6ccc([nH]6)c(-c6cccc(S(=O)(=O)[O-])c6F)c6nc(c(-c7cccc(S(=O)(=O)[O-])c7F)c7ccc4[nH]7)C=C6)C=C5)cc3)C2=O)c1
REMARK SMILES IDX 31 1 30 2 28 3 29 4 27 5 26 6 25 7 20 8 21 9 22 10 99 11
REMARK SMILES IDX 23 12 100 13 24 14 19 15 9 16 10 17 11 18 17 19 12 20 16 21
REMARK SMILES IDX 18 22 13 23 15 24 14 25 8 26 7 27 1 28 2 29 3 30 101 31 4 32
REMARK SMILES IDX 5 33 6 34 32 35 33 36 34 37 35 38 36 39 37 40 98 41 38 42
REMARK SMILES IDX 97 43 39 44 40 45 41 46 91 47 42 48 96 49 90 50 92 51 43 52
REMARK SMILES IDX 95 53 89 54 88 55 44 57 76 58 56 59 75 60 57 61 60 62 74 63
REMARK SMILES IDX 93 64 58 65 59 66 73 68 94 69 61 70 45 71 46 72 54 73 47 74
REMARK SMILES IDX 49 75 55 76 48 77 50 78 51 79 52 80 53 81 77 82 78 83 86 84
REMARK SMILES IDX 79 85 81 86 87 87 80 88 82 89 83 90 84 91 85 92 62 93 63 94
REMARK SMILES IDX 71 95 64 96 66 97 72 98 65 99 67 100 68 101 69 102 70 103
REMARK H PARENT 92 56 60 67
REMARK Flexibility Score: inf
ROOT
ATOM      1  C   UNL A   1      33.484  29.974  27.225  1.00  0.00     0.274 C 
ENDROOT
BRANCH   1   2
ATOM      2  O   UNL A   1      33.716  29.360  25.941  1.00  0.00    -0.462 OA
BRANCH   2   3
ATOM      3  C   UNL A   1      32.664  29.295  25.092  1.00  0.00     0.307 C 
ATOM      4  O   UNL A   1      31.613  29.907  25.222  1.00  0.00    -0.252 OA
BRANCH   3   5
ATOM      5  C   UNL A   1      32.900  28.308  23.973  1.00  0.00     0.144 C 
BRANCH   5   6
ATOM      6  C   UNL A   1      31.983  27.079  24.005  1.00  0.00     0.139 C 
BRANCH   6   7
ATOM      7  N   UNL A   1      32.726  25.838  23.777  1.00  0.00    -0.292 N 
ATOM      8  C   UNL A   1      33.785  22.880  25.439  1.00  0.00     0.041 C 
ATOM      9  C   UNL A   1      33.654  23.821  24.494  1.00  0.00     0.081 C 
ATOM     10  S   UNL A   1      33.684  23.661  22.784  1.00  0.00    -0.054 SA
ATOM     11  C   UNL A   1      33.309  25.205  24.856  1.00  0.00     0.266 C 
ATOM     12  C   UNL A   1      32.877  25.213  22.558  1.00  0.00     0.148 C 
ATOM     13  O   UNL A   1      33.521  25.663  25.965  1.00  0.00    -0.268 OA
ATOM     14  S   UNL A   1      32.376  25.735  21.055  1.00  0.00    -0.052 S 
BRANCH   8  15
ATOM     15  C   UNL A   1      34.100  21.496  25.161  1.00  0.00     0.104 A 
ATOM     16  C   UNL A   1      35.293  21.039  24.731  1.00  0.00     0.234 A 
ATOM     17  N   UNL A   1      35.556  19.708  24.517  1.00  0.00    -0.194 NA
ATOM     18  C   UNL A   1      34.627  18.846  24.783  1.00  0.00     0.143 A 
ATOM     19  C   UNL A   1      33.011  20.501  25.378  1.00  0.00     0.269 A 
ATOM     20  C   UNL A   1      34.912  17.394  24.597  1.00  0.00     0.048 A 
ATOM     21  N   UNL A   1      33.361  19.174  25.233  1.00  0.00    -0.267 N 
ATOM     22  O   UNL A   1      31.870  20.883  25.647  1.00  0.00    -0.268 OA
ATOM     23  C   UNL A   1      33.972  16.485  24.884  1.00  0.00     0.005 A 
ATOM     24  C   UNL A   1      32.412  18.198  25.509  1.00  0.00     0.096 A 
ATOM     25  C   UNL A   1      32.679  16.895  25.360  1.00  0.00     0.019 A 
BRANCH  16  26
ATOM     26  O   UNL A   1      36.313  21.905  24.332  1.00  0.00    -0.438 OA
BRANCH  26  27
ATOM     27  C   UNL A   1      37.439  22.117  25.097  1.00  0.00     0.130 A 
ATOM     28  C   UNL A   1      40.575  20.482  26.505  1.00  0.00     0.044 C 
ATOM     29  C   UNL A   1      39.517  21.496  26.188  1.00  0.00    -0.047 A 
ATOM     30  C   UNL A   1      39.566  22.756  26.798  1.00  0.00     0.007 A 
ATOM     31  C   UNL A   1      38.464  21.197  25.308  1.00  0.00     0.050 A 
ATOM     32  C   UNL A   1      38.589  23.719  26.530  1.00  0.00    -0.047 A 
ATOM     33  C   UNL A   1      38.697  25.081  27.153  1.00  0.00     0.044 C 
ATOM     34  C   UNL A   1      37.519  23.383  25.694  1.00  0.00     0.050 A 
ENDBRANCH  26  27
ENDBRANCH  16  26
ENDBRANCH   8  15
ENDBRANCH   6   7
ENDBRANCH   5   6
ENDBRANCH   3   5
ENDBRANCH   2   3
ENDBRANCH   1   2
BRANCH   1  35
ATOM     35  C   UNL A   1      34.262  31.284  27.372  1.00  0.00     0.275 C 
BRANCH  35  36
ATOM     36  O   UNL A   1      33.406  32.304  27.912  1.00  0.00    -0.458 OA
BRANCH  36  37
ATOM     37  C   UNL A   1      34.010  33.433  28.338  1.00  0.00     0.338 C 
ATOM     38  O   UNL A   1      33.698  34.591  28.142  1.00  0.00    -0.246 OA
BRANCH  37  39
ATOM     39  C   UNL A   1      35.178  33.061  29.138  1.00  0.00     0.060 A 
ATOM     40  C   UNL A   1      36.448  33.498  28.754  1.00  0.00     0.016 A 
ATOM     41  C   UNL A   1      35.000  32.203  30.220  1.00  0.00     0.016 A 
ATOM     42  C   UNL A   1      37.564  33.060  29.462  1.00  0.00     0.010 A 
ATOM     43  C   UNL A   1      36.115  31.788  30.942  1.00  0.00     0.010 A 
ATOM     44  C   UNL A   1      37.402  32.203  30.558  1.00  0.00    -0.014 A 
BRANCH  44  45
ATOM     45  C   UNL A   1      38.573  31.716  31.317  1.00  0.00     0.031 A 
ATOM     46  C   UNL A   1      39.420  30.616  30.748  1.00  0.00     0.074 A 
ATOM     47  C   UNL A   1      38.821  32.224  32.538  1.00  0.00     0.049 A 
ATOM     48  N   UNL A   1      40.400  29.959  31.307  1.00  0.00    -0.248 NA
ATOM     49  C   UNL A   1      39.118  30.194  29.369  1.00  0.00     0.031 C 
ATOM     50  C   UNL A   1      38.052  33.293  33.177  1.00  0.00     0.029 A 
ATOM     51  N   UNL A   1      39.767  31.887  33.469  1.00  0.00    -0.354 N 
ATOM     52  C   UNL A   1      40.814  29.025  30.365  1.00  0.00     0.074 A 
ATOM     53  C   UNL A   1      39.975  29.196  29.200  1.00  0.00     0.031 C 
ATOM     54  C   UNL A   1      38.544  33.510  34.408  1.00  0.00     0.029 A 
ATOM     55  C   UNL A   1      39.634  32.571  34.655  1.00  0.00     0.049 A 
ATOM     56  H   UNL A   1      40.473  31.221  33.306  1.00  0.00     0.167 HD
ATOM     57  C   UNL A   1      41.816  28.121  30.462  1.00  0.00     0.034 A 
ATOM     58  C   UNL A   1      40.301  32.434  35.816  1.00  0.00     0.034 A 
ATOM     59  C   UNL A   1      42.656  27.977  31.621  1.00  0.00     0.049 A 
ATOM     60  C   UNL A   1      41.399  31.408  35.899  1.00  0.00     0.074 A 
ATOM     61  C   UNL A   1      43.710  27.105  31.820  1.00  0.00     0.029 A 
ATOM     62  N   UNL A   1      42.537  28.733  32.778  1.00  0.00    -0.354 N 
ATOM     63  N   UNL A   1      41.837  30.592  34.971  1.00  0.00    -0.248 NA
ATOM     64  C   UNL A   1      42.110  31.300  37.180  1.00  0.00     0.031 C 
ATOM     65  C   UNL A   1      44.226  27.331  33.101  1.00  0.00     0.029 A 
ATOM     66  C   UNL A   1      43.499  28.351  33.695  1.00  0.00     0.049 A 
ATOM     67  H   UNL A   1      41.865  29.437  32.927  1.00  0.00     0.167 HD
ATOM     68  C   UNL A   1      42.896  29.899  35.543  1.00  0.00     0.074 A 
ATOM     69  C   UNL A   1      43.046  30.404  36.893  1.00  0.00     0.031 C 
ATOM     70  C   UNL A   1      43.666  28.917  35.009  1.00  0.00     0.034 A 
BRANCH  57  71
ATOM     71  C   UNL A   1      42.090  27.248  29.266  1.00  0.00     0.023 A 
ATOM     72  C   UNL A   1      41.685  25.898  29.293  1.00  0.00     0.012 A 
ATOM     73  C   UNL A   1      42.689  27.769  28.103  1.00  0.00     0.148 A 
ATOM     74  C   UNL A   1      41.893  25.073  28.190  1.00  0.00     0.002 A 
ATOM     75  C   UNL A   1      42.863  26.947  26.993  1.00  0.00     0.091 A 
ATOM     76  F   UNL A   1      43.090  29.048  28.106  1.00  0.00    -0.205 F 
ATOM     77  C   UNL A   1      42.473  25.598  27.038  1.00  0.00     0.022 A 
BRANCH  75  78
ATOM     78  S   UNL A   1      43.541  27.545  25.441  1.00  0.00     0.127 S 
ATOM     79  O   UNL A   1      43.891  26.295  24.769  1.00  0.00    -0.237 OA
ATOM     80  O   UNL A   1      42.401  28.252  24.857  1.00  0.00    -0.237 OA
ATOM     81  O   UNL A   1      44.664  28.401  25.799  1.00  0.00    -0.744 OA
ENDBRANCH  75  78
ENDBRANCH  57  71
BRANCH  58  82
ATOM     82  C   UNL A   1      39.984  33.322  36.968  1.00  0.00     0.023 A 
ATOM     83  C   UNL A   1      38.805  33.095  37.703  1.00  0.00     0.012 A 
ATOM     84  C   UNL A   1      40.850  34.360  37.364  1.00  0.00     0.148 A 
ATOM     85  C   UNL A   1      38.480  33.901  38.795  1.00  0.00     0.002 A 
ATOM     86  C   UNL A   1      40.546  35.126  38.485  1.00  0.00     0.091 A 
ATOM     87  F   UNL A   1      41.958  34.578  36.642  1.00  0.00    -0.205 F 
ATOM     88  C   UNL A   1      39.355  34.908  39.192  1.00  0.00     0.022 A 
BRANCH  86  89
ATOM     89  S   UNL A   1      41.689  36.351  39.133  1.00  0.00     0.127 S 
ATOM     90  O   UNL A   1      41.600  37.407  38.130  1.00  0.00    -0.237 OA
ATOM     91  O   UNL A   1      41.093  36.681  40.429  1.00  0.00    -0.237 OA
ATOM     92  O   UNL A   1      42.971  35.663  39.228  1.00  0.00    -0.744 OA
ENDBRANCH  86  89
ENDBRANCH  58  82
BRANCH  70  93
ATOM     93  C   UNL A   1      44.759  28.350  35.873  1.00  0.00     0.023 A 
ATOM     94  C   UNL A   1      46.072  28.840  35.739  1.00  0.00     0.012 A 
ATOM     95  C   UNL A   1      44.471  27.393  36.864  1.00  0.00     0.148 A 
ATOM     96  C   UNL A   1      47.091  28.366  36.565  1.00  0.00     0.002 A 
ATOM     97  C   UNL A   1      45.482  26.957  37.712  1.00  0.00     0.091 A 
ATOM     98  F   UNL A   1      43.218  26.925  36.959  1.00  0.00    -0.205 F 
ATOM     99  C   UNL A   1      46.794  27.436  37.557  1.00  0.00     0.022 A 
BRANCH  97 100
ATOM    100  S   UNL A   1      45.168  25.825  39.071  1.00  0.00     0.127 S 
ATOM    101  O   UNL A   1      44.690  24.638  38.366  1.00  0.00    -0.237 OA
ATOM    102  O   UNL A   1      46.495  25.684  39.674  1.00  0.00    -0.237 OA
ATOM    103  O   UNL A   1      44.191  26.489  39.923  1.00  0.00    -0.744 OA
ENDBRANCH  97 100
ENDBRANCH  70  93
ENDBRANCH  44  45
ENDBRANCH  37  39
ENDBRANCH  36  37
ENDBRANCH  35  36
ENDBRANCH   1  35
TORSDOF 19
ENDMDL
MODEL 3
REMARK VINA RESULT:     -11.2      5.373     12.106
REMARK SMILES Cc1cc(C)cc(Oc2nc3ccccn3c(=O)c2/C=C2\SC(=S)N(CCC(=O)OCCOC(=O)c3ccc(-c4c5nc(c(-c6cccc(S(=O)(=O)[O-])c6F)c6ccc([nH]6)c(-c6cccc(S(=O)(=O)[O-])c6F)c6nc(c(-c7cccc(S(=O)(=O)[O-])c7F)c7ccc4[nH]7)C=C6)C=C5)cc3)C2=O)c1
REMARK SMILES IDX 31 1 30 2 28 3 29 4 27 5 26 6 25 7 20 8 21 9 22 10 99 11
REMARK SMILES IDX 23 12 100 13 24 14 19 15 9 16 10 17 11 18 17 19 12 20 16 21
REMARK SMILES IDX 18 22 13 23 15 24 14 25 8 26 7 27 1 28 2 29 3 30 101 31 4 32
REMARK SMILES IDX 5 33 6 34 32 35 33 36 34 37 35 38 36 39 37 40 98 41 38 42
REMARK SMILES IDX 97 43 39 44 40 45 41 46 91 47 42 48 96 49 90 50 92 51 43 52
REMARK SMILES IDX 95 53 89 54 88 55 44 57 76 58 56 59 75 60 57 61 60 62 74 63
REMARK SMILES IDX 93 64 58 65 59 66 73 68 94 69 61 70 45 71 46 72 54 73 47 74
REMARK SMILES IDX 49 75 55 76 48 77 50 78 51 79 52 80 53 81 77 82 78 83 86 84
REMARK SMILES IDX 79 85 81 86 87 87 80 88 82 89 83 90 84 91 85 92 62 93 63 94
REMARK SMILES IDX 71 95 64 96 66 97 72 98 65 99 67 100 68 101 69 102 70 103
REMARK H PARENT 92 56 60 67
REMARK Flexibility Score: inf
ROOT
ATOM      1  C   UNL A   1      41.885  21.181  26.187  1.00  0.00     0.274 C 
ENDROOT
BRANCH   1   2
ATOM      2  O   UNL A   1      42.625  22.014  25.273  1.00  0.00    -0.462 OA
BRANCH   2   3
ATOM      3  C   UNL A   1      43.972  22.031  25.408  1.00  0.00     0.307 C 
ATOM      4  O   UNL A   1      44.731  21.157  25.016  1.00  0.00    -0.252 OA
BRANCH   3   5
ATOM      5  C   UNL A   1      44.448  23.242  26.176  1.00  0.00     0.144 C 
BRANCH   5   6
ATOM      6  C   UNL A   1      45.457  22.933  27.288  1.00  0.00     0.139 C 
BRANCH   6   7
ATOM      7  N   UNL A   1      45.527  24.011  28.277  1.00  0.00    -0.292 N 
ATOM      8  C   UNL A   1      44.327  24.918  31.497  1.00  0.00     0.041 C 
ATOM      9  C   UNL A   1      44.927  25.002  30.302  1.00  0.00     0.081 C 
ATOM     10  S   UNL A   1      46.311  25.906  29.838  1.00  0.00    -0.054 SA
ATOM     11  C   UNL A   1      44.495  24.147  29.185  1.00  0.00     0.266 C 
ATOM     12  C   UNL A   1      46.565  24.908  28.406  1.00  0.00     0.148 C 
ATOM     13  O   UNL A   1      43.384  23.652  29.132  1.00  0.00    -0.268 OA
ATOM     14  S   UNL A   1      47.916  25.077  27.441  1.00  0.00    -0.052 S 
BRANCH   8  15
ATOM     15  C   UNL A   1      44.707  25.708  32.648  1.00  0.00     0.104 A 
ATOM     16  C   UNL A   1      44.311  26.974  32.890  1.00  0.00     0.234 A 
ATOM     17  N   UNL A   1      44.668  27.671  34.018  1.00  0.00    -0.194 NA
ATOM     18  C   UNL A   1      45.385  27.069  34.913  1.00  0.00     0.143 A 
ATOM     19  C   UNL A   1      45.605  25.058  33.644  1.00  0.00     0.269 A 
ATOM     20  C   UNL A   1      45.744  27.798  36.163  1.00  0.00     0.048 A 
ATOM     21  N   UNL A   1      45.857  25.774  34.796  1.00  0.00    -0.267 N 
ATOM     22  O   UNL A   1      46.095  23.952  33.404  1.00  0.00    -0.268 OA
ATOM     23  C   UNL A   1      46.468  27.188  37.110  1.00  0.00     0.005 A 
ATOM     24  C   UNL A   1      46.613  25.183  35.800  1.00  0.00     0.096 A 
ATOM     25  C   UNL A   1      46.917  25.834  36.929  1.00  0.00     0.019 A 
BRANCH  16  26
ATOM     26  O   UNL A   1      43.619  27.724  31.937  1.00  0.00    -0.438 OA
BRANCH  26  27
ATOM     27  C   UNL A   1      42.690  28.679  32.287  1.00  0.00     0.130 A 
ATOM     28  C   UNL A   1      42.238  32.204  33.653  1.00  0.00     0.044 C 
ATOM     29  C   UNL A   1      41.942  30.834  33.117  1.00  0.00    -0.047 A 
ATOM     30  C   UNL A   1      40.615  30.390  33.059  1.00  0.00     0.007 A 
ATOM     31  C   UNL A   1      42.974  29.981  32.694  1.00  0.00     0.050 A 
ATOM     32  C   UNL A   1      40.308  29.116  32.574  1.00  0.00    -0.047 A 
ATOM     33  C   UNL A   1      38.873  28.686  32.470  1.00  0.00     0.044 C 
ATOM     34  C   UNL A   1      41.354  28.260  32.209  1.00  0.00     0.050 A 
ENDBRANCH  26  27
ENDBRANCH  16  26
ENDBRANCH   8  15
ENDBRANCH   6   7
ENDBRANCH   5   6
ENDBRANCH   3   5
ENDBRANCH   2   3
ENDBRANCH   1   2
BRANCH   1  35
ATOM     35  C   UNL A   1      41.383  21.977  27.394  1.00  0.00     0.275 C 
BRANCH  35  36
ATOM     36  O   UNL A   1      39.951  21.889  27.478  1.00  0.00    -0.458 OA
BRANCH  36  37
ATOM     37  C   UNL A   1      39.248  22.707  26.667  1.00  0.00     0.338 C 
ATOM     38  O   UNL A   1      38.469  22.424  25.779  1.00  0.00    -0.246 OA
BRANCH  37  39
ATOM     39  C   UNL A   1      39.559  24.092  27.023  1.00  0.00     0.060 A 
ATOM     40  C   UNL A   1      40.075  24.958  26.055  1.00  0.00     0.016 A 
ATOM     41  C   UNL A   1      39.413  24.490  28.350  1.00  0.00     0.016 A 
ATOM     42  C   UNL A   1      40.460  26.243  26.424  1.00  0.00     0.010 A 
ATOM     43  C   UNL A   1      39.773  25.785  28.710  1.00  0.00     0.010 A 
ATOM     44  C   UNL A   1      40.312  26.662  27.753  1.00  0.00    -0.014 A 
BRANCH  44  45
ATOM     45  C   UNL A   1      40.726  28.019  28.169  1.00  0.00     0.031 A 
ATOM     46  C   UNL A   1      42.183  28.373  28.198  1.00  0.00     0.074 A 
ATOM     47  C   UNL A   1      39.788  28.892  28.579  1.00  0.00     0.049 A 
ATOM     48  N   UNL A   1      42.758  29.452  28.657  1.00  0.00    -0.248 NA
ATOM     49  C   UNL A   1      43.118  27.377  27.645  1.00  0.00     0.031 C 
ATOM     50  C   UNL A   1      38.347  28.638  28.590  1.00  0.00     0.029 A 
ATOM     51  N   UNL A   1      39.911  30.155  29.094  1.00  0.00    -0.354 N 
ATOM     52  C   UNL A   1      44.123  29.256  28.478  1.00  0.00     0.074 A 
ATOM     53  C   UNL A   1      44.291  27.953  27.875  1.00  0.00     0.031 C 
ATOM     54  C   UNL A   1      37.719  29.706  29.109  1.00  0.00     0.029 A 
ATOM     55  C   UNL A   1      38.715  30.698  29.500  1.00  0.00     0.049 A 
ATOM     56  H   UNL A   1      40.772  30.628  29.166  1.00  0.00     0.167 HD
ATOM     57  C   UNL A   1      45.139  30.099  28.777  1.00  0.00     0.034 A 
ATOM     58  C   UNL A   1      38.459  31.855  30.139  1.00  0.00     0.034 A 
ATOM     59  C   UNL A   1      44.954  31.402  29.358  1.00  0.00     0.049 A 
ATOM     60  C   UNL A   1      39.610  32.764  30.474  1.00  0.00     0.074 A 
ATOM     61  C   UNL A   1      45.911  32.344  29.687  1.00  0.00     0.029 A 
ATOM     62  N   UNL A   1      43.723  31.947  29.694  1.00  0.00    -0.354 N 
ATOM     63  N   UNL A   1      40.887  32.605  30.220  1.00  0.00    -0.248 NA
ATOM     64  C   UNL A   1      39.285  34.022  31.160  1.00  0.00     0.031 C 
ATOM     65  C   UNL A   1      45.259  33.459  30.225  1.00  0.00     0.029 A 
ATOM     66  C   UNL A   1      43.894  33.214  30.223  1.00  0.00     0.049 A 
ATOM     67  H   UNL A   1      42.855  31.498  29.575  1.00  0.00     0.167 HD
ATOM     68  C   UNL A   1      41.513  33.755  30.683  1.00  0.00     0.074 A 
ATOM     69  C   UNL A   1      40.473  34.611  31.216  1.00  0.00     0.031 C 
ATOM     70  C   UNL A   1      42.833  34.070  30.687  1.00  0.00     0.034 A 
BRANCH  57  71
ATOM     71  C   UNL A   1      46.537  29.658  28.436  1.00  0.00     0.023 A 
ATOM     72  C   UNL A   1      46.982  29.753  27.102  1.00  0.00     0.012 A 
ATOM     73  C   UNL A   1      47.425  29.206  29.432  1.00  0.00     0.148 A 
ATOM     74  C   UNL A   1      48.282  29.385  26.759  1.00  0.00     0.002 A 
ATOM     75  C   UNL A   1      48.731  28.872  29.087  1.00  0.00     0.091 A 
ATOM     76  F   UNL A   1      46.975  29.098  30.690  1.00  0.00    -0.205 F 
ATOM     77  C   UNL A   1      49.158  28.953  27.751  1.00  0.00     0.022 A 
BRANCH  75  78
ATOM     78  S   UNL A   1      49.954  28.367  30.302  1.00  0.00     0.127 S 
ATOM     79  O   UNL A   1      49.670  26.939  30.432  1.00  0.00    -0.237 OA
ATOM     80  O   UNL A   1      51.213  28.679  29.623  1.00  0.00    -0.237 OA
ATOM     81  O   UNL A   1      49.694  29.170  31.489  1.00  0.00    -0.744 OA
ENDBRANCH  75  78
ENDBRANCH  57  71
BRANCH  58  82
ATOM     82  C   UNL A   1      37.055  32.238  30.456  1.00  0.00     0.023 A 
ATOM     83  C   UNL A   1      36.557  32.004  31.752  1.00  0.00     0.012 A 
ATOM     84  C   UNL A   1      36.224  32.860  29.504  1.00  0.00     0.148 A 
ATOM     85  C   UNL A   1      35.249  32.358  32.087  1.00  0.00     0.002 A 
ATOM     86  C   UNL A   1      34.939  33.258  29.860  1.00  0.00     0.091 A 
ATOM     87  F   UNL A   1      36.704  33.056  28.268  1.00  0.00    -0.205 F 
ATOM     88  C   UNL A   1      34.445  32.994  31.146  1.00  0.00     0.022 A 
BRANCH  86  89
ATOM     89  S   UNL A   1      33.896  34.199  28.741  1.00  0.00     0.127 S 
ATOM     90  O   UNL A   1      32.844  34.672  29.635  1.00  0.00    -0.237 OA
ATOM     91  O   UNL A   1      34.809  35.238  28.262  1.00  0.00    -0.237 OA
ATOM     92  O   UNL A   1      33.486  33.251  27.714  1.00  0.00    -0.744 OA
ENDBRANCH  86  89
ENDBRANCH  58  82
BRANCH  70  93
ATOM     93  C   UNL A   1      43.222  35.408  31.253  1.00  0.00     0.023 A 
ATOM     94  C   UNL A   1      43.453  35.536  32.635  1.00  0.00     0.012 A 
ATOM     95  C   UNL A   1      43.433  36.514  30.406  1.00  0.00     0.148 A 
ATOM     96  C   UNL A   1      43.865  36.755  33.173  1.00  0.00     0.002 A 
ATOM     97  C   UNL A   1      43.884  37.713  30.943  1.00  0.00     0.091 A 
ATOM     98  F   UNL A   1      43.186  36.375  29.095  1.00  0.00    -0.205 F 
ATOM     99  C   UNL A   1      44.092  37.838  32.327  1.00  0.00     0.022 A 
BRANCH  97 100
ATOM    100  S   UNL A   1      44.284  39.130  29.916  1.00  0.00     0.127 S 
ATOM    101  O   UNL A   1      42.979  39.470  29.354  1.00  0.00    -0.237 OA
ATOM    102  O   UNL A   1      44.796  40.092  30.894  1.00  0.00    -0.237 OA
ATOM    103  O   UNL A   1      45.278  38.661  28.960  1.00  0.00    -0.744 OA
ENDBRANCH  97 100
ENDBRANCH  70  93
ENDBRANCH  44  45
ENDBRANCH  37  39
ENDBRANCH  36  37
ENDBRANCH  35  36
ENDBRANCH   1  35
TORSDOF 19
ENDMDL
