MODEL 1
REMARK VINA RESULT:      -8.4      0.000      0.000
REMARK SMILES CCCCCCNC(=O)Oc1cccc(-c2ccc([C@@H](C)C(=O)OCCOC(=O)c3ccc(-c4c5nc(c(-c6cccc(S(=O)(=O)[O-])c6F)c6ccc([nH]6)c(-c6cccc(S(=O)(=O)[O-])c6F)c6nc(c(-c7cccc(S(=O)(=O)[O-])c7F)c7ccc4[nH]7)C=C6)C=C5)cc3)cc2C(F)(F)F)c1
REMARK SMILES IDX 20 1 21 2 19 3 16 4 17 5 94 6 18 7 93 8 15 9 11 10 12 11
REMARK SMILES IDX 99 12 13 13 14 14 10 15 8 16 7 17 9 19 6 20 5 21 4 22 3 23
REMARK SMILES IDX 2 24 1 25 95 26 96 27 97 28 98 29 22 30 23 31 24 32 25 33
REMARK SMILES IDX 26 34 27 35 28 36 29 37 30 38 31 39 92 40 32 41 91 42 33 43
REMARK SMILES IDX 34 44 35 45 85 46 36 47 90 48 84 49 86 50 37 51 89 52 83 53
REMARK SMILES IDX 82 54 38 56 70 57 50 58 69 59 51 60 54 61 68 62 87 63 52 64
REMARK SMILES IDX 53 65 67 67 88 68 55 69 39 70 40 71 48 72 41 73 43 74 49 75
REMARK SMILES IDX 42 76 44 77 45 78 46 79 47 80 71 81 72 82 80 83 73 84 75 85
REMARK SMILES IDX 81 86 74 87 76 88 77 89 78 90 79 91 56 92 57 93 65 94 58 95
REMARK SMILES IDX 60 96 66 97 59 98 61 99 62 100 63 101 64 102
REMARK H PARENT 7 18 86 55 54 66
REMARK Flexibility Score: inf
ROOT
ATOM      1  C   UNL A   1      35.040  34.612  29.227  1.00  0.00     0.126 C 
ATOM      2  C   UNL A   1      34.556  35.121  27.870  1.00  0.00     0.025 C 
ENDROOT
BRANCH   1   3
ATOM      3  C   UNL A   1      35.925  33.381  29.095  1.00  0.00    -0.033 A 
ATOM      4  C   UNL A   1      37.492  31.001  28.892  1.00  0.00    -0.006 A 
ATOM      5  C   UNL A   1      37.973  32.160  29.536  1.00  0.00     0.009 A 
ATOM      6  C   UNL A   1      36.200  31.048  28.325  1.00  0.00     0.064 A 
ATOM      7  C   UNL A   1      37.206  33.322  29.646  1.00  0.00     0.005 A 
ATOM      8  C   UNL A   1      35.445  32.241  28.430  1.00  0.00     0.018 A 
BRANCH   4   9
ATOM      9  C   UNL A   1      38.330  29.787  28.918  1.00  0.00    -0.014 A 
ATOM     10  C   UNL A   1      40.032  28.333  27.992  1.00  0.00     0.133 A 
ATOM     11  C   UNL A   1      39.796  27.377  28.979  1.00  0.00     0.047 A 
ATOM     12  C   UNL A   1      39.323  29.537  27.958  1.00  0.00     0.056 A 
ATOM     13  C   UNL A   1      38.839  27.627  29.955  1.00  0.00     0.004 A 
ATOM     14  C   UNL A   1      38.109  28.817  29.918  1.00  0.00     0.009 A 
BRANCH  10  15
ATOM     15  O   UNL A   1      40.888  27.942  26.947  1.00  0.00    -0.410 OA
BRANCH  15  16
ATOM     16  C   UNL A   1      42.096  28.593  26.756  1.00  0.00     0.412 C 
ATOM     17  N   UNL A   1      43.168  27.855  27.179  1.00  0.00    -0.321 N 
ATOM     18  H   UNL A   1      44.057  28.265  27.073  1.00  0.00     0.167 HD
ATOM     19  O   UNL A   1      42.239  29.715  26.289  1.00  0.00    -0.224 OA
BRANCH  17  20
ATOM     20  C   UNL A   1      43.132  26.530  27.768  1.00  0.00     0.119 C 
BRANCH  20  21
ATOM     21  C   UNL A   1      43.615  25.448  26.803  1.00  0.00     0.021 C 
BRANCH  21  22
ATOM     22  C   UNL A   1      44.590  24.430  27.407  1.00  0.00     0.002 C 
BRANCH  22  23
ATOM     23  C   UNL A   1      44.196  22.958  27.245  1.00  0.00    -0.000 C 
BRANCH  23  24
ATOM     24  C   UNL A   1      44.729  22.267  25.988  1.00  0.00    -0.003 C 
ATOM     25  C   UNL A   1      46.028  22.868  25.475  1.00  0.00     0.004 C 
ENDBRANCH  23  24
ENDBRANCH  22  23
ENDBRANCH  21  22
ENDBRANCH  20  21
ENDBRANCH  17  20
ENDBRANCH  15  16
ENDBRANCH  10  15
ENDBRANCH   4   9
BRANCH   6  26
ATOM     26  C   UNL A   1      35.566  29.886  27.588  1.00  0.00     0.417 C 
ATOM     27  F   UNL A   1      34.452  30.261  26.889  1.00  0.00    -0.166 F 
ATOM     28  F   UNL A   1      36.404  29.333  26.668  1.00  0.00    -0.166 F 
ATOM     29  F   UNL A   1      35.145  28.864  28.383  1.00  0.00    -0.166 F 
ENDBRANCH   6  26
ENDBRANCH   1   3
BRANCH   1  30
ATOM     30  C   UNL A   1      33.864  34.511  30.190  1.00  0.00     0.313 C 
ATOM     31  O   UNL A   1      32.760  34.972  29.916  1.00  0.00    -0.252 OA
BRANCH  30  32
ATOM     32  O   UNL A   1      34.139  33.824  31.329  1.00  0.00    -0.462 OA
BRANCH  32  33
ATOM     33  C   UNL A   1      34.697  34.579  32.422  1.00  0.00     0.274 C 
BRANCH  33  34
ATOM     34  C   UNL A   1      34.757  33.744  33.704  1.00  0.00     0.275 C 
BRANCH  34  35
ATOM     35  O   UNL A   1      35.719  32.680  33.595  1.00  0.00    -0.458 OA
BRANCH  35  36
ATOM     36  C   UNL A   1      36.750  32.760  34.469  1.00  0.00     0.338 C 
ATOM     37  O   UNL A   1      36.744  33.287  35.569  1.00  0.00    -0.246 OA
BRANCH  36  38
ATOM     38  C   UNL A   1      37.896  31.984  33.975  1.00  0.00     0.060 A 
ATOM     39  C   UNL A   1      39.172  32.466  34.265  1.00  0.00     0.016 A 
ATOM     40  C   UNL A   1      37.729  30.881  33.137  1.00  0.00     0.016 A 
ATOM     41  C   UNL A   1      40.292  31.885  33.683  1.00  0.00     0.010 A 
ATOM     42  C   UNL A   1      38.859  30.282  32.566  1.00  0.00     0.010 A 
ATOM     43  C   UNL A   1      40.145  30.802  32.809  1.00  0.00    -0.014 A 
BRANCH  43  44
ATOM     44  C   UNL A   1      41.341  30.279  32.103  1.00  0.00     0.031 A 
ATOM     45  C   UNL A   1      41.957  28.977  32.537  1.00  0.00     0.074 A 
ATOM     46  C   UNL A   1      41.851  30.952  31.054  1.00  0.00     0.049 A 
ATOM     47  N   UNL A   1      42.997  28.353  32.045  1.00  0.00    -0.248 NA
ATOM     48  C   UNL A   1      41.324  28.284  33.672  1.00  0.00     0.031 C 
ATOM     49  C   UNL A   1      41.343  32.227  30.542  1.00  0.00     0.029 A 
ATOM     50  N   UNL A   1      42.913  30.663  30.236  1.00  0.00    -0.354 N 
ATOM     51  C   UNL A   1      43.172  27.224  32.836  1.00  0.00     0.074 A 
ATOM     52  C   UNL A   1      42.130  27.245  33.840  1.00  0.00     0.031 C 
ATOM     53  C   UNL A   1      42.103  32.615  29.504  1.00  0.00     0.029 A 
ATOM     54  C   UNL A   1      43.162  31.632  29.293  1.00  0.00     0.049 A 
ATOM     55  H   UNL A   1      43.447  29.839  30.317  1.00  0.00     0.167 HD
ATOM     56  C   UNL A   1      44.104  26.249  32.725  1.00  0.00     0.034 A 
ATOM     57  C   UNL A   1      44.144  31.725  28.374  1.00  0.00     0.034 A 
ATOM     58  C   UNL A   1      45.099  26.194  31.687  1.00  0.00     0.049 A 
ATOM     59  C   UNL A   1      45.148  30.610  28.258  1.00  0.00     0.074 A 
ATOM     60  C   UNL A   1      46.038  25.206  31.450  1.00  0.00     0.029 A 
ATOM     61  N   UNL A   1      45.282  27.164  30.714  1.00  0.00    -0.354 N 
ATOM     62  N   UNL A   1      45.216  29.486  28.930  1.00  0.00    -0.248 NA
ATOM     63  C   UNL A   1      46.193  30.760  27.234  1.00  0.00     0.031 C 
ATOM     64  C   UNL A   1      46.800  25.586  30.340  1.00  0.00     0.029 A 
ATOM     65  C   UNL A   1      46.327  26.804  29.881  1.00  0.00     0.049 A 
ATOM     66  H   UNL A   1      44.748  27.986  30.629  1.00  0.00     0.167 HD
ATOM     67  C   UNL A   1      46.293  28.787  28.397  1.00  0.00     0.074 A 
ATOM     68  C   UNL A   1      46.828  29.598  27.323  1.00  0.00     0.031 C 
ATOM     69  C   UNL A   1      46.810  27.593  28.778  1.00  0.00     0.034 A 
BRANCH  56  70
ATOM     70  C   UNL A   1      44.077  25.129  33.729  1.00  0.00     0.023 A 
ATOM     71  C   UNL A   1      43.524  23.885  33.367  1.00  0.00     0.012 A 
ATOM     72  C   UNL A   1      44.677  25.281  34.994  1.00  0.00     0.148 A 
ATOM     73  C   UNL A   1      43.552  22.812  34.257  1.00  0.00     0.002 A 
ATOM     74  C   UNL A   1      44.734  24.197  35.862  1.00  0.00     0.091 A 
ATOM     75  F   UNL A   1      45.181  26.478  35.323  1.00  0.00    -0.205 F 
ATOM     76  C   UNL A   1      44.167  22.963  35.498  1.00  0.00     0.022 A 
BRANCH  74  77
ATOM     77  S   UNL A   1      45.562  24.268  37.455  1.00  0.00     0.127 S 
ATOM     78  O   UNL A   1      46.878  24.786  37.081  1.00  0.00    -0.237 OA
ATOM     79  O   UNL A   1      44.725  25.212  38.195  1.00  0.00    -0.237 OA
ATOM     80  O   UNL A   1      45.553  22.908  37.976  1.00  0.00    -0.744 OA
ENDBRANCH  74  77
ENDBRANCH  56  70
BRANCH  57  81
ATOM     81  C   UNL A   1      44.205  32.904  27.463  1.00  0.00     0.023 A 
ATOM     82  C   UNL A   1      43.776  32.776  26.129  1.00  0.00     0.012 A 
ATOM     83  C   UNL A   1      44.679  34.152  27.914  1.00  0.00     0.148 A 
ATOM     84  C   UNL A   1      43.847  33.858  25.251  1.00  0.00     0.002 A 
ATOM     85  C   UNL A   1      44.694  35.240  27.049  1.00  0.00     0.091 A 
ATOM     86  F   UNL A   1      45.110  34.252  29.179  1.00  0.00    -0.205 F 
ATOM     87  C   UNL A   1      44.295  35.093  25.713  1.00  0.00     0.022 A 
BRANCH  85  88
ATOM     88  S   UNL A   1      45.132  36.887  27.620  1.00  0.00     0.127 S 
ATOM     89  O   UNL A   1      44.287  37.031  28.803  1.00  0.00    -0.237 OA
ATOM     90  O   UNL A   1      46.563  36.750  27.900  1.00  0.00    -0.237 OA
ATOM     91  O   UNL A   1      44.830  37.769  26.501  1.00  0.00    -0.744 OA
ENDBRANCH  85  88
ENDBRANCH  57  81
BRANCH  69  92
ATOM     92  C   UNL A   1      48.007  27.080  28.024  1.00  0.00     0.023 A 
ATOM     93  C   UNL A   1      47.814  26.291  26.871  1.00  0.00     0.012 A 
ATOM     94  C   UNL A   1      49.315  27.433  28.408  1.00  0.00     0.148 A 
ATOM     95  C   UNL A   1      48.905  25.839  26.130  1.00  0.00     0.002 A 
ATOM     96  C   UNL A   1      50.396  27.014  27.640  1.00  0.00     0.091 A 
ATOM     97  F   UNL A   1      49.482  28.166  29.520  1.00  0.00    -0.205 F 
ATOM     98  C   UNL A   1      50.193  26.210  26.507  1.00  0.00     0.022 A 
BRANCH  96  99
ATOM     99  S   UNL A   1      52.081  27.525  28.004  1.00  0.00     0.127 S 
ATOM    100  O   UNL A   1      52.314  26.884  29.296  1.00  0.00    -0.237 OA
ATOM    101  O   UNL A   1      52.833  26.946  26.890  1.00  0.00    -0.237 OA
ATOM    102  O   UNL A   1      52.056  28.982  28.017  1.00  0.00    -0.744 OA
ENDBRANCH  96  99
ENDBRANCH  69  92
ENDBRANCH  43  44
ENDBRANCH  36  38
ENDBRANCH  35  36
ENDBRANCH  34  35
ENDBRANCH  33  34
ENDBRANCH  32  33
ENDBRANCH  30  32
ENDBRANCH   1  30
TORSDOF 24
ENDMDL
MODEL 2
REMARK VINA RESULT:      -8.3      4.091      8.314
REMARK SMILES CCCCCCNC(=O)Oc1cccc(-c2ccc([C@@H](C)C(=O)OCCOC(=O)c3ccc(-c4c5nc(c(-c6cccc(S(=O)(=O)[O-])c6F)c6ccc([nH]6)c(-c6cccc(S(=O)(=O)[O-])c6F)c6nc(c(-c7cccc(S(=O)(=O)[O-])c7F)c7ccc4[nH]7)C=C6)C=C5)cc3)cc2C(F)(F)F)c1
REMARK SMILES IDX 20 1 21 2 19 3 16 4 17 5 94 6 18 7 93 8 15 9 11 10 12 11
REMARK SMILES IDX 99 12 13 13 14 14 10 15 8 16 7 17 9 19 6 20 5 21 4 22 3 23
REMARK SMILES IDX 2 24 1 25 95 26 96 27 97 28 98 29 22 30 23 31 24 32 25 33
REMARK SMILES IDX 26 34 27 35 28 36 29 37 30 38 31 39 92 40 32 41 91 42 33 43
REMARK SMILES IDX 34 44 35 45 85 46 36 47 90 48 84 49 86 50 37 51 89 52 83 53
REMARK SMILES IDX 82 54 38 56 70 57 50 58 69 59 51 60 54 61 68 62 87 63 52 64
REMARK SMILES IDX 53 65 67 67 88 68 55 69 39 70 40 71 48 72 41 73 43 74 49 75
REMARK SMILES IDX 42 76 44 77 45 78 46 79 47 80 71 81 72 82 80 83 73 84 75 85
REMARK SMILES IDX 81 86 74 87 76 88 77 89 78 90 79 91 56 92 57 93 65 94 58 95
REMARK SMILES IDX 60 96 66 97 59 98 61 99 62 100 63 101 64 102
REMARK H PARENT 7 18 86 55 54 66
REMARK Flexibility Score: inf
ROOT
ATOM      1  C   UNL A   1      34.086  34.856  28.763  1.00  0.00     0.126 C 
ATOM      2  C   UNL A   1      34.421  35.870  27.671  1.00  0.00     0.025 C 
ENDROOT
BRANCH   1   3
ATOM      3  C   UNL A   1      33.671  33.510  28.188  1.00  0.00    -0.033 A 
ATOM      4  C   UNL A   1      32.994  30.984  27.037  1.00  0.00    -0.006 A 
ATOM      5  C   UNL A   1      32.073  32.051  27.093  1.00  0.00     0.009 A 
ATOM      6  C   UNL A   1      34.277  31.190  27.588  1.00  0.00     0.064 A 
ATOM      7  C   UNL A   1      32.404  33.291  27.645  1.00  0.00     0.005 A 
ATOM      8  C   UNL A   1      34.588  32.446  28.161  1.00  0.00     0.018 A 
BRANCH   4   9
ATOM      9  C   UNL A   1      32.591  29.748  26.340  1.00  0.00    -0.014 A 
ATOM     10  C   UNL A   1      32.262  28.419  24.342  1.00  0.00     0.133 A 
ATOM     11  C   UNL A   1      31.672  27.395  25.081  1.00  0.00     0.047 A 
ATOM     12  C   UNL A   1      32.733  29.584  24.954  1.00  0.00     0.056 A 
ATOM     13  C   UNL A   1      31.556  27.531  26.459  1.00  0.00     0.004 A 
ATOM     14  C   UNL A   1      32.004  28.700  27.079  1.00  0.00     0.009 A 
BRANCH  10  15
ATOM     15  O   UNL A   1      32.192  28.287  22.943  1.00  0.00    -0.410 OA
BRANCH  15  16
ATOM     16  C   UNL A   1      33.220  27.668  22.251  1.00  0.00     0.412 C 
ATOM     17  N   UNL A   1      32.886  26.413  21.816  1.00  0.00    -0.321 N 
ATOM     18  H   UNL A   1      33.577  25.919  21.319  1.00  0.00     0.167 HD
ATOM     19  O   UNL A   1      34.332  28.138  22.046  1.00  0.00    -0.224 OA
BRANCH  17  20
ATOM     20  C   UNL A   1      31.618  25.736  22.013  1.00  0.00     0.119 C 
BRANCH  20  21
ATOM     21  C   UNL A   1      31.752  24.489  22.885  1.00  0.00     0.021 C 
BRANCH  21  22
ATOM     22  C   UNL A   1      32.846  23.508  22.449  1.00  0.00     0.002 C 
BRANCH  22  23
ATOM     23  C   UNL A   1      32.629  22.047  22.858  1.00  0.00    -0.000 C 
BRANCH  23  24
ATOM     24  C   UNL A   1      33.549  21.528  23.965  1.00  0.00    -0.003 C 
ATOM     25  C   UNL A   1      34.500  22.586  24.503  1.00  0.00     0.004 C 
ENDBRANCH  23  24
ENDBRANCH  22  23
ENDBRANCH  21  22
ENDBRANCH  20  21
ENDBRANCH  17  20
ENDBRANCH  15  16
ENDBRANCH  10  15
ENDBRANCH   4   9
BRANCH   6  26
ATOM     26  C   UNL A   1      35.356  30.127  27.615  1.00  0.00     0.417 C 
ATOM     27  F   UNL A   1      35.300  29.361  28.747  1.00  0.00    -0.166 F 
ATOM     28  F   UNL A   1      35.252  29.251  26.578  1.00  0.00    -0.166 F 
ATOM     29  F   UNL A   1      36.632  30.603  27.586  1.00  0.00    -0.166 F 
ENDBRANCH   6  26
ENDBRANCH   1   3
BRANCH   1  30
ATOM     30  C   UNL A   1      33.143  35.486  29.781  1.00  0.00     0.313 C 
ATOM     31  O   UNL A   1      32.466  36.474  29.513  1.00  0.00    -0.252 OA
BRANCH  30  32
ATOM     32  O   UNL A   1      33.085  34.825  30.966  1.00  0.00    -0.462 OA
BRANCH  32  33
ATOM     33  C   UNL A   1      33.689  35.475  32.101  1.00  0.00     0.274 C 
BRANCH  33  34
ATOM     34  C   UNL A   1      35.166  35.098  32.240  1.00  0.00     0.275 C 
BRANCH  34  35
ATOM     35  O   UNL A   1      35.328  33.861  32.958  1.00  0.00    -0.458 OA
BRANCH  35  36
ATOM     36  C   UNL A   1      35.333  32.754  32.180  1.00  0.00     0.338 C 
ATOM     37  O   UNL A   1      34.363  32.126  31.786  1.00  0.00    -0.246 OA
BRANCH  36  38
ATOM     38  C   UNL A   1      36.699  32.456  31.728  1.00  0.00     0.060 A 
ATOM     39  C   UNL A   1      37.016  32.750  30.402  1.00  0.00     0.016 A 
ATOM     40  C   UNL A   1      37.611  31.785  32.542  1.00  0.00     0.016 A 
ATOM     41  C   UNL A   1      38.227  32.335  29.860  1.00  0.00     0.010 A 
ATOM     42  C   UNL A   1      38.840  31.383  32.002  1.00  0.00     0.010 A 
ATOM     43  C   UNL A   1      39.140  31.626  30.649  1.00  0.00    -0.014 A 
BRANCH  43  44
ATOM     44  C   UNL A   1      40.369  31.085  30.015  1.00  0.00     0.031 A 
ATOM     45  C   UNL A   1      41.614  31.926  29.956  1.00  0.00     0.074 A 
ATOM     46  C   UNL A   1      40.377  29.829  29.528  1.00  0.00     0.049 A 
ATOM     47  N   UNL A   1      42.784  31.632  29.451  1.00  0.00    -0.248 NA
ATOM     48  C   UNL A   1      41.536  33.277  30.537  1.00  0.00     0.031 C 
ATOM     49  C   UNL A   1      39.231  28.918  29.525  1.00  0.00     0.029 A 
ATOM     50  N   UNL A   1      41.380  29.106  28.934  1.00  0.00    -0.354 N 
ATOM     51  C   UNL A   1      43.565  32.770  29.610  1.00  0.00     0.074 A 
ATOM     52  C   UNL A   1      42.738  33.763  30.260  1.00  0.00     0.031 C 
ATOM     53  C   UNL A   1      39.593  27.762  28.946  1.00  0.00     0.029 A 
ATOM     54  C   UNL A   1      40.985  27.858  28.516  1.00  0.00     0.049 A 
ATOM     55  H   UNL A   1      42.295  29.450  28.818  1.00  0.00     0.167 HD
ATOM     56  C   UNL A   1      44.859  32.964  29.263  1.00  0.00     0.034 A 
ATOM     57  C   UNL A   1      41.665  26.905  27.847  1.00  0.00     0.034 A 
ATOM     58  C   UNL A   1      45.700  31.955  28.676  1.00  0.00     0.049 A 
ATOM     59  C   UNL A   1      43.111  27.142  27.501  1.00  0.00     0.074 A 
ATOM     60  C   UNL A   1      47.044  32.038  28.359  1.00  0.00     0.029 A 
ATOM     61  N   UNL A   1      45.281  30.683  28.321  1.00  0.00    -0.354 N 
ATOM     62  N   UNL A   1      43.868  28.176  27.778  1.00  0.00    -0.248 NA
ATOM     63  C   UNL A   1      43.806  26.068  26.776  1.00  0.00     0.031 C 
ATOM     64  C   UNL A   1      47.436  30.817  27.798  1.00  0.00     0.029 A 
ATOM     65  C   UNL A   1      46.338  29.974  27.778  1.00  0.00     0.049 A 
ATOM     66  H   UNL A   1      44.368  30.336  28.439  1.00  0.00     0.167 HD
ATOM     67  C   UNL A   1      45.130  27.867  27.285  1.00  0.00     0.074 A 
ATOM     68  C   UNL A   1      45.045  26.537  26.720  1.00  0.00     0.031 C 
ATOM     69  C   UNL A   1      46.253  28.627  27.275  1.00  0.00     0.034 A 
BRANCH  56  70
ATOM     70  C   UNL A   1      45.470  34.311  29.542  1.00  0.00     0.023 A 
ATOM     71  C   UNL A   1      46.212  34.506  30.722  1.00  0.00     0.012 A 
ATOM     72  C   UNL A   1      45.384  35.350  28.596  1.00  0.00     0.148 A 
ATOM     73  C   UNL A   1      46.846  35.723  30.968  1.00  0.00     0.002 A 
ATOM     74  C   UNL A   1      46.048  36.549  28.829  1.00  0.00     0.091 A 
ATOM     75  F   UNL A   1      44.657  35.148  27.487  1.00  0.00    -0.205 F 
ATOM     76  C   UNL A   1      46.775  36.739  30.017  1.00  0.00     0.022 A 
BRANCH  74  77
ATOM     77  S   UNL A   1      46.075  37.894  27.639  1.00  0.00     0.127 S 
ATOM     78  O   UNL A   1      47.082  37.428  26.688  1.00  0.00    -0.237 OA
ATOM     79  O   UNL A   1      44.703  37.882  27.130  1.00  0.00    -0.237 OA
ATOM     80  O   UNL A   1      46.434  39.090  28.390  1.00  0.00    -0.744 OA
ENDBRANCH  74  77
ENDBRANCH  56  70
BRANCH  57  81
ATOM     81  C   UNL A   1      40.996  25.621  27.490  1.00  0.00     0.023 A 
ATOM     82  C   UNL A   1      39.775  25.643  26.791  1.00  0.00     0.012 A 
ATOM     83  C   UNL A   1      41.568  24.380  27.832  1.00  0.00     0.148 A 
ATOM     84  C   UNL A   1      39.118  24.454  26.469  1.00  0.00     0.002 A 
ATOM     85  C   UNL A   1      40.937  23.199  27.458  1.00  0.00     0.091 A 
ATOM     86  F   UNL A   1      42.718  24.374  28.522  1.00  0.00    -0.205 F 
ATOM     87  C   UNL A   1      39.704  23.233  26.791  1.00  0.00     0.022 A 
BRANCH  85  88
ATOM     88  S   UNL A   1      41.706  21.597  27.725  1.00  0.00     0.127 S 
ATOM     89  O   UNL A   1      42.579  21.868  28.864  1.00  0.00    -0.237 OA
ATOM     90  O   UNL A   1      40.554  20.744  28.022  1.00  0.00    -0.237 OA
ATOM     91  O   UNL A   1      42.368  21.281  26.466  1.00  0.00    -0.744 OA
ENDBRANCH  85  88
ENDBRANCH  57  81
BRANCH  69  92
ATOM     92  C   UNL A   1      47.488  28.038  26.648  1.00  0.00     0.023 A 
ATOM     93  C   UNL A   1      48.465  27.441  27.471  1.00  0.00     0.012 A 
ATOM     94  C   UNL A   1      47.650  28.007  25.249  1.00  0.00     0.148 A 
ATOM     95  C   UNL A   1      49.597  26.849  26.913  1.00  0.00     0.002 A 
ATOM     96  C   UNL A   1      48.761  27.377  24.698  1.00  0.00     0.091 A 
ATOM     97  F   UNL A   1      46.722  28.598  24.482  1.00  0.00    -0.205 F 
ATOM     98  C   UNL A   1      49.739  26.807  25.528  1.00  0.00     0.022 A 
BRANCH  96  99
ATOM     99  S   UNL A   1      48.973  27.198  22.922  1.00  0.00     0.127 S 
ATOM    100  O   UNL A   1      48.338  28.416  22.422  1.00  0.00    -0.237 OA
ATOM    101  O   UNL A   1      50.429  27.166  22.780  1.00  0.00    -0.237 OA
ATOM    102  O   UNL A   1      48.309  25.949  22.571  1.00  0.00    -0.744 OA
ENDBRANCH  96  99
ENDBRANCH  69  92
ENDBRANCH  43  44
ENDBRANCH  36  38
ENDBRANCH  35  36
ENDBRANCH  34  35
ENDBRANCH  33  34
ENDBRANCH  32  33
ENDBRANCH  30  32
ENDBRANCH   1  30
TORSDOF 24
ENDMDL
MODEL 3
REMARK VINA RESULT:      -8.3      1.310      7.251
REMARK SMILES CCCCCCNC(=O)Oc1cccc(-c2ccc([C@@H](C)C(=O)OCCOC(=O)c3ccc(-c4c5nc(c(-c6cccc(S(=O)(=O)[O-])c6F)c6ccc([nH]6)c(-c6cccc(S(=O)(=O)[O-])c6F)c6nc(c(-c7cccc(S(=O)(=O)[O-])c7F)c7ccc4[nH]7)C=C6)C=C5)cc3)cc2C(F)(F)F)c1
REMARK SMILES IDX 20 1 21 2 19 3 16 4 17 5 94 6 18 7 93 8 15 9 11 10 12 11
REMARK SMILES IDX 99 12 13 13 14 14 10 15 8 16 7 17 9 19 6 20 5 21 4 22 3 23
REMARK SMILES IDX 2 24 1 25 95 26 96 27 97 28 98 29 22 30 23 31 24 32 25 33
REMARK SMILES IDX 26 34 27 35 28 36 29 37 30 38 31 39 92 40 32 41 91 42 33 43
REMARK SMILES IDX 34 44 35 45 85 46 36 47 90 48 84 49 86 50 37 51 89 52 83 53
REMARK SMILES IDX 82 54 38 56 70 57 50 58 69 59 51 60 54 61 68 62 87 63 52 64
REMARK SMILES IDX 53 65 67 67 88 68 55 69 39 70 40 71 48 72 41 73 43 74 49 75
REMARK SMILES IDX 42 76 44 77 45 78 46 79 47 80 71 81 72 82 80 83 73 84 75 85
REMARK SMILES IDX 81 86 74 87 76 88 77 89 78 90 79 91 56 92 57 93 65 94 58 95
REMARK SMILES IDX 60 96 66 97 59 98 61 99 62 100 63 101 64 102
REMARK H PARENT 7 18 86 55 54 66
REMARK Flexibility Score: inf
ROOT
ATOM      1  C   UNL A   1      34.877  34.885  29.069  1.00  0.00     0.126 C 
ATOM      2  C   UNL A   1      34.214  35.088  27.707  1.00  0.00     0.025 C 
ENDROOT
BRANCH   1   3
ATOM      3  C   UNL A   1      35.798  33.673  29.083  1.00  0.00    -0.033 A 
ATOM      4  C   UNL A   1      37.429  31.329  29.143  1.00  0.00    -0.006 A 
ATOM      5  C   UNL A   1      37.798  32.514  29.814  1.00  0.00     0.009 A 
ATOM      6  C   UNL A   1      36.221  31.332  28.413  1.00  0.00     0.064 A 
ATOM      7  C   UNL A   1      36.997  33.658  29.796  1.00  0.00     0.005 A 
ATOM      8  C   UNL A   1      35.433  32.508  28.390  1.00  0.00     0.018 A 
BRANCH   4   9
ATOM      9  C   UNL A   1      38.283  30.138  29.307  1.00  0.00    -0.014 A 
ATOM     10  C   UNL A   1      40.241  28.810  28.784  1.00  0.00     0.133 A 
ATOM     11  C   UNL A   1      39.786  27.765  29.586  1.00  0.00     0.047 A 
ATOM     12  C   UNL A   1      39.513  29.996  28.647  1.00  0.00     0.056 A 
ATOM     13  C   UNL A   1      38.586  27.906  30.272  1.00  0.00     0.004 A 
ATOM     14  C   UNL A   1      37.840  29.078  30.126  1.00  0.00     0.009 A 
BRANCH  10  15
ATOM     15  O   UNL A   1      41.370  28.533  27.992  1.00  0.00    -0.410 OA
BRANCH  15  16
ATOM     16  C   UNL A   1      42.476  27.914  28.551  1.00  0.00     0.412 C 
ATOM     17  N   UNL A   1      42.768  26.714  27.958  1.00  0.00    -0.321 N 
ATOM     18  H   UNL A   1      43.543  26.223  28.314  1.00  0.00     0.167 HD
ATOM     19  O   UNL A   1      43.138  28.338  29.489  1.00  0.00    -0.224 OA
BRANCH  17  20
ATOM     20  C   UNL A   1      42.053  26.092  26.861  1.00  0.00     0.119 C 
BRANCH  20  21
ATOM     21  C   UNL A   1      42.993  25.465  25.832  1.00  0.00     0.021 C 
BRANCH  21  22
ATOM     22  C   UNL A   1      44.102  24.586  26.420  1.00  0.00     0.002 C 
BRANCH  22  23
ATOM     23  C   UNL A   1      43.913  23.075  26.248  1.00  0.00    -0.000 C 
BRANCH  23  24
ATOM     24  C   UNL A   1      44.979  22.368  25.407  1.00  0.00    -0.003 C 
ATOM     25  C   UNL A   1      44.962  22.781  23.943  1.00  0.00     0.004 C 
ENDBRANCH  23  24
ENDBRANCH  22  23
ENDBRANCH  21  22
ENDBRANCH  20  21
ENDBRANCH  17  20
ENDBRANCH  15  16
ENDBRANCH  10  15
ENDBRANCH   4   9
BRANCH   6  26
ATOM     26  C   UNL A   1      35.713  30.138  27.630  1.00  0.00     0.417 C 
ATOM     27  F   UNL A   1      35.347  29.102  28.444  1.00  0.00    -0.166 F 
ATOM     28  F   UNL A   1      34.606  30.431  26.893  1.00  0.00    -0.166 F 
ATOM     29  F   UNL A   1      36.613  29.594  26.766  1.00  0.00    -0.166 F 
ENDBRANCH   6  26
ENDBRANCH   1   3
BRANCH   1  30
ATOM     30  C   UNL A   1      33.827  34.960  30.170  1.00  0.00     0.313 C 
ATOM     31  O   UNL A   1      32.625  34.920  29.925  1.00  0.00    -0.252 OA
BRANCH  30  32
ATOM     32  O   UNL A   1      34.344  35.017  31.425  1.00  0.00    -0.462 OA
BRANCH  32  33
ATOM     33  C   UNL A   1      33.464  34.654  32.506  1.00  0.00     0.274 C 
BRANCH  33  34
ATOM     34  C   UNL A   1      34.002  33.451  33.285  1.00  0.00     0.275 C 
BRANCH  34  35
ATOM     35  O   UNL A   1      35.406  33.251  33.042  1.00  0.00    -0.458 OA
BRANCH  35  36
ATOM     36  C   UNL A   1      36.165  33.161  34.159  1.00  0.00     0.338 C 
ATOM     37  O   UNL A   1      35.859  33.512  35.287  1.00  0.00    -0.246 OA
BRANCH  36  38
ATOM     38  C   UNL A   1      37.409  32.434  33.871  1.00  0.00     0.060 A 
ATOM     39  C   UNL A   1      38.612  33.084  34.147  1.00  0.00     0.016 A 
ATOM     40  C   UNL A   1      37.404  31.198  33.227  1.00  0.00     0.016 A 
ATOM     41  C   UNL A   1      39.819  32.531  33.738  1.00  0.00     0.010 A 
ATOM     42  C   UNL A   1      38.622  30.630  32.831  1.00  0.00     0.010 A 
ATOM     43  C   UNL A   1      39.834  31.310  33.055  1.00  0.00    -0.014 A 
BRANCH  43  44
ATOM     44  C   UNL A   1      41.121  30.801  32.518  1.00  0.00     0.031 A 
ATOM     45  C   UNL A   1      41.807  31.533  31.397  1.00  0.00     0.074 A 
ATOM     46  C   UNL A   1      41.689  29.707  33.059  1.00  0.00     0.049 A 
ATOM     47  N   UNL A   1      42.935  31.251  30.797  1.00  0.00    -0.248 NA
ATOM     48  C   UNL A   1      41.138  32.738  30.879  1.00  0.00     0.031 C 
ATOM     49  C   UNL A   1      41.119  28.910  34.147  1.00  0.00     0.029 A 
ATOM     50  N   UNL A   1      42.868  29.071  32.762  1.00  0.00    -0.354 N 
ATOM     51  C   UNL A   1      43.088  32.212  29.805  1.00  0.00     0.074 A 
ATOM     52  C   UNL A   1      41.939  33.088  29.882  1.00  0.00     0.031 C 
ATOM     53  C   UNL A   1      41.944  27.884  34.417  1.00  0.00     0.029 A 
ATOM     54  C   UNL A   1      43.086  27.937  33.508  1.00  0.00     0.049 A 
ATOM     55  H   UNL A   1      43.498  29.397  32.078  1.00  0.00     0.167 HD
ATOM     56  C   UNL A   1      44.104  32.362  28.923  1.00  0.00     0.034 A 
ATOM     57  C   UNL A   1      44.086  27.035  33.454  1.00  0.00     0.034 A 
ATOM     58  C   UNL A   1      45.278  31.531  28.890  1.00  0.00     0.049 A 
ATOM     59  C   UNL A   1      45.214  27.246  32.480  1.00  0.00     0.074 A 
ATOM     60  C   UNL A   1      46.392  31.653  28.080  1.00  0.00     0.029 A 
ATOM     61  N   UNL A   1      45.490  30.428  29.701  1.00  0.00    -0.354 N 
ATOM     62  N   UNL A   1      45.406  28.235  31.641  1.00  0.00    -0.248 NA
ATOM     63  C   UNL A   1      46.280  26.234  32.468  1.00  0.00     0.031 C 
ATOM     64  C   UNL A   1      47.275  30.613  28.392  1.00  0.00     0.029 A 
ATOM     65  C   UNL A   1      46.713  29.853  29.404  1.00  0.00     0.049 A 
ATOM     66  H   UNL A   1      44.864  30.103  30.387  1.00  0.00     0.167 HD
ATOM     67  C   UNL A   1      46.622  27.977  31.019  1.00  0.00     0.074 A 
ATOM     68  C   UNL A   1      47.139  26.756  31.602  1.00  0.00     0.031 C 
ATOM     69  C   UNL A   1      47.242  28.672  30.035  1.00  0.00     0.034 A 
BRANCH  56  70
ATOM     70  C   UNL A   1      44.019  33.494  27.935  1.00  0.00     0.023 A 
ATOM     71  C   UNL A   1      43.695  33.220  26.592  1.00  0.00     0.012 A 
ATOM     72  C   UNL A   1      44.171  34.830  28.354  1.00  0.00     0.148 A 
ATOM     73  C   UNL A   1      43.541  34.259  25.674  1.00  0.00     0.002 A 
ATOM     74  C   UNL A   1      43.981  35.862  27.444  1.00  0.00     0.091 A 
ATOM     75  F   UNL A   1      44.497  35.065  29.633  1.00  0.00    -0.205 F 
ATOM     76  C   UNL A   1      43.672  35.578  26.102  1.00  0.00     0.022 A 
BRANCH  74  77
ATOM     77  S   UNL A   1      44.060  37.596  27.907  1.00  0.00     0.127 S 
ATOM     78  O   UNL A   1      45.501  37.799  28.048  1.00  0.00    -0.237 OA
ATOM     79  O   UNL A   1      43.463  38.253  26.744  1.00  0.00    -0.237 OA
ATOM     80  O   UNL A   1      43.290  37.720  29.138  1.00  0.00    -0.744 OA
ENDBRANCH  74  77
ENDBRANCH  56  70
BRANCH  57  81
ATOM     81  C   UNL A   1      44.085  25.863  34.377  1.00  0.00     0.023 A 
ATOM     82  C   UNL A   1      43.556  24.634  33.941  1.00  0.00     0.012 A 
ATOM     83  C   UNL A   1      44.612  25.959  35.680  1.00  0.00     0.148 A 
ATOM     84  C   UNL A   1      43.522  23.530  34.794  1.00  0.00     0.002 A 
ATOM     85  C   UNL A   1      44.626  24.840  36.505  1.00  0.00     0.091 A 
ATOM     86  F   UNL A   1      45.087  27.143  36.092  1.00  0.00    -0.205 F 
ATOM     87  C   UNL A   1      44.067  23.630  36.072  1.00  0.00     0.022 A 
BRANCH  85  88
ATOM     88  S   UNL A   1      45.434  24.867  38.110  1.00  0.00     0.127 S 
ATOM     89  O   UNL A   1      44.593  25.799  38.856  1.00  0.00    -0.237 OA
ATOM     90  O   UNL A   1      45.331  23.470  38.535  1.00  0.00    -0.237 OA
ATOM     91  O   UNL A   1      46.797  25.305  37.840  1.00  0.00    -0.744 OA
ENDBRANCH  85  88
ENDBRANCH  57  81
BRANCH  69  92
ATOM     92  C   UNL A   1      48.559  28.143  29.532  1.00  0.00     0.023 A 
ATOM     93  C   UNL A   1      49.754  28.548  30.160  1.00  0.00     0.012 A 
ATOM     94  C   UNL A   1      48.612  27.195  28.491  1.00  0.00     0.148 A 
ATOM     95  C   UNL A   1      50.983  28.039  29.742  1.00  0.00     0.002 A 
ATOM     96  C   UNL A   1      49.837  26.660  28.108  1.00  0.00     0.091 A 
ATOM     97  F   UNL A   1      47.467  26.836  27.890  1.00  0.00    -0.205 F 
ATOM     98  C   UNL A   1      51.023  27.087  28.726  1.00  0.00     0.022 A 
BRANCH  96  99
ATOM     99  S   UNL A   1      49.967  25.362  26.871  1.00  0.00     0.127 S 
ATOM    100  O   UNL A   1      51.377  24.991  26.975  1.00  0.00    -0.237 OA
ATOM    101  O   UNL A   1      49.033  24.353  27.374  1.00  0.00    -0.237 OA
ATOM    102  O   UNL A   1      49.565  25.976  25.613  1.00  0.00    -0.744 OA
ENDBRANCH  96  99
ENDBRANCH  69  92
ENDBRANCH  43  44
ENDBRANCH  36  38
ENDBRANCH  35  36
ENDBRANCH  34  35
ENDBRANCH  33  34
ENDBRANCH  32  33
ENDBRANCH  30  32
ENDBRANCH   1  30
TORSDOF 24
ENDMDL
