MODEL 1
REMARK VINA RESULT:     -13.1      0.000      0.000
REMARK SMILES C[C@H]1CS(=O)(=O)N(c2cccc(C(=O)Nc3ccc(O)c(C(=O)OCCOC(=O)c4ccc(-c5c6nc(c(-c7cccc(S(=O)(=O)[O-])c7F)c7ccc([nH]7)c(-c7cccc(S(=O)(=O)[O-])c7F)c7nc(c(-c8cccc(S(=O)(=O)[O-])c8F)c8ccc5[nH]8)C=C7)C=C6)cc4)c3)c2)C1=O
REMARK SMILES IDX 25 1 24 2 22 3 23 4 21 5 16 6 17 7 93 8 18 9 19 10 15 11
REMARK SMILES IDX 13 12 14 13 12 15 8 16 9 17 94 18 10 19 11 20 7 21 1 22 2 23
REMARK SMILES IDX 3 24 95 25 4 26 96 27 5 28 6 29 20 30 26 32 27 33 28 34
REMARK SMILES IDX 29 35 30 36 31 37 92 38 32 39 91 40 33 41 34 42 35 43 85 44
REMARK SMILES IDX 36 45 90 46 84 47 86 48 37 49 89 50 83 51 82 52 38 54 70 55
REMARK SMILES IDX 50 56 69 57 51 58 54 59 68 60 87 61 52 62 53 63 67 65 88 66
REMARK SMILES IDX 55 67 39 68 40 69 48 70 41 71 43 72 49 73 42 74 44 75 45 76
REMARK SMILES IDX 46 77 47 78 71 79 72 80 80 81 73 82 75 83 81 84 74 85 76 86
REMARK SMILES IDX 77 87 78 88 79 89 56 90 57 91 65 92 58 93 60 94 66 95 59 96
REMARK SMILES IDX 61 97 62 98 63 99 64 100
REMARK H PARENT 15 14 20 31 86 53 54 64
REMARK Flexibility Score: inf
ROOT
ATOM      1  C   UNL A   1      31.475  31.334  26.793  1.00  0.00     0.275 C 
ENDROOT
BRANCH   1   2
ATOM      2  O   UNL A   1      31.419  30.866  25.427  1.00  0.00    -0.458 OA
BRANCH   2   3
ATOM      3  C   UNL A   1      32.129  29.740  25.197  1.00  0.00     0.342 C 
ATOM      4  O   UNL A   1      33.349  29.656  25.230  1.00  0.00    -0.246 OA
BRANCH   3   5
ATOM      5  C   UNL A   1      31.330  28.544  24.869  1.00  0.00     0.103 A 
ATOM      6  C   UNL A   1      30.539  26.336  25.392  1.00  0.00     0.042 A 
ATOM      7  C   UNL A   1      29.667  26.356  24.300  1.00  0.00     0.030 A 
ATOM      8  C   UNL A   1      31.467  27.363  25.594  1.00  0.00     0.045 A 
ATOM      9  C   UNL A   1      29.531  27.531  23.573  1.00  0.00     0.049 A 
ATOM     10  C   UNL A   1      30.298  28.638  23.917  1.00  0.00     0.130 A 
BRANCH   6  11
ATOM     11  N   UNL A   1      30.295  25.372  26.375  1.00  0.00    -0.322 N 
ATOM     12  C   UNL A   1      30.570  24.016  26.333  1.00  0.00     0.255 C 
ATOM     13  O   UNL A   1      30.156  23.304  27.251  1.00  0.00    -0.269 OA
ATOM     14  H   UNL A   1      29.874  25.701  27.202  1.00  0.00     0.170 HD
BRANCH  12  15
ATOM     15  C   UNL A   1      31.406  23.381  25.255  1.00  0.00     0.042 A 
ATOM     16  C   UNL A   1      33.480  22.409  24.384  1.00  0.00     0.061 A 
ATOM     17  C   UNL A   1      32.897  22.332  23.118  1.00  0.00     0.027 A 
ATOM     18  C   UNL A   1      32.692  22.849  25.458  1.00  0.00     0.041 A 
ATOM     19  C   UNL A   1      31.575  22.742  22.922  1.00  0.00     0.003 A 
ATOM     20  C   UNL A   1      30.842  23.286  23.979  1.00  0.00     0.014 A 
BRANCH  16  21
ATOM     21  N   UNL A   1      34.861  22.091  24.582  1.00  0.00    -0.207 N 
ATOM     22  C   UNL A   1      37.394  19.561  24.633  1.00  0.00     0.019 C 
ATOM     23  C   UNL A   1      36.804  20.809  25.280  1.00  0.00     0.094 C 
ATOM     24  C   UNL A   1      37.400  22.082  24.670  1.00  0.00     0.173 C 
ATOM     25  C   UNL A   1      35.283  20.871  25.149  1.00  0.00     0.244 C 
ATOM     26  S   UNL A   1      36.069  23.228  24.385  1.00  0.00     0.242 S 
ATOM     27  O   UNL A   1      34.533  19.981  25.529  1.00  0.00    -0.273 OA
ATOM     28  O   UNL A   1      35.999  24.155  25.498  1.00  0.00    -0.206 OA
ATOM     29  O   UNL A   1      36.099  23.673  23.015  1.00  0.00    -0.206 OA
ENDBRANCH  16  21
ENDBRANCH  12  15
ENDBRANCH   6  11
BRANCH  10  30
ATOM     30  O   UNL A   1      29.927  29.810  23.314  1.00  0.00    -0.507 OA
ATOM     31  H   UNL A   1      30.572  30.461  23.118  1.00  0.00     0.293 HD
ENDBRANCH  10  30
ENDBRANCH   3   5
ENDBRANCH   2   3
ENDBRANCH   1   2
BRANCH   1  32
ATOM     32  C   UNL A   1      31.606  32.859  26.907  1.00  0.00     0.275 C 
BRANCH  32  33
ATOM     33  O   UNL A   1      32.979  33.302  26.851  1.00  0.00    -0.458 OA
BRANCH  33  34
ATOM     34  C   UNL A   1      33.468  33.832  28.001  1.00  0.00     0.338 C 
ATOM     35  O   UNL A   1      32.903  34.633  28.725  1.00  0.00    -0.246 OA
BRANCH  34  36
ATOM     36  C   UNL A   1      34.698  33.116  28.407  1.00  0.00     0.060 A 
ATOM     37  C   UNL A   1      34.521  31.845  28.956  1.00  0.00     0.016 A 
ATOM     38  C   UNL A   1      35.983  33.649  28.305  1.00  0.00     0.016 A 
ATOM     39  C   UNL A   1      35.609  31.057  29.317  1.00  0.00     0.010 A 
ATOM     40  C   UNL A   1      37.080  32.889  28.751  1.00  0.00     0.010 A 
ATOM     41  C   UNL A   1      36.899  31.585  29.252  1.00  0.00    -0.014 A 
BRANCH  41  42
ATOM     42  C   UNL A   1      37.989  30.852  29.941  1.00  0.00     0.031 A 
ATOM     43  C   UNL A   1      38.233  31.162  31.391  1.00  0.00     0.074 A 
ATOM     44  C   UNL A   1      38.699  29.881  29.336  1.00  0.00     0.049 A 
ATOM     45  N   UNL A   1      39.157  30.707  32.195  1.00  0.00    -0.248 NA
ATOM     46  C   UNL A   1      37.297  32.109  32.021  1.00  0.00     0.031 C 
ATOM     47  C   UNL A   1      38.497  29.408  27.969  1.00  0.00     0.029 A 
ATOM     48  N   UNL A   1      39.752  29.129  29.801  1.00  0.00    -0.354 N 
ATOM     49  C   UNL A   1      38.940  31.341  33.412  1.00  0.00     0.074 A 
ATOM     50  C   UNL A   1      37.789  32.201  33.246  1.00  0.00     0.031 C 
ATOM     51  C   UNL A   1      39.425  28.472  27.691  1.00  0.00     0.029 A 
ATOM     52  C   UNL A   1      40.309  28.312  28.846  1.00  0.00     0.049 A 
ATOM     53  H   UNL A   1      40.075  29.171  30.730  1.00  0.00     0.167 HD
ATOM     54  C   UNL A   1      39.637  31.224  34.566  1.00  0.00     0.034 A 
ATOM     55  C   UNL A   1      41.428  27.558  28.888  1.00  0.00     0.034 A 
ATOM     56  C   UNL A   1      40.778  30.369  34.734  1.00  0.00     0.049 A 
ATOM     57  C   UNL A   1      42.242  27.512  30.160  1.00  0.00     0.074 A 
ATOM     58  C   UNL A   1      41.552  30.184  35.866  1.00  0.00     0.029 A 
ATOM     59  N   UNL A   1      41.322  29.571  33.741  1.00  0.00    -0.354 N 
ATOM     60  N   UNL A   1      42.003  28.078  31.318  1.00  0.00    -0.248 NA
ATOM     61  C   UNL A   1      43.472  26.703  30.136  1.00  0.00     0.031 C 
ATOM     62  C   UNL A   1      42.592  29.306  35.543  1.00  0.00     0.029 A 
ATOM     63  C   UNL A   1      42.434  28.904  34.228  1.00  0.00     0.049 A 
ATOM     64  H   UNL A   1      40.971  29.490  32.825  1.00  0.00     0.167 HD
ATOM     65  C   UNL A   1      43.025  27.664  32.168  1.00  0.00     0.074 A 
ATOM     66  C   UNL A   1      43.879  26.785  31.396  1.00  0.00     0.031 C 
ATOM     67  C   UNL A   1      43.245  27.989  33.466  1.00  0.00     0.034 A 
BRANCH  54  68
ATOM     68  C   UNL A   1      39.198  32.073  35.727  1.00  0.00     0.023 A 
ATOM     69  C   UNL A   1      38.305  31.558  36.686  1.00  0.00     0.012 A 
ATOM     70  C   UNL A   1      39.698  33.382  35.875  1.00  0.00     0.148 A 
ATOM     71  C   UNL A   1      37.886  32.347  37.758  1.00  0.00     0.002 A 
ATOM     72  C   UNL A   1      39.317  34.143  36.971  1.00  0.00     0.091 A 
ATOM     73  F   UNL A   1      40.526  33.860  34.934  1.00  0.00    -0.205 F 
ATOM     74  C   UNL A   1      38.399  33.634  37.905  1.00  0.00     0.022 A 
BRANCH  72  75
ATOM     75  S   UNL A   1      39.983  35.778  37.291  1.00  0.00     0.127 S 
ATOM     76  O   UNL A   1      41.404  35.489  37.469  1.00  0.00    -0.237 OA
ATOM     77  O   UNL A   1      39.655  36.488  36.054  1.00  0.00    -0.237 OA
ATOM     78  O   UNL A   1      39.295  36.270  38.476  1.00  0.00    -0.744 OA
ENDBRANCH  72  75
ENDBRANCH  54  68
BRANCH  55  79
ATOM     79  C   UNL A   1      41.874  26.795  27.683  1.00  0.00     0.023 A 
ATOM     80  C   UNL A   1      42.486  27.471  26.609  1.00  0.00     0.012 A 
ATOM     81  C   UNL A   1      41.665  25.406  27.586  1.00  0.00     0.148 A 
ATOM     82  C   UNL A   1      42.845  26.784  25.447  1.00  0.00     0.002 A 
ATOM     83  C   UNL A   1      42.080  24.717  26.452  1.00  0.00     0.091 A 
ATOM     84  F   UNL A   1      41.060  24.782  28.607  1.00  0.00    -0.205 F 
ATOM     85  C   UNL A   1      42.651  25.408  25.372  1.00  0.00     0.022 A 
BRANCH  83  86
ATOM     86  S   UNL A   1      41.982  22.929  26.318  1.00  0.00     0.127 S 
ATOM     87  O   UNL A   1      42.779  22.497  27.464  1.00  0.00    -0.237 OA
ATOM     88  O   UNL A   1      40.543  22.700  26.445  1.00  0.00    -0.237 OA
ATOM     89  O   UNL A   1      42.530  22.599  25.009  1.00  0.00    -0.744 OA
ENDBRANCH  83  86
ENDBRANCH  55  79
BRANCH  67  90
ATOM     90  C   UNL A   1      44.419  27.354  34.169  1.00  0.00     0.023 A 
ATOM     91  C   UNL A   1      45.684  27.975  34.141  1.00  0.00     0.012 A 
ATOM     92  C   UNL A   1      44.242  26.183  34.935  1.00  0.00     0.148 A 
ATOM     93  C   UNL A   1      46.761  27.421  34.835  1.00  0.00     0.002 A 
ATOM     94  C   UNL A   1      45.304  25.668  35.666  1.00  0.00     0.091 A 
ATOM     95  F   UNL A   1      43.035  25.600  34.939  1.00  0.00    -0.205 F 
ATOM     96  C   UNL A   1      46.568  26.277  35.607  1.00  0.00     0.022 A 
BRANCH  94  97
ATOM     97  S   UNL A   1      45.126  24.261  36.769  1.00  0.00     0.127 S 
ATOM     98  O   UNL A   1      44.149  24.762  37.735  1.00  0.00    -0.237 OA
ATOM     99  O   UNL A   1      44.617  23.225  35.870  1.00  0.00    -0.237 OA
ATOM    100  O   UNL A   1      46.453  23.999  37.307  1.00  0.00    -0.744 OA
ENDBRANCH  94  97
ENDBRANCH  67  90
ENDBRANCH  41  42
ENDBRANCH  34  36
ENDBRANCH  33  34
ENDBRANCH  32  33
ENDBRANCH   1  32
TORSDOF 18
ENDMDL
MODEL 2
REMARK VINA RESULT:     -12.9      1.418      2.125
REMARK SMILES C[C@H]1CS(=O)(=O)N(c2cccc(C(=O)Nc3ccc(O)c(C(=O)OCCOC(=O)c4ccc(-c5c6nc(c(-c7cccc(S(=O)(=O)[O-])c7F)c7ccc([nH]7)c(-c7cccc(S(=O)(=O)[O-])c7F)c7nc(c(-c8cccc(S(=O)(=O)[O-])c8F)c8ccc5[nH]8)C=C7)C=C6)cc4)c3)c2)C1=O
REMARK SMILES IDX 25 1 24 2 22 3 23 4 21 5 16 6 17 7 93 8 18 9 19 10 15 11
REMARK SMILES IDX 13 12 14 13 12 15 8 16 9 17 94 18 10 19 11 20 7 21 1 22 2 23
REMARK SMILES IDX 3 24 95 25 4 26 96 27 5 28 6 29 20 30 26 32 27 33 28 34
REMARK SMILES IDX 29 35 30 36 31 37 92 38 32 39 91 40 33 41 34 42 35 43 85 44
REMARK SMILES IDX 36 45 90 46 84 47 86 48 37 49 89 50 83 51 82 52 38 54 70 55
REMARK SMILES IDX 50 56 69 57 51 58 54 59 68 60 87 61 52 62 53 63 67 65 88 66
REMARK SMILES IDX 55 67 39 68 40 69 48 70 41 71 43 72 49 73 42 74 44 75 45 76
REMARK SMILES IDX 46 77 47 78 71 79 72 80 80 81 73 82 75 83 81 84 74 85 76 86
REMARK SMILES IDX 77 87 78 88 79 89 56 90 57 91 65 92 58 93 60 94 66 95 59 96
REMARK SMILES IDX 61 97 62 98 63 99 64 100
REMARK H PARENT 15 14 20 31 86 53 54 64
REMARK Flexibility Score: inf
ROOT
ATOM      1  C   UNL A   1      31.052  31.358  26.294  1.00  0.00     0.275 C 
ENDROOT
BRANCH   1   2
ATOM      2  O   UNL A   1      31.784  30.490  25.399  1.00  0.00    -0.458 OA
BRANCH   2   3
ATOM      3  C   UNL A   1      32.001  29.249  25.884  1.00  0.00     0.342 C 
ATOM      4  O   UNL A   1      32.660  28.984  26.880  1.00  0.00    -0.246 OA
BRANCH   3   5
ATOM      5  C   UNL A   1      31.388  28.151  25.111  1.00  0.00     0.103 A 
ATOM      6  C   UNL A   1      31.130  26.902  23.075  1.00  0.00     0.042 A 
ATOM      7  C   UNL A   1      30.334  25.952  23.721  1.00  0.00     0.030 A 
ATOM      8  C   UNL A   1      31.537  28.069  23.730  1.00  0.00     0.045 A 
ATOM      9  C   UNL A   1      30.181  26.033  25.100  1.00  0.00     0.049 A 
ATOM     10  C   UNL A   1      30.779  27.080  25.791  1.00  0.00     0.130 A 
BRANCH   6  11
ATOM     11  N   UNL A   1      31.672  26.534  21.840  1.00  0.00    -0.322 N 
ATOM     12  C   UNL A   1      32.743  25.692  21.590  1.00  0.00     0.255 C 
ATOM     13  O   UNL A   1      33.157  25.596  20.432  1.00  0.00    -0.269 OA
ATOM     14  H   UNL A   1      31.237  26.924  21.047  1.00  0.00     0.170 HD
BRANCH  12  15
ATOM     15  C   UNL A   1      33.381  24.838  22.652  1.00  0.00     0.042 A 
ATOM     16  C   UNL A   1      33.793  22.707  23.789  1.00  0.00     0.061 A 
ATOM     17  C   UNL A   1      34.524  23.384  24.766  1.00  0.00     0.027 A 
ATOM     18  C   UNL A   1      33.307  23.434  22.692  1.00  0.00     0.041 A 
ATOM     19  C   UNL A   1      34.712  24.767  24.678  1.00  0.00     0.003 A 
ATOM     20  C   UNL A   1      34.124  25.493  23.640  1.00  0.00     0.014 A 
BRANCH  16  21
ATOM     21  N   UNL A   1      33.503  21.312  23.918  1.00  0.00    -0.207 N 
ATOM     22  C   UNL A   1      32.379  18.308  22.327  1.00  0.00     0.019 C 
ATOM     23  C   UNL A   1      32.347  19.205  23.559  1.00  0.00     0.094 C 
ATOM     24  C   UNL A   1      33.473  18.847  24.533  1.00  0.00     0.173 C 
ATOM     25  C   UNL A   1      32.459  20.687  23.205  1.00  0.00     0.244 C 
ATOM     26  S   UNL A   1      34.213  20.364  25.098  1.00  0.00     0.242 S 
ATOM     27  O   UNL A   1      31.706  21.258  22.427  1.00  0.00    -0.273 OA
ATOM     28  O   UNL A   1      33.631  20.725  26.375  1.00  0.00    -0.206 OA
ATOM     29  O   UNL A   1      35.638  20.314  24.888  1.00  0.00    -0.206 OA
ENDBRANCH  16  21
ENDBRANCH  12  15
ENDBRANCH   6  11
BRANCH  10  30
ATOM     30  O   UNL A   1      30.782  26.946  27.154  1.00  0.00    -0.507 OA
ATOM     31  H   UNL A   1      31.426  27.393  27.667  1.00  0.00     0.293 HD
ENDBRANCH  10  30
ENDBRANCH   3   5
ENDBRANCH   2   3
ENDBRANCH   1   2
BRANCH   1  32
ATOM     32  C   UNL A   1      31.762  32.692  26.562  1.00  0.00     0.275 C 
BRANCH  32  33
ATOM     33  O   UNL A   1      32.613  32.640  27.727  1.00  0.00    -0.458 OA
BRANCH  33  34
ATOM     34  C   UNL A   1      33.634  33.534  27.744  1.00  0.00     0.338 C 
ATOM     35  O   UNL A   1      33.538  34.743  27.617  1.00  0.00    -0.246 OA
BRANCH  34  36
ATOM     36  C   UNL A   1      34.880  32.874  28.191  1.00  0.00     0.060 A 
ATOM     37  C   UNL A   1      34.764  31.543  28.598  1.00  0.00     0.016 A 
ATOM     38  C   UNL A   1      36.121  33.508  28.257  1.00  0.00     0.016 A 
ATOM     39  C   UNL A   1      35.880  30.805  28.981  1.00  0.00     0.010 A 
ATOM     40  C   UNL A   1      37.236  32.790  28.727  1.00  0.00     0.010 A 
ATOM     41  C   UNL A   1      37.122  31.432  29.083  1.00  0.00    -0.014 A 
BRANCH  41  42
ATOM     42  C   UNL A   1      38.208  30.715  29.795  1.00  0.00     0.031 A 
ATOM     43  C   UNL A   1      38.441  31.057  31.241  1.00  0.00     0.074 A 
ATOM     44  C   UNL A   1      38.924  29.733  29.217  1.00  0.00     0.049 A 
ATOM     45  N   UNL A   1      39.360  30.620  32.061  1.00  0.00    -0.248 NA
ATOM     46  C   UNL A   1      37.499  32.015  31.843  1.00  0.00     0.031 C 
ATOM     47  C   UNL A   1      38.733  29.230  27.859  1.00  0.00     0.029 A 
ATOM     48  N   UNL A   1      39.974  28.993  29.706  1.00  0.00    -0.354 N 
ATOM     49  C   UNL A   1      39.132  31.280  33.262  1.00  0.00     0.074 A 
ATOM     50  C   UNL A   1      37.981  32.134  33.069  1.00  0.00     0.031 C 
ATOM     51  C   UNL A   1      39.664  28.290  27.608  1.00  0.00     0.029 A 
ATOM     52  C   UNL A   1      40.540  28.156  28.773  1.00  0.00     0.049 A 
ATOM     53  H   UNL A   1      40.291  29.055  30.636  1.00  0.00     0.167 HD
ATOM     54  C   UNL A   1      39.821  31.188  34.424  1.00  0.00     0.034 A 
ATOM     55  C   UNL A   1      41.660  27.405  28.839  1.00  0.00     0.034 A 
ATOM     56  C   UNL A   1      40.963  30.339  34.619  1.00  0.00     0.049 A 
ATOM     57  C   UNL A   1      42.465  27.387  30.117  1.00  0.00     0.074 A 
ATOM     58  C   UNL A   1      41.728  30.180  35.760  1.00  0.00     0.029 A 
ATOM     59  N   UNL A   1      41.515  29.521  33.647  1.00  0.00    -0.354 N 
ATOM     60  N   UNL A   1      42.216  27.978  31.261  1.00  0.00    -0.248 NA
ATOM     61  C   UNL A   1      43.696  26.580  30.120  1.00  0.00     0.031 C 
ATOM     62  C   UNL A   1      42.771  29.297  35.464  1.00  0.00     0.029 A 
ATOM     63  C   UNL A   1      42.624  28.866  34.156  1.00  0.00     0.049 A 
ATOM     64  H   UNL A   1      41.171  29.420  32.731  1.00  0.00     0.167 HD
ATOM     65  C   UNL A   1      43.232  27.583  32.128  1.00  0.00     0.074 A 
ATOM     66  C   UNL A   1      44.093  26.689  31.381  1.00  0.00     0.031 C 
ATOM     67  C   UNL A   1      43.442  27.936  33.420  1.00  0.00     0.034 A 
BRANCH  54  68
ATOM     68  C   UNL A   1      39.373  32.062  35.563  1.00  0.00     0.023 A 
ATOM     69  C   UNL A   1      38.498  31.556  36.544  1.00  0.00     0.012 A 
ATOM     70  C   UNL A   1      39.845  33.384  35.669  1.00  0.00     0.148 A 
ATOM     71  C   UNL A   1      38.070  32.366  37.595  1.00  0.00     0.002 A 
ATOM     72  C   UNL A   1      39.455  34.169  36.745  1.00  0.00     0.091 A 
ATOM     73  F   UNL A   1      40.655  33.853  34.708  1.00  0.00    -0.205 F 
ATOM     74  C   UNL A   1      38.556  33.668  37.701  1.00  0.00     0.022 A 
BRANCH  72  75
ATOM     75  S   UNL A   1      40.088  35.827  37.012  1.00  0.00     0.127 S 
ATOM     76  O   UNL A   1      39.394  36.214  38.240  1.00  0.00    -0.237 OA
ATOM     77  O   UNL A   1      41.521  35.585  37.172  1.00  0.00    -0.237 OA
ATOM     78  O   UNL A   1      39.727  36.593  35.827  1.00  0.00    -0.744 OA
ENDBRANCH  72  75
ENDBRANCH  54  68
BRANCH  55  79
ATOM     79  C   UNL A   1      42.116  26.617  27.654  1.00  0.00     0.023 A 
ATOM     80  C   UNL A   1      42.817  27.256  26.612  1.00  0.00     0.012 A 
ATOM     81  C   UNL A   1      41.829  25.243  27.543  1.00  0.00     0.148 A 
ATOM     82  C   UNL A   1      43.189  26.549  25.467  1.00  0.00     0.002 A 
ATOM     83  C   UNL A   1      42.255  24.531  26.428  1.00  0.00     0.091 A 
ATOM     84  F   UNL A   1      41.140  24.656  28.532  1.00  0.00    -0.205 F 
ATOM     85  C   UNL A   1      42.916  25.186  25.378  1.00  0.00     0.022 A 
BRANCH  83  86
ATOM     86  S   UNL A   1      42.057  22.752  26.283  1.00  0.00     0.127 S 
ATOM     87  O   UNL A   1      42.669  22.279  27.523  1.00  0.00    -0.237 OA
ATOM     88  O   UNL A   1      40.601  22.619  26.223  1.00  0.00    -0.237 OA
ATOM     89  O   UNL A   1      42.746  22.375  25.057  1.00  0.00    -0.744 OA
ENDBRANCH  83  86
ENDBRANCH  55  79
BRANCH  67  90
ATOM     90  C   UNL A   1      44.611  27.319  34.146  1.00  0.00     0.023 A 
ATOM     91  C   UNL A   1      45.877  27.938  34.110  1.00  0.00     0.012 A 
ATOM     92  C   UNL A   1      44.429  26.167  34.939  1.00  0.00     0.148 A 
ATOM     93  C   UNL A   1      46.949  27.401  34.823  1.00  0.00     0.002 A 
ATOM     94  C   UNL A   1      45.487  25.670  35.689  1.00  0.00     0.091 A 
ATOM     95  F   UNL A   1      43.222  25.585  34.950  1.00  0.00    -0.205 F 
ATOM     96  C   UNL A   1      46.751  26.277  35.622  1.00  0.00     0.022 A 
BRANCH  94  97
ATOM     97  S   UNL A   1      45.301  24.290  36.825  1.00  0.00     0.127 S 
ATOM     98  O   UNL A   1      44.890  23.215  35.923  1.00  0.00    -0.237 OA
ATOM     99  O   UNL A   1      46.654  24.148  37.364  1.00  0.00    -0.237 OA
ATOM    100  O   UNL A   1      44.300  24.701  37.799  1.00  0.00    -0.744 OA
ENDBRANCH  94  97
ENDBRANCH  67  90
ENDBRANCH  41  42
ENDBRANCH  34  36
ENDBRANCH  33  34
ENDBRANCH  32  33
ENDBRANCH   1  32
TORSDOF 18
ENDMDL
MODEL 3
REMARK VINA RESULT:     -12.8      4.624     10.395
REMARK SMILES C[C@H]1CS(=O)(=O)N(c2cccc(C(=O)Nc3ccc(O)c(C(=O)OCCOC(=O)c4ccc(-c5c6nc(c(-c7cccc(S(=O)(=O)[O-])c7F)c7ccc([nH]7)c(-c7cccc(S(=O)(=O)[O-])c7F)c7nc(c(-c8cccc(S(=O)(=O)[O-])c8F)c8ccc5[nH]8)C=C7)C=C6)cc4)c3)c2)C1=O
REMARK SMILES IDX 25 1 24 2 22 3 23 4 21 5 16 6 17 7 93 8 18 9 19 10 15 11
REMARK SMILES IDX 13 12 14 13 12 15 8 16 9 17 94 18 10 19 11 20 7 21 1 22 2 23
REMARK SMILES IDX 3 24 95 25 4 26 96 27 5 28 6 29 20 30 26 32 27 33 28 34
REMARK SMILES IDX 29 35 30 36 31 37 92 38 32 39 91 40 33 41 34 42 35 43 85 44
REMARK SMILES IDX 36 45 90 46 84 47 86 48 37 49 89 50 83 51 82 52 38 54 70 55
REMARK SMILES IDX 50 56 69 57 51 58 54 59 68 60 87 61 52 62 53 63 67 65 88 66
REMARK SMILES IDX 55 67 39 68 40 69 48 70 41 71 43 72 49 73 42 74 44 75 45 76
REMARK SMILES IDX 46 77 47 78 71 79 72 80 80 81 73 82 75 83 81 84 74 85 76 86
REMARK SMILES IDX 77 87 78 88 79 89 56 90 57 91 65 92 58 93 60 94 66 95 59 96
REMARK SMILES IDX 61 97 62 98 63 99 64 100
REMARK H PARENT 15 14 20 31 86 53 54 64
REMARK Flexibility Score: inf
ROOT
ATOM      1  C   UNL A   1      36.361  20.156  24.958  1.00  0.00     0.275 C 
ENDROOT
BRANCH   1   2
ATOM      2  O   UNL A   1      35.907  21.216  25.830  1.00  0.00    -0.458 OA
BRANCH   2   3
ATOM      3  C   UNL A   1      34.578  21.204  26.072  1.00  0.00     0.342 C 
ATOM      4  O   UNL A   1      34.061  21.044  27.169  1.00  0.00    -0.246 OA
BRANCH   3   5
ATOM      5  C   UNL A   1      33.717  21.389  24.888  1.00  0.00     0.103 A 
ATOM      6  C   UNL A   1      33.037  22.650  22.959  1.00  0.00     0.042 A 
ATOM      7  C   UNL A   1      32.182  21.624  22.550  1.00  0.00     0.030 A 
ATOM      8  C   UNL A   1      33.694  22.596  24.194  1.00  0.00     0.045 A 
ATOM      9  C   UNL A   1      32.201  20.420  23.243  1.00  0.00     0.049 A 
ATOM     10  C   UNL A   1      33.030  20.285  24.350  1.00  0.00     0.130 A 
BRANCH   6  11
ATOM     11  N   UNL A   1      33.372  23.611  22.000  1.00  0.00    -0.322 N 
ATOM     12  C   UNL A   1      32.815  24.865  21.812  1.00  0.00     0.255 C 
ATOM     13  O   UNL A   1      33.157  25.517  20.822  1.00  0.00    -0.269 OA
ATOM     14  H   UNL A   1      34.095  23.364  21.379  1.00  0.00     0.170 HD
BRANCH  12  15
ATOM     15  C   UNL A   1      31.866  25.497  22.793  1.00  0.00     0.042 A 
ATOM     16  C   UNL A   1      31.263  27.152  24.497  1.00  0.00     0.061 A 
ATOM     17  C   UNL A   1      30.047  26.495  24.687  1.00  0.00     0.027 A 
ATOM     18  C   UNL A   1      32.121  26.696  23.485  1.00  0.00     0.041 A 
ATOM     19  C   UNL A   1      29.723  25.372  23.922  1.00  0.00     0.003 A 
ATOM     20  C   UNL A   1      30.637  24.861  22.997  1.00  0.00     0.014 A 
BRANCH  16  21
ATOM     21  N   UNL A   1      31.656  28.239  25.342  1.00  0.00    -0.207 N 
ATOM     22  C   UNL A   1      31.087  31.627  26.353  1.00  0.00     0.019 C 
ATOM     23  C   UNL A   1      32.094  30.535  26.007  1.00  0.00     0.094 C 
ATOM     24  C   UNL A   1      32.465  29.714  27.246  1.00  0.00     0.173 C 
ATOM     25  C   UNL A   1      31.578  29.585  24.928  1.00  0.00     0.244 C 
ATOM     26  S   UNL A   1      32.461  27.995  26.785  1.00  0.00     0.242 S 
ATOM     27  O   UNL A   1      31.184  29.956  23.829  1.00  0.00    -0.273 OA
ATOM     28  O   UNL A   1      33.818  27.586  26.478  1.00  0.00    -0.206 OA
ATOM     29  O   UNL A   1      31.621  27.253  27.690  1.00  0.00    -0.206 OA
ENDBRANCH  16  21
ENDBRANCH  12  15
ENDBRANCH   6  11
BRANCH  10  30
ATOM     30  O   UNL A   1      33.168  19.005  24.818  1.00  0.00    -0.507 OA
ATOM     31  H   UNL A   1      34.003  18.580  24.782  1.00  0.00     0.293 HD
ENDBRANCH  10  30
ENDBRANCH   3   5
ENDBRANCH   2   3
ENDBRANCH   1   2
BRANCH   1  32
ATOM     32  C   UNL A   1      37.878  19.934  25.012  1.00  0.00     0.275 C 
BRANCH  32  33
ATOM     33  O   UNL A   1      38.597  21.124  25.403  1.00  0.00    -0.458 OA
BRANCH  33  34
ATOM     34  C   UNL A   1      39.629  20.926  26.261  1.00  0.00     0.338 C 
ATOM     35  O   UNL A   1      40.249  19.888  26.420  1.00  0.00    -0.246 OA
BRANCH  34  36
ATOM     36  C   UNL A   1      40.083  22.220  26.817  1.00  0.00     0.060 A 
ATOM     37  C   UNL A   1      39.446  23.361  26.327  1.00  0.00     0.016 A 
ATOM     38  C   UNL A   1      41.109  22.353  27.752  1.00  0.00     0.016 A 
ATOM     39  C   UNL A   1      39.749  24.626  26.821  1.00  0.00     0.010 A 
ATOM     40  C   UNL A   1      41.478  23.638  28.190  1.00  0.00     0.010 A 
ATOM     41  C   UNL A   1      40.794  24.781  27.733  1.00  0.00    -0.014 A 
BRANCH  41  42
ATOM     42  C   UNL A   1      41.300  26.152  27.988  1.00  0.00     0.031 A 
ATOM     43  C   UNL A   1      42.685  26.486  27.509  1.00  0.00     0.074 A 
ATOM     44  C   UNL A   1      40.540  27.107  28.554  1.00  0.00     0.049 A 
ATOM     45  N   UNL A   1      43.375  27.585  27.662  1.00  0.00    -0.248 NA
ATOM     46  C   UNL A   1      43.380  25.437  26.744  1.00  0.00     0.031 C 
ATOM     47  C   UNL A   1      39.147  26.950  28.969  1.00  0.00     0.029 A 
ATOM     48  N   UNL A   1      40.847  28.403  28.893  1.00  0.00    -0.354 N 
ATOM     49  C   UNL A   1      44.599  27.347  27.049  1.00  0.00     0.074 A 
ATOM     50  C   UNL A   1      44.552  26.005  26.510  1.00  0.00     0.031 C 
ATOM     51  C   UNL A   1      38.733  28.094  29.545  1.00  0.00     0.029 A 
ATOM     52  C   UNL A   1      39.842  29.048  29.575  1.00  0.00     0.049 A 
ATOM     53  H   UNL A   1      41.706  28.830  28.667  1.00  0.00     0.167 HD
ATOM     54  C   UNL A   1      45.670  28.167  26.947  1.00  0.00     0.034 A 
ATOM     55  C   UNL A   1      39.836  30.250  30.189  1.00  0.00     0.034 A 
ATOM     56  C   UNL A   1      45.718  29.500  27.479  1.00  0.00     0.049 A 
ATOM     57  C   UNL A   1      41.075  31.113  30.138  1.00  0.00     0.074 A 
ATOM     58  C   UNL A   1      46.761  30.407  27.426  1.00  0.00     0.029 A 
ATOM     59  N   UNL A   1      44.689  30.111  28.177  1.00  0.00    -0.354 N 
ATOM     60  N   UNL A   1      42.210  30.898  29.518  1.00  0.00    -0.248 NA
ATOM     61  C   UNL A   1      41.025  32.397  30.857  1.00  0.00     0.031 C 
ATOM     62  C   UNL A   1      46.377  31.552  28.132  1.00  0.00     0.029 A 
ATOM     63  C   UNL A   1      45.078  31.377  28.577  1.00  0.00     0.049 A 
ATOM     64  H   UNL A   1      43.812  29.704  28.362  1.00  0.00     0.167 HD
ATOM     65  C   UNL A   1      42.990  32.032  29.736  1.00  0.00     0.074 A 
ATOM     66  C   UNL A   1      42.191  32.939  30.534  1.00  0.00     0.031 C 
ATOM     67  C   UNL A   1      44.255  32.294  29.325  1.00  0.00     0.034 A 
BRANCH  54  68
ATOM     68  C   UNL A   1      46.892  27.623  26.259  1.00  0.00     0.023 A 
ATOM     69  C   UNL A   1      47.112  27.881  24.892  1.00  0.00     0.012 A 
ATOM     70  C   UNL A   1      47.839  26.874  26.985  1.00  0.00     0.148 A 
ATOM     71  C   UNL A   1      48.237  27.369  24.247  1.00  0.00     0.002 A 
ATOM     72  C   UNL A   1      48.982  26.411  26.350  1.00  0.00     0.091 A 
ATOM     73  F   UNL A   1      47.595  26.619  28.279  1.00  0.00    -0.205 F 
ATOM     74  C   UNL A   1      49.176  26.643  24.978  1.00  0.00     0.022 A 
BRANCH  72  75
ATOM     75  S   UNL A   1      50.285  25.537  27.221  1.00  0.00     0.127 S 
ATOM     76  O   UNL A   1      50.553  26.442  28.337  1.00  0.00    -0.237 OA
ATOM     77  O   UNL A   1      49.619  24.289  27.594  1.00  0.00    -0.237 OA
ATOM     78  O   UNL A   1      51.376  25.385  26.269  1.00  0.00    -0.744 OA
ENDBRANCH  72  75
ENDBRANCH  54  68
BRANCH  55  79
ATOM     79  C   UNL A   1      38.628  30.715  30.933  1.00  0.00     0.023 A 
ATOM     80  C   UNL A   1      38.512  30.464  32.314  1.00  0.00     0.012 A 
ATOM     81  C   UNL A   1      37.578  31.380  30.269  1.00  0.00     0.148 A 
ATOM     82  C   UNL A   1      37.358  30.830  33.011  1.00  0.00     0.002 A 
ATOM     83  C   UNL A   1      36.458  31.796  30.980  1.00  0.00     0.091 A 
ATOM     84  F   UNL A   1      37.694  31.591  28.950  1.00  0.00    -0.205 F 
ATOM     85  C   UNL A   1      36.336  31.503  32.346  1.00  0.00     0.022 A 
BRANCH  83  86
ATOM     86  S   UNL A   1      35.150  32.777  30.234  1.00  0.00     0.127 S 
ATOM     87  O   UNL A   1      34.673  31.887  29.178  1.00  0.00    -0.237 OA
ATOM     88  O   UNL A   1      34.231  32.949  31.359  1.00  0.00    -0.237 OA
ATOM     89  O   UNL A   1      35.785  34.007  29.783  1.00  0.00    -0.744 OA
ENDBRANCH  83  86
ENDBRANCH  55  79
BRANCH  67  90
ATOM     90  C   UNL A   1      44.851  33.636  29.669  1.00  0.00     0.023 A 
ATOM     91  C   UNL A   1      45.561  33.810  30.874  1.00  0.00     0.012 A 
ATOM     92  C   UNL A   1      44.781  34.704  28.750  1.00  0.00     0.148 A 
ATOM     93  C   UNL A   1      46.161  35.034  31.173  1.00  0.00     0.002 A 
ATOM     94  C   UNL A   1      45.427  35.901  29.030  1.00  0.00     0.091 A 
ATOM     95  F   UNL A   1      44.090  34.524  27.615  1.00  0.00    -0.205 F 
ATOM     96  C   UNL A   1      46.105  36.073  30.247  1.00  0.00     0.022 A 
BRANCH  94  97
ATOM     97  S   UNL A   1      45.498  37.258  27.855  1.00  0.00     0.127 S 
ATOM     98  O   UNL A   1      46.408  38.186  28.526  1.00  0.00    -0.237 OA
ATOM     99  O   UNL A   1      46.055  36.611  26.667  1.00  0.00    -0.237 OA
ATOM    100  O   UNL A   1      44.129  37.732  27.702  1.00  0.00    -0.744 OA
ENDBRANCH  94  97
ENDBRANCH  67  90
ENDBRANCH  41  42
ENDBRANCH  34  36
ENDBRANCH  33  34
ENDBRANCH  32  33
ENDBRANCH   1  32
TORSDOF 18
ENDMDL
