MODEL 1
REMARK VINA RESULT:     -10.3      0.000      0.000
REMARK SMILES COC[C@@H](C)CC(=O)N1[C@@H](C2CC2)SC[C@H]1C(=O)OCCOC(=O)c1ccc(-c2c3nc(c(-c4cccc(S(=O)(=O)[O-])c4F)c4ccc([nH]4)c(-c4cccc(S(=O)(=O)[O-])c4F)c4nc(c(-c5cccc(S(=O)(=O)[O-])c5F)c5ccc2[nH]5)C=C4)C=C3)cc1
REMARK SMILES IDX 20 1 19 2 17 3 18 4 16 5 9 6 10 7 14 8 15 9 7 10 8 11 6 12
REMARK SMILES IDX 4 13 5 14 3 15 2 16 1 17 11 18 12 19 13 20 21 21 22 22 23 23
REMARK SMILES IDX 24 24 25 25 26 26 87 27 27 28 86 29 28 30 29 31 30 32 80 33
REMARK SMILES IDX 31 34 85 35 79 36 81 37 32 38 84 39 78 40 77 41 33 43 65 44
REMARK SMILES IDX 45 45 64 46 46 47 49 48 63 49 82 50 47 51 48 52 62 54 83 55
REMARK SMILES IDX 50 56 34 57 35 58 43 59 36 60 38 61 44 62 37 63 39 64 40 65
REMARK SMILES IDX 41 66 42 67 66 68 67 69 75 70 68 71 70 72 76 73 69 74 71 75
REMARK SMILES IDX 72 76 73 77 74 78 51 79 52 80 60 81 53 82 55 83 61 84 54 85
REMARK SMILES IDX 56 86 57 87 58 88 59 89
REMARK H PARENT 81 42 49 53
REMARK Flexibility Score: inf
ROOT
ATOM      1  C   UNL A   1      32.731  29.441  24.808  1.00  0.00     0.274 C 
ENDROOT
BRANCH   1   2
ATOM      2  O   UNL A   1      32.337  28.056  24.713  1.00  0.00    -0.461 OA
BRANCH   2   3
ATOM      3  C   UNL A   1      33.330  27.152  24.915  1.00  0.00     0.329 C 
ATOM      4  O   UNL A   1      34.153  27.220  25.825  1.00  0.00    -0.250 OA
BRANCH   3   5
ATOM      5  C   UNL A   1      33.370  26.018  23.884  1.00  0.00     0.206 C 
ATOM      6  N   UNL A   1      33.368  24.617  24.318  1.00  0.00    -0.316 N 
ATOM      7  C   UNL A   1      32.048  24.047  24.429  1.00  0.00     0.147 C 
ATOM      8  S   UNL A   1      31.021  24.892  23.215  1.00  0.00    -0.134 SA
ATOM      9  C   UNL A   1      32.222  26.210  22.894  1.00  0.00     0.109 C 
BRANCH   6  10
ATOM     10  C   UNL A   1      34.564  23.991  24.596  1.00  0.00     0.224 C 
ATOM     11  O   UNL A   1      35.392  24.530  25.332  1.00  0.00    -0.275 OA
BRANCH  10  12
ATOM     12  C   UNL A   1      34.966  22.750  23.799  1.00  0.00     0.106 C 
BRANCH  12  13
ATOM     13  C   UNL A   1      34.909  21.352  24.449  1.00  0.00     0.021 C 
ATOM     14  C   UNL A   1      33.443  20.875  24.485  1.00  0.00     0.010 C 
BRANCH  13  15
ATOM     15  C   UNL A   1      35.491  21.370  25.876  1.00  0.00     0.163 C 
BRANCH  15  16
ATOM     16  O   UNL A   1      36.883  21.679  25.884  1.00  0.00    -0.384 OA
ATOM     17  C   UNL A   1      37.617  20.857  24.984  1.00  0.00     0.194 C 
ENDBRANCH  15  16
ENDBRANCH  13  15
ENDBRANCH  12  13
ENDBRANCH  10  12
ENDBRANCH   6  10
BRANCH   7  18
ATOM     18  C   UNL A   1      31.577  24.165  25.858  1.00  0.00     0.022 C 
ATOM     19  C   UNL A   1      30.810  23.104  26.623  1.00  0.00     0.007 C 
ATOM     20  C   UNL A   1      32.239  23.400  26.982  1.00  0.00     0.007 C 
ENDBRANCH   7  18
ENDBRANCH   3   5
ENDBRANCH   2   3
ENDBRANCH   1   2
BRANCH   1  21
ATOM     21  C   UNL A   1      31.741  30.232  25.653  1.00  0.00     0.275 C 
BRANCH  21  22
ATOM     22  O   UNL A   1      32.277  30.400  26.971  1.00  0.00    -0.458 OA
BRANCH  22  23
ATOM     23  C   UNL A   1      32.906  31.577  27.193  1.00  0.00     0.338 C 
ATOM     24  O   UNL A   1      32.487  32.699  26.974  1.00  0.00    -0.246 OA
BRANCH  23  25
ATOM     25  C   UNL A   1      34.246  31.286  27.720  1.00  0.00     0.060 A 
ATOM     26  C   UNL A   1      34.603  29.970  28.014  1.00  0.00     0.016 A 
ATOM     27  C   UNL A   1      35.121  32.334  27.990  1.00  0.00     0.016 A 
ATOM     28  C   UNL A   1      35.815  29.693  28.640  1.00  0.00     0.010 A 
ATOM     29  C   UNL A   1      36.361  32.053  28.563  1.00  0.00     0.010 A 
ATOM     30  C   UNL A   1      36.703  30.735  28.924  1.00  0.00    -0.014 A 
BRANCH  30  31
ATOM     31  C   UNL A   1      37.960  30.474  29.664  1.00  0.00     0.031 A 
ATOM     32  C   UNL A   1      38.987  29.556  29.062  1.00  0.00     0.074 A 
ATOM     33  C   UNL A   1      38.162  31.024  30.875  1.00  0.00     0.049 A 
ATOM     34  N   UNL A   1      40.059  29.045  29.607  1.00  0.00    -0.248 NA
ATOM     35  C   UNL A   1      38.770  29.149  27.663  1.00  0.00     0.031 C 
ATOM     36  C   UNL A   1      37.250  31.950  31.547  1.00  0.00     0.029 A 
ATOM     37  N   UNL A   1      39.190  30.860  31.769  1.00  0.00    -0.354 N 
ATOM     38  C   UNL A   1      40.605  28.203  28.646  1.00  0.00     0.074 A 
ATOM     39  C   UNL A   1      39.754  28.280  27.479  1.00  0.00     0.031 C 
ATOM     40  C   UNL A   1      37.750  32.258  32.755  1.00  0.00     0.029 A 
ATOM     41  C   UNL A   1      38.985  31.510  32.963  1.00  0.00     0.049 A 
ATOM     42  H   UNL A   1      39.996  30.328  31.574  1.00  0.00     0.167 HD
ATOM     43  C   UNL A   1      41.723  27.442  28.728  1.00  0.00     0.034 A 
ATOM     44  C   UNL A   1      39.692  31.472  34.110  1.00  0.00     0.034 A 
ATOM     45  C   UNL A   1      42.595  27.421  29.871  1.00  0.00     0.049 A 
ATOM     46  C   UNL A   1      40.933  30.625  34.172  1.00  0.00     0.074 A 
ATOM     47  C   UNL A   1      43.772  26.715  30.043  1.00  0.00     0.029 A 
ATOM     48  N   UNL A   1      42.390  28.146  31.035  1.00  0.00    -0.354 N 
ATOM     49  N   UNL A   1      41.473  29.881  33.236  1.00  0.00    -0.248 NA
ATOM     50  C   UNL A   1      41.676  30.625  35.440  1.00  0.00     0.031 C 
ATOM     51  C   UNL A   1      44.275  27.008  31.314  1.00  0.00     0.029 A 
ATOM     52  C   UNL A   1      43.418  27.909  31.929  1.00  0.00     0.049 A 
ATOM     53  H   UNL A   1      41.623  28.742  31.201  1.00  0.00     0.167 HD
ATOM     54  C   UNL A   1      42.632  29.351  33.788  1.00  0.00     0.074 A 
ATOM     55  C   UNL A   1      42.727  29.876  35.136  1.00  0.00     0.031 C 
ATOM     56  C   UNL A   1      43.527  28.493  33.241  1.00  0.00     0.034 A 
BRANCH  43  57
ATOM     57  C   UNL A   1      42.075  26.588  27.540  1.00  0.00     0.023 A 
ATOM     58  C   UNL A   1      42.764  27.155  26.450  1.00  0.00     0.012 A 
ATOM     59  C   UNL A   1      41.766  25.213  27.523  1.00  0.00     0.148 A 
ATOM     60  C   UNL A   1      43.113  26.376  25.347  1.00  0.00     0.002 A 
ATOM     61  C   UNL A   1      42.153  24.434  26.438  1.00  0.00     0.091 A 
ATOM     62  F   UNL A   1      41.088  24.695  28.558  1.00  0.00    -0.205 F 
ATOM     63  C   UNL A   1      42.817  25.015  25.345  1.00  0.00     0.022 A 
BRANCH  61  64
ATOM     64  S   UNL A   1      41.882  22.659  26.380  1.00  0.00     0.127 S 
ATOM     65  O   UNL A   1      42.520  22.221  27.621  1.00  0.00    -0.237 OA
ATOM     66  O   UNL A   1      40.422  22.566  26.382  1.00  0.00    -0.237 OA
ATOM     67  O   UNL A   1      42.515  22.198  25.151  1.00  0.00    -0.744 OA
ENDBRANCH  61  64
ENDBRANCH  43  57
BRANCH  44  68
ATOM     68  C   UNL A   1      39.254  32.287  35.279  1.00  0.00     0.023 A 
ATOM     69  C   UNL A   1      38.372  31.723  36.220  1.00  0.00     0.012 A 
ATOM     70  C   UNL A   1      39.732  33.596  35.485  1.00  0.00     0.148 A 
ATOM     71  C   UNL A   1      37.956  32.455  37.333  1.00  0.00     0.002 A 
ATOM     72  C   UNL A   1      39.359  34.299  36.626  1.00  0.00     0.091 A 
ATOM     73  F   UNL A   1      40.555  34.125  34.568  1.00  0.00    -0.205 F 
ATOM     74  C   UNL A   1      38.459  33.736  37.543  1.00  0.00     0.022 A 
BRANCH  72  75
ATOM     75  S   UNL A   1      40.065  35.897  37.041  1.00  0.00     0.127 S 
ATOM     76  O   UNL A   1      41.482  35.571  37.183  1.00  0.00    -0.237 OA
ATOM     77  O   UNL A   1      39.733  36.694  35.859  1.00  0.00    -0.237 OA
ATOM     78  O   UNL A   1      39.384  36.320  38.257  1.00  0.00    -0.744 OA
ENDBRANCH  72  75
ENDBRANCH  44  68
BRANCH  56  79
ATOM     79  C   UNL A   1      44.713  28.096  34.079  1.00  0.00     0.023 A 
ATOM     80  C   UNL A   1      45.876  28.890  34.061  1.00  0.00     0.012 A 
ATOM     81  C   UNL A   1      44.643  26.985  34.941  1.00  0.00     0.148 A 
ATOM     82  C   UNL A   1      46.965  28.565  34.869  1.00  0.00     0.002 A 
ATOM     83  C   UNL A   1      45.715  26.694  35.775  1.00  0.00     0.091 A 
ATOM     84  F   UNL A   1      43.535  26.230  34.925  1.00  0.00    -0.205 F 
ATOM     85  C   UNL A   1      46.880  27.477  35.735  1.00  0.00     0.022 A 
BRANCH  83  86
ATOM     86  S   UNL A   1      45.652  25.367  36.985  1.00  0.00     0.127 S 
ATOM     87  O   UNL A   1      45.657  24.182  36.129  1.00  0.00    -0.237 OA
ATOM     88  O   UNL A   1      46.885  25.575  37.745  1.00  0.00    -0.237 OA
ATOM     89  O   UNL A   1      44.432  25.584  37.750  1.00  0.00    -0.744 OA
ENDBRANCH  83  86
ENDBRANCH  56  79
ENDBRANCH  30  31
ENDBRANCH  23  25
ENDBRANCH  22  23
ENDBRANCH  21  22
ENDBRANCH   1  21
TORSDOF 20
ENDMDL
MODEL 2
REMARK VINA RESULT:     -10.0      5.126      9.856
REMARK SMILES COC[C@@H](C)CC(=O)N1[C@@H](C2CC2)SC[C@H]1C(=O)OCCOC(=O)c1ccc(-c2c3nc(c(-c4cccc(S(=O)(=O)[O-])c4F)c4ccc([nH]4)c(-c4cccc(S(=O)(=O)[O-])c4F)c4nc(c(-c5cccc(S(=O)(=O)[O-])c5F)c5ccc2[nH]5)C=C4)C=C3)cc1
REMARK SMILES IDX 20 1 19 2 17 3 18 4 16 5 9 6 10 7 14 8 15 9 7 10 8 11 6 12
REMARK SMILES IDX 4 13 5 14 3 15 2 16 1 17 11 18 12 19 13 20 21 21 22 22 23 23
REMARK SMILES IDX 24 24 25 25 26 26 87 27 27 28 86 29 28 30 29 31 30 32 80 33
REMARK SMILES IDX 31 34 85 35 79 36 81 37 32 38 84 39 78 40 77 41 33 43 65 44
REMARK SMILES IDX 45 45 64 46 46 47 49 48 63 49 82 50 47 51 48 52 62 54 83 55
REMARK SMILES IDX 50 56 34 57 35 58 43 59 36 60 38 61 44 62 37 63 39 64 40 65
REMARK SMILES IDX 41 66 42 67 66 68 67 69 75 70 68 71 70 72 76 73 69 74 71 75
REMARK SMILES IDX 72 76 73 77 74 78 51 79 52 80 60 81 53 82 55 83 61 84 54 85
REMARK SMILES IDX 56 86 57 87 58 88 59 89
REMARK H PARENT 81 42 49 53
REMARK Flexibility Score: inf
ROOT
ATOM      1  C   UNL A   1      36.393  20.752  24.979  1.00  0.00     0.274 C 
ENDROOT
BRANCH   1   2
ATOM      2  O   UNL A   1      35.836  21.804  25.794  1.00  0.00    -0.461 OA
BRANCH   2   3
ATOM      3  C   UNL A   1      35.193  22.789  25.116  1.00  0.00     0.329 C 
ATOM      4  O   UNL A   1      35.329  23.988  25.344  1.00  0.00    -0.250 OA
BRANCH   3   5
ATOM      5  C   UNL A   1      34.238  22.286  24.028  1.00  0.00     0.206 C 
ATOM      6  N   UNL A   1      32.846  21.955  24.353  1.00  0.00    -0.316 N 
ATOM      7  C   UNL A   1      31.936  23.063  24.199  1.00  0.00     0.147 C 
ATOM      8  S   UNL A   1      32.611  24.103  22.894  1.00  0.00    -0.134 SA
ATOM      9  C   UNL A   1      34.229  23.289  22.874  1.00  0.00     0.109 C 
BRANCH   6  10
ATOM     10  C   UNL A   1      32.534  20.683  24.783  1.00  0.00     0.224 C 
ATOM     11  O   UNL A   1      31.502  20.479  25.425  1.00  0.00    -0.275 OA
BRANCH  10  12
ATOM     12  C   UNL A   1      33.583  19.576  24.680  1.00  0.00     0.106 C 
BRANCH  12  13
ATOM     13  C   UNL A   1      33.248  18.247  23.972  1.00  0.00     0.021 C 
ATOM     14  C   UNL A   1      32.258  18.527  22.823  1.00  0.00     0.010 C 
BRANCH  13  15
ATOM     15  C   UNL A   1      32.639  17.224  24.951  1.00  0.00     0.163 C 
BRANCH  15  16
ATOM     16  O   UNL A   1      33.299  15.961  24.886  1.00  0.00    -0.384 OA
ATOM     17  C   UNL A   1      34.709  16.088  25.040  1.00  0.00     0.194 C 
ENDBRANCH  15  16
ENDBRANCH  13  15
ENDBRANCH  12  13
ENDBRANCH  10  12
ENDBRANCH   6  10
BRANCH   7  18
ATOM     18  C   UNL A   1      31.759  23.745  25.533  1.00  0.00     0.022 C 
ATOM     19  C   UNL A   1      30.700  24.781  25.859  1.00  0.00     0.007 C 
ATOM     20  C   UNL A   1      30.611  23.406  26.458  1.00  0.00     0.007 C 
ENDBRANCH   7  18
ENDBRANCH   3   5
ENDBRANCH   2   3
ENDBRANCH   1   2
BRANCH   1  21
ATOM     21  C   UNL A   1      37.916  20.796  24.997  1.00  0.00     0.275 C 
BRANCH  21  22
ATOM     22  O   UNL A   1      38.349  21.580  26.116  1.00  0.00    -0.458 OA
BRANCH  22  23
ATOM     23  C   UNL A   1      39.654  21.443  26.446  1.00  0.00     0.338 C 
ATOM     24  O   UNL A   1      40.345  20.445  26.353  1.00  0.00    -0.246 OA
BRANCH  23  25
ATOM     25  C   UNL A   1      40.122  22.721  26.999  1.00  0.00     0.060 A 
ATOM     26  C   UNL A   1      39.589  23.919  26.520  1.00  0.00     0.016 A 
ATOM     27  C   UNL A   1      41.143  22.728  27.943  1.00  0.00     0.016 A 
ATOM     28  C   UNL A   1      40.117  25.138  26.933  1.00  0.00     0.010 A 
ATOM     29  C   UNL A   1      41.634  23.950  28.404  1.00  0.00     0.010 A 
ATOM     30  C   UNL A   1      41.149  25.163  27.877  1.00  0.00    -0.014 A 
BRANCH  30  31
ATOM     31  C   UNL A   1      41.781  26.445  28.269  1.00  0.00     0.031 A 
ATOM     32  C   UNL A   1      40.955  27.484  28.974  1.00  0.00     0.074 A 
ATOM     33  C   UNL A   1      43.069  26.688  27.964  1.00  0.00     0.049 A 
ATOM     34  N   UNL A   1      41.245  28.730  29.238  1.00  0.00    -0.248 NA
ATOM     35  C   UNL A   1      39.618  27.066  29.430  1.00  0.00     0.031 C 
ATOM     36  C   UNL A   1      43.975  25.746  27.305  1.00  0.00     0.029 A 
ATOM     37  N   UNL A   1      43.831  27.815  28.143  1.00  0.00    -0.354 N 
ATOM     38  C   UNL A   1      40.106  29.265  29.826  1.00  0.00     0.074 A 
ATOM     39  C   UNL A   1      39.122  28.206  29.891  1.00  0.00     0.031 C 
ATOM     40  C   UNL A   1      45.165  26.341  27.120  1.00  0.00     0.029 A 
ATOM     41  C   UNL A   1      45.087  27.718  27.594  1.00  0.00     0.049 A 
ATOM     42  H   UNL A   1      43.509  28.615  28.619  1.00  0.00     0.167 HD
ATOM     43  C   UNL A   1      39.903  30.525  30.280  1.00  0.00     0.034 A 
ATOM     44  C   UNL A   1      46.052  28.649  27.452  1.00  0.00     0.034 A 
ATOM     45  C   UNL A   1      40.908  31.553  30.266  1.00  0.00     0.049 A 
ATOM     46  C   UNL A   1      45.803  30.038  27.971  1.00  0.00     0.074 A 
ATOM     47  C   UNL A   1      40.819  32.851  30.735  1.00  0.00     0.029 A 
ATOM     48  N   UNL A   1      42.191  31.396  29.764  1.00  0.00    -0.354 N 
ATOM     49  N   UNL A   1      44.745  30.515  28.580  1.00  0.00    -0.248 NA
ATOM     50  C   UNL A   1      46.889  31.015  27.802  1.00  0.00     0.031 C 
ATOM     51  C   UNL A   1      42.047  33.482  30.510  1.00  0.00     0.029 A 
ATOM     52  C   UNL A   1      42.907  32.571  29.914  1.00  0.00     0.049 A 
ATOM     53  H   UNL A   1      42.542  30.569  29.360  1.00  0.00     0.167 HD
ATOM     54  C   UNL A   1      45.046  31.834  28.896  1.00  0.00     0.074 A 
ATOM     55  C   UNL A   1      46.396  32.075  28.428  1.00  0.00     0.031 C 
ATOM     56  C   UNL A   1      44.272  32.768  29.500  1.00  0.00     0.034 A 
BRANCH  43  57
ATOM     57  C   UNL A   1      38.549  30.853  30.849  1.00  0.00     0.023 A 
ATOM     58  C   UNL A   1      38.263  30.549  32.195  1.00  0.00     0.012 A 
ATOM     59  C   UNL A   1      37.576  31.505  30.066  1.00  0.00     0.148 A 
ATOM     60  C   UNL A   1      37.019  30.860  32.744  1.00  0.00     0.002 A 
ATOM     61  C   UNL A   1      36.353  31.849  30.632  1.00  0.00     0.091 A 
ATOM     62  F   UNL A   1      37.856  31.765  28.780  1.00  0.00    -0.205 F 
ATOM     63  C   UNL A   1      36.069  31.517  31.967  1.00  0.00     0.022 A 
BRANCH  61  64
ATOM     64  S   UNL A   1      35.096  32.764  29.732  1.00  0.00     0.127 S 
ATOM     65  O   UNL A   1      34.126  33.052  30.788  1.00  0.00    -0.237 OA
ATOM     66  O   UNL A   1      35.841  33.930  29.257  1.00  0.00    -0.237 OA
ATOM     67  O   UNL A   1      34.631  31.873  28.678  1.00  0.00    -0.744 OA
ENDBRANCH  61  64
ENDBRANCH  43  57
BRANCH  44  68
ATOM     68  C   UNL A   1      47.349  28.282  26.814  1.00  0.00     0.023 A 
ATOM     69  C   UNL A   1      48.494  28.132  27.619  1.00  0.00     0.012 A 
ATOM     70  C   UNL A   1      47.447  28.045  25.429  1.00  0.00     0.148 A 
ATOM     71  C   UNL A   1      49.718  27.774  27.053  1.00  0.00     0.002 A 
ATOM     72  C   UNL A   1      48.656  27.633  24.880  1.00  0.00     0.091 A 
ATOM     73  F   UNL A   1      46.351  28.214  24.675  1.00  0.00    -0.205 F 
ATOM     74  C   UNL A   1      49.797  27.512  25.688  1.00  0.00     0.022 A 
BRANCH  72  75
ATOM     75  S   UNL A   1      48.812  27.145  23.158  1.00  0.00     0.127 S 
ATOM     76  O   UNL A   1      48.054  25.897  23.132  1.00  0.00    -0.237 OA
ATOM     77  O   UNL A   1      48.176  28.266  22.465  1.00  0.00    -0.237 OA
ATOM     78  O   UNL A   1      50.244  27.027  22.915  1.00  0.00    -0.744 OA
ENDBRANCH  72  75
ENDBRANCH  44  68
BRANCH  56  79
ATOM     79  C   UNL A   1      44.874  34.129  29.730  1.00  0.00     0.023 A 
ATOM     80  C   UNL A   1      45.580  34.386  30.921  1.00  0.00     0.012 A 
ATOM     81  C   UNL A   1      44.808  35.121  28.733  1.00  0.00     0.148 A 
ATOM     82  C   UNL A   1      46.188  35.624  31.128  1.00  0.00     0.002 A 
ATOM     83  C   UNL A   1      45.454  36.336  28.928  1.00  0.00     0.091 A 
ATOM     84  F   UNL A   1      44.112  34.863  27.616  1.00  0.00    -0.205 F 
ATOM     85  C   UNL A   1      46.136  36.593  30.129  1.00  0.00     0.022 A 
BRANCH  83  86
ATOM     86  S   UNL A   1      45.514  37.602  27.655  1.00  0.00     0.127 S 
ATOM     87  O   UNL A   1      44.097  37.785  27.349  1.00  0.00    -0.237 OA
ATOM     88  O   UNL A   1      46.136  38.725  28.358  1.00  0.00    -0.237 OA
ATOM     89  O   UNL A   1      46.324  37.045  26.580  1.00  0.00    -0.744 OA
ENDBRANCH  83  86
ENDBRANCH  56  79
ENDBRANCH  30  31
ENDBRANCH  23  25
ENDBRANCH  22  23
ENDBRANCH  21  22
ENDBRANCH   1  21
TORSDOF 20
ENDMDL
MODEL 3
REMARK VINA RESULT:     -10.0      1.753      2.212
REMARK SMILES COC[C@@H](C)CC(=O)N1[C@@H](C2CC2)SC[C@H]1C(=O)OCCOC(=O)c1ccc(-c2c3nc(c(-c4cccc(S(=O)(=O)[O-])c4F)c4ccc([nH]4)c(-c4cccc(S(=O)(=O)[O-])c4F)c4nc(c(-c5cccc(S(=O)(=O)[O-])c5F)c5ccc2[nH]5)C=C4)C=C3)cc1
REMARK SMILES IDX 20 1 19 2 17 3 18 4 16 5 9 6 10 7 14 8 15 9 7 10 8 11 6 12
REMARK SMILES IDX 4 13 5 14 3 15 2 16 1 17 11 18 12 19 13 20 21 21 22 22 23 23
REMARK SMILES IDX 24 24 25 25 26 26 87 27 27 28 86 29 28 30 29 31 30 32 80 33
REMARK SMILES IDX 31 34 85 35 79 36 81 37 32 38 84 39 78 40 77 41 33 43 65 44
REMARK SMILES IDX 45 45 64 46 46 47 49 48 63 49 82 50 47 51 48 52 62 54 83 55
REMARK SMILES IDX 50 56 34 57 35 58 43 59 36 60 38 61 44 62 37 63 39 64 40 65
REMARK SMILES IDX 41 66 42 67 66 68 67 69 75 70 68 71 70 72 76 73 69 74 71 75
REMARK SMILES IDX 72 76 73 77 74 78 51 79 52 80 60 81 53 82 55 83 61 84 54 85
REMARK SMILES IDX 56 86 57 87 58 88 59 89
REMARK H PARENT 81 42 49 53
REMARK Flexibility Score: inf
ROOT
ATOM      1  C   UNL A   1      33.395  28.953  23.603  1.00  0.00     0.274 C 
ENDROOT
BRANCH   1   2
ATOM      2  O   UNL A   1      32.655  28.457  22.468  1.00  0.00    -0.461 OA
BRANCH   2   3
ATOM      3  C   UNL A   1      32.995  27.210  22.049  1.00  0.00     0.329 C 
ATOM      4  O   UNL A   1      34.108  26.901  21.631  1.00  0.00    -0.250 OA
BRANCH   3   5
ATOM      5  C   UNL A   1      31.854  26.189  22.115  1.00  0.00     0.206 C 
ATOM      6  N   UNL A   1      31.938  25.035  23.016  1.00  0.00    -0.316 N 
ATOM      7  C   UNL A   1      31.375  25.278  24.322  1.00  0.00     0.147 C 
ATOM      8  S   UNL A   1      30.061  26.487  24.097  1.00  0.00    -0.134 SA
ATOM      9  C   UNL A   1      30.547  26.927  22.408  1.00  0.00     0.109 C 
BRANCH   6  10
ATOM     10  C   UNL A   1      32.538  23.875  22.578  1.00  0.00     0.224 C 
ATOM     11  O   UNL A   1      33.297  23.894  21.608  1.00  0.00    -0.275 OA
BRANCH  10  12
ATOM     12  C   UNL A   1      32.071  22.530  23.137  1.00  0.00     0.106 C 
BRANCH  12  13
ATOM     13  C   UNL A   1      32.944  21.759  24.147  1.00  0.00     0.021 C 
ATOM     14  C   UNL A   1      34.406  22.227  24.004  1.00  0.00     0.010 C 
BRANCH  13  15
ATOM     15  C   UNL A   1      32.856  20.237  23.924  1.00  0.00     0.163 C 
BRANCH  15  16
ATOM     16  O   UNL A   1      32.152  19.580  24.976  1.00  0.00    -0.384 OA
ATOM     17  C   UNL A   1      32.851  18.436  25.453  1.00  0.00     0.194 C 
ENDBRANCH  15  16
ENDBRANCH  13  15
ENDBRANCH  12  13
ENDBRANCH  10  12
ENDBRANCH   6  10
BRANCH   7  18
ATOM     18  C   UNL A   1      32.477  25.698  25.263  1.00  0.00     0.022 C 
ATOM     19  C   UNL A   1      32.307  25.998  26.740  1.00  0.00     0.007 C 
ATOM     20  C   UNL A   1      33.039  24.759  26.306  1.00  0.00     0.007 C 
ENDBRANCH   7  18
ENDBRANCH   3   5
ENDBRANCH   2   3
ENDBRANCH   1   2
BRANCH   1  21
ATOM     21  C   UNL A   1      32.457  29.528  24.656  1.00  0.00     0.275 C 
BRANCH  21  22
ATOM     22  O   UNL A   1      33.084  29.440  25.942  1.00  0.00    -0.458 OA
BRANCH  22  23
ATOM     23  C   UNL A   1      33.180  30.607  26.619  1.00  0.00     0.338 C 
ATOM     24  O   UNL A   1      32.459  31.584  26.525  1.00  0.00    -0.246 OA
BRANCH  23  25
ATOM     25  C   UNL A   1      34.360  30.533  27.492  1.00  0.00     0.060 A 
ATOM     26  C   UNL A   1      35.185  31.649  27.635  1.00  0.00     0.016 A 
ATOM     27  C   UNL A   1      34.683  29.329  28.109  1.00  0.00     0.016 A 
ATOM     28  C   UNL A   1      36.377  31.554  28.347  1.00  0.00     0.010 A 
ATOM     29  C   UNL A   1      35.848  29.248  28.872  1.00  0.00     0.010 A 
ATOM     30  C   UNL A   1      36.720  30.349  28.968  1.00  0.00    -0.014 A 
BRANCH  30  31
ATOM     31  C   UNL A   1      38.023  30.202  29.659  1.00  0.00     0.031 A 
ATOM     32  C   UNL A   1      39.091  29.349  29.036  1.00  0.00     0.074 A 
ATOM     33  C   UNL A   1      38.232  30.798  30.848  1.00  0.00     0.049 A 
ATOM     34  N   UNL A   1      40.220  28.934  29.547  1.00  0.00    -0.248 NA
ATOM     35  C   UNL A   1      38.849  28.889  27.658  1.00  0.00     0.031 C 
ATOM     36  C   UNL A   1      37.280  31.671  31.536  1.00  0.00     0.029 A 
ATOM     37  N   UNL A   1      39.305  30.736  31.700  1.00  0.00    -0.354 N 
ATOM     38  C   UNL A   1      40.789  28.110  28.584  1.00  0.00     0.074 A 
ATOM     39  C   UNL A   1      39.888  28.091  27.453  1.00  0.00     0.031 C 
ATOM     40  C   UNL A   1      37.804  32.048  32.714  1.00  0.00     0.029 A 
ATOM     41  C   UNL A   1      39.099  31.400  32.887  1.00  0.00     0.049 A 
ATOM     42  H   UNL A   1      40.140  30.261  31.484  1.00  0.00     0.167 HD
ATOM     43  C   UNL A   1      41.964  27.437  28.636  1.00  0.00     0.034 A 
ATOM     44  C   UNL A   1      39.853  31.447  34.003  1.00  0.00     0.034 A 
ATOM     45  C   UNL A   1      42.881  27.512  29.742  1.00  0.00     0.049 A 
ATOM     46  C   UNL A   1      41.157  30.697  34.032  1.00  0.00     0.074 A 
ATOM     47  C   UNL A   1      44.114  26.901  29.880  1.00  0.00     0.029 A 
ATOM     48  N   UNL A   1      42.669  28.251  30.895  1.00  0.00    -0.354 N 
ATOM     49  N   UNL A   1      41.713  29.971  33.091  1.00  0.00    -0.248 NA
ATOM     50  C   UNL A   1      41.948  30.787  35.267  1.00  0.00     0.031 C 
ATOM     51  C   UNL A   1      44.645  27.265  31.122  1.00  0.00     0.029 A 
ATOM     52  C   UNL A   1      43.748  28.116  31.750  1.00  0.00     0.049 A 
ATOM     53  H   UNL A   1      41.867  28.792  31.080  1.00  0.00     0.167 HD
ATOM     54  C   UNL A   1      42.930  29.544  33.607  1.00  0.00     0.074 A 
ATOM     55  C   UNL A   1      43.040  30.111  34.936  1.00  0.00     0.031 C 
ATOM     56  C   UNL A   1      43.865  28.741  33.042  1.00  0.00     0.034 A 
BRANCH  43  57
ATOM     57  C   UNL A   1      42.331  26.580  27.455  1.00  0.00     0.023 A 
ATOM     58  C   UNL A   1      43.036  27.145  26.373  1.00  0.00     0.012 A 
ATOM     59  C   UNL A   1      42.022  25.206  27.437  1.00  0.00     0.148 A 
ATOM     60  C   UNL A   1      43.399  26.363  25.277  1.00  0.00     0.002 A 
ATOM     61  C   UNL A   1      42.422  24.424  26.359  1.00  0.00     0.091 A 
ATOM     62  F   UNL A   1      41.329  24.691  28.463  1.00  0.00    -0.205 F 
ATOM     63  C   UNL A   1      43.101  25.003  25.274  1.00  0.00     0.022 A 
BRANCH  61  64
ATOM     64  S   UNL A   1      42.151  22.649  26.301  1.00  0.00     0.127 S 
ATOM     65  O   UNL A   1      42.852  22.202  27.504  1.00  0.00    -0.237 OA
ATOM     66  O   UNL A   1      40.693  22.554  26.376  1.00  0.00    -0.237 OA
ATOM     67  O   UNL A   1      42.721  22.199  25.038  1.00  0.00    -0.744 OA
ENDBRANCH  61  64
ENDBRANCH  43  57
BRANCH  44  68
ATOM     68  C   UNL A   1      39.402  32.257  35.170  1.00  0.00     0.023 A 
ATOM     69  C   UNL A   1      39.617  33.648  35.168  1.00  0.00     0.012 A 
ATOM     70  C   UNL A   1      38.729  31.668  36.259  1.00  0.00     0.148 A 
ATOM     71  C   UNL A   1      39.192  34.436  36.239  1.00  0.00     0.002 A 
ATOM     72  C   UNL A   1      38.258  32.466  37.296  1.00  0.00     0.091 A 
ATOM     73  F   UNL A   1      38.552  30.339  36.254  1.00  0.00    -0.205 F 
ATOM     74  C   UNL A   1      38.502  33.848  37.295  1.00  0.00     0.022 A 
BRANCH  72  75
ATOM     75  S   UNL A   1      37.243  31.810  38.625  1.00  0.00     0.127 S 
ATOM     76  O   UNL A   1      37.019  30.436  38.181  1.00  0.00    -0.237 OA
ATOM     77  O   UNL A   1      38.129  31.946  39.782  1.00  0.00    -0.237 OA
ATOM     78  O   UNL A   1      36.064  32.664  38.673  1.00  0.00    -0.744 OA
ENDBRANCH  72  75
ENDBRANCH  44  68
BRANCH  56  79
ATOM     79  C   UNL A   1      45.110  28.457  33.838  1.00  0.00     0.023 A 
ATOM     80  C   UNL A   1      46.182  29.371  33.807  1.00  0.00     0.012 A 
ATOM     81  C   UNL A   1      45.185  27.327  34.675  1.00  0.00     0.148 A 
ATOM     82  C   UNL A   1      47.322  29.149  34.578  1.00  0.00     0.002 A 
ATOM     83  C   UNL A   1      46.306  27.136  35.474  1.00  0.00     0.091 A 
ATOM     84  F   UNL A   1      44.164  26.458  34.672  1.00  0.00    -0.205 F 
ATOM     85  C   UNL A   1      47.379  28.040  35.420  1.00  0.00     0.022 A 
BRANCH  83  86
ATOM     86  S   UNL A   1      46.421  25.785  36.653  1.00  0.00     0.127 S 
ATOM     87  O   UNL A   1      47.730  26.025  37.255  1.00  0.00    -0.237 OA
ATOM     88  O   UNL A   1      45.286  26.045  37.540  1.00  0.00    -0.237 OA
ATOM     89  O   UNL A   1      46.302  24.563  35.870  1.00  0.00    -0.744 OA
ENDBRANCH  83  86
ENDBRANCH  56  79
ENDBRANCH  30  31
ENDBRANCH  23  25
ENDBRANCH  22  23
ENDBRANCH  21  22
ENDBRANCH   1  21
TORSDOF 20
ENDMDL
