MODEL 1
REMARK VINA RESULT:     -10.9      0.000      0.000
REMARK SMILES [NH3+][C@@H](Cc1c[nH]c2ccccc12)C(=O)N[C@@H](CS)C(=O)N[C@@H](CO)C(=O)OCCOC(=O)c1ccc(-c2c3nc(c(-c4cccc(S(=O)(=O)[O-])c4F)c4ccc([nH]4)c(-c4cccc(S(=O)(=O)[O-])c4F)c4nc(c(-c5cccc(S(=O)(=O)[O-])c5F)c5ccc2[nH]5)C=C4)C=C3)cc1
REMARK SMILES IDX 27 1 25 2 26 3 22 4 21 5 19 6 20 7 16 9 15 10 13 11 14 12
REMARK SMILES IDX 2 14 1 15 3 19 4 20 5 21 12 22 6 23 7 24 11 25 8 27 10 28
REMARK SMILES IDX 9 29 17 30 18 31 23 33 24 34 28 36 29 37 30 38 31 39 32 40
REMARK SMILES IDX 33 41 34 42 95 43 35 44 94 45 36 46 37 47 38 48 88 49 39 50
REMARK SMILES IDX 93 51 87 52 89 53 40 54 92 55 86 56 85 57 41 59 73 60 53 61
REMARK SMILES IDX 72 62 54 63 57 64 71 65 90 66 55 67 56 68 70 70 91 71 58 72
REMARK SMILES IDX 42 73 43 74 51 75 44 76 46 77 52 78 45 79 47 80 48 81 49 82
REMARK SMILES IDX 50 83 74 84 75 85 83 86 76 87 78 88 84 89 77 90 79 91 80 92
REMARK SMILES IDX 81 93 82 94 59 95 60 96 68 97 61 98 63 99 69 100 62 101
REMARK SMILES IDX 64 102 65 103 66 104 67 105
REMARK H PARENT 21 8 15 13 1 16 1 17 1 18 6 26 18 32 24 35 89 58 57 69
REMARK Flexibility Score: inf
ROOT
ATOM      1  O   UNL A   1      35.371  20.496  24.703  1.00  0.00    -0.460 OA
ENDROOT
BRANCH   1   2
ATOM      2  C   UNL A   1      34.414  20.810  25.621  1.00  0.00     0.331 C 
ATOM      3  O   UNL A   1      34.637  21.212  26.756  1.00  0.00    -0.250 OA
BRANCH   2   4
ATOM      4  C   UNL A   1      33.000  20.548  25.095  1.00  0.00     0.218 C 
BRANCH   4   5
ATOM      5  N   UNL A   1      32.767  20.996  23.715  1.00  0.00    -0.339 N 
ATOM      6  C   UNL A   1      32.276  22.210  23.342  1.00  0.00     0.244 C 
ATOM      7  O   UNL A   1      31.245  22.195  22.662  1.00  0.00    -0.273 OA
ATOM      8  H   UNL A   1      32.986  20.362  22.995  1.00  0.00     0.164 HD
BRANCH   6   9
ATOM      9  C   UNL A   1      32.966  23.546  23.738  1.00  0.00     0.181 C 
BRANCH   9  10
ATOM     10  N   UNL A   1      32.540  23.958  25.071  1.00  0.00    -0.338 N 
ATOM     11  C   UNL A   1      31.514  24.736  25.503  1.00  0.00     0.279 C 
ATOM     12  O   UNL A   1      31.420  24.857  26.732  1.00  0.00    -0.268 OA
ATOM     13  H   UNL A   1      33.104  23.606  25.797  1.00  0.00     0.164 HD
BRANCH  11  14
ATOM     14  C   UNL A   1      30.510  25.470  24.578  1.00  0.00     0.275 C 
BRANCH  14  15
ATOM     15  N   UNL A   1      29.274  25.817  25.305  1.00  0.00    -0.347 N 
ATOM     16  H   UNL A   1      29.146  25.173  26.085  1.00  0.00     0.345 HD
ATOM     17  H   UNL A   1      28.477  25.750  24.672  1.00  0.00     0.345 HD
ATOM     18  H   UNL A   1      29.346  26.771  25.661  1.00  0.00     0.345 HD
ENDBRANCH  14  15
BRANCH  14  19
ATOM     19  C   UNL A   1      31.106  26.525  23.620  1.00  0.00     0.113 C 
BRANCH  19  20
ATOM     20  C   UNL A   1      30.891  27.988  23.911  1.00  0.00    -0.016 A 
ATOM     21  C   UNL A   1      31.738  28.869  24.562  1.00  0.00     0.087 A 
ATOM     22  C   UNL A   1      29.706  28.741  23.592  1.00  0.00     0.003 A 
ATOM     23  N   UNL A   1      31.188  30.123  24.513  1.00  0.00    -0.361 N 
ATOM     24  C   UNL A   1      29.946  30.073  23.930  1.00  0.00     0.046 A 
ATOM     25  C   UNL A   1      28.457  28.413  23.022  1.00  0.00     0.010 A 
ATOM     26  H   UNL A   1      31.622  30.942  24.846  1.00  0.00     0.166 HD
ATOM     27  C   UNL A   1      29.024  31.097  23.686  1.00  0.00     0.026 A 
ATOM     28  C   UNL A   1      27.510  29.420  22.801  1.00  0.00     0.001 A 
ATOM     29  C   UNL A   1      27.798  30.745  23.117  1.00  0.00     0.002 A 
ENDBRANCH  19  20
ENDBRANCH  14  19
ENDBRANCH  11  14
ENDBRANCH   9  10
BRANCH   9  30
ATOM     30  C   UNL A   1      34.467  23.686  23.454  1.00  0.00     0.101 C 
BRANCH  30  31
ATOM     31  S   UNL A   1      35.454  24.289  24.868  1.00  0.00    -0.177 SA
ATOM     32  H   UNL A   1      34.673  24.331  25.981  1.00  0.00     0.102 HD
ENDBRANCH  30  31
ENDBRANCH   9  30
ENDBRANCH   6   9
ENDBRANCH   4   5
BRANCH   4  33
ATOM     33  C   UNL A   1      32.722  19.040  25.208  1.00  0.00     0.193 C 
BRANCH  33  34
ATOM     34  O   UNL A   1      32.818  18.603  26.569  1.00  0.00    -0.394 OA
ATOM     35  H   UNL A   1      32.076  18.013  26.772  1.00  0.00     0.210 HD
ENDBRANCH  33  34
ENDBRANCH   4  33
ENDBRANCH   2   4
ENDBRANCH   1   2
BRANCH   1  36
ATOM     36  C   UNL A   1      36.256  19.411  25.050  1.00  0.00     0.274 C 
BRANCH  36  37
ATOM     37  C   UNL A   1      37.686  19.795  24.690  1.00  0.00     0.275 C 
BRANCH  37  38
ATOM     38  O   UNL A   1      38.055  20.945  25.470  1.00  0.00    -0.458 OA
BRANCH  38  39
ATOM     39  C   UNL A   1      39.263  20.894  26.071  1.00  0.00     0.338 C 
ATOM     40  O   UNL A   1      39.997  19.916  26.161  1.00  0.00    -0.246 OA
BRANCH  39  41
ATOM     41  C   UNL A   1      39.630  22.225  26.597  1.00  0.00     0.060 A 
ATOM     42  C   UNL A   1      38.936  23.365  26.197  1.00  0.00     0.016 A 
ATOM     43  C   UNL A   1      40.756  22.356  27.412  1.00  0.00     0.016 A 
ATOM     44  C   UNL A   1      39.440  24.630  26.519  1.00  0.00     0.010 A 
ATOM     45  C   UNL A   1      41.192  23.627  27.811  1.00  0.00     0.010 A 
ATOM     46  C   UNL A   1      40.578  24.793  27.324  1.00  0.00    -0.014 A 
BRANCH  46  47
ATOM     47  C   UNL A   1      41.165  26.152  27.593  1.00  0.00     0.031 A 
ATOM     48  C   UNL A   1      42.550  26.502  27.089  1.00  0.00     0.074 A 
ATOM     49  C   UNL A   1      40.487  27.105  28.270  1.00  0.00     0.049 A 
ATOM     50  N   UNL A   1      43.341  27.483  27.446  1.00  0.00    -0.248 NA
ATOM     51  C   UNL A   1      43.133  25.619  26.065  1.00  0.00     0.031 C 
ATOM     52  C   UNL A   1      39.131  26.976  28.799  1.00  0.00     0.029 A 
ATOM     53  N   UNL A   1      40.854  28.385  28.628  1.00  0.00    -0.354 N 
ATOM     54  C   UNL A   1      44.548  27.265  26.791  1.00  0.00     0.074 A 
ATOM     55  C   UNL A   1      44.375  26.076  25.981  1.00  0.00     0.031 C 
ATOM     56  C   UNL A   1      38.754  28.139  29.349  1.00  0.00     0.029 A 
ATOM     57  C   UNL A   1      39.886  29.058  29.341  1.00  0.00     0.049 A 
ATOM     58  H   UNL A   1      41.725  28.780  28.396  1.00  0.00     0.167 HD
ATOM     59  C   UNL A   1      45.695  27.983  26.856  1.00  0.00     0.034 A 
ATOM     60  C   UNL A   1      39.910  30.246  29.980  1.00  0.00     0.034 A 
ATOM     61  C   UNL A   1      45.831  29.240  27.545  1.00  0.00     0.049 A 
ATOM     62  C   UNL A   1      41.176  31.052  30.002  1.00  0.00     0.074 A 
ATOM     63  C   UNL A   1      46.948  30.055  27.633  1.00  0.00     0.029 A 
ATOM     64  N   UNL A   1      44.813  29.889  28.223  1.00  0.00    -0.354 N 
ATOM     65  N   UNL A   1      42.325  30.798  29.426  1.00  0.00    -0.248 NA
ATOM     66  C   UNL A   1      41.154  32.303  30.776  1.00  0.00     0.031 C 
ATOM     67  C   UNL A   1      46.603  31.198  28.361  1.00  0.00     0.029 A 
ATOM     68  C   UNL A   1      45.269  31.099  28.718  1.00  0.00     0.049 A 
ATOM     69  H   UNL A   1      43.899  29.541  28.337  1.00  0.00     0.167 HD
ATOM     70  C   UNL A   1      43.161  31.855  29.765  1.00  0.00     0.074 A 
ATOM     71  C   UNL A   1      42.377  32.773  30.565  1.00  0.00     0.031 C 
ATOM     72  C   UNL A   1      44.472  32.031  29.470  1.00  0.00     0.034 A 
BRANCH  59  73
ATOM     73  C   UNL A   1      46.912  27.446  26.148  1.00  0.00     0.023 A 
ATOM     74  C   UNL A   1      47.122  27.728  24.785  1.00  0.00     0.012 A 
ATOM     75  C   UNL A   1      47.899  26.738  26.867  1.00  0.00     0.148 A 
ATOM     76  C   UNL A   1      48.283  27.297  24.143  1.00  0.00     0.002 A 
ATOM     77  C   UNL A   1      49.073  26.349  26.231  1.00  0.00     0.091 A 
ATOM     78  F   UNL A   1      47.671  26.457  28.158  1.00  0.00    -0.205 F 
ATOM     79  C   UNL A   1      49.262  26.621  24.867  1.00  0.00     0.022 A 
BRANCH  77  80
ATOM     80  S   UNL A   1      50.423  25.554  27.111  1.00  0.00     0.127 S 
ATOM     81  O   UNL A   1      51.395  25.352  26.037  1.00  0.00    -0.237 OA
ATOM     82  O   UNL A   1      50.801  26.572  28.090  1.00  0.00    -0.237 OA
ATOM     83  O   UNL A   1      49.859  24.341  27.687  1.00  0.00    -0.744 OA
ENDBRANCH  77  80
ENDBRANCH  59  73
BRANCH  60  84
ATOM     84  C   UNL A   1      38.683  30.723  30.683  1.00  0.00     0.023 A 
ATOM     85  C   UNL A   1      38.504  30.435  32.049  1.00  0.00     0.012 A 
ATOM     86  C   UNL A   1      37.732  31.524  30.022  1.00  0.00     0.148 A 
ATOM     87  C   UNL A   1      37.402  30.941  32.742  1.00  0.00     0.002 A 
ATOM     88  C   UNL A   1      36.685  32.091  30.737  1.00  0.00     0.091 A 
ATOM     89  F   UNL A   1      37.889  31.750  28.709  1.00  0.00    -0.205 F 
ATOM     90  C   UNL A   1      36.506  31.787  32.092  1.00  0.00     0.022 A 
BRANCH  88  91
ATOM     91  S   UNL A   1      35.627  33.347  30.004  1.00  0.00     0.127 S 
ATOM     92  O   UNL A   1      35.171  34.081  31.181  1.00  0.00    -0.237 OA
ATOM     93  O   UNL A   1      36.561  34.076  29.145  1.00  0.00    -0.237 OA
ATOM     94  O   UNL A   1      34.609  32.604  29.274  1.00  0.00    -0.744 OA
ENDBRANCH  88  91
ENDBRANCH  60  84
BRANCH  72  95
ATOM     95  C   UNL A   1      45.142  33.271  29.996  1.00  0.00     0.023 A 
ATOM     96  C   UNL A   1      45.807  33.225  31.237  1.00  0.00     0.012 A 
ATOM     97  C   UNL A   1      45.162  34.460  29.244  1.00  0.00     0.148 A 
ATOM     98  C   UNL A   1      46.457  34.353  31.735  1.00  0.00     0.002 A 
ATOM     99  C   UNL A   1      45.844  35.572  29.730  1.00  0.00     0.091 A 
ATOM    100  F   UNL A   1      44.506  34.490  28.074  1.00  0.00    -0.205 F 
ATOM    101  C   UNL A   1      46.484  35.522  30.979  1.00  0.00     0.022 A 
BRANCH  99 102
ATOM    102  S   UNL A   1      45.991  37.092  28.786  1.00  0.00     0.127 S 
ATOM    103  O   UNL A   1      46.676  36.629  27.580  1.00  0.00    -0.237 OA
ATOM    104  O   UNL A   1      44.593  37.475  28.585  1.00  0.00    -0.237 OA
ATOM    105  O   UNL A   1      46.750  38.009  29.627  1.00  0.00    -0.744 OA
ENDBRANCH  99 102
ENDBRANCH  72  95
ENDBRANCH  46  47
ENDBRANCH  39  41
ENDBRANCH  38  39
ENDBRANCH  37  38
ENDBRANCH  36  37
ENDBRANCH   1  36
TORSDOF 25
ENDMDL
MODEL 2
REMARK VINA RESULT:     -10.8      2.095      7.702
REMARK SMILES [NH3+][C@@H](Cc1c[nH]c2ccccc12)C(=O)N[C@@H](CS)C(=O)N[C@@H](CO)C(=O)OCCOC(=O)c1ccc(-c2c3nc(c(-c4cccc(S(=O)(=O)[O-])c4F)c4ccc([nH]4)c(-c4cccc(S(=O)(=O)[O-])c4F)c4nc(c(-c5cccc(S(=O)(=O)[O-])c5F)c5ccc2[nH]5)C=C4)C=C3)cc1
REMARK SMILES IDX 27 1 25 2 26 3 22 4 21 5 19 6 20 7 16 9 15 10 13 11 14 12
REMARK SMILES IDX 2 14 1 15 3 19 4 20 5 21 12 22 6 23 7 24 11 25 8 27 10 28
REMARK SMILES IDX 9 29 17 30 18 31 23 33 24 34 28 36 29 37 30 38 31 39 32 40
REMARK SMILES IDX 33 41 34 42 95 43 35 44 94 45 36 46 37 47 38 48 88 49 39 50
REMARK SMILES IDX 93 51 87 52 89 53 40 54 92 55 86 56 85 57 41 59 73 60 53 61
REMARK SMILES IDX 72 62 54 63 57 64 71 65 90 66 55 67 56 68 70 70 91 71 58 72
REMARK SMILES IDX 42 73 43 74 51 75 44 76 46 77 52 78 45 79 47 80 48 81 49 82
REMARK SMILES IDX 50 83 74 84 75 85 83 86 76 87 78 88 84 89 77 90 79 91 80 92
REMARK SMILES IDX 81 93 82 94 59 95 60 96 68 97 61 98 63 99 69 100 62 101
REMARK SMILES IDX 64 102 65 103 66 104 67 105
REMARK H PARENT 21 8 15 13 1 16 1 17 1 18 6 26 18 32 24 35 89 58 57 69
REMARK Flexibility Score: inf
ROOT
ATOM      1  O   UNL A   1      33.975  21.170  24.424  1.00  0.00    -0.460 OA
ENDROOT
BRANCH   1   2
ATOM      2  C   UNL A   1      32.860  21.056  25.202  1.00  0.00     0.331 C 
ATOM      3  O   UNL A   1      32.148  20.062  25.263  1.00  0.00    -0.250 OA
BRANCH   2   4
ATOM      4  C   UNL A   1      32.552  22.348  25.963  1.00  0.00     0.218 C 
BRANCH   4   5
ATOM      5  N   UNL A   1      31.122  22.670  26.071  1.00  0.00    -0.339 N 
ATOM      6  C   UNL A   1      30.594  23.912  26.254  1.00  0.00     0.244 C 
ATOM      7  O   UNL A   1      29.884  24.061  27.252  1.00  0.00    -0.273 OA
ATOM      8  H   UNL A   1      30.488  21.920  26.006  1.00  0.00     0.164 HD
BRANCH   6   9
ATOM      9  C   UNL A   1      30.860  25.083  25.266  1.00  0.00     0.181 C 
BRANCH   9  10
ATOM     10  N   UNL A   1      31.141  24.564  23.932  1.00  0.00    -0.338 N 
ATOM     11  C   UNL A   1      32.277  24.516  23.190  1.00  0.00     0.279 C 
ATOM     12  O   UNL A   1      32.169  23.965  22.086  1.00  0.00    -0.268 OA
ATOM     13  H   UNL A   1      30.357  24.174  23.482  1.00  0.00     0.164 HD
BRANCH  11  14
ATOM     14  C   UNL A   1      33.642  25.111  23.622  1.00  0.00     0.275 C 
BRANCH  14  15
ATOM     15  N   UNL A   1      34.697  24.080  23.616  1.00  0.00    -0.347 N 
ATOM     16  H   UNL A   1      34.361  23.247  24.100  1.00  0.00     0.345 HD
ATOM     17  H   UNL A   1      35.526  24.439  24.090  1.00  0.00     0.345 HD
ATOM     18  H   UNL A   1      34.934  23.842  22.653  1.00  0.00     0.345 HD
ENDBRANCH  14  15
BRANCH  14  19
ATOM     19  C   UNL A   1      33.990  26.506  23.057  1.00  0.00     0.113 C 
BRANCH  19  20
ATOM     20  C   UNL A   1      33.186  27.701  23.501  1.00  0.00    -0.016 A 
ATOM     21  C   UNL A   1      32.447  28.576  22.722  1.00  0.00     0.087 A 
ATOM     22  C   UNL A   1      33.079  28.186  24.852  1.00  0.00     0.003 A 
ATOM     23  N   UNL A   1      31.794  29.453  23.548  1.00  0.00    -0.361 N 
ATOM     24  C   UNL A   1      32.165  29.240  24.853  1.00  0.00     0.046 A 
ATOM     25  C   UNL A   1      33.658  27.805  26.081  1.00  0.00     0.010 A 
ATOM     26  H   UNL A   1      31.152  30.137  23.249  1.00  0.00     0.166 HD
ATOM     27  C   UNL A   1      31.769  29.901  26.021  1.00  0.00     0.026 A 
ATOM     28  C   UNL A   1      33.299  28.478  27.255  1.00  0.00     0.001 A 
ATOM     29  C   UNL A   1      32.356  29.501  27.225  1.00  0.00     0.002 A 
ENDBRANCH  19  20
ENDBRANCH  14  19
ENDBRANCH  11  14
ENDBRANCH   9  10
BRANCH   9  30
ATOM     30  C   UNL A   1      29.915  26.289  25.318  1.00  0.00     0.101 C 
BRANCH  30  31
ATOM     31  S   UNL A   1      29.192  26.757  23.706  1.00  0.00    -0.177 SA
ATOM     32  H   UNL A   1      28.107  25.977  23.453  1.00  0.00     0.102 HD
ENDBRANCH  30  31
ENDBRANCH   9  30
ENDBRANCH   6   9
ENDBRANCH   4   5
BRANCH   4  33
ATOM     33  C   UNL A   1      33.168  22.232  27.367  1.00  0.00     0.193 C 
BRANCH  33  34
ATOM     34  O   UNL A   1      32.148  22.202  28.372  1.00  0.00    -0.394 OA
ATOM     35  H   UNL A   1      31.758  21.315  28.411  1.00  0.00     0.210 HD
ENDBRANCH  33  34
ENDBRANCH   4  33
ENDBRANCH   2   4
ENDBRANCH   1   2
BRANCH   1  36
ATOM     36  C   UNL A   1      34.993  20.168  24.620  1.00  0.00     0.274 C 
BRANCH  36  37
ATOM     37  C   UNL A   1      35.815  20.524  25.854  1.00  0.00     0.275 C 
BRANCH  37  38
ATOM     38  O   UNL A   1      36.801  21.500  25.475  1.00  0.00    -0.458 OA
BRANCH  38  39
ATOM     39  C   UNL A   1      38.090  21.112  25.575  1.00  0.00     0.338 C 
ATOM     40  O   UNL A   1      38.524  19.970  25.471  1.00  0.00    -0.246 OA
BRANCH  39  41
ATOM     41  C   UNL A   1      38.961  22.286  25.796  1.00  0.00     0.060 A 
ATOM     42  C   UNL A   1      40.302  22.124  26.137  1.00  0.00     0.016 A 
ATOM     43  C   UNL A   1      38.405  23.567  25.780  1.00  0.00     0.016 A 
ATOM     44  C   UNL A   1      41.044  23.228  26.568  1.00  0.00     0.010 A 
ATOM     45  C   UNL A   1      39.189  24.679  26.118  1.00  0.00     0.010 A 
ATOM     46  C   UNL A   1      40.509  24.526  26.577  1.00  0.00    -0.014 A 
BRANCH  46  47
ATOM     47  C   UNL A   1      41.283  25.694  27.123  1.00  0.00     0.031 A 
ATOM     48  C   UNL A   1      40.629  26.662  28.088  1.00  0.00     0.074 A 
ATOM     49  C   UNL A   1      42.574  25.917  26.795  1.00  0.00     0.049 A 
ATOM     50  N   UNL A   1      41.008  27.863  28.446  1.00  0.00    -0.248 NA
ATOM     51  C   UNL A   1      39.368  26.232  28.717  1.00  0.00     0.031 C 
ATOM     52  C   UNL A   1      43.389  25.080  25.917  1.00  0.00     0.029 A 
ATOM     53  N   UNL A   1      43.435  26.926  27.172  1.00  0.00    -0.354 N 
ATOM     54  C   UNL A   1      39.982  28.375  29.233  1.00  0.00     0.074 A 
ATOM     55  C   UNL A   1      38.976  27.338  29.335  1.00  0.00     0.031 C 
ATOM     56  C   UNL A   1      44.639  25.562  25.874  1.00  0.00     0.029 A 
ATOM     57  C   UNL A   1      44.687  26.822  26.607  1.00  0.00     0.049 A 
ATOM     58  H   UNL A   1      43.179  27.651  27.785  1.00  0.00     0.167 HD
ATOM     59  C   UNL A   1      39.882  29.594  29.816  1.00  0.00     0.034 A 
ATOM     60  C   UNL A   1      45.741  27.665  26.608  1.00  0.00     0.034 A 
ATOM     61  C   UNL A   1      40.936  30.575  29.838  1.00  0.00     0.049 A 
ATOM     62  C   UNL A   1      45.630  28.991  27.301  1.00  0.00     0.074 A 
ATOM     63  C   UNL A   1      40.934  31.824  30.438  1.00  0.00     0.029 A 
ATOM     64  N   UNL A   1      42.191  30.406  29.278  1.00  0.00    -0.354 N 
ATOM     65  N   UNL A   1      44.629  29.481  27.989  1.00  0.00    -0.248 NA
ATOM     66  C   UNL A   1      46.792  29.890  27.205  1.00  0.00     0.031 C 
ATOM     67  C   UNL A   1      42.190  32.408  30.244  1.00  0.00     0.029 A 
ATOM     68  C   UNL A   1      42.976  31.518  29.531  1.00  0.00     0.049 A 
ATOM     69  H   UNL A   1      42.482  29.612  28.774  1.00  0.00     0.167 HD
ATOM     70  C   UNL A   1      45.038  30.742  28.408  1.00  0.00     0.074 A 
ATOM     71  C   UNL A   1      46.392  30.926  27.931  1.00  0.00     0.031 C 
ATOM     72  C   UNL A   1      44.339  31.676  29.097  1.00  0.00     0.034 A 
BRANCH  59  73
ATOM     73  C   UNL A   1      38.590  29.949  30.507  1.00  0.00     0.023 A 
ATOM     74  C   UNL A   1      38.356  29.533  31.831  1.00  0.00     0.012 A 
ATOM     75  C   UNL A   1      37.647  30.781  29.867  1.00  0.00     0.148 A 
ATOM     76  C   UNL A   1      37.196  29.922  32.501  1.00  0.00     0.002 A 
ATOM     77  C   UNL A   1      36.514  31.200  30.555  1.00  0.00     0.091 A 
ATOM     78  F   UNL A   1      37.875  31.148  28.597  1.00  0.00    -0.205 F 
ATOM     79  C   UNL A   1      36.283  30.763  31.870  1.00  0.00     0.022 A 
BRANCH  77  80
ATOM     80  S   UNL A   1      35.333  32.355  29.849  1.00  0.00     0.127 S 
ATOM     81  O   UNL A   1      34.782  31.573  28.743  1.00  0.00    -0.237 OA
ATOM     82  O   UNL A   1      34.407  32.574  30.960  1.00  0.00    -0.237 OA
ATOM     83  O   UNL A   1      36.107  33.528  29.468  1.00  0.00    -0.744 OA
ENDBRANCH  77  80
ENDBRANCH  59  73
BRANCH  60  84
ATOM     84  C   UNL A   1      46.991  27.273  25.892  1.00  0.00     0.023 A 
ATOM     85  C   UNL A   1      47.905  26.398  26.509  1.00  0.00     0.012 A 
ATOM     86  C   UNL A   1      47.239  27.705  24.575  1.00  0.00     0.148 A 
ATOM     87  C   UNL A   1      49.039  25.958  25.823  1.00  0.00     0.002 A 
ATOM     88  C   UNL A   1      48.324  27.199  23.871  1.00  0.00     0.091 A 
ATOM     89  F   UNL A   1      46.387  28.578  24.017  1.00  0.00    -0.205 F 
ATOM     90  C   UNL A   1      49.236  26.340  24.498  1.00  0.00     0.022 A 
BRANCH  88  91
ATOM     91  S   UNL A   1      48.511  27.490  22.107  1.00  0.00     0.127 S 
ATOM     92  O   UNL A   1      47.281  28.209  21.788  1.00  0.00    -0.237 OA
ATOM     93  O   UNL A   1      49.730  28.297  22.052  1.00  0.00    -0.237 OA
ATOM     94  O   UNL A   1      48.653  26.165  21.518  1.00  0.00    -0.744 OA
ENDBRANCH  88  91
ENDBRANCH  60  84
BRANCH  72  95
ATOM     95  C   UNL A   1      45.028  32.980  29.395  1.00  0.00     0.023 A 
ATOM     96  C   UNL A   1      45.776  33.112  30.581  1.00  0.00     0.012 A 
ATOM     97  C   UNL A   1      44.982  34.051  28.483  1.00  0.00     0.148 A 
ATOM     98  C   UNL A   1      46.445  34.301  30.870  1.00  0.00     0.002 A 
ATOM     99  C   UNL A   1      45.682  35.222  28.759  1.00  0.00     0.091 A 
ATOM    100  F   UNL A   1      44.248  33.914  27.369  1.00  0.00    -0.205 F 
ATOM    101  C   UNL A   1      46.406  35.351  29.956  1.00  0.00     0.022 A 
BRANCH  99 102
ATOM    102  S   UNL A   1      45.746  36.594  27.603  1.00  0.00     0.127 S 
ATOM    103  O   UNL A   1      44.344  37.009  27.554  1.00  0.00    -0.237 OA
ATOM    104  O   UNL A   1      46.637  37.536  28.281  1.00  0.00    -0.237 OA
ATOM    105  O   UNL A   1      46.282  36.045  26.364  1.00  0.00    -0.744 OA
ENDBRANCH  99 102
ENDBRANCH  72  95
ENDBRANCH  46  47
ENDBRANCH  39  41
ENDBRANCH  38  39
ENDBRANCH  37  38
ENDBRANCH  36  37
ENDBRANCH   1  36
TORSDOF 25
ENDMDL
MODEL 3
REMARK VINA RESULT:     -10.5      1.429      2.003
REMARK SMILES [NH3+][C@@H](Cc1c[nH]c2ccccc12)C(=O)N[C@@H](CS)C(=O)N[C@@H](CO)C(=O)OCCOC(=O)c1ccc(-c2c3nc(c(-c4cccc(S(=O)(=O)[O-])c4F)c4ccc([nH]4)c(-c4cccc(S(=O)(=O)[O-])c4F)c4nc(c(-c5cccc(S(=O)(=O)[O-])c5F)c5ccc2[nH]5)C=C4)C=C3)cc1
REMARK SMILES IDX 27 1 25 2 26 3 22 4 21 5 19 6 20 7 16 9 15 10 13 11 14 12
REMARK SMILES IDX 2 14 1 15 3 19 4 20 5 21 12 22 6 23 7 24 11 25 8 27 10 28
REMARK SMILES IDX 9 29 17 30 18 31 23 33 24 34 28 36 29 37 30 38 31 39 32 40
REMARK SMILES IDX 33 41 34 42 95 43 35 44 94 45 36 46 37 47 38 48 88 49 39 50
REMARK SMILES IDX 93 51 87 52 89 53 40 54 92 55 86 56 85 57 41 59 73 60 53 61
REMARK SMILES IDX 72 62 54 63 57 64 71 65 90 66 55 67 56 68 70 70 91 71 58 72
REMARK SMILES IDX 42 73 43 74 51 75 44 76 46 77 52 78 45 79 47 80 48 81 49 82
REMARK SMILES IDX 50 83 74 84 75 85 83 86 76 87 78 88 84 89 77 90 79 91 80 92
REMARK SMILES IDX 81 93 82 94 59 95 60 96 68 97 61 98 63 99 69 100 62 101
REMARK SMILES IDX 64 102 65 103 66 104 67 105
REMARK H PARENT 21 8 15 13 1 16 1 17 1 18 6 26 18 32 24 35 89 58 57 69
REMARK Flexibility Score: inf
ROOT
ATOM      1  O   UNL A   1      35.650  20.582  24.550  1.00  0.00    -0.460 OA
ENDROOT
BRANCH   1   2
ATOM      2  C   UNL A   1      34.773  21.012  25.502  1.00  0.00     0.331 C 
ATOM      3  O   UNL A   1      35.090  21.439  26.604  1.00  0.00    -0.250 OA
BRANCH   2   4
ATOM      4  C   UNL A   1      33.315  20.846  25.061  1.00  0.00     0.218 C 
BRANCH   4   5
ATOM      5  N   UNL A   1      33.077  21.082  23.631  1.00  0.00    -0.339 N 
ATOM      6  C   UNL A   1      32.275  22.048  23.103  1.00  0.00     0.244 C 
ATOM      7  O   UNL A   1      31.359  21.657  22.373  1.00  0.00    -0.273 OA
ATOM      8  H   UNL A   1      33.538  20.488  22.996  1.00  0.00     0.164 HD
BRANCH   6   9
ATOM      9  C   UNL A   1      32.492  23.560  23.393  1.00  0.00     0.181 C 
BRANCH   9  10
ATOM     10  N   UNL A   1      31.776  23.950  24.602  1.00  0.00    -0.338 N 
ATOM     11  C   UNL A   1      30.757  24.820  24.822  1.00  0.00     0.279 C 
ATOM     12  O   UNL A   1      30.358  24.887  25.993  1.00  0.00    -0.268 OA
ATOM     13  H   UNL A   1      32.093  23.496  25.417  1.00  0.00     0.164 HD
BRANCH  11  14
ATOM     14  C   UNL A   1      30.108  25.715  23.735  1.00  0.00     0.275 C 
BRANCH  14  15
ATOM     15  N   UNL A   1      28.716  26.054  24.088  1.00  0.00    -0.347 N 
ATOM     16  H   UNL A   1      28.260  25.238  24.495  1.00  0.00     0.345 HD
ATOM     17  H   UNL A   1      28.214  26.343  23.249  1.00  0.00     0.345 HD
ATOM     18  H   UNL A   1      28.714  26.818  24.765  1.00  0.00     0.345 HD
ENDBRANCH  14  15
BRANCH  14  19
ATOM     19  C   UNL A   1      30.998  26.831  23.147  1.00  0.00     0.113 C 
BRANCH  19  20
ATOM     20  C   UNL A   1      31.012  28.186  23.808  1.00  0.00    -0.016 A 
ATOM     21  C   UNL A   1      30.369  29.345  23.406  1.00  0.00     0.087 A 
ATOM     22  C   UNL A   1      31.759  28.536  24.988  1.00  0.00     0.003 A 
ATOM     23  N   UNL A   1      30.573  30.311  24.357  1.00  0.00    -0.361 N 
ATOM     24  C   UNL A   1      31.421  29.845  25.331  1.00  0.00     0.046 A 
ATOM     25  C   UNL A   1      32.676  27.847  25.810  1.00  0.00     0.010 A 
ATOM     26  H   UNL A   1      30.169  31.209  24.343  1.00  0.00     0.166 HD
ATOM     27  C   UNL A   1      31.915  30.483  26.475  1.00  0.00     0.026 A 
ATOM     28  C   UNL A   1      33.205  28.481  26.941  1.00  0.00     0.001 A 
ATOM     29  C   UNL A   1      32.817  29.775  27.274  1.00  0.00     0.002 A 
ENDBRANCH  19  20
ENDBRANCH  14  19
ENDBRANCH  11  14
ENDBRANCH   9  10
BRANCH   9  30
ATOM     30  C   UNL A   1      33.915  24.115  23.261  1.00  0.00     0.101 C 
BRANCH  30  31
ATOM     31  S   UNL A   1      34.654  24.688  24.831  1.00  0.00    -0.177 SA
ATOM     32  H   UNL A   1      34.377  26.009  25.006  1.00  0.00     0.102 HD
ENDBRANCH  30  31
ENDBRANCH   9  30
ENDBRANCH   6   9
ENDBRANCH   4   5
BRANCH   4  33
ATOM     33  C   UNL A   1      32.862  19.427  25.439  1.00  0.00     0.193 C 
BRANCH  33  34
ATOM     34  O   UNL A   1      33.432  18.455  24.553  1.00  0.00    -0.394 OA
ATOM     35  H   UNL A   1      33.015  17.593  24.708  1.00  0.00     0.210 HD
ENDBRANCH  33  34
ENDBRANCH   4  33
ENDBRANCH   2   4
ENDBRANCH   1   2
BRANCH   1  36
ATOM     36  C   UNL A   1      36.691  19.691  24.999  1.00  0.00     0.274 C 
BRANCH  36  37
ATOM     37  C   UNL A   1      38.036  20.400  24.894  1.00  0.00     0.275 C 
BRANCH  37  38
ATOM     38  O   UNL A   1      38.400  20.873  26.202  1.00  0.00    -0.458 OA
BRANCH  38  39
ATOM     39  C   UNL A   1      39.723  21.014  26.437  1.00  0.00     0.338 C 
ATOM     40  O   UNL A   1      40.597  20.178  26.235  1.00  0.00    -0.246 OA
BRANCH  39  41
ATOM     41  C   UNL A   1      40.009  22.369  26.953  1.00  0.00     0.060 A 
ATOM     42  C   UNL A   1      39.257  23.465  26.534  1.00  0.00     0.016 A 
ATOM     43  C   UNL A   1      41.119  22.571  27.776  1.00  0.00     0.016 A 
ATOM     44  C   UNL A   1      39.686  24.759  26.847  1.00  0.00     0.010 A 
ATOM     45  C   UNL A   1      41.479  23.868  28.166  1.00  0.00     0.010 A 
ATOM     46  C   UNL A   1      40.806  24.993  27.661  1.00  0.00    -0.014 A 
BRANCH  46  47
ATOM     47  C   UNL A   1      41.313  26.385  27.921  1.00  0.00     0.031 A 
ATOM     48  C   UNL A   1      42.696  26.796  27.460  1.00  0.00     0.074 A 
ATOM     49  C   UNL A   1      40.563  27.316  28.552  1.00  0.00     0.049 A 
ATOM     50  N   UNL A   1      43.423  27.823  27.823  1.00  0.00    -0.248 NA
ATOM     51  C   UNL A   1      43.361  25.923  26.477  1.00  0.00     0.031 C 
ATOM     52  C   UNL A   1      39.197  27.128  29.035  1.00  0.00     0.029 A 
ATOM     53  N   UNL A   1      40.852  28.620  28.895  1.00  0.00    -0.354 N 
ATOM     54  C   UNL A   1      44.663  27.653  27.217  1.00  0.00     0.074 A 
ATOM     55  C   UNL A   1      44.580  26.441  26.428  1.00  0.00     0.031 C 
ATOM     56  C   UNL A   1      38.742  28.281  29.545  1.00  0.00     0.029 A 
ATOM     57  C   UNL A   1      39.826  29.256  29.557  1.00  0.00     0.049 A 
ATOM     58  H   UNL A   1      41.710  29.054  28.686  1.00  0.00     0.167 HD
ATOM     59  C   UNL A   1      45.770  28.429  27.308  1.00  0.00     0.034 A 
ATOM     60  C   UNL A   1      39.767  30.457  30.171  1.00  0.00     0.034 A 
ATOM     61  C   UNL A   1      45.817  29.706  27.973  1.00  0.00     0.049 A 
ATOM     62  C   UNL A   1      40.989  31.326  30.221  1.00  0.00     0.074 A 
ATOM     63  C   UNL A   1      46.888  30.578  28.084  1.00  0.00     0.029 A 
ATOM     64  N   UNL A   1      44.743  30.315  28.600  1.00  0.00    -0.354 N 
ATOM     65  N   UNL A   1      42.170  31.120  29.692  1.00  0.00    -0.248 NA
ATOM     66  C   UNL A   1      40.875  32.591  30.965  1.00  0.00     0.031 C 
ATOM     67  C   UNL A   1      46.459  31.717  28.773  1.00  0.00     0.029 A 
ATOM     68  C   UNL A   1      45.119  31.557  29.085  1.00  0.00     0.049 A 
ATOM     69  H   UNL A   1      43.844  29.923  28.688  1.00  0.00     0.167 HD
ATOM     70  C   UNL A   1      42.938  32.225  30.038  1.00  0.00     0.074 A 
ATOM     71  C   UNL A   1      42.079  33.118  30.788  1.00  0.00     0.031 C 
ATOM     72  C   UNL A   1      44.248  32.462  29.787  1.00  0.00     0.034 A 
BRANCH  59  73
ATOM     73  C   UNL A   1      47.038  27.941  26.656  1.00  0.00     0.023 A 
ATOM     74  C   UNL A   1      48.012  27.268  27.416  1.00  0.00     0.012 A 
ATOM     75  C   UNL A   1      47.216  28.069  25.261  1.00  0.00     0.148 A 
ATOM     76  C   UNL A   1      49.154  26.749  26.806  1.00  0.00     0.002 A 
ATOM     77  C   UNL A   1      48.335  27.511  24.653  1.00  0.00     0.091 A 
ATOM     78  F   UNL A   1      46.289  28.734  24.557  1.00  0.00    -0.205 F 
ATOM     79  C   UNL A   1      49.309  26.859  25.425  1.00  0.00     0.022 A 
BRANCH  77  80
ATOM     80  S   UNL A   1      48.568  27.528  22.871  1.00  0.00     0.127 S 
ATOM     81  O   UNL A   1      48.565  26.100  22.561  1.00  0.00    -0.237 OA
ATOM     82  O   UNL A   1      47.385  28.254  22.408  1.00  0.00    -0.237 OA
ATOM     83  O   UNL A   1      49.828  28.221  22.644  1.00  0.00    -0.744 OA
ENDBRANCH  77  80
ENDBRANCH  59  73
BRANCH  60  84
ATOM     84  C   UNL A   1      38.492  30.885  30.819  1.00  0.00     0.023 A 
ATOM     85  C   UNL A   1      38.299  30.665  32.195  1.00  0.00     0.012 A 
ATOM     86  C   UNL A   1      37.504  31.576  30.091  1.00  0.00     0.148 A 
ATOM     87  C   UNL A   1      37.147  31.130  32.834  1.00  0.00     0.002 A 
ATOM     88  C   UNL A   1      36.402  32.107  30.749  1.00  0.00     0.091 A 
ATOM     89  F   UNL A   1      37.677  31.735  28.771  1.00  0.00    -0.205 F 
ATOM     90  C   UNL A   1      36.211  31.870  32.116  1.00  0.00     0.022 A 
BRANCH  88  91
ATOM     91  S   UNL A   1      35.277  33.239  29.921  1.00  0.00     0.127 S 
ATOM     92  O   UNL A   1      34.443  32.325  29.148  1.00  0.00    -0.237 OA
ATOM     93  O   UNL A   1      34.603  33.887  31.048  1.00  0.00    -0.237 OA
ATOM     94  O   UNL A   1      36.136  34.132  29.155  1.00  0.00    -0.744 OA
ENDBRANCH  88  91
ENDBRANCH  60  84
BRANCH  72  95
ATOM     95  C   UNL A   1      44.836  33.744  30.309  1.00  0.00     0.023 A 
ATOM     96  C   UNL A   1      45.492  33.748  31.556  1.00  0.00     0.012 A 
ATOM     97  C   UNL A   1      44.787  34.928  29.549  1.00  0.00     0.148 A 
ATOM     98  C   UNL A   1      46.066  34.918  32.051  1.00  0.00     0.002 A 
ATOM     99  C   UNL A   1      45.394  36.083  30.032  1.00  0.00     0.091 A 
ATOM    100  F   UNL A   1      44.140  34.910  28.374  1.00  0.00    -0.205 F 
ATOM    101  C   UNL A   1      46.026  36.081  31.287  1.00  0.00     0.022 A 
BRANCH  99 102
ATOM    102  S   UNL A   1      45.454  37.604  29.079  1.00  0.00     0.127 S 
ATOM    103  O   UNL A   1      46.167  37.174  27.877  1.00  0.00    -0.237 OA
ATOM    104  O   UNL A   1      44.037  37.902  28.873  1.00  0.00    -0.237 OA
ATOM    105  O   UNL A   1      46.156  38.569  29.916  1.00  0.00    -0.744 OA
ENDBRANCH  99 102
ENDBRANCH  72  95
ENDBRANCH  46  47
ENDBRANCH  39  41
ENDBRANCH  38  39
ENDBRANCH  37  38
ENDBRANCH  36  37
ENDBRANCH   1  36
TORSDOF 25
ENDMDL
