MODEL 1
REMARK VINA RESULT:     -11.7      0.000      0.000
REMARK SMILES C[C@H](NC(=O)c1ccc(C(C)(C)C)cc1)C(=O)N[C@@H](C(=O)OCCOC(=O)c1ccc(-c2c3nc(c(-c4cccc(S(=O)(=O)[O-])c4F)c4ccc([nH]4)c(-c4cccc(S(=O)(=O)[O-])c4F)c4nc(c(-c5cccc(S(=O)(=O)[O-])c5F)c5ccc2[nH]5)C=C4)C=C3)cc1)[C@H](C)O
REMARK SMILES IDX 23 1 22 2 20 3 21 4 19 5 18 6 16 7 17 8 2 10 1 11 3 12 4 13
REMARK SMILES IDX 5 15 6 16 7 17 15 18 8 19 14 20 9 21 10 22 11 23 12 24 13 25
REMARK SMILES IDX 91 26 92 27 93 28 24 30 25 31 26 32 27 33 28 34 29 35 90 36
REMARK SMILES IDX 30 37 89 38 31 39 32 40 33 41 83 42 34 43 88 44 82 45 84 46
REMARK SMILES IDX 35 47 87 48 81 49 80 50 36 52 68 53 48 54 67 55 49 56 52 57
REMARK SMILES IDX 66 58 85 59 50 60 51 61 65 63 86 64 53 65 37 66 38 67 46 68
REMARK SMILES IDX 39 69 41 70 47 71 40 72 42 73 43 74 44 75 45 76 69 77 70 78
REMARK SMILES IDX 78 79 71 80 73 81 79 82 72 83 74 84 75 85 76 86 77 87 54 88
REMARK SMILES IDX 55 89 63 90 56 91 58 92 64 93 57 94 59 95 60 96 61 97 62 98
REMARK H PARENT 18 9 3 14 93 29 84 51 52 62
REMARK Flexibility Score: inf
ROOT
ATOM      1  C   UNL A   1      31.874  28.243  26.390  1.00  0.00     0.274 C 
ENDROOT
BRANCH   1   2
ATOM      2  O   UNL A   1      31.734  27.513  25.152  1.00  0.00    -0.460 OA
BRANCH   2   3
ATOM      3  C   UNL A   1      32.806  26.759  24.796  1.00  0.00     0.331 C 
ATOM      4  O   UNL A   1      33.680  26.394  25.574  1.00  0.00    -0.250 OA
BRANCH   3   5
ATOM      5  C   UNL A   1      32.844  26.366  23.319  1.00  0.00     0.221 C 
BRANCH   5   6
ATOM      6  N   UNL A   1      33.829  25.358  22.950  1.00  0.00    -0.339 N 
ATOM      7  C   UNL A   1      33.709  24.003  22.971  1.00  0.00     0.243 C 
ATOM      8  O   UNL A   1      34.556  23.334  22.372  1.00  0.00    -0.273 OA
ATOM      9  H   UNL A   1      34.699  25.704  22.646  1.00  0.00     0.164 HD
BRANCH   7  10
ATOM     10  C   UNL A   1      32.582  23.308  23.768  1.00  0.00     0.168 C 
ATOM     11  C   UNL A   1      31.137  23.706  23.502  1.00  0.00     0.041 C 
BRANCH  10  12
ATOM     12  N   UNL A   1      32.943  23.345  25.189  1.00  0.00    -0.341 N 
ATOM     13  C   UNL A   1      33.509  22.340  25.940  1.00  0.00     0.251 C 
ATOM     14  H   UNL A   1      32.758  24.188  25.663  1.00  0.00     0.164 HD
ATOM     15  O   UNL A   1      33.869  22.529  27.091  1.00  0.00    -0.269 OA
BRANCH  13  16
ATOM     16  C   UNL A   1      33.568  20.989  25.352  1.00  0.00     0.039 A 
ATOM     17  C   UNL A   1      34.813  20.516  24.953  1.00  0.00     0.014 A 
ATOM     18  C   UNL A   1      32.451  20.156  25.336  1.00  0.00     0.014 A 
ATOM     19  C   UNL A   1      34.959  19.166  24.634  1.00  0.00     0.005 A 
ATOM     20  C   UNL A   1      32.612  18.799  25.047  1.00  0.00     0.005 A 
ATOM     21  C   UNL A   1      33.876  18.268  24.731  1.00  0.00    -0.043 A 
BRANCH  21  22
ATOM     22  C   UNL A   1      34.094  16.766  24.482  1.00  0.00    -0.013 C 
ATOM     23  C   UNL A   1      34.377  16.562  22.983  1.00  0.00     0.016 C 
ATOM     24  C   UNL A   1      35.291  16.237  25.308  1.00  0.00     0.016 C 
ATOM     25  C   UNL A   1      32.879  15.893  24.871  1.00  0.00     0.016 C 
ENDBRANCH  21  22
ENDBRANCH  13  16
ENDBRANCH  10  12
ENDBRANCH   7  10
ENDBRANCH   5   6
BRANCH   5  26
ATOM     26  C   UNL A   1      32.974  27.568  22.363  1.00  0.00     0.145 C 
ATOM     27  C   UNL A   1      33.952  28.610  22.914  1.00  0.00     0.041 C 
BRANCH  26  28
ATOM     28  O   UNL A   1      31.719  28.234  22.201  1.00  0.00    -0.391 OA
ATOM     29  H   UNL A   1      31.874  29.166  21.983  1.00  0.00     0.211 HD
ENDBRANCH  26  28
ENDBRANCH   5  26
ENDBRANCH   3   5
ENDBRANCH   2   3
ENDBRANCH   1   2
BRANCH   1  30
ATOM     30  C   UNL A   1      31.746  29.755  26.183  1.00  0.00     0.275 C 
BRANCH  30  31
ATOM     31  O   UNL A   1      33.032  30.383  26.025  1.00  0.00    -0.458 OA
BRANCH  31  32
ATOM     32  C   UNL A   1      33.277  31.401  26.876  1.00  0.00     0.338 C 
ATOM     33  O   UNL A   1      32.592  32.398  27.056  1.00  0.00    -0.246 OA
BRANCH  32  34
ATOM     34  C   UNL A   1      34.416  31.096  27.745  1.00  0.00     0.060 A 
ATOM     35  C   UNL A   1      35.333  32.113  27.994  1.00  0.00     0.016 A 
ATOM     36  C   UNL A   1      34.699  29.786  28.120  1.00  0.00     0.016 A 
ATOM     37  C   UNL A   1      36.583  31.816  28.512  1.00  0.00     0.010 A 
ATOM     38  C   UNL A   1      35.903  29.512  28.775  1.00  0.00     0.010 A 
ATOM     39  C   UNL A   1      36.865  30.523  28.958  1.00  0.00    -0.014 A 
BRANCH  39  40
ATOM     40  C   UNL A   1      38.138  30.252  29.671  1.00  0.00     0.031 A 
ATOM     41  C   UNL A   1      39.176  29.352  29.068  1.00  0.00     0.074 A 
ATOM     42  C   UNL A   1      38.331  30.796  30.891  1.00  0.00     0.049 A 
ATOM     43  N   UNL A   1      40.230  28.823  29.629  1.00  0.00    -0.248 NA
ATOM     44  C   UNL A   1      39.000  28.987  27.652  1.00  0.00     0.031 C 
ATOM     45  C   UNL A   1      37.408  31.715  31.567  1.00  0.00     0.029 A 
ATOM     46  N   UNL A   1      39.354  30.642  31.791  1.00  0.00    -0.354 N 
ATOM     47  C   UNL A   1      40.805  28.006  28.664  1.00  0.00     0.074 A 
ATOM     48  C   UNL A   1      39.992  28.123  27.472  1.00  0.00     0.031 C 
ATOM     49  C   UNL A   1      37.906  32.045  32.764  1.00  0.00     0.029 A 
ATOM     50  C   UNL A   1      39.127  31.287  32.985  1.00  0.00     0.049 A 
ATOM     51  H   UNL A   1      40.169  30.123  31.602  1.00  0.00     0.167 HD
ATOM     52  C   UNL A   1      41.910  27.231  28.769  1.00  0.00     0.034 A 
ATOM     53  C   UNL A   1      39.786  31.223  34.157  1.00  0.00     0.034 A 
ATOM     54  C   UNL A   1      42.736  27.171  29.946  1.00  0.00     0.049 A 
ATOM     55  C   UNL A   1      40.986  30.330  34.256  1.00  0.00     0.074 A 
ATOM     56  C   UNL A   1      43.901  26.452  30.145  1.00  0.00     0.029 A 
ATOM     57  N   UNL A   1      42.486  27.860  31.124  1.00  0.00    -0.354 N 
ATOM     58  N   UNL A   1      41.542  29.595  33.325  1.00  0.00    -0.248 NA
ATOM     59  C   UNL A   1      41.651  30.258  35.563  1.00  0.00     0.031 C 
ATOM     60  C   UNL A   1      44.346  26.693  31.449  1.00  0.00     0.029 A 
ATOM     61  C   UNL A   1      43.467  27.575  32.058  1.00  0.00     0.049 A 
ATOM     62  H   UNL A   1      41.722  28.462  31.274  1.00  0.00     0.167 HD
ATOM     63  C   UNL A   1      42.634  28.985  33.926  1.00  0.00     0.074 A 
ATOM     64  C   UNL A   1      42.674  29.459  35.296  1.00  0.00     0.031 C 
ATOM     65  C   UNL A   1      43.512  28.096  33.401  1.00  0.00     0.034 A 
BRANCH  52  66
ATOM     66  C   UNL A   1      42.301  26.396  27.580  1.00  0.00     0.023 A 
ATOM     67  C   UNL A   1      43.119  26.947  26.573  1.00  0.00     0.012 A 
ATOM     68  C   UNL A   1      41.907  25.046  27.487  1.00  0.00     0.148 A 
ATOM     69  C   UNL A   1      43.514  26.177  25.479  1.00  0.00     0.002 A 
ATOM     70  C   UNL A   1      42.337  24.273  26.414  1.00  0.00     0.091 A 
ATOM     71  F   UNL A   1      41.108  24.546  28.441  1.00  0.00    -0.205 F 
ATOM     72  C   UNL A   1      43.133  24.838  25.405  1.00  0.00     0.022 A 
BRANCH  70  73
ATOM     73  S   UNL A   1      41.955  22.523  26.269  1.00  0.00     0.127 S 
ATOM     74  O   UNL A   1      42.641  22.173  25.026  1.00  0.00    -0.237 OA
ATOM     75  O   UNL A   1      42.566  21.971  27.479  1.00  0.00    -0.237 OA
ATOM     76  O   UNL A   1      40.502  22.434  26.233  1.00  0.00    -0.744 OA
ENDBRANCH  70  73
ENDBRANCH  52  66
BRANCH  53  77
ATOM     77  C   UNL A   1      39.308  32.026  35.317  1.00  0.00     0.023 A 
ATOM     78  C   UNL A   1      38.455  31.428  36.263  1.00  0.00     0.012 A 
ATOM     79  C   UNL A   1      39.745  33.350  35.525  1.00  0.00     0.148 A 
ATOM     80  C   UNL A   1      38.035  32.139  37.389  1.00  0.00     0.002 A 
ATOM     81  C   UNL A   1      39.372  34.031  36.679  1.00  0.00     0.091 A 
ATOM     82  F   UNL A   1      40.541  33.910  34.603  1.00  0.00    -0.205 F 
ATOM     83  C   UNL A   1      38.504  33.431  37.604  1.00  0.00     0.022 A 
BRANCH  81  84
ATOM     84  S   UNL A   1      40.054  35.637  37.105  1.00  0.00     0.127 S 
ATOM     85  O   UNL A   1      39.616  36.456  35.978  1.00  0.00    -0.237 OA
ATOM     86  O   UNL A   1      39.386  35.925  38.375  1.00  0.00    -0.237 OA
ATOM     87  O   UNL A   1      41.492  35.430  37.223  1.00  0.00    -0.744 OA
ENDBRANCH  81  84
ENDBRANCH  53  77
BRANCH  65  88
ATOM     88  C   UNL A   1      44.605  27.596  34.302  1.00  0.00     0.023 A 
ATOM     89  C   UNL A   1      45.831  28.288  34.357  1.00  0.00     0.012 A 
ATOM     90  C   UNL A   1      44.394  26.487  35.144  1.00  0.00     0.148 A 
ATOM     91  C   UNL A   1      46.840  27.869  35.222  1.00  0.00     0.002 A 
ATOM     92  C   UNL A   1      45.388  26.102  36.035  1.00  0.00     0.091 A 
ATOM     93  F   UNL A   1      43.227  25.832  35.057  1.00  0.00    -0.205 F 
ATOM     94  C   UNL A   1      46.615  26.786  36.069  1.00  0.00     0.022 A 
BRANCH  92  95
ATOM     95  S   UNL A   1      45.155  24.777  37.224  1.00  0.00     0.127 S 
ATOM     96  O   UNL A   1      45.405  23.593  36.402  1.00  0.00    -0.237 OA
ATOM     97  O   UNL A   1      46.191  25.063  38.215  1.00  0.00    -0.237 OA
ATOM     98  O   UNL A   1      43.791  24.915  37.717  1.00  0.00    -0.744 OA
ENDBRANCH  92  95
ENDBRANCH  65  88
ENDBRANCH  39  40
ENDBRANCH  32  34
ENDBRANCH  31  32
ENDBRANCH  30  31
ENDBRANCH   1  30
TORSDOF 21
ENDMDL
MODEL 2
REMARK VINA RESULT:     -11.6      1.421      1.897
REMARK SMILES C[C@H](NC(=O)c1ccc(C(C)(C)C)cc1)C(=O)N[C@@H](C(=O)OCCOC(=O)c1ccc(-c2c3nc(c(-c4cccc(S(=O)(=O)[O-])c4F)c4ccc([nH]4)c(-c4cccc(S(=O)(=O)[O-])c4F)c4nc(c(-c5cccc(S(=O)(=O)[O-])c5F)c5ccc2[nH]5)C=C4)C=C3)cc1)[C@H](C)O
REMARK SMILES IDX 23 1 22 2 20 3 21 4 19 5 18 6 16 7 17 8 2 10 1 11 3 12 4 13
REMARK SMILES IDX 5 15 6 16 7 17 15 18 8 19 14 20 9 21 10 22 11 23 12 24 13 25
REMARK SMILES IDX 91 26 92 27 93 28 24 30 25 31 26 32 27 33 28 34 29 35 90 36
REMARK SMILES IDX 30 37 89 38 31 39 32 40 33 41 83 42 34 43 88 44 82 45 84 46
REMARK SMILES IDX 35 47 87 48 81 49 80 50 36 52 68 53 48 54 67 55 49 56 52 57
REMARK SMILES IDX 66 58 85 59 50 60 51 61 65 63 86 64 53 65 37 66 38 67 46 68
REMARK SMILES IDX 39 69 41 70 47 71 40 72 42 73 43 74 44 75 45 76 69 77 70 78
REMARK SMILES IDX 78 79 71 80 73 81 79 82 72 83 74 84 75 85 76 86 77 87 54 88
REMARK SMILES IDX 55 89 63 90 56 91 58 92 64 93 57 94 59 95 60 96 61 97 62 98
REMARK H PARENT 18 9 3 14 93 29 84 51 52 62
REMARK Flexibility Score: inf
ROOT
ATOM      1  C   UNL A   1      31.393  29.709  25.220  1.00  0.00     0.274 C 
ENDROOT
BRANCH   1   2
ATOM      2  O   UNL A   1      32.481  28.971  24.621  1.00  0.00    -0.460 OA
BRANCH   2   3
ATOM      3  C   UNL A   1      32.463  27.631  24.835  1.00  0.00     0.331 C 
ATOM      4  O   UNL A   1      32.796  27.096  25.887  1.00  0.00    -0.250 OA
BRANCH   3   5
ATOM      5  C   UNL A   1      31.965  26.804  23.649  1.00  0.00     0.221 C 
BRANCH   5   6
ATOM      6  N   UNL A   1      32.985  26.078  22.904  1.00  0.00    -0.339 N 
ATOM      7  C   UNL A   1      33.201  24.736  22.845  1.00  0.00     0.243 C 
ATOM      8  O   UNL A   1      33.938  24.303  21.955  1.00  0.00    -0.273 OA
ATOM      9  H   UNL A   1      33.600  26.632  22.372  1.00  0.00     0.164 HD
BRANCH   7  10
ATOM     10  C   UNL A   1      32.594  23.777  23.893  1.00  0.00     0.168 C 
ATOM     11  C   UNL A   1      31.082  23.614  23.955  1.00  0.00     0.041 C 
BRANCH  10  12
ATOM     12  N   UNL A   1      33.200  24.084  25.193  1.00  0.00    -0.341 N 
ATOM     13  C   UNL A   1      33.894  23.232  26.021  1.00  0.00     0.251 C 
ATOM     14  H   UNL A   1      33.097  25.010  25.513  1.00  0.00     0.164 HD
ATOM     15  O   UNL A   1      34.449  23.634  27.030  1.00  0.00    -0.269 OA
BRANCH  13  16
ATOM     16  C   UNL A   1      33.854  21.790  25.716  1.00  0.00     0.039 A 
ATOM     17  C   UNL A   1      32.643  21.128  25.896  1.00  0.00     0.014 A 
ATOM     18  C   UNL A   1      34.938  21.142  25.126  1.00  0.00     0.014 A 
ATOM     19  C   UNL A   1      32.488  19.840  25.384  1.00  0.00     0.005 A 
ATOM     20  C   UNL A   1      34.764  19.866  24.588  1.00  0.00     0.005 A 
ATOM     21  C   UNL A   1      33.524  19.205  24.669  1.00  0.00    -0.043 A 
BRANCH  21  22
ATOM     22  C   UNL A   1      33.284  17.831  24.020  1.00  0.00    -0.013 C 
ATOM     23  C   UNL A   1      32.453  16.977  24.993  1.00  0.00     0.016 C 
ATOM     24  C   UNL A   1      32.520  17.978  22.682  1.00  0.00     0.016 C 
ATOM     25  C   UNL A   1      34.587  17.066  23.693  1.00  0.00     0.016 C 
ENDBRANCH  21  22
ENDBRANCH  13  16
ENDBRANCH  10  12
ENDBRANCH   7  10
ENDBRANCH   5   6
BRANCH   5  26
ATOM     26  C   UNL A   1      31.096  27.605  22.660  1.00  0.00     0.145 C 
ATOM     27  C   UNL A   1      29.614  27.525  23.036  1.00  0.00     0.041 C 
BRANCH  26  28
ATOM     28  O   UNL A   1      31.208  27.080  21.335  1.00  0.00    -0.391 OA
ATOM     29  H   UNL A   1      30.773  27.683  20.711  1.00  0.00     0.211 HD
ENDBRANCH  26  28
ENDBRANCH   5  26
ENDBRANCH   3   5
ENDBRANCH   2   3
ENDBRANCH   1   2
BRANCH   1  30
ATOM     30  C   UNL A   1      31.852  30.534  26.425  1.00  0.00     0.275 C 
BRANCH  30  31
ATOM     31  O   UNL A   1      33.283  30.496  26.583  1.00  0.00    -0.458 OA
BRANCH  31  32
ATOM     32  C   UNL A   1      33.802  31.506  27.312  1.00  0.00     0.338 C 
ATOM     33  O   UNL A   1      33.229  32.517  27.694  1.00  0.00    -0.246 OA
BRANCH  32  34
ATOM     34  C   UNL A   1      35.149  31.174  27.782  1.00  0.00     0.060 A 
ATOM     35  C   UNL A   1      35.379  29.876  28.229  1.00  0.00     0.016 A 
ATOM     36  C   UNL A   1      36.099  32.170  27.993  1.00  0.00     0.016 A 
ATOM     37  C   UNL A   1      36.502  29.586  28.988  1.00  0.00     0.010 A 
ATOM     38  C   UNL A   1      37.297  31.841  28.633  1.00  0.00     0.010 A 
ATOM     39  C   UNL A   1      37.500  30.550  29.155  1.00  0.00    -0.014 A 
BRANCH  39  40
ATOM     40  C   UNL A   1      38.775  30.180  29.817  1.00  0.00     0.031 A 
ATOM     41  C   UNL A   1      39.712  29.198  29.177  1.00  0.00     0.074 A 
ATOM     42  C   UNL A   1      39.061  30.709  31.024  1.00  0.00     0.049 A 
ATOM     43  N   UNL A   1      40.743  28.588  29.697  1.00  0.00    -0.248 NA
ATOM     44  C   UNL A   1      39.449  28.844  27.771  1.00  0.00     0.031 C 
ATOM     45  C   UNL A   1      38.243  31.700  31.732  1.00  0.00     0.029 A 
ATOM     46  N   UNL A   1      40.104  30.475  31.883  1.00  0.00    -0.354 N 
ATOM     47  C   UNL A   1      41.210  27.725  28.714  1.00  0.00     0.074 A 
ATOM     48  C   UNL A   1      40.362  27.904  27.555  1.00  0.00     0.031 C 
ATOM     49  C   UNL A   1      38.814  31.992  32.906  1.00  0.00     0.029 A 
ATOM     50  C   UNL A   1      39.979  31.139  33.082  1.00  0.00     0.049 A 
ATOM     51  H   UNL A   1      40.867  29.892  31.664  1.00  0.00     0.167 HD
ATOM     52  C   UNL A   1      42.254  26.864  28.778  1.00  0.00     0.034 A 
ATOM     53  C   UNL A   1      40.678  31.026  34.226  1.00  0.00     0.034 A 
ATOM     54  C   UNL A   1      43.120  26.741  29.921  1.00  0.00     0.049 A 
ATOM     55  C   UNL A   1      41.806  30.039  34.281  1.00  0.00     0.074 A 
ATOM     56  C   UNL A   1      44.231  25.931  30.076  1.00  0.00     0.029 A 
ATOM     57  N   UNL A   1      42.974  27.450  31.104  1.00  0.00    -0.354 N 
ATOM     58  N   UNL A   1      42.263  29.260  33.332  1.00  0.00    -0.248 NA
ATOM     59  C   UNL A   1      42.516  29.917  35.561  1.00  0.00     0.031 C 
ATOM     60  C   UNL A   1      44.746  26.139  31.360  1.00  0.00     0.029 A 
ATOM     61  C   UNL A   1      43.967  27.090  31.999  1.00  0.00     0.049 A 
ATOM     62  H   UNL A   1      42.268  28.112  31.282  1.00  0.00     0.167 HD
ATOM     63  C   UNL A   1      43.327  28.565  33.892  1.00  0.00     0.074 A 
ATOM     64  C   UNL A   1      43.461  29.038  35.256  1.00  0.00     0.031 C 
ATOM     65  C   UNL A   1      44.108  27.609  33.336  1.00  0.00     0.034 A 
BRANCH  52  66
ATOM     66  C   UNL A   1      42.528  25.997  27.579  1.00  0.00     0.023 A 
ATOM     67  C   UNL A   1      43.316  26.492  26.521  1.00  0.00     0.012 A 
ATOM     68  C   UNL A   1      42.052  24.672  27.524  1.00  0.00     0.148 A 
ATOM     69  C   UNL A   1      43.604  25.691  25.416  1.00  0.00     0.002 A 
ATOM     70  C   UNL A   1      42.375  23.867  26.437  1.00  0.00     0.091 A 
ATOM     71  F   UNL A   1      41.281  24.227  28.528  1.00  0.00    -0.205 F 
ATOM     72  C   UNL A   1      43.143  24.376  25.379  1.00  0.00     0.022 A 
BRANCH  70  73
ATOM     73  S   UNL A   1      41.885  22.140  26.335  1.00  0.00     0.127 S 
ATOM     74  O   UNL A   1      42.608  21.698  25.144  1.00  0.00    -0.237 OA
ATOM     75  O   UNL A   1      42.396  21.598  27.594  1.00  0.00    -0.237 OA
ATOM     76  O   UNL A   1      40.433  22.144  26.225  1.00  0.00    -0.744 OA
ENDBRANCH  70  73
ENDBRANCH  52  66
BRANCH  53  77
ATOM     77  C   UNL A   1      40.314  31.866  35.401  1.00  0.00     0.023 A 
ATOM     78  C   UNL A   1      40.921  33.125  35.561  1.00  0.00     0.012 A 
ATOM     79  C   UNL A   1      39.324  31.459  36.318  1.00  0.00     0.148 A 
ATOM     80  C   UNL A   1      40.559  33.958  36.621  1.00  0.00     0.002 A 
ATOM     81  C   UNL A   1      38.924  32.318  37.335  1.00  0.00     0.091 A 
ATOM     82  F   UNL A   1      38.770  30.247  36.161  1.00  0.00    -0.205 F 
ATOM     83  C   UNL A   1      39.553  33.561  37.497  1.00  0.00     0.022 A 
BRANCH  81  84
ATOM     84  S   UNL A   1      37.533  31.947  38.410  1.00  0.00     0.127 S 
ATOM     85  O   UNL A   1      38.116  32.146  39.733  1.00  0.00    -0.237 OA
ATOM     86  O   UNL A   1      36.557  32.961  38.006  1.00  0.00    -0.237 OA
ATOM     87  O   UNL A   1      37.142  30.582  38.082  1.00  0.00    -0.744 OA
ENDBRANCH  81  84
ENDBRANCH  53  77
BRANCH  65  88
ATOM     88  C   UNL A   1      45.194  27.024  34.195  1.00  0.00     0.023 A 
ATOM     89  C   UNL A   1      46.468  27.626  34.209  1.00  0.00     0.012 A 
ATOM     90  C   UNL A   1      44.934  25.927  35.038  1.00  0.00     0.148 A 
ATOM     91  C   UNL A   1      47.474  27.130  35.035  1.00  0.00     0.002 A 
ATOM     92  C   UNL A   1      45.929  25.465  35.891  1.00  0.00     0.091 A 
ATOM     93  F   UNL A   1      43.720  25.358  34.990  1.00  0.00    -0.205 F 
ATOM     94  C   UNL A   1      47.202  26.059  35.883  1.00  0.00     0.022 A 
BRANCH  92  95
ATOM     95  S   UNL A   1      45.643  24.151  37.080  1.00  0.00     0.127 S 
ATOM     96  O   UNL A   1      46.936  24.080  37.762  1.00  0.00    -0.237 OA
ATOM     97  O   UNL A   1      44.554  24.696  37.890  1.00  0.00    -0.237 OA
ATOM     98  O   UNL A   1      45.286  22.973  36.300  1.00  0.00    -0.744 OA
ENDBRANCH  92  95
ENDBRANCH  65  88
ENDBRANCH  39  40
ENDBRANCH  32  34
ENDBRANCH  31  32
ENDBRANCH  30  31
ENDBRANCH   1  30
TORSDOF 21
ENDMDL
MODEL 3
REMARK VINA RESULT:     -11.6      5.111     10.067
REMARK SMILES C[C@H](NC(=O)c1ccc(C(C)(C)C)cc1)C(=O)N[C@@H](C(=O)OCCOC(=O)c1ccc(-c2c3nc(c(-c4cccc(S(=O)(=O)[O-])c4F)c4ccc([nH]4)c(-c4cccc(S(=O)(=O)[O-])c4F)c4nc(c(-c5cccc(S(=O)(=O)[O-])c5F)c5ccc2[nH]5)C=C4)C=C3)cc1)[C@H](C)O
REMARK SMILES IDX 23 1 22 2 20 3 21 4 19 5 18 6 16 7 17 8 2 10 1 11 3 12 4 13
REMARK SMILES IDX 5 15 6 16 7 17 15 18 8 19 14 20 9 21 10 22 11 23 12 24 13 25
REMARK SMILES IDX 91 26 92 27 93 28 24 30 25 31 26 32 27 33 28 34 29 35 90 36
REMARK SMILES IDX 30 37 89 38 31 39 32 40 33 41 83 42 34 43 88 44 82 45 84 46
REMARK SMILES IDX 35 47 87 48 81 49 80 50 36 52 68 53 48 54 67 55 49 56 52 57
REMARK SMILES IDX 66 58 85 59 50 60 51 61 65 63 86 64 53 65 37 66 38 67 46 68
REMARK SMILES IDX 39 69 41 70 47 71 40 72 42 73 43 74 44 75 45 76 69 77 70 78
REMARK SMILES IDX 78 79 71 80 73 81 79 82 72 83 74 84 75 85 76 86 77 87 54 88
REMARK SMILES IDX 55 89 63 90 56 91 58 92 64 93 57 94 59 95 60 96 61 97 62 98
REMARK H PARENT 18 9 3 14 93 29 84 51 52 62
REMARK Flexibility Score: inf
ROOT
ATOM      1  C   UNL A   1      36.403  22.796  24.502  1.00  0.00     0.274 C 
ENDROOT
BRANCH   1   2
ATOM      2  O   UNL A   1      35.478  22.454  23.446  1.00  0.00    -0.460 OA
BRANCH   2   3
ATOM      3  C   UNL A   1      34.444  23.317  23.277  1.00  0.00     0.331 C 
ATOM      4  O   UNL A   1      34.575  24.510  23.028  1.00  0.00    -0.250 OA
BRANCH   3   5
ATOM      5  C   UNL A   1      33.059  22.681  23.400  1.00  0.00     0.221 C 
BRANCH   5   6
ATOM      6  N   UNL A   1      33.016  21.353  23.998  1.00  0.00    -0.339 N 
ATOM      7  C   UNL A   1      32.862  21.014  25.306  1.00  0.00     0.243 C 
ATOM      8  O   UNL A   1      32.585  19.841  25.575  1.00  0.00    -0.273 OA
ATOM      9  H   UNL A   1      33.111  20.600  23.371  1.00  0.00     0.164 HD
BRANCH   7  10
ATOM     10  C   UNL A   1      33.084  22.045  26.436  1.00  0.00     0.168 C 
ATOM     11  C   UNL A   1      34.212  21.816  27.432  1.00  0.00     0.041 C 
BRANCH  10  12
ATOM     12  N   UNL A   1      31.788  22.303  27.074  1.00  0.00    -0.341 N 
ATOM     13  C   UNL A   1      30.914  23.333  26.815  1.00  0.00     0.251 C 
ATOM     14  H   UNL A   1      31.512  21.665  27.771  1.00  0.00     0.164 HD
ATOM     15  O   UNL A   1      29.811  23.379  27.335  1.00  0.00    -0.269 OA
BRANCH  13  16
ATOM     16  C   UNL A   1      31.390  24.448  25.976  1.00  0.00     0.039 A 
ATOM     17  C   UNL A   1      30.634  24.777  24.856  1.00  0.00     0.014 A 
ATOM     18  C   UNL A   1      32.466  25.243  26.367  1.00  0.00     0.014 A 
ATOM     19  C   UNL A   1      30.896  25.970  24.183  1.00  0.00     0.005 A 
ATOM     20  C   UNL A   1      32.701  26.451  25.708  1.00  0.00     0.005 A 
ATOM     21  C   UNL A   1      31.895  26.860  24.629  1.00  0.00    -0.043 A 
BRANCH  21  22
ATOM     22  C   UNL A   1      32.083  28.220  23.935  1.00  0.00    -0.013 C 
ATOM     23  C   UNL A   1      32.974  28.009  22.698  1.00  0.00     0.016 C 
ATOM     24  C   UNL A   1      30.722  28.809  23.495  1.00  0.00     0.016 C 
ATOM     25  C   UNL A   1      32.748  29.286  24.836  1.00  0.00     0.016 C 
ENDBRANCH  21  22
ENDBRANCH  13  16
ENDBRANCH  10  12
ENDBRANCH   7  10
ENDBRANCH   5   6
BRANCH   5  26
ATOM     26  C   UNL A   1      32.268  22.662  22.077  1.00  0.00     0.145 C 
ATOM     27  C   UNL A   1      31.879  21.233  21.686  1.00  0.00     0.041 C 
BRANCH  26  28
ATOM     28  O   UNL A   1      33.054  23.178  21.001  1.00  0.00    -0.391 OA
ATOM     29  H   UNL A   1      33.949  23.373  21.319  1.00  0.00     0.211 HD
ENDBRANCH  26  28
ENDBRANCH   5  26
ENDBRANCH   3   5
ENDBRANCH   2   3
ENDBRANCH   1   2
BRANCH   1  30
ATOM     30  C   UNL A   1      37.394  21.664  24.786  1.00  0.00     0.275 C 
BRANCH  30  31
ATOM     31  O   UNL A   1      37.869  21.698  26.144  1.00  0.00    -0.458 OA
BRANCH  31  32
ATOM     32  C   UNL A   1      39.208  21.615  26.282  1.00  0.00     0.338 C 
ATOM     33  O   UNL A   1      39.950  20.759  25.821  1.00  0.00    -0.246 OA
BRANCH  32  34
ATOM     34  C   UNL A   1      39.745  22.817  26.926  1.00  0.00     0.060 A 
ATOM     35  C   UNL A   1      39.368  24.053  26.408  1.00  0.00     0.016 A 
ATOM     36  C   UNL A   1      40.768  22.730  27.865  1.00  0.00     0.016 A 
ATOM     37  C   UNL A   1      40.081  25.195  26.735  1.00  0.00     0.010 A 
ATOM     38  C   UNL A   1      41.391  23.902  28.302  1.00  0.00     0.010 A 
ATOM     39  C   UNL A   1      41.066  25.144  27.724  1.00  0.00    -0.014 A 
BRANCH  39  40
ATOM     40  C   UNL A   1      41.703  26.399  28.194  1.00  0.00     0.031 A 
ATOM     41  C   UNL A   1      40.901  27.436  28.923  1.00  0.00     0.074 A 
ATOM     42  C   UNL A   1      43.006  26.613  27.918  1.00  0.00     0.049 A 
ATOM     43  N   UNL A   1      41.219  28.672  29.204  1.00  0.00    -0.248 NA
ATOM     44  C   UNL A   1      39.561  27.039  29.387  1.00  0.00     0.031 C 
ATOM     45  C   UNL A   1      43.898  25.663  27.243  1.00  0.00     0.029 A 
ATOM     46  N   UNL A   1      43.806  27.702  28.149  1.00  0.00    -0.354 N 
ATOM     47  C   UNL A   1      40.098  29.224  29.811  1.00  0.00     0.074 A 
ATOM     48  C   UNL A   1      39.095  28.182  29.876  1.00  0.00     0.031 C 
ATOM     49  C   UNL A   1      45.115  26.205  27.121  1.00  0.00     0.029 A 
ATOM     50  C   UNL A   1      45.066  27.573  27.613  1.00  0.00     0.049 A 
ATOM     51  H   UNL A   1      43.509  28.497  28.648  1.00  0.00     0.167 HD
ATOM     52  C   UNL A   1      39.927  30.487  30.270  1.00  0.00     0.034 A 
ATOM     53  C   UNL A   1      46.055  28.474  27.465  1.00  0.00     0.034 A 
ATOM     54  C   UNL A   1      40.956  31.493  30.246  1.00  0.00     0.049 A 
ATOM     55  C   UNL A   1      45.827  29.874  27.950  1.00  0.00     0.074 A 
ATOM     56  C   UNL A   1      40.903  32.791  30.723  1.00  0.00     0.029 A 
ATOM     57  N   UNL A   1      42.226  31.313  29.719  1.00  0.00    -0.354 N 
ATOM     58  N   UNL A   1      44.778  30.372  28.558  1.00  0.00    -0.248 NA
ATOM     59  C   UNL A   1      46.915  30.835  27.732  1.00  0.00     0.031 C 
ATOM     60  C   UNL A   1      42.136  33.400  30.469  1.00  0.00     0.029 A 
ATOM     61  C   UNL A   1      42.963  32.477  29.848  1.00  0.00     0.049 A 
ATOM     62  H   UNL A   1      42.555  30.479  29.312  1.00  0.00     0.167 HD
ATOM     63  C   UNL A   1      45.084  31.701  28.814  1.00  0.00     0.074 A 
ATOM     64  C   UNL A   1      46.428  31.922  28.316  1.00  0.00     0.031 C 
ATOM     65  C   UNL A   1      44.317  32.659  29.387  1.00  0.00     0.034 A 
BRANCH  52  66
ATOM     66  C   UNL A   1      38.586  30.851  30.850  1.00  0.00     0.023 A 
ATOM     67  C   UNL A   1      38.317  30.596  32.209  1.00  0.00     0.012 A 
ATOM     68  C   UNL A   1      37.613  31.498  30.062  1.00  0.00     0.148 A 
ATOM     69  C   UNL A   1      37.090  30.955  32.768  1.00  0.00     0.002 A 
ATOM     70  C   UNL A   1      36.408  31.887  30.636  1.00  0.00     0.091 A 
ATOM     71  F   UNL A   1      37.878  31.709  28.764  1.00  0.00    -0.205 F 
ATOM     72  C   UNL A   1      36.141  31.609  31.986  1.00  0.00     0.022 A 
BRANCH  70  73
ATOM     73  S   UNL A   1      35.154  32.798  29.725  1.00  0.00     0.127 S 
ATOM     74  O   UNL A   1      35.918  33.946  29.239  1.00  0.00    -0.237 OA
ATOM     75  O   UNL A   1      34.768  31.840  28.688  1.00  0.00    -0.237 OA
ATOM     76  O   UNL A   1      34.104  33.102  30.687  1.00  0.00    -0.744 OA
ENDBRANCH  70  73
ENDBRANCH  52  66
BRANCH  53  77
ATOM     77  C   UNL A   1      47.336  28.066  26.822  1.00  0.00     0.023 A 
ATOM     78  C   UNL A   1      48.419  27.679  27.631  1.00  0.00     0.012 A 
ATOM     79  C   UNL A   1      47.464  27.994  25.420  1.00  0.00     0.148 A 
ATOM     80  C   UNL A   1      49.613  27.240  27.056  1.00  0.00     0.002 A 
ATOM     81  C   UNL A   1      48.634  27.498  24.855  1.00  0.00     0.091 A 
ATOM     82  F   UNL A   1      46.428  28.385  24.664  1.00  0.00    -0.205 F 
ATOM     83  C   UNL A   1      49.715  27.135  25.672  1.00  0.00     0.022 A 
BRANCH  81  84
ATOM     84  S   UNL A   1      48.788  27.187  23.092  1.00  0.00     0.127 S 
ATOM     85  O   UNL A   1      50.237  27.180  22.915  1.00  0.00    -0.237 OA
ATOM     86  O   UNL A   1      48.142  25.882  22.954  1.00  0.00    -0.237 OA
ATOM     87  O   UNL A   1      48.071  28.277  22.442  1.00  0.00    -0.744 OA
ENDBRANCH  81  84
ENDBRANCH  53  77
BRANCH  65  88
ATOM     88  C   UNL A   1      44.919  34.028  29.530  1.00  0.00     0.023 A 
ATOM     89  C   UNL A   1      45.591  34.370  30.720  1.00  0.00     0.012 A 
ATOM     90  C   UNL A   1      44.882  34.946  28.463  1.00  0.00     0.148 A 
ATOM     91  C   UNL A   1      46.199  35.617  30.854  1.00  0.00     0.002 A 
ATOM     92  C   UNL A   1      45.528  36.170  28.588  1.00  0.00     0.091 A 
ATOM     93  F   UNL A   1      44.217  34.606  27.349  1.00  0.00    -0.205 F 
ATOM     94  C   UNL A   1      46.178  36.511  29.786  1.00  0.00     0.022 A 
BRANCH  92  95
ATOM     95  S   UNL A   1      45.630  37.347  27.236  1.00  0.00     0.127 S 
ATOM     96  O   UNL A   1      44.220  37.673  27.018  1.00  0.00    -0.237 OA
ATOM     97  O   UNL A   1      46.422  38.427  27.824  1.00  0.00    -0.237 OA
ATOM     98  O   UNL A   1      46.283  36.645  26.140  1.00  0.00    -0.744 OA
ENDBRANCH  92  95
ENDBRANCH  65  88
ENDBRANCH  39  40
ENDBRANCH  32  34
ENDBRANCH  31  32
ENDBRANCH  30  31
ENDBRANCH   1  30
TORSDOF 21
ENDMDL
