MODEL 1
REMARK VINA RESULT:     -12.0      0.000      0.000
REMARK SMILES CNc1cc(-c2cncc(SCC(=O)OCCOC(=O)c3ccc(-c4c5nc(c(-c6cccc(S(=O)(=O)[O-])c6F)c6ccc([nH]6)c(-c6cccc(S(=O)(=O)[O-])c6F)c6nc(c(-c7cccc(S(=O)(=O)[O-])c7F)c7ccc4[nH]7)C=C6)C=C5)cc3)n2)c2cc[nH]c2n1
REMARK SMILES IDX 16 1 15 2 13 3 14 4 12 5 11 6 10 7 6 8 7 9 84 10 8 11 9 12
REMARK SMILES IDX 5 13 3 14 4 15 90 16 89 17 85 18 88 19 86 20 87 21 2 23 1 24
REMARK SMILES IDX 17 26 18 27 19 28 20 29 21 30 22 31 83 32 23 33 82 34 24 35
REMARK SMILES IDX 25 36 26 37 76 38 27 39 81 40 75 41 77 42 28 43 80 44 74 45
REMARK SMILES IDX 73 46 29 48 61 49 41 50 60 51 42 52 45 53 59 54 78 55 43 56
REMARK SMILES IDX 44 57 58 59 79 60 46 61 30 62 31 63 39 64 32 65 34 66 40 67
REMARK SMILES IDX 33 68 35 69 36 70 37 71 38 72 62 73 63 74 71 75 64 76 66 77
REMARK SMILES IDX 72 78 65 79 67 80 68 81 69 82 70 83 47 84 48 85 56 86 49 87
REMARK SMILES IDX 51 88 57 89 50 90 52 91 53 92 54 93 55 94
REMARK H PARENT 88 22 2 25 77 47 45 58
REMARK Flexibility Score: inf
ROOT
ATOM      1  C   UNL A   1      31.018  29.752  24.627  1.00  0.00     0.274 C 
ENDROOT
BRANCH   1   2
ATOM      2  O   UNL A   1      32.148  29.139  23.968  1.00  0.00    -0.461 OA
BRANCH   2   3
ATOM      3  C   UNL A   1      31.981  27.861  23.538  1.00  0.00     0.316 C 
ATOM      4  O   UNL A   1      32.685  27.338  22.675  1.00  0.00    -0.251 OA
BRANCH   3   5
ATOM      5  C   UNL A   1      30.915  27.055  24.262  1.00  0.00     0.199 C 
BRANCH   5   6
ATOM      6  S   UNL A   1      30.461  25.459  23.527  1.00  0.00    -0.093 SA
BRANCH   6   7
ATOM      7  C   UNL A   1      30.927  24.341  24.846  1.00  0.00     0.116 A 
ATOM      8  C   UNL A   1      32.056  22.421  25.538  1.00  0.00     0.091 A 
ATOM      9  C   UNL A   1      31.894  22.835  26.857  1.00  0.00     0.140 A 
ATOM     10  N   UNL A   1      31.539  23.178  24.530  1.00  0.00    -0.238 NA
ATOM     11  N   UNL A   1      31.253  23.980  27.209  1.00  0.00    -0.260 NA
ATOM     12  C   UNL A   1      30.795  24.726  26.172  1.00  0.00     0.146 A 
BRANCH   8  13
ATOM     13  C   UNL A   1      32.857  21.241  25.168  1.00  0.00     0.016 A 
ATOM     14  C   UNL A   1      33.114  18.897  24.488  1.00  0.00     0.128 A 
ATOM     15  C   UNL A   1      32.303  20.012  24.728  1.00  0.00     0.058 A 
ATOM     16  N   UNL A   1      34.450  18.924  24.612  1.00  0.00    -0.213 NA
ATOM     17  C   UNL A   1      34.953  20.097  25.003  1.00  0.00     0.140 A 
ATOM     18  C   UNL A   1      34.263  21.259  25.315  1.00  0.00     0.028 A 
ATOM     19  N   UNL A   1      36.292  20.326  25.146  1.00  0.00    -0.346 N 
ATOM     20  C   UNL A   1      35.260  22.190  25.741  1.00  0.00     0.030 A 
ATOM     21  C   UNL A   1      36.499  21.604  25.590  1.00  0.00     0.085 A 
ATOM     22  H   UNL A   1      37.002  19.670  24.958  1.00  0.00     0.167 HD
BRANCH  14  23
ATOM     23  N   UNL A   1      32.636  17.656  24.165  1.00  0.00    -0.373 N 
ATOM     24  C   UNL A   1      33.362  16.626  23.473  1.00  0.00     0.141 C 
ATOM     25  H   UNL A   1      31.711  17.451  24.430  1.00  0.00     0.161 HD
ENDBRANCH  14  23
ENDBRANCH   8  13
ENDBRANCH   6   7
ENDBRANCH   5   6
ENDBRANCH   3   5
ENDBRANCH   2   3
ENDBRANCH   1   2
BRANCH   1  26
ATOM     26  C   UNL A   1      31.427  30.553  25.875  1.00  0.00     0.275 C 
BRANCH  26  27
ATOM     27  O   UNL A   1      32.841  30.450  26.176  1.00  0.00    -0.458 OA
BRANCH  27  28
ATOM     28  C   UNL A   1      33.263  31.420  26.998  1.00  0.00     0.338 C 
ATOM     29  O   UNL A   1      32.633  32.443  27.256  1.00  0.00    -0.246 OA
BRANCH  28  30
ATOM     30  C   UNL A   1      34.524  31.153  27.675  1.00  0.00     0.060 A 
ATOM     31  C   UNL A   1      35.437  32.204  27.862  1.00  0.00     0.016 A 
ATOM     32  C   UNL A   1      34.908  29.827  27.911  1.00  0.00     0.016 A 
ATOM     33  C   UNL A   1      36.733  31.928  28.289  1.00  0.00     0.010 A 
ATOM     34  C   UNL A   1      36.202  29.561  28.348  1.00  0.00     0.010 A 
ATOM     35  C   UNL A   1      37.120  30.607  28.546  1.00  0.00    -0.014 A 
BRANCH  35  36
ATOM     36  C   UNL A   1      38.396  30.318  29.237  1.00  0.00     0.031 A 
ATOM     37  C   UNL A   1      39.437  29.423  28.646  1.00  0.00     0.074 A 
ATOM     38  C   UNL A   1      38.523  30.799  30.485  1.00  0.00     0.049 A 
ATOM     39  N   UNL A   1      40.445  28.840  29.239  1.00  0.00    -0.248 NA
ATOM     40  C   UNL A   1      39.332  29.126  27.210  1.00  0.00     0.031 C 
ATOM     41  C   UNL A   1      37.553  31.682  31.141  1.00  0.00     0.029 A 
ATOM     42  N   UNL A   1      39.481  30.584  31.438  1.00  0.00    -0.354 N 
ATOM     43  C   UNL A   1      41.024  28.010  28.289  1.00  0.00     0.074 A 
ATOM     44  C   UNL A   1      40.316  28.246  27.047  1.00  0.00     0.031 C 
ATOM     45  C   UNL A   1      37.944  31.898  32.403  1.00  0.00     0.029 A 
ATOM     46  C   UNL A   1      39.169  31.148  32.652  1.00  0.00     0.049 A 
ATOM     47  H   UNL A   1      40.309  30.077  31.272  1.00  0.00     0.167 HD
ATOM     48  C   UNL A   1      42.020  27.108  28.470  1.00  0.00     0.034 A 
ATOM     49  C   UNL A   1      39.786  31.051  33.843  1.00  0.00     0.034 A 
ATOM     50  C   UNL A   1      42.788  27.003  29.688  1.00  0.00     0.049 A 
ATOM     51  C   UNL A   1      41.043  30.241  33.933  1.00  0.00     0.074 A 
ATOM     52  C   UNL A   1      43.870  26.182  29.958  1.00  0.00     0.029 A 
ATOM     53  N   UNL A   1      42.581  27.770  30.826  1.00  0.00    -0.354 N 
ATOM     54  N   UNL A   1      41.593  29.481  33.017  1.00  0.00    -0.248 NA
ATOM     55  C   UNL A   1      41.791  30.308  35.194  1.00  0.00     0.031 C 
ATOM     56  C   UNL A   1      44.330  26.469  31.248  1.00  0.00     0.029 A 
ATOM     57  C   UNL A   1      43.536  27.469  31.782  1.00  0.00     0.049 A 
ATOM     58  H   UNL A   1      41.860  28.431  30.936  1.00  0.00     0.167 HD
ATOM     59  C   UNL A   1      42.757  28.985  33.585  1.00  0.00     0.074 A 
ATOM     60  C   UNL A   1      42.852  29.562  34.912  1.00  0.00     0.031 C 
ATOM     61  C   UNL A   1      43.648  28.107  33.068  1.00  0.00     0.034 A 
BRANCH  48  62
ATOM     62  C   UNL A   1      42.364  26.158  27.352  1.00  0.00     0.023 A 
ATOM     63  C   UNL A   1      43.313  26.517  26.376  1.00  0.00     0.012 A 
ATOM     64  C   UNL A   1      41.843  24.846  27.355  1.00  0.00     0.148 A 
ATOM     65  C   UNL A   1      43.730  25.588  25.419  1.00  0.00     0.002 A 
ATOM     66  C   UNL A   1      42.301  23.913  26.430  1.00  0.00     0.091 A 
ATOM     67  F   UNL A   1      40.910  24.529  28.266  1.00  0.00    -0.205 F 
ATOM     68  C   UNL A   1      43.240  24.285  25.456  1.00  0.00     0.022 A 
BRANCH  66  69
ATOM     69  S   UNL A   1      41.805  22.185  26.487  1.00  0.00     0.127 S 
ATOM     70  O   UNL A   1      42.544  21.630  25.356  1.00  0.00    -0.237 OA
ATOM     71  O   UNL A   1      42.290  21.760  27.800  1.00  0.00    -0.237 OA
ATOM     72  O   UNL A   1      40.354  22.189  26.356  1.00  0.00    -0.744 OA
ENDBRANCH  66  69
ENDBRANCH  48  62
BRANCH  49  73
ATOM     73  C   UNL A   1      39.246  31.817  34.996  1.00  0.00     0.023 A 
ATOM     74  C   UNL A   1      38.422  31.156  35.924  1.00  0.00     0.012 A 
ATOM     75  C   UNL A   1      39.646  33.143  35.248  1.00  0.00     0.148 A 
ATOM     76  C   UNL A   1      37.993  31.807  37.080  1.00  0.00     0.002 A 
ATOM     77  C   UNL A   1      39.259  33.767  36.428  1.00  0.00     0.091 A 
ATOM     78  F   UNL A   1      40.426  33.760  34.349  1.00  0.00    -0.205 F 
ATOM     79  C   UNL A   1      38.423  33.106  37.340  1.00  0.00     0.022 A 
BRANCH  77  80
ATOM     80  S   UNL A   1      39.915  35.376  36.890  1.00  0.00     0.127 S 
ATOM     81  O   UNL A   1      41.351  35.121  36.919  1.00  0.00    -0.237 OA
ATOM     82  O   UNL A   1      39.465  36.231  35.791  1.00  0.00    -0.237 OA
ATOM     83  O   UNL A   1      39.285  35.680  38.168  1.00  0.00    -0.744 OA
ENDBRANCH  77  80
ENDBRANCH  49  73
BRANCH  61  84
ATOM     84  C   UNL A   1      44.815  27.725  33.935  1.00  0.00     0.023 A 
ATOM     85  C   UNL A   1      45.995  28.491  33.876  1.00  0.00     0.012 A 
ATOM     86  C   UNL A   1      44.726  26.648  34.836  1.00  0.00     0.148 A 
ATOM     87  C   UNL A   1      47.083  28.174  34.688  1.00  0.00     0.002 A 
ATOM     88  C   UNL A   1      45.804  26.357  35.663  1.00  0.00     0.091 A 
ATOM     89  F   UNL A   1      43.601  25.918  34.856  1.00  0.00    -0.205 F 
ATOM     90  C   UNL A   1      46.984  27.114  35.587  1.00  0.00     0.022 A 
BRANCH  88  91
ATOM     91  S   UNL A   1      45.729  25.045  36.889  1.00  0.00     0.127 S 
ATOM     92  O   UNL A   1      44.610  25.478  37.722  1.00  0.00    -0.237 OA
ATOM     93  O   UNL A   1      45.459  23.861  36.071  1.00  0.00    -0.237 OA
ATOM     94  O   UNL A   1      47.035  25.040  37.535  1.00  0.00    -0.744 OA
ENDBRANCH  88  91
ENDBRANCH  61  84
ENDBRANCH  35  36
ENDBRANCH  28  30
ENDBRANCH  27  28
ENDBRANCH  26  27
ENDBRANCH   1  26
TORSDOF 18
ENDMDL
MODEL 2
REMARK VINA RESULT:     -11.8      4.829     10.071
REMARK SMILES CNc1cc(-c2cncc(SCC(=O)OCCOC(=O)c3ccc(-c4c5nc(c(-c6cccc(S(=O)(=O)[O-])c6F)c6ccc([nH]6)c(-c6cccc(S(=O)(=O)[O-])c6F)c6nc(c(-c7cccc(S(=O)(=O)[O-])c7F)c7ccc4[nH]7)C=C6)C=C5)cc3)n2)c2cc[nH]c2n1
REMARK SMILES IDX 16 1 15 2 13 3 14 4 12 5 11 6 10 7 6 8 7 9 84 10 8 11 9 12
REMARK SMILES IDX 5 13 3 14 4 15 90 16 89 17 85 18 88 19 86 20 87 21 2 23 1 24
REMARK SMILES IDX 17 26 18 27 19 28 20 29 21 30 22 31 83 32 23 33 82 34 24 35
REMARK SMILES IDX 25 36 26 37 76 38 27 39 81 40 75 41 77 42 28 43 80 44 74 45
REMARK SMILES IDX 73 46 29 48 61 49 41 50 60 51 42 52 45 53 59 54 78 55 43 56
REMARK SMILES IDX 44 57 58 59 79 60 46 61 30 62 31 63 39 64 32 65 34 66 40 67
REMARK SMILES IDX 33 68 35 69 36 70 37 71 38 72 62 73 63 74 71 75 64 76 66 77
REMARK SMILES IDX 72 78 65 79 67 80 68 81 69 82 70 83 47 84 48 85 56 86 49 87
REMARK SMILES IDX 51 88 57 89 50 90 52 91 53 92 54 93 55 94
REMARK H PARENT 88 22 2 25 77 47 45 58
REMARK Flexibility Score: inf
ROOT
ATOM      1  C   UNL A   1      35.271  20.804  24.546  1.00  0.00     0.274 C 
ENDROOT
BRANCH   1   2
ATOM      2  O   UNL A   1      34.314  19.739  24.742  1.00  0.00    -0.461 OA
BRANCH   2   3
ATOM      3  C   UNL A   1      33.079  20.105  25.176  1.00  0.00     0.316 C 
ATOM      4  O   UNL A   1      32.105  19.354  25.158  1.00  0.00    -0.251 OA
BRANCH   3   5
ATOM      5  C   UNL A   1      32.979  21.491  25.789  1.00  0.00     0.199 C 
BRANCH   5   6
ATOM      6  S   UNL A   1      31.456  22.421  25.454  1.00  0.00    -0.093 SA
BRANCH   6   7
ATOM      7  C   UNL A   1      32.093  23.744  24.428  1.00  0.00     0.116 A 
ATOM      8  C   UNL A   1      32.313  26.028  24.015  1.00  0.00     0.091 A 
ATOM      9  C   UNL A   1      33.303  25.737  23.082  1.00  0.00     0.140 A 
ATOM     10  N   UNL A   1      31.689  25.010  24.671  1.00  0.00    -0.238 NA
ATOM     11  N   UNL A   1      33.707  24.472  22.789  1.00  0.00    -0.260 NA
ATOM     12  C   UNL A   1      33.092  23.493  23.499  1.00  0.00     0.146 A 
BRANCH   8  13
ATOM     13  C   UNL A   1      31.972  27.407  24.407  1.00  0.00     0.016 A 
ATOM     14  C   UNL A   1      30.721  29.505  24.165  1.00  0.00     0.128 A 
ATOM     15  C   UNL A   1      30.928  28.165  23.818  1.00  0.00     0.058 A 
ATOM     16  N   UNL A   1      31.451  30.141  25.094  1.00  0.00    -0.213 NA
ATOM     17  C   UNL A   1      32.412  29.402  25.655  1.00  0.00     0.140 A 
ATOM     18  C   UNL A   1      32.751  28.088  25.371  1.00  0.00     0.028 A 
ATOM     19  N   UNL A   1      33.230  29.866  26.645  1.00  0.00    -0.346 N 
ATOM     20  C   UNL A   1      33.885  27.802  26.193  1.00  0.00     0.030 A 
ATOM     21  C   UNL A   1      34.132  28.899  26.992  1.00  0.00     0.085 A 
ATOM     22  H   UNL A   1      33.178  30.763  27.049  1.00  0.00     0.167 HD
BRANCH  14  23
ATOM     23  N   UNL A   1      29.803  30.321  23.562  1.00  0.00    -0.373 N 
ATOM     24  C   UNL A   1      29.501  30.357  22.157  1.00  0.00     0.141 C 
ATOM     25  H   UNL A   1      29.305  30.940  24.143  1.00  0.00     0.161 HD
ENDBRANCH  14  23
ENDBRANCH   8  13
ENDBRANCH   6   7
ENDBRANCH   5   6
ENDBRANCH   3   5
ENDBRANCH   2   3
ENDBRANCH   1   2
BRANCH   1  26
ATOM     26  C   UNL A   1      36.648  20.477  25.149  1.00  0.00     0.275 C 
BRANCH  26  27
ATOM     27  O   UNL A   1      37.536  21.623  25.188  1.00  0.00    -0.458 OA
BRANCH  27  28
ATOM     28  C   UNL A   1      38.686  21.360  25.822  1.00  0.00     0.338 C 
ATOM     29  O   UNL A   1      39.194  20.244  25.920  1.00  0.00    -0.246 OA
BRANCH  28  30
ATOM     30  C   UNL A   1      39.387  22.525  26.343  1.00  0.00     0.060 A 
ATOM     31  C   UNL A   1      40.397  22.345  27.302  1.00  0.00     0.016 A 
ATOM     32  C   UNL A   1      38.890  23.804  26.065  1.00  0.00     0.016 A 
ATOM     33  C   UNL A   1      40.913  23.446  27.979  1.00  0.00     0.010 A 
ATOM     34  C   UNL A   1      39.418  24.901  26.740  1.00  0.00     0.010 A 
ATOM     35  C   UNL A   1      40.435  24.731  27.695  1.00  0.00    -0.014 A 
BRANCH  35  36
ATOM     36  C   UNL A   1      41.138  25.926  28.211  1.00  0.00     0.031 A 
ATOM     37  C   UNL A   1      40.443  26.971  29.022  1.00  0.00     0.074 A 
ATOM     38  C   UNL A   1      42.409  26.094  27.809  1.00  0.00     0.049 A 
ATOM     39  N   UNL A   1      40.827  28.193  29.283  1.00  0.00    -0.248 NA
ATOM     40  C   UNL A   1      39.141  26.614  29.605  1.00  0.00     0.031 C 
ATOM     41  C   UNL A   1      43.167  25.122  27.013  1.00  0.00     0.029 A 
ATOM     42  N   UNL A   1      43.271  27.145  27.965  1.00  0.00    -0.354 N 
ATOM     43  C   UNL A   1      39.769  28.795  29.951  1.00  0.00     0.074 A 
ATOM     44  C   UNL A   1      38.766  27.769  30.149  1.00  0.00     0.031 C 
ATOM     45  C   UNL A   1      44.365  25.640  26.716  1.00  0.00     0.029 A 
ATOM     46  C   UNL A   1      44.446  26.986  27.271  1.00  0.00     0.049 A 
ATOM     47  H   UNL A   1      43.069  27.935  28.518  1.00  0.00     0.167 HD
ATOM     48  C   UNL A   1      39.649  30.096  30.312  1.00  0.00     0.034 A 
ATOM     49  C   UNL A   1      45.466  27.840  27.077  1.00  0.00     0.034 A 
ATOM     50  C   UNL A   1      40.726  31.053  30.218  1.00  0.00     0.049 A 
ATOM     51  C   UNL A   1      45.400  29.191  27.720  1.00  0.00     0.074 A 
ATOM     52  C   UNL A   1      40.744  32.376  30.627  1.00  0.00     0.029 A 
ATOM     53  N   UNL A   1      41.990  30.778  29.715  1.00  0.00    -0.354 N 
ATOM     54  N   UNL A   1      44.402  29.738  28.372  1.00  0.00    -0.248 NA
ATOM     55  C   UNL A   1      46.605  30.025  27.647  1.00  0.00     0.031 C 
ATOM     56  C   UNL A   1      42.023  32.893  30.391  1.00  0.00     0.029 A 
ATOM     57  C   UNL A   1      42.803  31.892  29.837  1.00  0.00     0.049 A 
ATOM     58  H   UNL A   1      42.267  29.917  29.327  1.00  0.00     0.167 HD
ATOM     59  C   UNL A   1      44.860  30.976  28.796  1.00  0.00     0.074 A 
ATOM     60  C   UNL A   1      46.239  31.083  28.360  1.00  0.00     0.031 C 
ATOM     61  C   UNL A   1      44.190  31.950  29.458  1.00  0.00     0.034 A 
BRANCH  48  62
ATOM     62  C   UNL A   1      38.330  30.591  30.847  1.00  0.00     0.023 A 
ATOM     63  C   UNL A   1      38.053  30.538  32.226  1.00  0.00     0.012 A 
ATOM     64  C   UNL A   1      37.419  31.244  29.988  1.00  0.00     0.148 A 
ATOM     65  C   UNL A   1      36.889  31.117  32.738  1.00  0.00     0.002 A 
ATOM     66  C   UNL A   1      36.289  31.862  30.512  1.00  0.00     0.091 A 
ATOM     67  F   UNL A   1      37.675  31.253  28.671  1.00  0.00    -0.205 F 
ATOM     68  C   UNL A   1      36.018  31.793  31.886  1.00  0.00     0.022 A 
BRANCH  66  69
ATOM     69  S   UNL A   1      35.181  32.851  29.497  1.00  0.00     0.127 S 
ATOM     70  O   UNL A   1      34.189  33.283  30.479  1.00  0.00    -0.237 OA
ATOM     71  O   UNL A   1      36.061  33.914  29.012  1.00  0.00    -0.237 OA
ATOM     72  O   UNL A   1      34.694  31.953  28.458  1.00  0.00    -0.744 OA
ENDBRANCH  66  69
ENDBRANCH  48  62
BRANCH  49  73
ATOM     73  C   UNL A   1      46.652  27.380  26.309  1.00  0.00     0.023 A 
ATOM     74  C   UNL A   1      46.794  27.788  24.970  1.00  0.00     0.012 A 
ATOM     75  C   UNL A   1      47.692  26.661  26.925  1.00  0.00     0.148 A 
ATOM     76  C   UNL A   1      47.947  27.475  24.252  1.00  0.00     0.002 A 
ATOM     77  C   UNL A   1      48.862  26.399  26.221  1.00  0.00     0.091 A 
ATOM     78  F   UNL A   1      47.538  26.274  28.200  1.00  0.00    -0.205 F 
ATOM     79  C   UNL A   1      48.988  26.795  24.882  1.00  0.00     0.022 A 
BRANCH  77  80
ATOM     80  S   UNL A   1      50.294  25.673  27.030  1.00  0.00     0.127 S 
ATOM     81  O   UNL A   1      51.255  25.598  25.935  1.00  0.00    -0.237 OA
ATOM     82  O   UNL A   1      50.613  26.661  28.061  1.00  0.00    -0.237 OA
ATOM     83  O   UNL A   1      49.815  24.403  27.560  1.00  0.00    -0.744 OA
ENDBRANCH  77  80
ENDBRANCH  49  73
BRANCH  61  84
ATOM     84  C   UNL A   1      44.944  33.213  29.764  1.00  0.00     0.023 A 
ATOM     85  C   UNL A   1      45.639  33.321  30.983  1.00  0.00     0.012 A 
ATOM     86  C   UNL A   1      45.005  34.264  28.830  1.00  0.00     0.148 A 
ATOM     87  C   UNL A   1      46.367  34.471  31.281  1.00  0.00     0.002 A 
ATOM     88  C   UNL A   1      45.758  35.396  29.121  1.00  0.00     0.091 A 
ATOM     89  F   UNL A   1      44.315  34.149  27.686  1.00  0.00    -0.205 F 
ATOM     90  C   UNL A   1      46.435  35.504  30.348  1.00  0.00     0.022 A 
BRANCH  88  91
ATOM     91  S   UNL A   1      45.941  36.740  27.944  1.00  0.00     0.127 S 
ATOM     92  O   UNL A   1      46.818  37.655  28.670  1.00  0.00    -0.237 OA
ATOM     93  O   UNL A   1      46.567  36.076  26.799  1.00  0.00    -0.237 OA
ATOM     94  O   UNL A   1      44.591  37.223  27.690  1.00  0.00    -0.744 OA
ENDBRANCH  88  91
ENDBRANCH  61  84
ENDBRANCH  35  36
ENDBRANCH  28  30
ENDBRANCH  27  28
ENDBRANCH  26  27
ENDBRANCH   1  26
TORSDOF 18
ENDMDL
MODEL 3
REMARK VINA RESULT:     -11.7      1.359      2.187
REMARK SMILES CNc1cc(-c2cncc(SCC(=O)OCCOC(=O)c3ccc(-c4c5nc(c(-c6cccc(S(=O)(=O)[O-])c6F)c6ccc([nH]6)c(-c6cccc(S(=O)(=O)[O-])c6F)c6nc(c(-c7cccc(S(=O)(=O)[O-])c7F)c7ccc4[nH]7)C=C6)C=C5)cc3)n2)c2cc[nH]c2n1
REMARK SMILES IDX 16 1 15 2 13 3 14 4 12 5 11 6 10 7 6 8 7 9 84 10 8 11 9 12
REMARK SMILES IDX 5 13 3 14 4 15 90 16 89 17 85 18 88 19 86 20 87 21 2 23 1 24
REMARK SMILES IDX 17 26 18 27 19 28 20 29 21 30 22 31 83 32 23 33 82 34 24 35
REMARK SMILES IDX 25 36 26 37 76 38 27 39 81 40 75 41 77 42 28 43 80 44 74 45
REMARK SMILES IDX 73 46 29 48 61 49 41 50 60 51 42 52 45 53 59 54 78 55 43 56
REMARK SMILES IDX 44 57 58 59 79 60 46 61 30 62 31 63 39 64 32 65 34 66 40 67
REMARK SMILES IDX 33 68 35 69 36 70 37 71 38 72 62 73 63 74 71 75 64 76 66 77
REMARK SMILES IDX 72 78 65 79 67 80 68 81 69 82 70 83 47 84 48 85 56 86 49 87
REMARK SMILES IDX 51 88 57 89 50 90 52 91 53 92 54 93 55 94
REMARK H PARENT 88 22 2 25 77 47 45 58
REMARK Flexibility Score: inf
ROOT
ATOM      1  C   UNL A   1      31.272  30.384  25.094  1.00  0.00     0.274 C 
ENDROOT
BRANCH   1   2
ATOM      2  O   UNL A   1      31.000  28.967  25.011  1.00  0.00    -0.461 OA
BRANCH   2   3
ATOM      3  C   UNL A   1      31.133  28.393  23.787  1.00  0.00     0.316 C 
ATOM      4  O   UNL A   1      30.812  28.950  22.739  1.00  0.00    -0.251 OA
BRANCH   3   5
ATOM      5  C   UNL A   1      31.804  27.030  23.767  1.00  0.00     0.199 C 
BRANCH   5   6
ATOM      6  S   UNL A   1      30.738  25.602  23.426  1.00  0.00    -0.093 SA
BRANCH   6   7
ATOM      7  C   UNL A   1      31.154  24.538  24.806  1.00  0.00     0.116 A 
ATOM      8  C   UNL A   1      32.647  23.056  25.812  1.00  0.00     0.091 A 
ATOM      9  C   UNL A   1      31.937  23.191  27.002  1.00  0.00     0.140 A 
ATOM     10  N   UNL A   1      32.225  23.721  24.700  1.00  0.00    -0.238 NA
ATOM     11  N   UNL A   1      30.835  23.977  27.130  1.00  0.00    -0.260 NA
ATOM     12  C   UNL A   1      30.479  24.657  26.012  1.00  0.00     0.146 A 
BRANCH   8  13
ATOM     13  C   UNL A   1      33.906  22.296  25.720  1.00  0.00     0.016 A 
ATOM     14  C   UNL A   1      36.347  22.082  25.853  1.00  0.00     0.128 A 
ATOM     15  C   UNL A   1      35.178  22.823  26.058  1.00  0.00     0.058 A 
ATOM     16  N   UNL A   1      36.344  20.829  25.372  1.00  0.00    -0.213 NA
ATOM     17  C   UNL A   1      35.134  20.342  25.083  1.00  0.00     0.140 A 
ATOM     18  C   UNL A   1      33.909  20.982  25.195  1.00  0.00     0.028 A 
ATOM     19  N   UNL A   1      34.930  19.073  24.621  1.00  0.00    -0.346 N 
ATOM     20  C   UNL A   1      32.947  20.053  24.693  1.00  0.00     0.030 A 
ATOM     21  C   UNL A   1      33.597  18.876  24.384  1.00  0.00     0.085 A 
ATOM     22  H   UNL A   1      35.636  18.402  24.480  1.00  0.00     0.167 HD
BRANCH  14  23
ATOM     23  N   UNL A   1      37.609  22.568  26.058  1.00  0.00    -0.373 N 
ATOM     24  C   UNL A   1      37.980  23.955  26.127  1.00  0.00     0.141 C 
ATOM     25  H   UNL A   1      38.330  21.907  26.169  1.00  0.00     0.161 HD
ENDBRANCH  14  23
ENDBRANCH   8  13
ENDBRANCH   6   7
ENDBRANCH   5   6
ENDBRANCH   3   5
ENDBRANCH   2   3
ENDBRANCH   1   2
BRANCH   1  26
ATOM     26  C   UNL A   1      31.750  30.812  26.492  1.00  0.00     0.275 C 
BRANCH  26  27
ATOM     27  O   UNL A   1      33.166  30.582  26.701  1.00  0.00    -0.458 OA
BRANCH  27  28
ATOM     28  C   UNL A   1      33.748  31.565  27.401  1.00  0.00     0.338 C 
ATOM     29  O   UNL A   1      33.240  32.661  27.626  1.00  0.00    -0.246 OA
BRANCH  28  30
ATOM     30  C   UNL A   1      35.038  31.228  27.987  1.00  0.00     0.060 A 
ATOM     31  C   UNL A   1      36.039  32.211  28.049  1.00  0.00     0.016 A 
ATOM     32  C   UNL A   1      35.340  29.887  28.255  1.00  0.00     0.016 A 
ATOM     33  C   UNL A   1      37.342  31.852  28.385  1.00  0.00     0.010 A 
ATOM     34  C   UNL A   1      36.643  29.539  28.599  1.00  0.00     0.010 A 
ATOM     35  C   UNL A   1      37.649  30.517  28.673  1.00  0.00    -0.014 A 
BRANCH  35  36
ATOM     36  C   UNL A   1      38.953  30.157  29.273  1.00  0.00     0.031 A 
ATOM     37  C   UNL A   1      39.868  29.154  28.650  1.00  0.00     0.074 A 
ATOM     38  C   UNL A   1      39.223  30.686  30.479  1.00  0.00     0.049 A 
ATOM     39  N   UNL A   1      40.874  28.519  29.190  1.00  0.00    -0.248 NA
ATOM     40  C   UNL A   1      39.618  28.799  27.245  1.00  0.00     0.031 C 
ATOM     41  C   UNL A   1      38.383  31.675  31.163  1.00  0.00     0.029 A 
ATOM     42  N   UNL A   1      40.239  30.439  31.362  1.00  0.00    -0.354 N 
ATOM     43  C   UNL A   1      41.304  27.601  28.242  1.00  0.00     0.074 A 
ATOM     44  C   UNL A   1      40.514  27.834  27.051  1.00  0.00     0.031 C 
ATOM     45  C   UNL A   1      38.895  31.919  32.376  1.00  0.00     0.029 A 
ATOM     46  C   UNL A   1      40.076  31.084  32.565  1.00  0.00     0.049 A 
ATOM     47  H   UNL A   1      41.007  29.858  31.157  1.00  0.00     0.167 HD
ATOM     48  C   UNL A   1      42.239  26.630  28.391  1.00  0.00     0.034 A 
ATOM     49  C   UNL A   1      40.782  30.993  33.705  1.00  0.00     0.034 A 
ATOM     50  C   UNL A   1      43.097  26.520  29.547  1.00  0.00     0.049 A 
ATOM     51  C   UNL A   1      41.975  30.089  33.737  1.00  0.00     0.074 A 
ATOM     52  C   UNL A   1      44.132  25.628  29.772  1.00  0.00     0.029 A 
ATOM     53  N   UNL A   1      43.048  27.355  30.654  1.00  0.00    -0.354 N 
ATOM     54  N   UNL A   1      42.385  29.243  32.822  1.00  0.00    -0.248 NA
ATOM     55  C   UNL A   1      42.831  30.154  34.928  1.00  0.00     0.031 C 
ATOM     56  C   UNL A   1      44.720  25.937  31.003  1.00  0.00     0.029 A 
ATOM     57  C   UNL A   1      44.054  27.023  31.545  1.00  0.00     0.049 A 
ATOM     58  H   UNL A   1      42.392  28.077  30.786  1.00  0.00     0.167 HD
ATOM     59  C   UNL A   1      43.551  28.681  33.320  1.00  0.00     0.074 A 
ATOM     60  C   UNL A   1      43.803  29.311  34.602  1.00  0.00     0.031 C 
ATOM     61  C   UNL A   1      44.325  27.709  32.781  1.00  0.00     0.034 A 
BRANCH  48  62
ATOM     62  C   UNL A   1      42.412  25.603  27.301  1.00  0.00     0.023 A 
ATOM     63  C   UNL A   1      43.226  25.875  26.186  1.00  0.00     0.012 A 
ATOM     64  C   UNL A   1      41.874  24.308  27.460  1.00  0.00     0.148 A 
ATOM     65  C   UNL A   1      43.494  24.878  25.245  1.00  0.00     0.002 A 
ATOM     66  C   UNL A   1      42.187  23.307  26.546  1.00  0.00     0.091 A 
ATOM     67  F   UNL A   1      41.067  24.073  28.507  1.00  0.00    -0.205 F 
ATOM     68  C   UNL A   1      42.991  23.593  25.433  1.00  0.00     0.022 A 
BRANCH  66  69
ATOM     69  S   UNL A   1      41.673  21.599  26.782  1.00  0.00     0.127 S 
ATOM     70  O   UNL A   1      42.178  20.969  25.565  1.00  0.00    -0.237 OA
ATOM     71  O   UNL A   1      42.384  21.222  28.004  1.00  0.00    -0.237 OA
ATOM     72  O   UNL A   1      40.224  21.642  26.920  1.00  0.00    -0.744 OA
ENDBRANCH  66  69
ENDBRANCH  48  62
BRANCH  49  73
ATOM     73  C   UNL A   1      40.403  31.854  34.855  1.00  0.00     0.023 A 
ATOM     74  C   UNL A   1      40.854  33.186  34.883  1.00  0.00     0.012 A 
ATOM     75  C   UNL A   1      39.502  31.410  35.840  1.00  0.00     0.148 A 
ATOM     76  C   UNL A   1      40.425  34.059  35.882  1.00  0.00     0.002 A 
ATOM     77  C   UNL A   1      39.036  32.299  36.801  1.00  0.00     0.091 A 
ATOM     78  F   UNL A   1      39.088  30.134  35.803  1.00  0.00    -0.205 F 
ATOM     79  C   UNL A   1      39.503  33.621  36.831  1.00  0.00     0.022 A 
BRANCH  77  80
ATOM     80  S   UNL A   1      37.729  31.835  37.946  1.00  0.00     0.127 S 
ATOM     81  O   UNL A   1      38.372  32.041  39.239  1.00  0.00    -0.237 OA
ATOM     82  O   UNL A   1      36.670  32.793  37.625  1.00  0.00    -0.237 OA
ATOM     83  O   UNL A   1      37.403  30.458  37.596  1.00  0.00    -0.744 OA
ENDBRANCH  77  80
ENDBRANCH  49  73
BRANCH  61  84
ATOM     84  C   UNL A   1      45.527  27.275  33.570  1.00  0.00     0.023 A 
ATOM     85  C   UNL A   1      46.758  27.927  33.362  1.00  0.00     0.012 A 
ATOM     86  C   UNL A   1      45.429  26.265  34.544  1.00  0.00     0.148 A 
ATOM     87  C   UNL A   1      47.883  27.561  34.099  1.00  0.00     0.002 A 
ATOM     88  C   UNL A   1      46.548  25.926  35.295  1.00  0.00     0.091 A 
ATOM     89  F   UNL A   1      44.253  25.641  34.706  1.00  0.00    -0.205 F 
ATOM     90  C   UNL A   1      47.777  26.568  35.071  1.00  0.00     0.022 A 
BRANCH  88  91
ATOM     91  S   UNL A   1      46.473  24.700  36.607  1.00  0.00     0.127 S 
ATOM     92  O   UNL A   1      46.659  23.457  35.864  1.00  0.00    -0.237 OA
ATOM     93  O   UNL A   1      47.603  25.077  37.458  1.00  0.00    -0.237 OA
ATOM     94  O   UNL A   1      45.169  24.876  37.231  1.00  0.00    -0.744 OA
ENDBRANCH  88  91
ENDBRANCH  61  84
ENDBRANCH  35  36
ENDBRANCH  28  30
ENDBRANCH  27  28
ENDBRANCH  26  27
ENDBRANCH   1  26
TORSDOF 18
ENDMDL
