MODEL 1
REMARK VINA RESULT:     -11.5      0.000      0.000
REMARK SMILES CCOc1cc(C=O)ccc1OCc1ccc(C(=O)OCCOC(=O)c2ccc(-c3c4nc(c(-c5cccc(S(=O)(=O)[O-])c5F)c5ccc([nH]5)c(-c5cccc(S(=O)(=O)[O-])c5F)c5nc(c(-c6cccc(S(=O)(=O)[O-])c6F)c6ccc3[nH]6)C=C5)C=C4)cc2)cc1
REMARK SMILES IDX 21 1 20 2 18 3 19 4 17 5 14 6 15 7 90 8 16 9 89 10 13 11
REMARK SMILES IDX 12 12 11 13 4 14 5 15 6 16 10 17 9 18 3 19 2 20 1 21 7 22
REMARK SMILES IDX 8 23 22 24 23 25 24 26 25 27 26 28 27 29 88 30 28 31 87 32
REMARK SMILES IDX 29 33 30 34 31 35 81 36 32 37 86 38 80 39 82 40 33 41 85 42
REMARK SMILES IDX 79 43 78 44 34 46 66 47 46 48 65 49 47 50 50 51 64 52 83 53
REMARK SMILES IDX 48 54 49 55 63 57 84 58 51 59 35 60 36 61 44 62 37 63 39 64
REMARK SMILES IDX 45 65 38 66 40 67 41 68 42 69 43 70 67 71 68 72 76 73 69 74
REMARK SMILES IDX 71 75 77 76 70 77 72 78 73 79 74 80 75 81 52 82 53 83 61 84
REMARK SMILES IDX 54 85 56 86 62 87 55 88 57 89 58 90 59 91 60 92
REMARK H PARENT 82 45 50 56
REMARK Flexibility Score: inf
ROOT
ATOM      1  C   UNL A   1      35.159  20.536  24.891  1.00  0.00     0.275 C 
ENDROOT
BRANCH   1   2
ATOM      2  O   UNL A   1      34.001  20.002  25.575  1.00  0.00    -0.458 OA
BRANCH   2   3
ATOM      3  C   UNL A   1      32.867  19.949  24.832  1.00  0.00     0.338 C 
ATOM      4  O   UNL A   1      32.283  18.931  24.484  1.00  0.00    -0.246 OA
BRANCH   3   5
ATOM      5  C   UNL A   1      32.358  21.295  24.470  1.00  0.00     0.060 A 
ATOM      6  C   UNL A   1      31.148  23.773  23.794  1.00  0.00    -0.011 A 
ATOM      7  C   UNL A   1      31.063  23.261  25.091  1.00  0.00     0.008 A 
ATOM      8  C   UNL A   1      31.804  22.984  22.830  1.00  0.00     0.008 A 
ATOM      9  C   UNL A   1      31.624  22.026  25.409  1.00  0.00     0.016 A 
ATOM     10  C   UNL A   1      32.452  21.783  23.171  1.00  0.00     0.016 A 
BRANCH   6  11
ATOM     11  C   UNL A   1      30.507  25.142  23.566  1.00  0.00     0.265 C 
BRANCH  11  12
ATOM     12  O   UNL A   1      31.141  26.161  22.782  1.00  0.00    -0.485 OA
BRANCH  12  13
ATOM     13  C   UNL A   1      31.330  27.381  23.363  1.00  0.00     0.161 A 
ATOM     14  C   UNL A   1      30.475  28.491  23.259  1.00  0.00     0.161 A 
ATOM     15  C   UNL A   1      30.630  29.546  24.161  1.00  0.00     0.062 A 
ATOM     16  C   UNL A   1      31.669  29.497  25.108  1.00  0.00     0.018 A 
ATOM     17  C   UNL A   1      32.424  27.393  24.233  1.00  0.00     0.051 A 
ATOM     18  C   UNL A   1      32.591  28.446  25.118  1.00  0.00     0.015 A 
BRANCH  14  19
ATOM     19  O   UNL A   1      29.604  28.514  22.207  1.00  0.00    -0.490 OA
BRANCH  19  20
ATOM     20  C   UNL A   1      28.475  29.385  22.303  1.00  0.00     0.226 C 
ATOM     21  C   UNL A   1      27.418  28.640  23.113  1.00  0.00     0.049 C 
ENDBRANCH  19  20
ENDBRANCH  14  19
BRANCH  16  22
ATOM     22  C   UNL A   1      31.826  30.541  26.140  1.00  0.00     0.260 C 
ATOM     23  O   UNL A   1      32.505  30.381  27.144  1.00  0.00    -0.298 OA
ENDBRANCH  16  22
ENDBRANCH  12  13
ENDBRANCH  11  12
ENDBRANCH   6  11
ENDBRANCH   3   5
ENDBRANCH   2   3
ENDBRANCH   1   2
BRANCH   1  24
ATOM     24  C   UNL A   1      36.012  21.478  25.748  1.00  0.00     0.275 C 
BRANCH  24  25
ATOM     25  O   UNL A   1      37.227  21.863  25.083  1.00  0.00    -0.458 OA
BRANCH  25  26
ATOM     26  C   UNL A   1      38.358  21.418  25.677  1.00  0.00     0.338 C 
ATOM     27  O   UNL A   1      38.885  20.327  25.538  1.00  0.00    -0.246 OA
BRANCH  26  28
ATOM     28  C   UNL A   1      39.007  22.502  26.429  1.00  0.00     0.060 A 
ATOM     29  C   UNL A   1      38.575  23.785  26.134  1.00  0.00     0.016 A 
ATOM     30  C   UNL A   1      40.129  22.314  27.224  1.00  0.00     0.016 A 
ATOM     31  C   UNL A   1      39.311  24.897  26.518  1.00  0.00     0.010 A 
ATOM     32  C   UNL A   1      40.807  23.442  27.719  1.00  0.00     0.010 A 
ATOM     33  C   UNL A   1      40.431  24.746  27.340  1.00  0.00    -0.014 A 
BRANCH  33  34
ATOM     34  C   UNL A   1      41.191  25.952  27.780  1.00  0.00     0.031 A 
ATOM     35  C   UNL A   1      40.537  26.994  28.652  1.00  0.00     0.074 A 
ATOM     36  C   UNL A   1      42.476  26.118  27.400  1.00  0.00     0.049 A 
ATOM     37  N   UNL A   1      40.980  28.173  29.004  1.00  0.00    -0.248 NA
ATOM     38  C   UNL A   1      39.204  26.674  29.189  1.00  0.00     0.031 C 
ATOM     39  C   UNL A   1      43.245  25.180  26.578  1.00  0.00     0.029 A 
ATOM     40  N   UNL A   1      43.362  27.141  27.640  1.00  0.00    -0.354 N 
ATOM     41  C   UNL A   1      39.954  28.769  29.729  1.00  0.00     0.074 A 
ATOM     42  C   UNL A   1      38.867  27.814  29.779  1.00  0.00     0.031 C 
ATOM     43  C   UNL A   1      44.484  25.657  26.397  1.00  0.00     0.029 A 
ATOM     44  C   UNL A   1      44.571  26.980  27.000  1.00  0.00     0.049 A 
ATOM     45  H   UNL A   1      43.154  27.913  28.215  1.00  0.00     0.167 HD
ATOM     46  C   UNL A   1      39.919  29.997  30.302  1.00  0.00     0.034 A 
ATOM     47  C   UNL A   1      45.613  27.820  26.854  1.00  0.00     0.034 A 
ATOM     48  C   UNL A   1      41.024  30.920  30.294  1.00  0.00     0.049 A 
ATOM     49  C   UNL A   1      45.542  29.182  27.479  1.00  0.00     0.074 A 
ATOM     50  C   UNL A   1      41.106  32.167  30.891  1.00  0.00     0.029 A 
ATOM     51  N   UNL A   1      42.235  30.705  29.655  1.00  0.00    -0.354 N 
ATOM     52  N   UNL A   1      44.585  29.705  28.206  1.00  0.00    -0.248 NA
ATOM     53  C   UNL A   1      46.698  30.066  27.276  1.00  0.00     0.031 C 
ATOM     54  C   UNL A   1      42.351  32.720  30.578  1.00  0.00     0.029 A 
ATOM     55  C   UNL A   1      43.064  31.801  29.826  1.00  0.00     0.049 A 
ATOM     56  H   UNL A   1      42.471  29.891  29.153  1.00  0.00     0.167 HD
ATOM     57  C   UNL A   1      45.033  30.969  28.569  1.00  0.00     0.074 A 
ATOM     58  C   UNL A   1      46.359  31.121  28.005  1.00  0.00     0.031 C 
ATOM     59  C   UNL A   1      44.397  31.924  29.292  1.00  0.00     0.034 A 
BRANCH  46  60
ATOM     60  C   UNL A   1      38.641  30.422  30.980  1.00  0.00     0.023 A 
ATOM     61  C   UNL A   1      38.434  30.144  32.347  1.00  0.00     0.012 A 
ATOM     62  C   UNL A   1      37.663  31.149  30.269  1.00  0.00     0.148 A 
ATOM     63  C   UNL A   1      37.258  30.545  32.982  1.00  0.00     0.002 A 
ATOM     64  C   UNL A   1      36.517  31.587  30.922  1.00  0.00     0.091 A 
ATOM     65  F   UNL A   1      37.869  31.391  28.967  1.00  0.00    -0.205 F 
ATOM     66  C   UNL A   1      36.306  31.274  32.274  1.00  0.00     0.022 A 
BRANCH  64  67
ATOM     67  S   UNL A   1      35.273  32.605  30.119  1.00  0.00     0.127 S 
ATOM     68  O   UNL A   1      34.314  32.809  31.205  1.00  0.00    -0.237 OA
ATOM     69  O   UNL A   1      36.039  33.794  29.751  1.00  0.00    -0.237 OA
ATOM     70  O   UNL A   1      34.781  31.825  28.991  1.00  0.00    -0.744 OA
ENDBRANCH  64  67
ENDBRANCH  46  60
BRANCH  47  71
ATOM     71  C   UNL A   1      46.804  27.395  26.063  1.00  0.00     0.023 A 
ATOM     72  C   UNL A   1      46.880  27.711  24.693  1.00  0.00     0.012 A 
ATOM     73  C   UNL A   1      47.879  26.713  26.670  1.00  0.00     0.148 A 
ATOM     74  C   UNL A   1      47.992  27.335  23.938  1.00  0.00     0.002 A 
ATOM     75  C   UNL A   1      49.009  26.399  25.928  1.00  0.00     0.091 A 
ATOM     76  F   UNL A   1      47.780  26.407  27.972  1.00  0.00    -0.205 F 
ATOM     77  C   UNL A   1      49.060  26.692  24.557  1.00  0.00     0.022 A 
BRANCH  75  78
ATOM     78  S   UNL A   1      50.488  25.699  26.671  1.00  0.00     0.127 S 
ATOM     79  O   UNL A   1      51.346  25.509  25.504  1.00  0.00    -0.237 OA
ATOM     80  O   UNL A   1      50.905  26.771  27.576  1.00  0.00    -0.237 OA
ATOM     81  O   UNL A   1      50.054  24.480  27.340  1.00  0.00    -0.744 OA
ENDBRANCH  75  78
ENDBRANCH  47  71
BRANCH  59  82
ATOM     82  C   UNL A   1      45.142  33.207  29.551  1.00  0.00     0.023 A 
ATOM     83  C   UNL A   1      45.962  33.329  30.691  1.00  0.00     0.012 A 
ATOM     84  C   UNL A   1      45.073  34.272  28.631  1.00  0.00     0.148 A 
ATOM     85  C   UNL A   1      46.670  34.506  30.930  1.00  0.00     0.002 A 
ATOM     86  C   UNL A   1      45.824  35.420  28.848  1.00  0.00     0.091 A 
ATOM     87  F   UNL A   1      44.273  34.142  27.563  1.00  0.00    -0.205 F 
ATOM     88  C   UNL A   1      46.611  35.545  30.004  1.00  0.00     0.022 A 
BRANCH  86  89
ATOM     89  S   UNL A   1      45.887  36.768  27.663  1.00  0.00     0.127 S 
ATOM     90  O   UNL A   1      46.752  37.726  28.350  1.00  0.00    -0.237 OA
ATOM     91  O   UNL A   1      46.492  36.125  26.497  1.00  0.00    -0.237 OA
ATOM     92  O   UNL A   1      44.510  37.201  27.471  1.00  0.00    -0.744 OA
ENDBRANCH  86  89
ENDBRANCH  59  82
ENDBRANCH  33  34
ENDBRANCH  26  28
ENDBRANCH  25  26
ENDBRANCH  24  25
ENDBRANCH   1  24
TORSDOF 20
ENDMDL
MODEL 2
REMARK VINA RESULT:     -11.4      5.121     10.256
REMARK SMILES CCOc1cc(C=O)ccc1OCc1ccc(C(=O)OCCOC(=O)c2ccc(-c3c4nc(c(-c5cccc(S(=O)(=O)[O-])c5F)c5ccc([nH]5)c(-c5cccc(S(=O)(=O)[O-])c5F)c5nc(c(-c6cccc(S(=O)(=O)[O-])c6F)c6ccc3[nH]6)C=C5)C=C4)cc2)cc1
REMARK SMILES IDX 21 1 20 2 18 3 19 4 17 5 14 6 15 7 90 8 16 9 89 10 13 11
REMARK SMILES IDX 12 12 11 13 4 14 5 15 6 16 10 17 9 18 3 19 2 20 1 21 7 22
REMARK SMILES IDX 8 23 22 24 23 25 24 26 25 27 26 28 27 29 88 30 28 31 87 32
REMARK SMILES IDX 29 33 30 34 31 35 81 36 32 37 86 38 80 39 82 40 33 41 85 42
REMARK SMILES IDX 79 43 78 44 34 46 66 47 46 48 65 49 47 50 50 51 64 52 83 53
REMARK SMILES IDX 48 54 49 55 63 57 84 58 51 59 35 60 36 61 44 62 37 63 39 64
REMARK SMILES IDX 45 65 38 66 40 67 41 68 42 69 43 70 67 71 68 72 76 73 69 74
REMARK SMILES IDX 71 75 77 76 70 77 72 78 73 79 74 80 75 81 52 82 53 83 61 84
REMARK SMILES IDX 54 85 56 86 62 87 55 88 57 89 58 90 59 91 60 92
REMARK H PARENT 82 45 50 56
REMARK Flexibility Score: inf
ROOT
ATOM      1  C   UNL A   1      31.380  30.135  24.406  1.00  0.00     0.275 C 
ENDROOT
BRANCH   1   2
ATOM      2  O   UNL A   1      30.060  29.829  23.897  1.00  0.00    -0.458 OA
BRANCH   2   3
ATOM      3  C   UNL A   1      30.039  29.073  22.771  1.00  0.00     0.338 C 
ATOM      4  O   UNL A   1      29.806  29.476  21.640  1.00  0.00    -0.246 OA
BRANCH   3   5
ATOM      5  C   UNL A   1      30.355  27.647  23.035  1.00  0.00     0.060 A 
ATOM      6  C   UNL A   1      30.870  24.868  23.306  1.00  0.00    -0.011 A 
ATOM      7  C   UNL A   1      31.640  25.663  22.452  1.00  0.00     0.008 A 
ATOM      8  C   UNL A   1      29.799  25.490  23.975  1.00  0.00     0.008 A 
ATOM      9  C   UNL A   1      31.359  27.018  22.292  1.00  0.00     0.016 A 
ATOM     10  C   UNL A   1      29.573  26.875  23.887  1.00  0.00     0.016 A 
BRANCH   6  11
ATOM     11  C   UNL A   1      31.281  23.399  23.411  1.00  0.00     0.265 C 
BRANCH  11  12
ATOM     12  O   UNL A   1      31.610  22.786  24.664  1.00  0.00    -0.485 OA
BRANCH  12  13
ATOM     13  C   UNL A   1      32.932  22.646  24.973  1.00  0.00     0.161 A 
ATOM     14  C   UNL A   1      33.790  21.636  24.507  1.00  0.00     0.161 A 
ATOM     15  C   UNL A   1      35.169  21.809  24.642  1.00  0.00     0.062 A 
ATOM     16  C   UNL A   1      35.660  22.958  25.290  1.00  0.00     0.018 A 
ATOM     17  C   UNL A   1      33.424  23.726  25.711  1.00  0.00     0.051 A 
ATOM     18  C   UNL A   1      34.792  23.893  25.863  1.00  0.00     0.015 A 
BRANCH  14  19
ATOM     19  O   UNL A   1      33.212  20.491  24.038  1.00  0.00    -0.490 OA
BRANCH  19  20
ATOM     20  C   UNL A   1      33.024  19.419  24.964  1.00  0.00     0.226 C 
ATOM     21  C   UNL A   1      32.530  18.224  24.153  1.00  0.00     0.049 C 
ENDBRANCH  19  20
ENDBRANCH  14  19
BRANCH  16  22
ATOM     22  C   UNL A   1      37.106  23.236  25.384  1.00  0.00     0.260 C 
ATOM     23  O   UNL A   1      37.569  24.090  26.127  1.00  0.00    -0.298 OA
ENDBRANCH  16  22
ENDBRANCH  12  13
ENDBRANCH  11  12
ENDBRANCH   6  11
ENDBRANCH   3   5
ENDBRANCH   2   3
ENDBRANCH   1   2
BRANCH   1  24
ATOM     24  C   UNL A   1      31.395  30.593  25.869  1.00  0.00     0.275 C 
BRANCH  24  25
ATOM     25  O   UNL A   1      32.678  30.389  26.487  1.00  0.00    -0.458 OA
BRANCH  25  26
ATOM     26  C   UNL A   1      33.175  31.475  27.122  1.00  0.00     0.338 C 
ATOM     27  O   UNL A   1      32.576  32.494  27.419  1.00  0.00    -0.246 OA
BRANCH  26  28
ATOM     28  C   UNL A   1      34.548  31.221  27.580  1.00  0.00     0.060 A 
ATOM     29  C   UNL A   1      34.824  29.921  27.973  1.00  0.00     0.016 A 
ATOM     30  C   UNL A   1      35.470  32.229  27.826  1.00  0.00     0.016 A 
ATOM     31  C   UNL A   1      35.954  29.620  28.719  1.00  0.00     0.010 A 
ATOM     32  C   UNL A   1      36.675  31.905  28.473  1.00  0.00     0.010 A 
ATOM     33  C   UNL A   1      36.915  30.605  28.963  1.00  0.00    -0.014 A 
BRANCH  33  34
ATOM     34  C   UNL A   1      38.146  30.260  29.731  1.00  0.00     0.031 A 
ATOM     35  C   UNL A   1      39.176  29.326  29.149  1.00  0.00     0.074 A 
ATOM     36  C   UNL A   1      38.348  30.786  30.958  1.00  0.00     0.049 A 
ATOM     37  N   UNL A   1      40.223  28.789  29.721  1.00  0.00    -0.248 NA
ATOM     38  C   UNL A   1      39.000  28.931  27.741  1.00  0.00     0.031 C 
ATOM     39  C   UNL A   1      37.450  31.724  31.637  1.00  0.00     0.029 A 
ATOM     40  N   UNL A   1      39.366  30.600  31.863  1.00  0.00    -0.354 N 
ATOM     41  C   UNL A   1      40.781  27.933  28.778  1.00  0.00     0.074 A 
ATOM     42  C   UNL A   1      39.963  28.031  27.588  1.00  0.00     0.031 C 
ATOM     43  C   UNL A   1      37.959  32.043  32.835  1.00  0.00     0.029 A 
ATOM     44  C   UNL A   1      39.165  31.257  33.056  1.00  0.00     0.049 A 
ATOM     45  H   UNL A   1      40.162  30.051  31.676  1.00  0.00     0.167 HD
ATOM     46  C   UNL A   1      41.874  27.140  28.891  1.00  0.00     0.034 A 
ATOM     47  C   UNL A   1      39.832  31.195  34.224  1.00  0.00     0.034 A 
ATOM     48  C   UNL A   1      42.714  27.089  30.060  1.00  0.00     0.049 A 
ATOM     49  C   UNL A   1      41.027  30.293  34.331  1.00  0.00     0.074 A 
ATOM     50  C   UNL A   1      43.874  26.358  30.253  1.00  0.00     0.029 A 
ATOM     51  N   UNL A   1      42.486  27.790  31.234  1.00  0.00    -0.354 N 
ATOM     52  N   UNL A   1      41.569  29.533  33.411  1.00  0.00    -0.248 NA
ATOM     53  C   UNL A   1      41.709  30.247  35.631  1.00  0.00     0.031 C 
ATOM     54  C   UNL A   1      44.323  26.585  31.557  1.00  0.00     0.029 A 
ATOM     55  C   UNL A   1      43.471  27.494  32.162  1.00  0.00     0.049 A 
ATOM     56  H   UNL A   1      41.734  28.407  31.385  1.00  0.00     0.167 HD
ATOM     57  C   UNL A   1      42.672  28.938  34.012  1.00  0.00     0.074 A 
ATOM     58  C   UNL A   1      42.734  29.449  35.367  1.00  0.00     0.031 C 
ATOM     59  C   UNL A   1      43.544  28.039  33.494  1.00  0.00     0.034 A 
BRANCH  46  60
ATOM     60  C   UNL A   1      42.225  26.252  27.724  1.00  0.00     0.023 A 
ATOM     61  C   UNL A   1      43.017  26.744  26.667  1.00  0.00     0.012 A 
ATOM     62  C   UNL A   1      41.808  24.904  27.702  1.00  0.00     0.148 A 
ATOM     63  C   UNL A   1      43.352  25.923  25.589  1.00  0.00     0.002 A 
ATOM     64  C   UNL A   1      42.188  24.080  26.650  1.00  0.00     0.091 A 
ATOM     65  F   UNL A   1      41.042  24.457  28.707  1.00  0.00    -0.205 F 
ATOM     66  C   UNL A   1      42.948  24.591  25.586  1.00  0.00     0.022 A 
BRANCH  64  67
ATOM     67  S   UNL A   1      41.787  22.329  26.596  1.00  0.00     0.127 S 
ATOM     68  O   UNL A   1      40.327  22.363  26.512  1.00  0.00    -0.237 OA
ATOM     69  O   UNL A   1      42.458  21.898  25.370  1.00  0.00    -0.237 OA
ATOM     70  O   UNL A   1      42.329  21.753  27.820  1.00  0.00    -0.744 OA
ENDBRANCH  64  67
ENDBRANCH  46  60
BRANCH  47  71
ATOM     71  C   UNL A   1      39.367  32.000  35.390  1.00  0.00     0.023 A 
ATOM     72  C   UNL A   1      39.629  33.382  35.432  1.00  0.00     0.012 A 
ATOM     73  C   UNL A   1      38.633  31.408  36.440  1.00  0.00     0.148 A 
ATOM     74  C   UNL A   1      39.190  34.156  36.507  1.00  0.00     0.002 A 
ATOM     75  C   UNL A   1      38.145  32.196  37.474  1.00  0.00     0.091 A 
ATOM     76  F   UNL A   1      38.408  30.088  36.390  1.00  0.00    -0.205 F 
ATOM     77  C   UNL A   1      38.439  33.567  37.520  1.00  0.00     0.022 A 
BRANCH  75  78
ATOM     78  S   UNL A   1      37.051  31.550  38.744  1.00  0.00     0.127 S 
ATOM     79  O   UNL A   1      35.906  32.452  38.638  1.00  0.00    -0.237 OA
ATOM     80  O   UNL A   1      36.809  30.188  38.268  1.00  0.00    -0.237 OA
ATOM     81  O   UNL A   1      37.802  31.629  39.989  1.00  0.00    -0.744 OA
ENDBRANCH  75  78
ENDBRANCH  47  71
BRANCH  59  82
ATOM     82  C   UNL A   1      44.670  27.578  34.381  1.00  0.00     0.023 A 
ATOM     83  C   UNL A   1      45.894  28.277  34.391  1.00  0.00     0.012 A 
ATOM     84  C   UNL A   1      44.493  26.481  35.249  1.00  0.00     0.148 A 
ATOM     85  C   UNL A   1      46.936  27.868  35.221  1.00  0.00     0.002 A 
ATOM     86  C   UNL A   1      45.516  26.113  36.112  1.00  0.00     0.091 A 
ATOM     87  F   UNL A   1      43.329  25.818  35.210  1.00  0.00    -0.205 F 
ATOM     88  C   UNL A   1      46.744  26.796  36.090  1.00  0.00     0.022 A 
BRANCH  86  89
ATOM     89  S   UNL A   1      45.326  24.810  37.333  1.00  0.00     0.127 S 
ATOM     90  O   UNL A   1      46.624  24.840  38.004  1.00  0.00    -0.237 OA
ATOM     91  O   UNL A   1      44.209  25.304  38.139  1.00  0.00    -0.237 OA
ATOM     92  O   UNL A   1      45.041  23.594  36.584  1.00  0.00    -0.744 OA
ENDBRANCH  86  89
ENDBRANCH  59  82
ENDBRANCH  33  34
ENDBRANCH  26  28
ENDBRANCH  25  26
ENDBRANCH  24  25
ENDBRANCH   1  24
TORSDOF 20
ENDMDL
MODEL 3
REMARK VINA RESULT:     -11.3      5.010     10.260
REMARK SMILES CCOc1cc(C=O)ccc1OCc1ccc(C(=O)OCCOC(=O)c2ccc(-c3c4nc(c(-c5cccc(S(=O)(=O)[O-])c5F)c5ccc([nH]5)c(-c5cccc(S(=O)(=O)[O-])c5F)c5nc(c(-c6cccc(S(=O)(=O)[O-])c6F)c6ccc3[nH]6)C=C5)C=C4)cc2)cc1
REMARK SMILES IDX 21 1 20 2 18 3 19 4 17 5 14 6 15 7 90 8 16 9 89 10 13 11
REMARK SMILES IDX 12 12 11 13 4 14 5 15 6 16 10 17 9 18 3 19 2 20 1 21 7 22
REMARK SMILES IDX 8 23 22 24 23 25 24 26 25 27 26 28 27 29 88 30 28 31 87 32
REMARK SMILES IDX 29 33 30 34 31 35 81 36 32 37 86 38 80 39 82 40 33 41 85 42
REMARK SMILES IDX 79 43 78 44 34 46 66 47 46 48 65 49 47 50 50 51 64 52 83 53
REMARK SMILES IDX 48 54 49 55 63 57 84 58 51 59 35 60 36 61 44 62 37 63 39 64
REMARK SMILES IDX 45 65 38 66 40 67 41 68 42 69 43 70 67 71 68 72 76 73 69 74
REMARK SMILES IDX 71 75 77 76 70 77 72 78 73 79 74 80 75 81 52 82 53 83 61 84
REMARK SMILES IDX 54 85 56 86 62 87 55 88 57 89 58 90 59 91 60 92
REMARK H PARENT 82 45 50 56
REMARK Flexibility Score: inf
ROOT
ATOM      1  C   UNL A   1      31.696  29.614  24.605  1.00  0.00     0.275 C 
ENDROOT
BRANCH   1   2
ATOM      2  O   UNL A   1      30.394  29.520  23.980  1.00  0.00    -0.458 OA
BRANCH   2   3
ATOM      3  C   UNL A   1      30.373  28.866  22.792  1.00  0.00     0.338 C 
ATOM      4  O   UNL A   1      30.140  29.367  21.700  1.00  0.00    -0.246 OA
BRANCH   3   5
ATOM      5  C   UNL A   1      30.688  27.422  22.929  1.00  0.00     0.060 A 
ATOM      6  C   UNL A   1      31.337  24.706  23.438  1.00  0.00    -0.011 A 
ATOM      7  C   UNL A   1      30.154  25.266  23.926  1.00  0.00     0.008 A 
ATOM      8  C   UNL A   1      32.213  25.557  22.738  1.00  0.00     0.008 A 
ATOM      9  C   UNL A   1      29.858  26.610  23.708  1.00  0.00     0.016 A 
ATOM     10  C   UNL A   1      31.873  26.887  22.436  1.00  0.00     0.016 A 
BRANCH   6  11
ATOM     11  C   UNL A   1      31.547  23.219  23.726  1.00  0.00     0.265 C 
BRANCH  11  12
ATOM     12  O   UNL A   1      32.429  22.759  24.758  1.00  0.00    -0.485 OA
BRANCH  12  13
ATOM     13  C   UNL A   1      33.116  21.600  24.533  1.00  0.00     0.161 A 
ATOM     14  C   UNL A   1      34.467  21.365  24.836  1.00  0.00     0.161 A 
ATOM     15  C   UNL A   1      34.933  20.048  24.852  1.00  0.00     0.062 A 
ATOM     16  C   UNL A   1      34.057  19.002  24.509  1.00  0.00     0.018 A 
ATOM     17  C   UNL A   1      32.286  20.567  24.088  1.00  0.00     0.051 A 
ATOM     18  C   UNL A   1      32.750  19.261  24.085  1.00  0.00     0.015 A 
BRANCH  14  19
ATOM     19  O   UNL A   1      35.272  22.456  24.998  1.00  0.00    -0.490 OA
BRANCH  19  20
ATOM     20  C   UNL A   1      36.342  22.354  25.940  1.00  0.00     0.226 C 
ATOM     21  C   UNL A   1      37.180  23.620  25.786  1.00  0.00     0.049 C 
ENDBRANCH  19  20
ENDBRANCH  14  19
BRANCH  16  22
ATOM     22  C   UNL A   1      34.470  17.587  24.593  1.00  0.00     0.260 C 
ATOM     23  O   UNL A   1      33.862  16.687  24.032  1.00  0.00    -0.298 OA
ENDBRANCH  16  22
ENDBRANCH  12  13
ENDBRANCH  11  12
ENDBRANCH   6  11
ENDBRANCH   3   5
ENDBRANCH   2   3
ENDBRANCH   1   2
BRANCH   1  24
ATOM     24  C   UNL A   1      31.711  30.439  25.897  1.00  0.00     0.275 C 
BRANCH  24  25
ATOM     25  O   UNL A   1      32.893  30.198  26.680  1.00  0.00    -0.458 OA
BRANCH  25  26
ATOM     26  C   UNL A   1      33.429  31.305  27.243  1.00  0.00     0.338 C 
ATOM     27  O   UNL A   1      32.851  32.338  27.537  1.00  0.00    -0.246 OA
BRANCH  26  28
ATOM     28  C   UNL A   1      34.826  31.062  27.629  1.00  0.00     0.060 A 
ATOM     29  C   UNL A   1      35.135  29.764  27.999  1.00  0.00     0.016 A 
ATOM     30  C   UNL A   1      35.750  32.079  27.834  1.00  0.00     0.016 A 
ATOM     31  C   UNL A   1      36.305  29.470  28.685  1.00  0.00     0.010 A 
ATOM     32  C   UNL A   1      36.990  31.763  28.416  1.00  0.00     0.010 A 
ATOM     33  C   UNL A   1      37.267  30.463  28.885  1.00  0.00    -0.014 A 
BRANCH  33  34
ATOM     34  C   UNL A   1      38.540  30.126  29.588  1.00  0.00     0.031 A 
ATOM     35  C   UNL A   1      39.515  29.150  28.980  1.00  0.00     0.074 A 
ATOM     36  C   UNL A   1      38.829  30.698  30.776  1.00  0.00     0.049 A 
ATOM     37  N   UNL A   1      40.588  28.618  29.507  1.00  0.00    -0.248 NA
ATOM     38  C   UNL A   1      39.242  28.702  27.605  1.00  0.00     0.031 C 
ATOM     39  C   UNL A   1      37.991  31.680  31.471  1.00  0.00     0.029 A 
ATOM     40  N   UNL A   1      39.899  30.530  31.621  1.00  0.00    -0.354 N 
ATOM     41  C   UNL A   1      41.070  27.714  28.567  1.00  0.00     0.074 A 
ATOM     42  C   UNL A   1      40.178  27.779  27.428  1.00  0.00     0.031 C 
ATOM     43  C   UNL A   1      38.581  32.037  32.620  1.00  0.00     0.029 A 
ATOM     44  C   UNL A   1      39.786  31.239  32.797  1.00  0.00     0.049 A 
ATOM     45  H   UNL A   1      40.672  29.958  31.408  1.00  0.00     0.167 HD
ATOM     46  C   UNL A   1      42.155  26.906  28.643  1.00  0.00     0.034 A 
ATOM     47  C   UNL A   1      40.526  31.211  33.921  1.00  0.00     0.034 A 
ATOM     48  C   UNL A   1      43.067  26.886  29.757  1.00  0.00     0.049 A 
ATOM     49  C   UNL A   1      41.710  30.291  33.990  1.00  0.00     0.074 A 
ATOM     50  C   UNL A   1      44.225  26.141  29.906  1.00  0.00     0.029 A 
ATOM     51  N   UNL A   1      42.927  27.638  30.913  1.00  0.00    -0.354 N 
ATOM     52  N   UNL A   1      42.180  29.485  33.070  1.00  0.00    -0.248 NA
ATOM     53  C   UNL A   1      42.473  30.286  35.245  1.00  0.00     0.031 C 
ATOM     54  C   UNL A   1      44.760  26.413  31.169  1.00  0.00     0.029 A 
ATOM     55  C   UNL A   1      43.964  27.362  31.789  1.00  0.00     0.049 A 
ATOM     56  H   UNL A   1      42.196  28.275  31.086  1.00  0.00     0.167 HD
ATOM     57  C   UNL A   1      43.309  28.894  33.624  1.00  0.00     0.074 A 
ATOM     58  C   UNL A   1      43.467  29.458  34.949  1.00  0.00     0.031 C 
ATOM     59  C   UNL A   1      44.131  27.959  33.089  1.00  0.00     0.034 A 
BRANCH  46  60
ATOM     60  C   UNL A   1      42.415  25.964  27.494  1.00  0.00     0.023 A 
ATOM     61  C   UNL A   1      43.167  26.390  26.380  1.00  0.00     0.012 A 
ATOM     62  C   UNL A   1      41.954  24.632  27.544  1.00  0.00     0.148 A 
ATOM     63  C   UNL A   1      43.419  25.519  25.319  1.00  0.00     0.002 A 
ATOM     64  C   UNL A   1      42.251  23.757  26.507  1.00  0.00     0.091 A 
ATOM     65  F   UNL A   1      41.227  24.247  28.603  1.00  0.00    -0.205 F 
ATOM     66  C   UNL A   1      42.971  24.203  25.387  1.00  0.00     0.022 A 
BRANCH  64  67
ATOM     67  S   UNL A   1      41.792  22.020  26.539  1.00  0.00     0.127 S 
ATOM     68  O   UNL A   1      42.318  21.601  27.838  1.00  0.00    -0.237 OA
ATOM     69  O   UNL A   1      40.333  22.088  26.466  1.00  0.00    -0.237 OA
ATOM     70  O   UNL A   1      42.431  21.412  25.380  1.00  0.00    -0.744 OA
ENDBRANCH  64  67
ENDBRANCH  46  60
BRANCH  47  71
ATOM     71  C   UNL A   1      40.149  32.071  35.080  1.00  0.00     0.023 A 
ATOM     72  C   UNL A   1      40.720  33.351  35.212  1.00  0.00     0.012 A 
ATOM     73  C   UNL A   1      39.201  31.641  36.031  1.00  0.00     0.148 A 
ATOM     74  C   UNL A   1      40.371  34.177  36.281  1.00  0.00     0.002 A 
ATOM     75  C   UNL A   1      38.811  32.493  37.055  1.00  0.00     0.091 A 
ATOM     76  F   UNL A   1      38.681  30.413  35.898  1.00  0.00    -0.205 F 
ATOM     77  C   UNL A   1      39.409  33.755  37.194  1.00  0.00     0.022 A 
BRANCH  75  78
ATOM     78  S   UNL A   1      37.479  32.090  38.192  1.00  0.00     0.127 S 
ATOM     79  O   UNL A   1      38.045  32.503  39.474  1.00  0.00    -0.237 OA
ATOM     80  O   UNL A   1      36.394  32.936  37.695  1.00  0.00    -0.237 OA
ATOM     81  O   UNL A   1      37.247  30.660  38.036  1.00  0.00    -0.744 OA
ENDBRANCH  75  78
ENDBRANCH  47  71
BRANCH  59  82
ATOM     82  C   UNL A   1      45.305  27.512  33.921  1.00  0.00     0.023 A 
ATOM     83  C   UNL A   1      46.528  28.209  33.850  1.00  0.00     0.012 A 
ATOM     84  C   UNL A   1      45.175  26.433  34.818  1.00  0.00     0.148 A 
ATOM     85  C   UNL A   1      47.613  27.815  34.629  1.00  0.00     0.002 A 
ATOM     86  C   UNL A   1      46.244  26.080  35.631  1.00  0.00     0.091 A 
ATOM     87  F   UNL A   1      44.010  25.771  34.857  1.00  0.00    -0.205 F 
ATOM     88  C   UNL A   1      47.469  26.760  35.528  1.00  0.00     0.022 A 
BRANCH  86  89
ATOM     89  S   UNL A   1      46.121  24.801  36.885  1.00  0.00     0.127 S 
ATOM     90  O   UNL A   1      45.720  23.642  36.089  1.00  0.00    -0.237 OA
ATOM     91  O   UNL A   1      47.488  24.744  37.403  1.00  0.00    -0.237 OA
ATOM     92  O   UNL A   1      45.129  25.270  37.843  1.00  0.00    -0.744 OA
ENDBRANCH  86  89
ENDBRANCH  59  82
ENDBRANCH  33  34
ENDBRANCH  26  28
ENDBRANCH  25  26
ENDBRANCH  24  25
ENDBRANCH   1  24
TORSDOF 20
ENDMDL
