MODEL 1
REMARK VINA RESULT:     -12.7      0.000      0.000
REMARK SMILES C[C@@H]1C[C@H](C)C[C@H]([N@H+]2[C@@H](C(=O)OCCOC(=O)c3ccc(-c4c5nc(c(-c6cccc(S(=O)(=O)[O-])c6F)c6ccc([nH]6)c(-c6cccc(S(=O)(=O)[O-])c6F)c6nc(c(-c7cccc(S(=O)(=O)[O-])c7F)c7ccc4[nH]7)C=C6)C=C5)cc3)CC[C@@H]3CCCC[C@@H]32)C1
REMARK SMILES IDX 14 1 13 2 12 3 10 4 11 5 9 6 8 7 88 8 81 10 83 11 87 12
REMARK SMILES IDX 82 13 84 14 86 15 85 16 7 17 5 18 4 19 6 20 3 21 2 22 89 23
REMARK SMILES IDX 1 24 15 25 16 26 17 27 18 28 19 29 80 30 20 31 79 32 21 33
REMARK SMILES IDX 22 34 23 35 73 36 24 37 78 38 72 39 74 40 25 41 77 42 71 43
REMARK SMILES IDX 70 44 26 46 58 47 38 48 57 49 39 50 42 51 56 52 75 53 40 54
REMARK SMILES IDX 41 55 55 57 76 58 43 59 27 60 28 61 36 62 29 63 31 64 37 65
REMARK SMILES IDX 30 66 32 67 33 68 34 69 35 70 59 71 60 72 68 73 61 74 63 75
REMARK SMILES IDX 69 76 62 77 64 78 65 79 66 80 67 81 44 82 45 83 53 84 46 85
REMARK SMILES IDX 48 86 54 87 47 88 49 89 50 90 51 91 52 92
REMARK H PARENT 8 9 74 45 42 56
REMARK Flexibility Score: inf
ROOT
ATOM      1  C   UNL A   1      36.344  20.553  25.038  1.00  0.00     0.275 C 
ENDROOT
BRANCH   1   2
ATOM      2  C   UNL A   1      35.129  21.300  25.581  1.00  0.00     0.274 C 
BRANCH   2   3
ATOM      3  O   UNL A   1      34.744  22.324  24.641  1.00  0.00    -0.458 OA
BRANCH   3   4
ATOM      4  C   UNL A   1      34.649  23.585  25.151  1.00  0.00     0.365 C 
ATOM      5  O   UNL A   1      35.015  23.883  26.282  1.00  0.00    -0.245 OA
BRANCH   4   6
ATOM      6  C   UNL A   1      34.167  24.598  24.079  1.00  0.00     0.295 C 
ATOM      7  N   UNL A   1      33.194  25.577  24.629  1.00  0.00    -0.318 N 
ATOM      8  C   UNL A   1      31.948  24.905  25.027  1.00  0.00     0.188 C 
ATOM      9  H   UNL A   1      32.558  26.301  24.295  1.00  0.00     0.349 HD
ATOM     10  C   UNL A   1      33.605  24.044  22.773  1.00  0.00     0.078 C 
ATOM     11  C   UNL A   1      31.237  24.357  23.767  1.00  0.00     0.048 C 
ATOM     12  C   UNL A   1      30.936  25.569  25.959  1.00  0.00     0.065 C 
ATOM     13  C   UNL A   1      32.170  23.545  22.855  1.00  0.00     0.016 C 
ATOM     14  C   UNL A   1      30.516  25.499  23.049  1.00  0.00     0.010 C 
ATOM     15  C   UNL A   1      29.528  25.831  25.415  1.00  0.00     0.006 C 
ATOM     16  C   UNL A   1      29.368  26.028  23.907  1.00  0.00     0.001 C 
BRANCH   7  17
ATOM     17  C   UNL A   1      33.752  26.913  24.922  1.00  0.00     0.185 C 
ATOM     18  C   UNL A   1      31.200  29.158  24.171  1.00  0.00     0.008 C 
ATOM     19  C   UNL A   1      32.696  29.277  24.397  1.00  0.00    -0.008 C 
ATOM     20  C   UNL A   1      33.493  28.060  23.928  1.00  0.00     0.068 C 
ATOM     21  C   UNL A   1      33.052  29.714  25.816  1.00  0.00     0.007 C 
ATOM     22  C   UNL A   1      33.193  28.606  26.868  1.00  0.00    -0.008 C 
ATOM     23  C   UNL A   1      33.962  27.373  26.380  1.00  0.00     0.068 C 
ATOM     24  C   UNL A   1      31.898  28.220  27.580  1.00  0.00     0.008 C 
ENDBRANCH   7  17
ENDBRANCH   4   6
ENDBRANCH   3   4
ENDBRANCH   2   3
ENDBRANCH   1   2
BRANCH   1  25
ATOM     25  O   UNL A   1      37.464  21.455  24.937  1.00  0.00    -0.458 OA
BRANCH  25  26
ATOM     26  C   UNL A   1      38.550  21.102  25.655  1.00  0.00     0.338 C 
ATOM     27  O   UNL A   1      39.070  19.986  25.715  1.00  0.00    -0.246 OA
BRANCH  26  28
ATOM     28  C   UNL A   1      39.113  22.258  26.362  1.00  0.00     0.060 A 
ATOM     29  C   UNL A   1      38.558  23.517  26.154  1.00  0.00     0.016 A 
ATOM     30  C   UNL A   1      40.303  22.130  27.074  1.00  0.00     0.016 A 
ATOM     31  C   UNL A   1      39.269  24.658  26.520  1.00  0.00     0.010 A 
ATOM     32  C   UNL A   1      40.939  23.275  27.569  1.00  0.00     0.010 A 
ATOM     33  C   UNL A   1      40.462  24.560  27.251  1.00  0.00    -0.014 A 
BRANCH  33  34
ATOM     34  C   UNL A   1      41.209  25.789  27.657  1.00  0.00     0.031 A 
ATOM     35  C   UNL A   1      40.539  26.859  28.485  1.00  0.00     0.074 A 
ATOM     36  C   UNL A   1      42.495  25.960  27.283  1.00  0.00     0.049 A 
ATOM     37  N   UNL A   1      40.969  28.057  28.794  1.00  0.00    -0.248 NA
ATOM     38  C   UNL A   1      39.205  26.549  29.028  1.00  0.00     0.031 C 
ATOM     39  C   UNL A   1      43.285  25.013  26.493  1.00  0.00     0.029 A 
ATOM     40  N   UNL A   1      43.365  27.001  27.509  1.00  0.00    -0.354 N 
ATOM     41  C   UNL A   1      39.935  28.669  29.494  1.00  0.00     0.074 A 
ATOM     42  C   UNL A   1      38.857  27.707  29.574  1.00  0.00     0.031 C 
ATOM     43  C   UNL A   1      44.524  25.497  26.326  1.00  0.00     0.029 A 
ATOM     44  C   UNL A   1      44.594  26.830  26.914  1.00  0.00     0.049 A 
ATOM     45  H   UNL A   1      43.131  27.793  28.045  1.00  0.00     0.167 HD
ATOM     46  C   UNL A   1      39.887  29.912  30.035  1.00  0.00     0.034 A 
ATOM     47  C   UNL A   1      45.650  27.661  26.808  1.00  0.00     0.034 A 
ATOM     48  C   UNL A   1      40.985  30.842  30.031  1.00  0.00     0.049 A 
ATOM     49  C   UNL A   1      45.573  29.031  27.418  1.00  0.00     0.074 A 
ATOM     50  C   UNL A   1      41.042  32.106  30.593  1.00  0.00     0.029 A 
ATOM     51  N   UNL A   1      42.221  30.609  29.450  1.00  0.00    -0.354 N 
ATOM     52  N   UNL A   1      44.602  29.570  28.115  1.00  0.00    -0.248 NA
ATOM     53  C   UNL A   1      46.739  29.906  27.234  1.00  0.00     0.031 C 
ATOM     54  C   UNL A   1      42.310  32.642  30.343  1.00  0.00     0.029 A 
ATOM     55  C   UNL A   1      43.047  31.706  29.638  1.00  0.00     0.049 A 
ATOM     56  H   UNL A   1      42.475  29.786  28.974  1.00  0.00     0.167 HD
ATOM     57  C   UNL A   1      45.050  30.837  28.470  1.00  0.00     0.074 A 
ATOM     58  C   UNL A   1      46.390  30.973  27.937  1.00  0.00     0.031 C 
ATOM     59  C   UNL A   1      44.399  31.811  29.153  1.00  0.00     0.034 A 
BRANCH  46  60
ATOM     60  C   UNL A   1      38.607  30.336  30.707  1.00  0.00     0.023 A 
ATOM     61  C   UNL A   1      38.417  30.080  32.080  1.00  0.00     0.012 A 
ATOM     62  C   UNL A   1      37.620  31.048  29.995  1.00  0.00     0.148 A 
ATOM     63  C   UNL A   1      37.254  30.497  32.725  1.00  0.00     0.002 A 
ATOM     64  C   UNL A   1      36.482  31.496  30.654  1.00  0.00     0.091 A 
ATOM     65  F   UNL A   1      37.809  31.264  28.685  1.00  0.00    -0.205 F 
ATOM     66  C   UNL A   1      36.291  31.212  32.016  1.00  0.00     0.022 A 
BRANCH  64  67
ATOM     67  S   UNL A   1      35.224  32.489  29.843  1.00  0.00     0.127 S 
ATOM     68  O   UNL A   1      34.298  32.751  30.944  1.00  0.00    -0.237 OA
ATOM     69  O   UNL A   1      35.988  33.656  29.399  1.00  0.00    -0.237 OA
ATOM     70  O   UNL A   1      34.699  31.665  28.764  1.00  0.00    -0.744 OA
ENDBRANCH  64  67
ENDBRANCH  46  60
BRANCH  47  71
ATOM     71  C   UNL A   1      46.880  27.210  26.094  1.00  0.00     0.023 A 
ATOM     72  C   UNL A   1      47.022  27.487  24.721  1.00  0.00     0.012 A 
ATOM     73  C   UNL A   1      47.917  26.541  26.772  1.00  0.00     0.148 A 
ATOM     74  C   UNL A   1      48.167  27.088  24.031  1.00  0.00     0.002 A 
ATOM     75  C   UNL A   1      49.081  26.202  26.093  1.00  0.00     0.091 A 
ATOM     76  F   UNL A   1      47.753  26.263  28.072  1.00  0.00    -0.205 F 
ATOM     77  C   UNL A   1      49.202  26.457  24.718  1.00  0.00     0.022 A 
BRANCH  75  78
ATOM     78  S   UNL A   1      50.515  25.523  26.936  1.00  0.00     0.127 S 
ATOM     79  O   UNL A   1      51.442  25.312  25.828  1.00  0.00    -0.237 OA
ATOM     80  O   UNL A   1      50.877  26.610  27.846  1.00  0.00    -0.237 OA
ATOM     81  O   UNL A   1      50.037  24.320  27.606  1.00  0.00    -0.744 OA
ENDBRANCH  75  78
ENDBRANCH  47  71
BRANCH  59  82
ATOM     82  C   UNL A   1      45.134  33.103  29.391  1.00  0.00     0.023 A 
ATOM     83  C   UNL A   1      45.909  33.258  30.558  1.00  0.00     0.012 A 
ATOM     84  C   UNL A   1      45.106  34.138  28.436  1.00  0.00     0.148 A 
ATOM     85  C   UNL A   1      46.619  34.436  30.785  1.00  0.00     0.002 A 
ATOM     86  C   UNL A   1      45.852  35.292  28.649  1.00  0.00     0.091 A 
ATOM     87  F   UNL A   1      44.344  33.982  27.343  1.00  0.00    -0.205 F 
ATOM     88  C   UNL A   1      46.600  35.447  29.828  1.00  0.00     0.022 A 
BRANCH  86  89
ATOM     89  S   UNL A   1      45.954  36.605  27.427  1.00  0.00     0.127 S 
ATOM     90  O   UNL A   1      44.596  37.144  27.455  1.00  0.00    -0.237 OA
ATOM     91  O   UNL A   1      46.972  37.488  28.000  1.00  0.00    -0.237 OA
ATOM     92  O   UNL A   1      46.352  35.960  26.183  1.00  0.00    -0.744 OA
ENDBRANCH  86  89
ENDBRANCH  59  82
ENDBRANCH  33  34
ENDBRANCH  26  28
ENDBRANCH  25  26
ENDBRANCH   1  25
TORSDOF 15
ENDMDL
MODEL 2
REMARK VINA RESULT:     -12.6      4.737      9.834
REMARK SMILES C[C@@H]1C[C@H](C)C[C@H]([N@H+]2[C@@H](C(=O)OCCOC(=O)c3ccc(-c4c5nc(c(-c6cccc(S(=O)(=O)[O-])c6F)c6ccc([nH]6)c(-c6cccc(S(=O)(=O)[O-])c6F)c6nc(c(-c7cccc(S(=O)(=O)[O-])c7F)c7ccc4[nH]7)C=C6)C=C5)cc3)CC[C@@H]3CCCC[C@@H]32)C1
REMARK SMILES IDX 14 1 13 2 12 3 10 4 11 5 9 6 8 7 88 8 81 10 83 11 87 12
REMARK SMILES IDX 82 13 84 14 86 15 85 16 7 17 5 18 4 19 6 20 3 21 2 22 89 23
REMARK SMILES IDX 1 24 15 25 16 26 17 27 18 28 19 29 80 30 20 31 79 32 21 33
REMARK SMILES IDX 22 34 23 35 73 36 24 37 78 38 72 39 74 40 25 41 77 42 71 43
REMARK SMILES IDX 70 44 26 46 58 47 38 48 57 49 39 50 42 51 56 52 75 53 40 54
REMARK SMILES IDX 41 55 55 57 76 58 43 59 27 60 28 61 36 62 29 63 31 64 37 65
REMARK SMILES IDX 30 66 32 67 33 68 34 69 35 70 59 71 60 72 68 73 61 74 63 75
REMARK SMILES IDX 69 76 62 77 64 78 65 79 66 80 67 81 44 82 45 83 53 84 46 85
REMARK SMILES IDX 48 86 54 87 47 88 49 89 50 90 51 91 52 92
REMARK H PARENT 8 9 74 45 42 56
REMARK Flexibility Score: inf
ROOT
ATOM      1  C   UNL A   1      31.568  30.407  25.600  1.00  0.00     0.275 C 
ENDROOT
BRANCH   1   2
ATOM      2  C   UNL A   1      31.839  29.117  24.832  1.00  0.00     0.274 C 
BRANCH   2   3
ATOM      3  O   UNL A   1      31.909  28.017  25.763  1.00  0.00    -0.458 OA
BRANCH   3   4
ATOM      4  C   UNL A   1      32.953  27.160  25.584  1.00  0.00     0.365 C 
ATOM      5  O   UNL A   1      34.063  27.519  25.209  1.00  0.00    -0.245 OA
BRANCH   4   6
ATOM      6  C   UNL A   1      32.597  25.723  26.052  1.00  0.00     0.295 C 
ATOM      7  N   UNL A   1      33.306  24.684  25.261  1.00  0.00    -0.318 N 
ATOM      8  C   UNL A   1      32.851  24.694  23.862  1.00  0.00     0.188 C 
ATOM      9  H   UNL A   1      33.294  23.671  25.134  1.00  0.00     0.349 HD
ATOM     10  C   UNL A   1      31.121  25.343  26.133  1.00  0.00     0.078 C 
ATOM     11  C   UNL A   1      31.370  24.248  23.802  1.00  0.00     0.048 C 
ATOM     12  C   UNL A   1      33.653  24.021  22.750  1.00  0.00     0.065 C 
ATOM     13  C   UNL A   1      30.475  25.000  24.799  1.00  0.00     0.016 C 
ATOM     14  C   UNL A   1      31.289  22.726  23.928  1.00  0.00     0.010 C 
ATOM     15  C   UNL A   1      32.987  22.872  21.985  1.00  0.00     0.006 C 
ATOM     16  C   UNL A   1      31.916  22.055  22.708  1.00  0.00     0.001 C 
BRANCH   7  17
ATOM     17  C   UNL A   1      34.473  24.077  25.933  1.00  0.00     0.185 C 
ATOM     18  C   UNL A   1      34.366  20.702  25.088  1.00  0.00     0.008 C 
ATOM     19  C   UNL A   1      35.090  21.517  26.145  1.00  0.00    -0.008 C 
ATOM     20  C   UNL A   1      34.298  22.724  26.647  1.00  0.00     0.068 C 
ATOM     21  C   UNL A   1      36.524  21.864  25.751  1.00  0.00     0.007 C 
ATOM     22  C   UNL A   1      36.727  23.143  24.926  1.00  0.00    -0.008 C 
ATOM     23  C   UNL A   1      35.902  24.339  25.413  1.00  0.00     0.068 C 
ATOM     24  C   UNL A   1      36.621  22.960  23.413  1.00  0.00     0.008 C 
ENDBRANCH   7  17
ENDBRANCH   4   6
ENDBRANCH   3   4
ENDBRANCH   2   3
ENDBRANCH   1   2
BRANCH   1  25
ATOM     25  O   UNL A   1      32.245  30.368  26.872  1.00  0.00    -0.458 OA
BRANCH  25  26
ATOM     26  C   UNL A   1      32.929  31.486  27.190  1.00  0.00     0.338 C 
ATOM     27  O   UNL A   1      32.507  32.643  27.179  1.00  0.00    -0.246 OA
BRANCH  26  28
ATOM     28  C   UNL A   1      34.293  31.163  27.625  1.00  0.00     0.060 A 
ATOM     29  C   UNL A   1      34.631  29.836  27.870  1.00  0.00     0.016 A 
ATOM     30  C   UNL A   1      35.176  32.183  27.974  1.00  0.00     0.016 A 
ATOM     31  C   UNL A   1      35.776  29.535  28.604  1.00  0.00     0.010 A 
ATOM     32  C   UNL A   1      36.396  31.863  28.581  1.00  0.00     0.010 A 
ATOM     33  C   UNL A   1      36.690  30.539  28.957  1.00  0.00    -0.014 A 
BRANCH  33  34
ATOM     34  C   UNL A   1      37.927  30.207  29.728  1.00  0.00     0.031 A 
ATOM     35  C   UNL A   1      38.973  29.286  29.145  1.00  0.00     0.074 A 
ATOM     36  C   UNL A   1      38.122  30.724  30.960  1.00  0.00     0.049 A 
ATOM     37  N   UNL A   1      40.023  28.758  29.722  1.00  0.00    -0.248 NA
ATOM     38  C   UNL A   1      38.814  28.899  27.733  1.00  0.00     0.031 C 
ATOM     39  C   UNL A   1      37.211  31.637  31.654  1.00  0.00     0.029 A 
ATOM     40  N   UNL A   1      39.150  30.545  31.856  1.00  0.00    -0.354 N 
ATOM     41  C   UNL A   1      40.600  27.918  28.776  1.00  0.00     0.074 A 
ATOM     42  C   UNL A   1      39.790  28.013  27.581  1.00  0.00     0.031 C 
ATOM     43  C   UNL A   1      37.730  31.961  32.847  1.00  0.00     0.029 A 
ATOM     44  C   UNL A   1      38.964  31.209  33.047  1.00  0.00     0.049 A 
ATOM     45  H   UNL A   1      39.944  29.994  31.664  1.00  0.00     0.167 HD
ATOM     46  C   UNL A   1      41.711  27.147  28.882  1.00  0.00     0.034 A 
ATOM     47  C   UNL A   1      39.673  31.189  34.193  1.00  0.00     0.034 A 
ATOM     48  C   UNL A   1      42.568  27.111  30.037  1.00  0.00     0.049 A 
ATOM     49  C   UNL A   1      40.900  30.328  34.283  1.00  0.00     0.074 A 
ATOM     50  C   UNL A   1      43.739  26.394  30.217  1.00  0.00     0.029 A 
ATOM     51  N   UNL A   1      42.359  27.830  31.204  1.00  0.00    -0.354 N 
ATOM     52  N   UNL A   1      41.453  29.579  33.360  1.00  0.00    -0.248 NA
ATOM     53  C   UNL A   1      41.608  30.316  35.571  1.00  0.00     0.031 C 
ATOM     54  C   UNL A   1      44.231  26.670  31.497  1.00  0.00     0.029 A 
ATOM     55  C   UNL A   1      43.376  27.571  32.108  1.00  0.00     0.049 A 
ATOM     56  H   UNL A   1      41.599  28.434  31.365  1.00  0.00     0.167 HD
ATOM     57  C   UNL A   1      42.583  29.024  33.949  1.00  0.00     0.074 A 
ATOM     58  C   UNL A   1      42.653  29.548  35.298  1.00  0.00     0.031 C 
ATOM     59  C   UNL A   1      43.469  28.140  33.428  1.00  0.00     0.034 A 
BRANCH  46  60
ATOM     60  C   UNL A   1      42.087  26.291  27.700  1.00  0.00     0.023 A 
ATOM     61  C   UNL A   1      42.868  26.834  26.660  1.00  0.00     0.012 A 
ATOM     62  C   UNL A   1      41.722  24.930  27.651  1.00  0.00     0.148 A 
ATOM     63  C   UNL A   1      43.254  26.046  25.576  1.00  0.00     0.002 A 
ATOM     64  C   UNL A   1      42.145  24.141  26.588  1.00  0.00     0.091 A 
ATOM     65  F   UNL A   1      40.961  24.436  28.639  1.00  0.00    -0.205 F 
ATOM     66  C   UNL A   1      42.901  24.699  25.545  1.00  0.00     0.022 A 
BRANCH  64  67
ATOM     67  S   UNL A   1      41.804  22.379  26.498  1.00  0.00     0.127 S 
ATOM     68  O   UNL A   1      40.354  22.367  26.310  1.00  0.00    -0.237 OA
ATOM     69  O   UNL A   1      42.574  21.973  25.322  1.00  0.00    -0.237 OA
ATOM     70  O   UNL A   1      42.279  21.816  27.754  1.00  0.00    -0.744 OA
ENDBRANCH  64  67
ENDBRANCH  46  60
BRANCH  47  71
ATOM     71  C   UNL A   1      39.235  32.020  35.351  1.00  0.00     0.023 A 
ATOM     72  C   UNL A   1      38.353  31.471  36.301  1.00  0.00     0.012 A 
ATOM     73  C   UNL A   1      39.711  33.334  35.531  1.00  0.00     0.148 A 
ATOM     74  C   UNL A   1      37.938  32.224  37.401  1.00  0.00     0.002 A 
ATOM     75  C   UNL A   1      39.342  34.054  36.660  1.00  0.00     0.091 A 
ATOM     76  F   UNL A   1      40.529  33.848  34.602  1.00  0.00    -0.205 F 
ATOM     77  C   UNL A   1      38.441  33.509  37.588  1.00  0.00     0.022 A 
BRANCH  75  78
ATOM     78  S   UNL A   1      40.060  35.655  37.049  1.00  0.00     0.127 S 
ATOM     79  O   UNL A   1      39.652  36.453  35.897  1.00  0.00    -0.237 OA
ATOM     80  O   UNL A   1      39.389  35.994  38.305  1.00  0.00    -0.237 OA
ATOM     81  O   UNL A   1      41.491  35.415  37.185  1.00  0.00    -0.744 OA
ENDBRANCH  75  78
ENDBRANCH  47  71
BRANCH  59  82
ATOM     82  C   UNL A   1      44.609  27.699  34.306  1.00  0.00     0.023 A 
ATOM     83  C   UNL A   1      45.797  28.458  34.337  1.00  0.00     0.012 A 
ATOM     84  C   UNL A   1      44.486  26.573  35.142  1.00  0.00     0.148 A 
ATOM     85  C   UNL A   1      46.855  28.083  35.164  1.00  0.00     0.002 A 
ATOM     86  C   UNL A   1      45.529  26.231  35.996  1.00  0.00     0.091 A 
ATOM     87  F   UNL A   1      43.357  25.850  35.082  1.00  0.00    -0.205 F 
ATOM     88  C   UNL A   1      46.718  26.978  36.000  1.00  0.00     0.022 A 
BRANCH  86  89
ATOM     89  S   UNL A   1      45.401  24.876  37.169  1.00  0.00     0.127 S 
ATOM     90  O   UNL A   1      44.195  25.237  37.911  1.00  0.00    -0.237 OA
ATOM     91  O   UNL A   1      45.252  23.715  36.291  1.00  0.00    -0.237 OA
ATOM     92  O   UNL A   1      46.641  24.894  37.934  1.00  0.00    -0.744 OA
ENDBRANCH  86  89
ENDBRANCH  59  82
ENDBRANCH  33  34
ENDBRANCH  26  28
ENDBRANCH  25  26
ENDBRANCH   1  25
TORSDOF 15
ENDMDL
MODEL 3
REMARK VINA RESULT:     -12.1      1.835      2.151
REMARK SMILES C[C@@H]1C[C@H](C)C[C@H]([N@H+]2[C@@H](C(=O)OCCOC(=O)c3ccc(-c4c5nc(c(-c6cccc(S(=O)(=O)[O-])c6F)c6ccc([nH]6)c(-c6cccc(S(=O)(=O)[O-])c6F)c6nc(c(-c7cccc(S(=O)(=O)[O-])c7F)c7ccc4[nH]7)C=C6)C=C5)cc3)CC[C@@H]3CCCC[C@@H]32)C1
REMARK SMILES IDX 14 1 13 2 12 3 10 4 11 5 9 6 8 7 88 8 81 10 83 11 87 12
REMARK SMILES IDX 82 13 84 14 86 15 85 16 7 17 5 18 4 19 6 20 3 21 2 22 89 23
REMARK SMILES IDX 1 24 15 25 16 26 17 27 18 28 19 29 80 30 20 31 79 32 21 33
REMARK SMILES IDX 22 34 23 35 73 36 24 37 78 38 72 39 74 40 25 41 77 42 71 43
REMARK SMILES IDX 70 44 26 46 58 47 38 48 57 49 39 50 42 51 56 52 75 53 40 54
REMARK SMILES IDX 41 55 55 57 76 58 43 59 27 60 28 61 36 62 29 63 31 64 37 65
REMARK SMILES IDX 30 66 32 67 33 68 34 69 35 70 59 71 60 72 68 73 61 74 63 75
REMARK SMILES IDX 69 76 62 77 64 78 65 79 66 80 67 81 44 82 45 83 53 84 46 85
REMARK SMILES IDX 48 86 54 87 47 88 49 89 50 90 51 91 52 92
REMARK H PARENT 8 9 74 45 42 56
REMARK Flexibility Score: inf
ROOT
ATOM      1  C   UNL A   1      36.565  20.587  25.012  1.00  0.00     0.275 C 
ENDROOT
BRANCH   1   2
ATOM      2  C   UNL A   1      35.343  21.386  25.455  1.00  0.00     0.274 C 
BRANCH   2   3
ATOM      3  O   UNL A   1      35.593  22.791  25.243  1.00  0.00    -0.458 OA
BRANCH   3   4
ATOM      4  C   UNL A   1      34.570  23.627  25.578  1.00  0.00     0.365 C 
ATOM      5  O   UNL A   1      34.097  23.695  26.707  1.00  0.00    -0.245 OA
BRANCH   4   6
ATOM      6  C   UNL A   1      34.196  24.568  24.402  1.00  0.00     0.295 C 
ATOM      7  N   UNL A   1      33.184  25.583  24.796  1.00  0.00    -0.318 N 
ATOM      8  C   UNL A   1      31.902  24.941  25.122  1.00  0.00     0.188 C 
ATOM      9  H   UNL A   1      32.587  26.285  24.358  1.00  0.00     0.349 HD
ATOM     10  C   UNL A   1      33.750  23.929  23.090  1.00  0.00     0.078 C 
ATOM     11  C   UNL A   1      31.304  24.312  23.841  1.00  0.00     0.048 C 
ATOM     12  C   UNL A   1      30.815  25.667  25.912  1.00  0.00     0.065 C 
ATOM     13  C   UNL A   1      32.309  23.440  23.074  1.00  0.00     0.016 C 
ATOM     14  C   UNL A   1      30.660  25.405  22.987  1.00  0.00     0.010 C 
ATOM     15  C   UNL A   1      29.465  25.896  25.226  1.00  0.00     0.006 C 
ATOM     16  C   UNL A   1      29.443  25.992  23.700  1.00  0.00     0.001 C 
BRANCH   7  17
ATOM     17  C   UNL A   1      33.724  26.935  25.050  1.00  0.00     0.185 C 
ATOM     18  C   UNL A   1      31.182  29.126  24.124  1.00  0.00     0.008 C 
ATOM     19  C   UNL A   1      32.670  29.266  24.392  1.00  0.00    -0.008 C 
ATOM     20  C   UNL A   1      33.489  28.037  24.000  1.00  0.00     0.068 C 
ATOM     21  C   UNL A   1      32.977  29.765  25.802  1.00  0.00     0.007 C 
ATOM     22  C   UNL A   1      33.092  28.704  26.904  1.00  0.00    -0.008 C 
ATOM     23  C   UNL A   1      33.884  27.458  26.493  1.00  0.00     0.068 C 
ATOM     24  C   UNL A   1      31.777  28.337  27.590  1.00  0.00     0.008 C 
ENDBRANCH   7  17
ENDBRANCH   4   6
ENDBRANCH   3   4
ENDBRANCH   2   3
ENDBRANCH   1   2
BRANCH   1  25
ATOM     25  O   UNL A   1      37.710  21.458  24.922  1.00  0.00    -0.458 OA
BRANCH  25  26
ATOM     26  C   UNL A   1      38.751  21.120  25.710  1.00  0.00     0.338 C 
ATOM     27  O   UNL A   1      39.259  20.004  25.830  1.00  0.00    -0.246 OA
BRANCH  26  28
ATOM     28  C   UNL A   1      39.280  22.293  26.416  1.00  0.00     0.060 A 
ATOM     29  C   UNL A   1      38.753  23.549  26.135  1.00  0.00     0.016 A 
ATOM     30  C   UNL A   1      40.420  22.176  27.208  1.00  0.00     0.016 A 
ATOM     31  C   UNL A   1      39.451  24.695  26.511  1.00  0.00     0.010 A 
ATOM     32  C   UNL A   1      41.035  23.331  27.707  1.00  0.00     0.010 A 
ATOM     33  C   UNL A   1      40.593  24.609  27.320  1.00  0.00    -0.014 A 
BRANCH  33  34
ATOM     34  C   UNL A   1      41.327  25.843  27.736  1.00  0.00     0.031 A 
ATOM     35  C   UNL A   1      40.646  26.895  28.580  1.00  0.00     0.074 A 
ATOM     36  C   UNL A   1      42.608  26.036  27.358  1.00  0.00     0.049 A 
ATOM     37  N   UNL A   1      41.062  28.095  28.900  1.00  0.00    -0.248 NA
ATOM     38  C   UNL A   1      39.320  26.561  29.127  1.00  0.00     0.031 C 
ATOM     39  C   UNL A   1      43.406  25.108  26.553  1.00  0.00     0.029 A 
ATOM     40  N   UNL A   1      43.466  27.086  27.591  1.00  0.00    -0.354 N 
ATOM     41  C   UNL A   1      40.023  28.685  29.612  1.00  0.00     0.074 A 
ATOM     42  C   UNL A   1      38.959  27.708  29.687  1.00  0.00     0.031 C 
ATOM     43  C   UNL A   1      44.638  25.611  26.385  1.00  0.00     0.029 A 
ATOM     44  C   UNL A   1      44.694  26.937  26.988  1.00  0.00     0.049 A 
ATOM     45  H   UNL A   1      43.224  27.868  28.137  1.00  0.00     0.167 HD
ATOM     46  C   UNL A   1      39.963  29.921  30.167  1.00  0.00     0.034 A 
ATOM     47  C   UNL A   1      45.738  27.784  26.886  1.00  0.00     0.034 A 
ATOM     48  C   UNL A   1      41.047  30.866  30.169  1.00  0.00     0.049 A 
ATOM     49  C   UNL A   1      45.645  29.146  27.511  1.00  0.00     0.074 A 
ATOM     50  C   UNL A   1      41.091  32.124  30.745  1.00  0.00     0.029 A 
ATOM     51  N   UNL A   1      42.284  30.656  29.578  1.00  0.00    -0.354 N 
ATOM     52  N   UNL A   1      44.671  29.664  28.220  1.00  0.00    -0.248 NA
ATOM     53  C   UNL A   1      46.799  30.038  27.331  1.00  0.00     0.031 C 
ATOM     54  C   UNL A   1      42.350  32.680  30.493  1.00  0.00     0.029 A 
ATOM     55  C   UNL A   1      43.096  31.761  29.774  1.00  0.00     0.049 A 
ATOM     56  H   UNL A   1      42.546  29.841  29.092  1.00  0.00     0.167 HD
ATOM     57  C   UNL A   1      45.104  30.933  28.586  1.00  0.00     0.074 A 
ATOM     58  C   UNL A   1      46.439  31.093  28.048  1.00  0.00     0.031 C 
ATOM     59  C   UNL A   1      44.444  31.890  29.284  1.00  0.00     0.034 A 
BRANCH  46  60
ATOM     60  C   UNL A   1      38.681  30.321  30.851  1.00  0.00     0.023 A 
ATOM     61  C   UNL A   1      38.497  30.036  32.219  1.00  0.00     0.012 A 
ATOM     62  C   UNL A   1      37.685  31.036  30.155  1.00  0.00     0.148 A 
ATOM     63  C   UNL A   1      37.331  30.430  32.876  1.00  0.00     0.002 A 
ATOM     64  C   UNL A   1      36.544  31.461  30.826  1.00  0.00     0.091 A 
ATOM     65  F   UNL A   1      37.868  31.280  28.849  1.00  0.00    -0.205 F 
ATOM     66  C   UNL A   1      36.361  31.150  32.183  1.00  0.00     0.022 A 
BRANCH  64  67
ATOM     67  S   UNL A   1      35.275  32.458  30.037  1.00  0.00     0.127 S 
ATOM     68  O   UNL A   1      36.046  33.616  29.586  1.00  0.00    -0.237 OA
ATOM     69  O   UNL A   1      34.811  31.579  28.963  1.00  0.00    -0.237 OA
ATOM     70  O   UNL A   1      34.282  32.728  31.067  1.00  0.00    -0.744 OA
ENDBRANCH  64  67
ENDBRANCH  46  60
BRANCH  47  71
ATOM     71  C   UNL A   1      46.969  27.358  26.160  1.00  0.00     0.023 A 
ATOM     72  C   UNL A   1      47.908  26.537  26.814  1.00  0.00     0.012 A 
ATOM     73  C   UNL A   1      47.198  27.733  24.822  1.00  0.00     0.148 A 
ATOM     74  C   UNL A   1      49.062  26.115  26.153  1.00  0.00     0.002 A 
ATOM     75  C   UNL A   1      48.318  27.258  24.151  1.00  0.00     0.091 A 
ATOM     76  F   UNL A   1      46.306  28.537  24.224  1.00  0.00    -0.205 F 
ATOM     77  C   UNL A   1      49.262  26.463  24.819  1.00  0.00     0.022 A 
BRANCH  75  78
ATOM     78  S   UNL A   1      48.571  27.540  22.395  1.00  0.00     0.127 S 
ATOM     79  O   UNL A   1      48.597  26.177  21.874  1.00  0.00    -0.237 OA
ATOM     80  O   UNL A   1      47.383  28.317  22.036  1.00  0.00    -0.237 OA
ATOM     81  O   UNL A   1      49.820  28.284  22.297  1.00  0.00    -0.744 OA
ENDBRANCH  75  78
ENDBRANCH  47  71
BRANCH  59  82
ATOM     82  C   UNL A   1      45.163  33.189  29.532  1.00  0.00     0.023 A 
ATOM     83  C   UNL A   1      45.055  34.234  28.592  1.00  0.00     0.012 A 
ATOM     84  C   UNL A   1      45.893  33.398  30.718  1.00  0.00     0.148 A 
ATOM     85  C   UNL A   1      45.690  35.455  28.815  1.00  0.00     0.002 A 
ATOM     86  C   UNL A   1      46.486  34.633  30.953  1.00  0.00     0.091 A 
ATOM     87  F   UNL A   1      46.003  32.384  31.590  1.00  0.00    -0.205 F 
ATOM     88  C   UNL A   1      46.396  35.659  29.998  1.00  0.00     0.022 A 
BRANCH  86  89
ATOM     89  S   UNL A   1      47.338  35.008  32.490  1.00  0.00     0.127 S 
ATOM     90  O   UNL A   1      47.660  36.423  32.315  1.00  0.00    -0.237 OA
ATOM     91  O   UNL A   1      46.306  34.738  33.494  1.00  0.00    -0.237 OA
ATOM     92  O   UNL A   1      48.479  34.103  32.544  1.00  0.00    -0.744 OA
ENDBRANCH  86  89
ENDBRANCH  59  82
ENDBRANCH  33  34
ENDBRANCH  26  28
ENDBRANCH  25  26
ENDBRANCH   1  25
TORSDOF 15
ENDMDL
