MODEL 1
REMARK VINA RESULT:     -11.5      0.000      0.000
REMARK SMILES C[NH2+][C@@]1(C(=O)OCCOC(=O)c2ccc(-c3c4nc(c(-c5cccc(S(=O)(=O)[O-])c5F)c5ccc([nH]5)c(-c5cccc(S(=O)(=O)[O-])c5F)c5nc(c(-c6cccc(S(=O)(=O)[O-])c6F)c6ccc3[nH]6)C=C5)C=C4)cc2)CC[C@H](n2ccc(C)n2)C1
REMARK SMILES IDX 8 1 7 2 6 3 4 4 5 5 3 6 75 7 84 8 76 9 77 10 2 11 1 12 78 15
REMARK SMILES IDX 79 16 83 17 80 18 81 19 82 20 9 21 10 22 11 23 12 24 13 25
REMARK SMILES IDX 74 26 14 27 73 28 15 29 16 30 17 31 67 32 18 33 72 34 66 35
REMARK SMILES IDX 68 36 19 37 71 38 65 39 64 40 20 42 52 43 32 44 51 45 33 46
REMARK SMILES IDX 36 47 50 48 69 49 34 50 35 51 49 53 70 54 37 55 21 56 22 57
REMARK SMILES IDX 30 58 23 59 25 60 31 61 24 62 26 63 27 64 28 65 29 66 53 67
REMARK SMILES IDX 54 68 62 69 55 70 57 71 63 72 56 73 58 74 59 75 60 76 61 77
REMARK SMILES IDX 38 78 39 79 47 80 40 81 42 82 48 83 41 84 43 85 44 86 45 87
REMARK SMILES IDX 46 88
REMARK H PARENT 2 13 2 14 68 41 36 52
REMARK Flexibility Score: inf
ROOT
ATOM      1  C   UNL A   1      31.830  30.113  26.603  1.00  0.00     0.275 C 
ENDROOT
BRANCH   1   2
ATOM      2  C   UNL A   1      31.788  28.797  27.373  1.00  0.00     0.274 C 
BRANCH   2   3
ATOM      3  O   UNL A   1      31.250  27.753  26.538  1.00  0.00    -0.457 OA
BRANCH   3   4
ATOM      4  C   UNL A   1      32.042  26.689  26.266  1.00  0.00     0.368 C 
ATOM      5  O   UNL A   1      33.270  26.716  26.267  1.00  0.00    -0.245 OA
BRANCH   4   6
ATOM      6  C   UNL A   1      31.230  25.431  25.829  1.00  0.00     0.196 C 
ATOM      7  C   UNL A   1      31.998  24.761  24.685  1.00  0.00     0.083 C 
ATOM      8  C   UNL A   1      29.864  25.708  25.183  1.00  0.00     0.108 C 
ATOM      9  C   UNL A   1      31.601  25.568  23.454  1.00  0.00     0.034 C 
ATOM     10  C   UNL A   1      30.136  25.987  23.686  1.00  0.00     0.114 C 
BRANCH   6  11
ATOM     11  N   UNL A   1      31.177  24.479  26.971  1.00  0.00    -0.334 N 
ATOM     12  C   UNL A   1      30.832  23.113  26.596  1.00  0.00     0.331 C 
ATOM     13  H   UNL A   1      32.093  24.467  27.419  1.00  0.00     0.347 HD
ATOM     14  H   UNL A   1      30.437  24.808  27.592  1.00  0.00     0.347 HD
ENDBRANCH   6  11
BRANCH  10  15
ATOM     15  N   UNL A   1      29.849  27.338  23.228  1.00  0.00    -0.269 N 
ATOM     16  C   UNL A   1      30.736  28.213  22.662  1.00  0.00     0.109 A 
ATOM     17  N   UNL A   1      28.601  27.835  23.285  1.00  0.00    -0.178 NA
ATOM     18  C   UNL A   1      30.037  29.376  22.440  1.00  0.00     0.045 A 
ATOM     19  C   UNL A   1      28.719  29.096  22.862  1.00  0.00     0.059 A 
ATOM     20  C   UNL A   1      27.545  30.001  22.878  1.00  0.00     0.069 C 
ENDBRANCH  10  15
ENDBRANCH   4   6
ENDBRANCH   3   4
ENDBRANCH   2   3
ENDBRANCH   1   2
BRANCH   1  21
ATOM     21  O   UNL A   1      33.204  30.489  26.436  1.00  0.00    -0.458 OA
BRANCH  21  22
ATOM     22  C   UNL A   1      33.663  31.451  27.269  1.00  0.00     0.338 C 
ATOM     23  O   UNL A   1      33.095  32.488  27.566  1.00  0.00    -0.246 OA
BRANCH  22  24
ATOM     24  C   UNL A   1      34.991  31.055  27.793  1.00  0.00     0.060 A 
ATOM     25  C   UNL A   1      35.267  29.730  28.136  1.00  0.00     0.016 A 
ATOM     26  C   UNL A   1      35.953  32.039  28.020  1.00  0.00     0.016 A 
ATOM     27  C   UNL A   1      36.455  29.405  28.789  1.00  0.00     0.010 A 
ATOM     28  C   UNL A   1      37.187  31.690  28.578  1.00  0.00     0.010 A 
ATOM     29  C   UNL A   1      37.443  30.375  29.005  1.00  0.00    -0.014 A 
BRANCH  29  30
ATOM     30  C   UNL A   1      38.724  30.034  29.690  1.00  0.00     0.031 A 
ATOM     31  C   UNL A   1      39.697  29.078  29.045  1.00  0.00     0.074 A 
ATOM     32  C   UNL A   1      39.015  30.549  30.902  1.00  0.00     0.049 A 
ATOM     33  N   UNL A   1      40.732  28.474  29.569  1.00  0.00    -0.248 NA
ATOM     34  C   UNL A   1      39.459  28.736  27.632  1.00  0.00     0.031 C 
ATOM     35  C   UNL A   1      38.180  31.495  31.645  1.00  0.00     0.029 A 
ATOM     36  N   UNL A   1      40.091  30.341  31.732  1.00  0.00    -0.354 N 
ATOM     37  C   UNL A   1      41.208  27.612  28.587  1.00  0.00     0.074 A 
ATOM     38  C   UNL A   1      40.365  27.790  27.425  1.00  0.00     0.031 C 
ATOM     39  C   UNL A   1      38.787  31.809  32.798  1.00  0.00     0.029 A 
ATOM     40  C   UNL A   1      40.005  31.020  32.925  1.00  0.00     0.049 A 
ATOM     41  H   UNL A   1      40.850  29.759  31.495  1.00  0.00     0.167 HD
ATOM     42  C   UNL A   1      42.255  26.754  28.648  1.00  0.00     0.034 A 
ATOM     43  C   UNL A   1      40.788  30.984  34.022  1.00  0.00     0.034 A 
ATOM     44  C   UNL A   1      43.156  26.655  29.766  1.00  0.00     0.049 A 
ATOM     45  C   UNL A   1      41.976  30.064  34.043  1.00  0.00     0.074 A 
ATOM     46  C   UNL A   1      44.269  25.844  29.904  1.00  0.00     0.029 A 
ATOM     47  N   UNL A   1      43.065  27.410  30.925  1.00  0.00    -0.354 N 
ATOM     48  N   UNL A   1      42.415  29.264  33.103  1.00  0.00    -0.248 NA
ATOM     49  C   UNL A   1      42.777  30.042  35.276  1.00  0.00     0.031 C 
ATOM     50  C   UNL A   1      44.856  26.113  31.146  1.00  0.00     0.029 A 
ATOM     51  C   UNL A   1      44.109  27.094  31.779  1.00  0.00     0.049 A 
ATOM     52  H   UNL A   1      42.363  28.073  31.113  1.00  0.00     0.167 HD
ATOM     53  C   UNL A   1      43.543  28.645  33.627  1.00  0.00     0.074 A 
ATOM     54  C   UNL A   1      43.744  29.193  34.953  1.00  0.00     0.031 C 
ATOM     55  C   UNL A   1      44.322  27.685  33.074  1.00  0.00     0.034 A 
BRANCH  42  56
ATOM     56  C   UNL A   1      42.510  25.868  27.458  1.00  0.00     0.023 A 
ATOM     57  C   UNL A   1      43.289  26.344  26.386  1.00  0.00     0.012 A 
ATOM     58  C   UNL A   1      42.043  24.539  27.437  1.00  0.00     0.148 A 
ATOM     59  C   UNL A   1      43.579  25.518  25.299  1.00  0.00     0.002 A 
ATOM     60  C   UNL A   1      42.368  23.709  26.369  1.00  0.00     0.091 A 
ATOM     61  F   UNL A   1      41.281  24.111  28.454  1.00  0.00    -0.205 F 
ATOM     62  C   UNL A   1      43.130  24.199  25.296  1.00  0.00     0.022 A 
BRANCH  60  63
ATOM     63  S   UNL A   1      41.899  21.975  26.321  1.00  0.00     0.127 S 
ATOM     64  O   UNL A   1      42.751  21.467  25.247  1.00  0.00    -0.237 OA
ATOM     65  O   UNL A   1      42.266  21.513  27.660  1.00  0.00    -0.237 OA
ATOM     66  O   UNL A   1      40.467  21.961  26.051  1.00  0.00    -0.744 OA
ENDBRANCH  60  63
ENDBRANCH  42  56
BRANCH  43  67
ATOM     67  C   UNL A   1      40.468  31.864  35.181  1.00  0.00     0.023 A 
ATOM     68  C   UNL A   1      41.169  33.074  35.342  1.00  0.00     0.012 A 
ATOM     69  C   UNL A   1      39.422  31.555  36.073  1.00  0.00     0.148 A 
ATOM     70  C   UNL A   1      40.837  33.956  36.373  1.00  0.00     0.002 A 
ATOM     71  C   UNL A   1      39.052  32.470  37.052  1.00  0.00     0.091 A 
ATOM     72  F   UNL A   1      38.787  30.383  35.931  1.00  0.00    -0.205 F 
ATOM     73  C   UNL A   1      39.767  33.664  37.213  1.00  0.00     0.022 A 
BRANCH  71  74
ATOM     74  S   UNL A   1      37.571  32.232  38.042  1.00  0.00     0.127 S 
ATOM     75  O   UNL A   1      37.958  32.828  39.317  1.00  0.00    -0.237 OA
ATOM     76  O   UNL A   1      36.567  32.987  37.289  1.00  0.00    -0.237 OA
ATOM     77  O   UNL A   1      37.346  30.792  38.045  1.00  0.00    -0.744 OA
ENDBRANCH  71  74
ENDBRANCH  43  67
BRANCH  55  78
ATOM     78  C   UNL A   1      45.470  27.167  33.897  1.00  0.00     0.023 A 
ATOM     79  C   UNL A   1      46.710  27.832  33.843  1.00  0.00     0.012 A 
ATOM     80  C   UNL A   1      45.308  26.069  34.764  1.00  0.00     0.148 A 
ATOM     81  C   UNL A   1      47.782  27.397  34.621  1.00  0.00     0.002 A 
ATOM     82  C   UNL A   1      46.370  25.662  35.563  1.00  0.00     0.091 A 
ATOM     83  F   UNL A   1      44.126  25.435  34.782  1.00  0.00    -0.205 F 
ATOM     84  C   UNL A   1      47.610  26.320  35.487  1.00  0.00     0.022 A 
BRANCH  82  85
ATOM     85  S   UNL A   1      46.207  24.332  36.758  1.00  0.00     0.127 S 
ATOM     86  O   UNL A   1      46.250  23.151  35.899  1.00  0.00    -0.237 OA
ATOM     87  O   UNL A   1      47.389  24.516  37.601  1.00  0.00    -0.237 OA
ATOM     88  O   UNL A   1      44.942  24.570  37.442  1.00  0.00    -0.744 OA
ENDBRANCH  82  85
ENDBRANCH  55  78
ENDBRANCH  29  30
ENDBRANCH  22  24
ENDBRANCH  21  22
ENDBRANCH   1  21
TORSDOF 16
ENDMDL
MODEL 2
REMARK VINA RESULT:     -11.5      1.323      2.585
REMARK SMILES C[NH2+][C@@]1(C(=O)OCCOC(=O)c2ccc(-c3c4nc(c(-c5cccc(S(=O)(=O)[O-])c5F)c5ccc([nH]5)c(-c5cccc(S(=O)(=O)[O-])c5F)c5nc(c(-c6cccc(S(=O)(=O)[O-])c6F)c6ccc3[nH]6)C=C5)C=C4)cc2)CC[C@H](n2ccc(C)n2)C1
REMARK SMILES IDX 8 1 7 2 6 3 4 4 5 5 3 6 75 7 84 8 76 9 77 10 2 11 1 12 78 15
REMARK SMILES IDX 79 16 83 17 80 18 81 19 82 20 9 21 10 22 11 23 12 24 13 25
REMARK SMILES IDX 74 26 14 27 73 28 15 29 16 30 17 31 67 32 18 33 72 34 66 35
REMARK SMILES IDX 68 36 19 37 71 38 65 39 64 40 20 42 52 43 32 44 51 45 33 46
REMARK SMILES IDX 36 47 50 48 69 49 34 50 35 51 49 53 70 54 37 55 21 56 22 57
REMARK SMILES IDX 30 58 23 59 25 60 31 61 24 62 26 63 27 64 28 65 29 66 53 67
REMARK SMILES IDX 54 68 62 69 55 70 57 71 63 72 56 73 58 74 59 75 60 76 61 77
REMARK SMILES IDX 38 78 39 79 47 80 40 81 42 82 48 83 41 84 43 85 44 86 45 87
REMARK SMILES IDX 46 88
REMARK H PARENT 2 13 2 14 68 41 36 52
REMARK Flexibility Score: inf
ROOT
ATOM      1  C   UNL A   1      31.790  30.444  26.510  1.00  0.00     0.275 C 
ENDROOT
BRANCH   1   2
ATOM      2  C   UNL A   1      31.777  28.936  26.737  1.00  0.00     0.274 C 
BRANCH   2   3
ATOM      3  O   UNL A   1      32.339  28.259  25.596  1.00  0.00    -0.457 OA
BRANCH   3   4
ATOM      4  C   UNL A   1      31.488  27.642  24.743  1.00  0.00     0.368 C 
ATOM      5  O   UNL A   1      30.602  26.863  25.085  1.00  0.00    -0.245 OA
BRANCH   4   6
ATOM      6  C   UNL A   1      31.821  27.931  23.247  1.00  0.00     0.196 C 
ATOM      7  C   UNL A   1      30.970  26.984  22.394  1.00  0.00     0.083 C 
ATOM      8  C   UNL A   1      33.247  27.576  22.799  1.00  0.00     0.108 C 
ATOM      9  C   UNL A   1      31.746  25.672  22.417  1.00  0.00     0.034 C 
ATOM     10  C   UNL A   1      33.235  26.070  22.450  1.00  0.00     0.114 C 
BRANCH   6  11
ATOM     11  N   UNL A   1      31.418  29.328  22.931  1.00  0.00    -0.334 N 
ATOM     12  C   UNL A   1      29.979  29.561  22.978  1.00  0.00     0.331 C 
ATOM     13  H   UNL A   1      31.865  29.950  23.605  1.00  0.00     0.347 HD
ATOM     14  H   UNL A   1      31.712  29.508  21.971  1.00  0.00     0.347 HD
ENDBRANCH   6  11
BRANCH  10  15
ATOM     15  N   UNL A   1      34.035  25.212  23.309  1.00  0.00    -0.269 N 
ATOM     16  C   UNL A   1      34.128  25.280  24.673  1.00  0.00     0.109 A 
ATOM     17  N   UNL A   1      34.745  24.191  22.796  1.00  0.00    -0.178 NA
ATOM     18  C   UNL A   1      35.033  24.313  25.043  1.00  0.00     0.045 A 
ATOM     19  C   UNL A   1      35.402  23.677  23.838  1.00  0.00     0.059 A 
ATOM     20  C   UNL A   1      36.375  22.577  23.638  1.00  0.00     0.069 C 
ENDBRANCH  10  15
ENDBRANCH   4   6
ENDBRANCH   3   4
ENDBRANCH   2   3
ENDBRANCH   1   2
BRANCH   1  21
ATOM     21  O   UNL A   1      33.153  30.862  26.364  1.00  0.00    -0.458 OA
BRANCH  21  22
ATOM     22  C   UNL A   1      33.593  31.780  27.255  1.00  0.00     0.338 C 
ATOM     23  O   UNL A   1      33.028  32.812  27.576  1.00  0.00    -0.246 OA
BRANCH  22  24
ATOM     24  C   UNL A   1      34.894  31.342  27.812  1.00  0.00     0.060 A 
ATOM     25  C   UNL A   1      35.102  30.018  28.204  1.00  0.00     0.016 A 
ATOM     26  C   UNL A   1      35.898  32.287  28.018  1.00  0.00     0.016 A 
ATOM     27  C   UNL A   1      36.266  29.661  28.886  1.00  0.00     0.010 A 
ATOM     28  C   UNL A   1      37.107  31.901  28.605  1.00  0.00     0.010 A 
ATOM     29  C   UNL A   1      37.295  30.592  29.082  1.00  0.00    -0.014 A 
BRANCH  29  30
ATOM     30  C   UNL A   1      38.550  30.215  29.797  1.00  0.00     0.031 A 
ATOM     31  C   UNL A   1      39.532  29.266  29.156  1.00  0.00     0.074 A 
ATOM     32  C   UNL A   1      38.808  30.692  31.032  1.00  0.00     0.049 A 
ATOM     33  N   UNL A   1      40.543  28.635  29.694  1.00  0.00    -0.248 NA
ATOM     34  C   UNL A   1      39.336  28.968  27.726  1.00  0.00     0.031 C 
ATOM     35  C   UNL A   1      37.961  31.626  31.775  1.00  0.00     0.029 A 
ATOM     36  N   UNL A   1      39.855  30.447  31.888  1.00  0.00    -0.354 N 
ATOM     37  C   UNL A   1      41.040  27.795  28.703  1.00  0.00     0.074 A 
ATOM     38  C   UNL A   1      40.237  28.016  27.521  1.00  0.00     0.031 C 
ATOM     39  C   UNL A   1      38.534  31.901  32.955  1.00  0.00     0.029 A 
ATOM     40  C   UNL A   1      39.739  31.093  33.098  1.00  0.00     0.049 A 
ATOM     41  H   UNL A   1      40.615  29.863  31.659  1.00  0.00     0.167 HD
ATOM     42  C   UNL A   1      42.075  26.923  28.773  1.00  0.00     0.034 A 
ATOM     43  C   UNL A   1      40.486  31.016  34.217  1.00  0.00     0.034 A 
ATOM     44  C   UNL A   1      42.938  26.782  29.915  1.00  0.00     0.049 A 
ATOM     45  C   UNL A   1      41.662  30.082  34.250  1.00  0.00     0.074 A 
ATOM     46  C   UNL A   1      44.038  25.953  30.065  1.00  0.00     0.029 A 
ATOM     47  N   UNL A   1      42.819  27.504  31.092  1.00  0.00    -0.354 N 
ATOM     48  N   UNL A   1      42.121  29.303  33.301  1.00  0.00    -0.248 NA
ATOM     49  C   UNL A   1      42.423  30.015  35.505  1.00  0.00     0.031 C 
ATOM     50  C   UNL A   1      44.588  26.180  31.332  1.00  0.00     0.029 A 
ATOM     51  C   UNL A   1      43.832  27.151  31.968  1.00  0.00     0.049 A 
ATOM     52  H   UNL A   1      42.119  28.170  31.277  1.00  0.00     0.167 HD
ATOM     53  C   UNL A   1      43.225  28.656  33.842  1.00  0.00     0.074 A 
ATOM     54  C   UNL A   1      43.390  29.163  35.188  1.00  0.00     0.031 C 
ATOM     55  C   UNL A   1      44.011  27.702  33.286  1.00  0.00     0.034 A 
BRANCH  42  56
ATOM     56  C   UNL A   1      42.358  26.068  27.566  1.00  0.00     0.023 A 
ATOM     57  C   UNL A   1      43.137  26.582  26.511  1.00  0.00     0.012 A 
ATOM     58  C   UNL A   1      41.916  24.731  27.512  1.00  0.00     0.148 A 
ATOM     59  C   UNL A   1      43.452  25.786  25.410  1.00  0.00     0.002 A 
ATOM     60  C   UNL A   1      42.268  23.931  26.430  1.00  0.00     0.091 A 
ATOM     61  F   UNL A   1      41.154  24.266  28.513  1.00  0.00    -0.205 F 
ATOM     62  C   UNL A   1      43.029  24.459  25.374  1.00  0.00     0.022 A 
BRANCH  60  63
ATOM     63  S   UNL A   1      41.832  22.190  26.340  1.00  0.00     0.127 S 
ATOM     64  O   UNL A   1      42.637  21.741  25.205  1.00  0.00    -0.237 OA
ATOM     65  O   UNL A   1      42.279  21.687  27.640  1.00  0.00    -0.237 OA
ATOM     66  O   UNL A   1      40.389  22.153  26.145  1.00  0.00    -0.744 OA
ENDBRANCH  60  63
ENDBRANCH  42  56
BRANCH  43  67
ATOM     67  C   UNL A   1      40.139  31.867  35.391  1.00  0.00     0.023 A 
ATOM     68  C   UNL A   1      40.706  33.151  35.503  1.00  0.00     0.012 A 
ATOM     69  C   UNL A   1      39.193  31.451  36.347  1.00  0.00     0.148 A 
ATOM     70  C   UNL A   1      40.339  34.001  36.549  1.00  0.00     0.002 A 
ATOM     71  C   UNL A   1      38.781  32.328  37.344  1.00  0.00     0.091 A 
ATOM     72  F   UNL A   1      38.688  30.212  36.250  1.00  0.00    -0.205 F 
ATOM     73  C   UNL A   1      39.363  33.598  37.455  1.00  0.00     0.022 A 
BRANCH  71  74
ATOM     74  S   UNL A   1      37.400  31.934  38.425  1.00  0.00     0.127 S 
ATOM     75  O   UNL A   1      37.967  32.189  39.746  1.00  0.00    -0.237 OA
ATOM     76  O   UNL A   1      36.382  32.893  37.995  1.00  0.00    -0.237 OA
ATOM     77  O   UNL A   1      37.069  30.547  38.124  1.00  0.00    -0.744 OA
ENDBRANCH  71  74
ENDBRANCH  43  67
BRANCH  55  78
ATOM     78  C   UNL A   1      45.126  27.147  34.130  1.00  0.00     0.023 A 
ATOM     79  C   UNL A   1      46.395  27.756  34.078  1.00  0.00     0.012 A 
ATOM     80  C   UNL A   1      44.906  26.072  35.012  1.00  0.00     0.148 A 
ATOM     81  C   UNL A   1      47.438  27.286  34.875  1.00  0.00     0.002 A 
ATOM     82  C   UNL A   1      45.941  25.631  35.829  1.00  0.00     0.091 A 
ATOM     83  F   UNL A   1      43.697  25.492  35.027  1.00  0.00    -0.205 F 
ATOM     84  C   UNL A   1      47.209  26.232  35.756  1.00  0.00     0.022 A 
BRANCH  82  85
ATOM     85  S   UNL A   1      45.706  24.329  37.043  1.00  0.00     0.127 S 
ATOM     86  O   UNL A   1      44.563  24.831  37.803  1.00  0.00    -0.237 OA
ATOM     87  O   UNL A   1      45.418  23.164  36.206  1.00  0.00    -0.237 OA
ATOM     88  O   UNL A   1      46.963  24.243  37.776  1.00  0.00    -0.744 OA
ENDBRANCH  82  85
ENDBRANCH  55  78
ENDBRANCH  29  30
ENDBRANCH  22  24
ENDBRANCH  21  22
ENDBRANCH   1  21
TORSDOF 16
ENDMDL
MODEL 3
REMARK VINA RESULT:     -11.3      1.886      3.040
REMARK SMILES C[NH2+][C@@]1(C(=O)OCCOC(=O)c2ccc(-c3c4nc(c(-c5cccc(S(=O)(=O)[O-])c5F)c5ccc([nH]5)c(-c5cccc(S(=O)(=O)[O-])c5F)c5nc(c(-c6cccc(S(=O)(=O)[O-])c6F)c6ccc3[nH]6)C=C5)C=C4)cc2)CC[C@H](n2ccc(C)n2)C1
REMARK SMILES IDX 8 1 7 2 6 3 4 4 5 5 3 6 75 7 84 8 76 9 77 10 2 11 1 12 78 15
REMARK SMILES IDX 79 16 83 17 80 18 81 19 82 20 9 21 10 22 11 23 12 24 13 25
REMARK SMILES IDX 74 26 14 27 73 28 15 29 16 30 17 31 67 32 18 33 72 34 66 35
REMARK SMILES IDX 68 36 19 37 71 38 65 39 64 40 20 42 52 43 32 44 51 45 33 46
REMARK SMILES IDX 36 47 50 48 69 49 34 50 35 51 49 53 70 54 37 55 21 56 22 57
REMARK SMILES IDX 30 58 23 59 25 60 31 61 24 62 26 63 27 64 28 65 29 66 53 67
REMARK SMILES IDX 54 68 62 69 55 70 57 71 63 72 56 73 58 74 59 75 60 76 61 77
REMARK SMILES IDX 38 78 39 79 47 80 40 81 42 82 48 83 41 84 43 85 44 86 45 87
REMARK SMILES IDX 46 88
REMARK H PARENT 2 13 2 14 68 41 36 52
REMARK Flexibility Score: inf
ROOT
ATOM      1  C   UNL A   1      31.565  29.759  26.867  1.00  0.00     0.275 C 
ENDROOT
BRANCH   1   2
ATOM      2  C   UNL A   1      31.762  28.283  26.535  1.00  0.00     0.274 C 
BRANCH   2   3
ATOM      3  O   UNL A   1      32.284  28.143  25.199  1.00  0.00    -0.457 OA
BRANCH   3   4
ATOM      4  C   UNL A   1      31.498  27.546  24.272  1.00  0.00     0.368 C 
ATOM      5  O   UNL A   1      30.540  26.822  24.532  1.00  0.00    -0.245 OA
BRANCH   4   6
ATOM      6  C   UNL A   1      32.006  27.776  22.815  1.00  0.00     0.196 C 
ATOM      7  C   UNL A   1      31.259  26.793  21.906  1.00  0.00     0.083 C 
ATOM      8  C   UNL A   1      33.474  27.407  22.553  1.00  0.00     0.108 C 
ATOM      9  C   UNL A   1      32.025  25.485  22.073  1.00  0.00     0.034 C 
ATOM     10  C   UNL A   1      33.500  25.888  22.266  1.00  0.00     0.114 C 
BRANCH   6  11
ATOM     11  N   UNL A   1      31.645  29.157  22.398  1.00  0.00    -0.334 N 
ATOM     12  C   UNL A   1      30.211  29.419  22.371  1.00  0.00     0.331 C 
ATOM     13  H   UNL A   1      32.077  29.811  23.051  1.00  0.00     0.347 HD
ATOM     14  H   UNL A   1      31.982  29.272  21.442  1.00  0.00     0.347 HD
ENDBRANCH   6  11
BRANCH  10  15
ATOM     15  N   UNL A   1      34.192  25.067  23.247  1.00  0.00    -0.269 N 
ATOM     16  C   UNL A   1      34.237  25.275  24.599  1.00  0.00     0.109 A 
ATOM     17  N   UNL A   1      34.834  23.945  22.877  1.00  0.00    -0.178 NA
ATOM     18  C   UNL A   1      35.043  24.285  25.111  1.00  0.00     0.045 A 
ATOM     19  C   UNL A   1      35.404  23.496  23.998  1.00  0.00     0.059 A 
ATOM     20  C   UNL A   1      36.290  22.308  23.960  1.00  0.00     0.069 C 
ENDBRANCH  10  15
ENDBRANCH   4   6
ENDBRANCH   3   4
ENDBRANCH   2   3
ENDBRANCH   1   2
BRANCH   1  21
ATOM     21  O   UNL A   1      32.656  30.495  26.297  1.00  0.00    -0.458 OA
BRANCH  21  22
ATOM     22  C   UNL A   1      33.101  31.551  27.016  1.00  0.00     0.338 C 
ATOM     23  O   UNL A   1      32.527  32.613  27.182  1.00  0.00    -0.246 OA
BRANCH  22  24
ATOM     24  C   UNL A   1      34.424  31.225  27.600  1.00  0.00     0.060 A 
ATOM     25  C   UNL A   1      34.758  29.915  27.947  1.00  0.00     0.016 A 
ATOM     26  C   UNL A   1      35.316  32.260  27.879  1.00  0.00     0.016 A 
ATOM     27  C   UNL A   1      35.931  29.651  28.654  1.00  0.00     0.010 A 
ATOM     28  C   UNL A   1      36.541  31.976  28.492  1.00  0.00     0.010 A 
ATOM     29  C   UNL A   1      36.851  30.674  28.923  1.00  0.00    -0.014 A 
BRANCH  29  30
ATOM     30  C   UNL A   1      38.116  30.398  29.665  1.00  0.00     0.031 A 
ATOM     31  C   UNL A   1      39.181  29.524  29.050  1.00  0.00     0.074 A 
ATOM     32  C   UNL A   1      38.312  30.901  30.901  1.00  0.00     0.049 A 
ATOM     33  N   UNL A   1      40.226  28.975  29.613  1.00  0.00    -0.248 NA
ATOM     34  C   UNL A   1      39.037  29.203  27.619  1.00  0.00     0.031 C 
ATOM     35  C   UNL A   1      37.380  31.772  31.620  1.00  0.00     0.029 A 
ATOM     36  N   UNL A   1      39.357  30.742  31.780  1.00  0.00    -0.354 N 
ATOM     37  C   UNL A   1      40.806  28.170  28.639  1.00  0.00     0.074 A 
ATOM     38  C   UNL A   1      40.012  28.322  27.439  1.00  0.00     0.031 C 
ATOM     39  C   UNL A   1      37.907  32.097  32.809  1.00  0.00     0.029 A 
ATOM     40  C   UNL A   1      39.167  31.385  32.982  1.00  0.00     0.049 A 
ATOM     41  H   UNL A   1      40.163  30.217  31.570  1.00  0.00     0.167 HD
ATOM     42  C   UNL A   1      41.903  27.380  28.735  1.00  0.00     0.034 A 
ATOM     43  C   UNL A   1      39.894  31.372  34.117  1.00  0.00     0.034 A 
ATOM     44  C   UNL A   1      42.751  27.312  29.896  1.00  0.00     0.049 A 
ATOM     45  C   UNL A   1      41.137  30.531  34.179  1.00  0.00     0.074 A 
ATOM     46  C   UNL A   1      43.907  26.572  30.073  1.00  0.00     0.029 A 
ATOM     47  N   UNL A   1      42.553  28.030  31.064  1.00  0.00    -0.354 N 
ATOM     48  N   UNL A   1      41.675  29.784  33.246  1.00  0.00    -0.248 NA
ATOM     49  C   UNL A   1      41.876  30.529  35.450  1.00  0.00     0.031 C 
ATOM     50  C   UNL A   1      44.412  26.847  31.349  1.00  0.00     0.029 A 
ATOM     51  C   UNL A   1      43.572  27.761  31.964  1.00  0.00     0.049 A 
ATOM     52  H   UNL A   1      41.800  28.642  31.230  1.00  0.00     0.167 HD
ATOM     53  C   UNL A   1      42.813  29.226  33.814  1.00  0.00     0.074 A 
ATOM     54  C   UNL A   1      42.911  29.753  35.159  1.00  0.00     0.031 C 
ATOM     55  C   UNL A   1      43.681  28.332  33.280  1.00  0.00     0.034 A 
BRANCH  42  56
ATOM     56  C   UNL A   1      42.275  26.543  27.541  1.00  0.00     0.023 A 
ATOM     57  C   UNL A   1      43.063  27.098  26.515  1.00  0.00     0.012 A 
ATOM     58  C   UNL A   1      41.907  25.184  27.472  1.00  0.00     0.148 A 
ATOM     59  C   UNL A   1      43.460  26.321  25.427  1.00  0.00     0.002 A 
ATOM     60  C   UNL A   1      42.339  24.405  26.405  1.00  0.00     0.091 A 
ATOM     61  F   UNL A   1      41.134  24.679  28.445  1.00  0.00    -0.205 F 
ATOM     62  C   UNL A   1      43.110  24.973  25.377  1.00  0.00     0.022 A 
BRANCH  60  63
ATOM     63  S   UNL A   1      42.001  22.643  26.301  1.00  0.00     0.127 S 
ATOM     64  O   UNL A   1      42.661  22.287  25.046  1.00  0.00    -0.237 OA
ATOM     65  O   UNL A   1      42.657  22.126  27.502  1.00  0.00    -0.237 OA
ATOM     66  O   UNL A   1      40.549  22.519  26.308  1.00  0.00    -0.744 OA
ENDBRANCH  60  63
ENDBRANCH  42  56
BRANCH  43  67
ATOM     67  C   UNL A   1      39.460  32.201  35.277  1.00  0.00     0.023 A 
ATOM     68  C   UNL A   1      38.673  31.615  36.287  1.00  0.00     0.012 A 
ATOM     69  C   UNL A   1      39.889  33.534  35.429  1.00  0.00     0.148 A 
ATOM     70  C   UNL A   1      38.318  32.345  37.423  1.00  0.00     0.002 A 
ATOM     71  C   UNL A   1      39.590  34.230  36.594  1.00  0.00     0.091 A 
ATOM     72  F   UNL A   1      40.607  34.091  34.442  1.00  0.00    -0.205 F 
ATOM     73  C   UNL A   1      38.793  33.643  37.586  1.00  0.00     0.022 A 
BRANCH  71  74
ATOM     74  S   UNL A   1      40.326  35.833  36.940  1.00  0.00     0.127 S 
ATOM     75  O   UNL A   1      41.750  35.554  36.784  1.00  0.00    -0.237 OA
ATOM     76  O   UNL A   1      39.745  36.676  35.894  1.00  0.00    -0.237 OA
ATOM     77  O   UNL A   1      39.879  36.171  38.286  1.00  0.00    -0.744 OA
ENDBRANCH  71  74
ENDBRANCH  43  67
BRANCH  55  78
ATOM     78  C   UNL A   1      44.818  27.869  34.150  1.00  0.00     0.023 A 
ATOM     79  C   UNL A   1      46.007  28.622  34.185  1.00  0.00     0.012 A 
ATOM     80  C   UNL A   1      44.690  26.734  34.973  1.00  0.00     0.148 A 
ATOM     81  C   UNL A   1      47.065  28.238  35.008  1.00  0.00     0.002 A 
ATOM     82  C   UNL A   1      45.735  26.376  35.817  1.00  0.00     0.091 A 
ATOM     83  F   UNL A   1      43.558  26.018  34.906  1.00  0.00    -0.205 F 
ATOM     84  C   UNL A   1      46.925  27.123  35.831  1.00  0.00     0.022 A 
BRANCH  82  85
ATOM     85  S   UNL A   1      45.605  24.998  36.961  1.00  0.00     0.127 S 
ATOM     86  O   UNL A   1      46.847  25.122  37.721  1.00  0.00    -0.237 OA
ATOM     87  O   UNL A   1      44.394  25.325  37.715  1.00  0.00    -0.237 OA
ATOM     88  O   UNL A   1      45.489  23.806  36.130  1.00  0.00    -0.744 OA
ENDBRANCH  82  85
ENDBRANCH  55  78
ENDBRANCH  29  30
ENDBRANCH  22  24
ENDBRANCH  21  22
ENDBRANCH   1  21
TORSDOF 16
ENDMDL
