MODEL 1
REMARK VINA RESULT:     -11.1      0.000      0.000
REMARK SMILES C[C@H]1CC[C@H]([N@@H+](CC(=O)OCCOC(=O)c2ccc(-c3c4nc(c(-c5cccc(S(=O)(=O)[O-])c5F)c5ccc([nH]5)c(-c5cccc(S(=O)(=O)[O-])c5F)c5nc(c(-c6cccc(S(=O)(=O)[O-])c6F)c6ccc3[nH]6)C=C5)C=C4)cc2)C(C)(C)C)C[C@@H]1C
REMARK SMILES IDX 12 1 11 2 10 3 8 4 9 5 7 6 6 7 5 9 1 10 2 11 3 12 84 13 4 14
REMARK SMILES IDX 83 15 85 16 79 17 80 18 81 19 82 20 13 21 14 22 15 23 16 24
REMARK SMILES IDX 17 25 78 26 18 27 77 28 19 29 20 30 21 31 71 32 22 33 76 34
REMARK SMILES IDX 70 35 72 36 23 37 75 38 69 39 68 40 24 42 56 43 36 44 55 45
REMARK SMILES IDX 37 46 40 47 54 48 73 49 38 50 39 51 53 53 74 54 41 55 25 56
REMARK SMILES IDX 26 57 34 58 27 59 29 60 35 61 28 62 30 63 31 64 32 65 33 66
REMARK SMILES IDX 57 67 58 68 66 69 59 70 61 71 67 72 60 73 62 74 63 75 64 76
REMARK SMILES IDX 65 77 42 78 43 79 51 80 44 81 46 82 52 83 45 84 47 85 48 86
REMARK SMILES IDX 49 87 50 88
REMARK H PARENT 6 8 72 41 40 52
REMARK Flexibility Score: inf
ROOT
ATOM      1  C   UNL A   1      31.773  29.988  25.481  1.00  0.00     0.275 C 
ENDROOT
BRANCH   1   2
ATOM      2  C   UNL A   1      31.874  29.223  24.169  1.00  0.00     0.274 C 
BRANCH   2   3
ATOM      3  O   UNL A   1      33.073  28.411  24.163  1.00  0.00    -0.458 OA
BRANCH   3   4
ATOM      4  C   UNL A   1      33.175  27.505  23.157  1.00  0.00     0.361 C 
ATOM      5  O   UNL A   1      34.017  27.581  22.263  1.00  0.00    -0.245 OA
BRANCH   4   6
ATOM      6  C   UNL A   1      32.146  26.372  23.169  1.00  0.00     0.387 C 
BRANCH   6   7
ATOM      7  N   UNL A   1      32.114  25.454  24.330  1.00  0.00    -0.319 N 
ATOM      8  H   UNL A   1      32.152  25.538  25.345  1.00  0.00     0.349 HD
BRANCH   7   9
ATOM      9  C   UNL A   1      33.108  24.359  24.291  1.00  0.00     0.185 C 
ATOM     10  C   UNL A   1      36.946  22.195  23.642  1.00  0.00     0.008 C 
ATOM     11  C   UNL A   1      35.860  23.274  23.726  1.00  0.00    -0.011 C 
ATOM     12  C   UNL A   1      34.618  22.809  22.954  1.00  0.00     0.010 C 
ATOM     13  C   UNL A   1      35.472  23.633  25.171  1.00  0.00    -0.006 C 
ATOM     14  C   UNL A   1      33.566  23.907  22.897  1.00  0.00     0.065 C 
ATOM     15  C   UNL A   1      34.301  24.627  25.224  1.00  0.00     0.068 C 
ATOM     16  C   UNL A   1      36.636  24.256  25.962  1.00  0.00     0.008 C 
ENDBRANCH   7   9
BRANCH   7  17
ATOM     17  C   UNL A   1      31.077  25.619  25.381  1.00  0.00     0.090 C 
ATOM     18  C   UNL A   1      29.796  26.286  24.837  1.00  0.00     0.078 C 
ATOM     19  C   UNL A   1      30.725  24.263  26.039  1.00  0.00     0.078 C 
ATOM     20  C   UNL A   1      31.527  26.507  26.566  1.00  0.00     0.078 C 
ENDBRANCH   7  17
ENDBRANCH   6   7
ENDBRANCH   4   6
ENDBRANCH   3   4
ENDBRANCH   2   3
ENDBRANCH   1   2
BRANCH   1  21
ATOM     21  O   UNL A   1      33.108  30.334  25.868  1.00  0.00    -0.458 OA
BRANCH  21  22
ATOM     22  C   UNL A   1      33.192  31.255  26.847  1.00  0.00     0.338 C 
ATOM     23  O   UNL A   1      32.390  32.138  27.122  1.00  0.00    -0.246 OA
BRANCH  22  24
ATOM     24  C   UNL A   1      34.410  31.007  27.617  1.00  0.00     0.060 A 
ATOM     25  C   UNL A   1      35.276  32.068  27.897  1.00  0.00     0.016 A 
ATOM     26  C   UNL A   1      34.740  29.697  27.952  1.00  0.00     0.016 A 
ATOM     27  C   UNL A   1      36.530  31.802  28.430  1.00  0.00     0.010 A 
ATOM     28  C   UNL A   1      35.952  29.449  28.589  1.00  0.00     0.010 A 
ATOM     29  C   UNL A   1      36.865  30.494  28.810  1.00  0.00    -0.014 A 
BRANCH  29  30
ATOM     30  C   UNL A   1      38.128  30.227  29.535  1.00  0.00     0.031 A 
ATOM     31  C   UNL A   1      39.181  29.337  28.944  1.00  0.00     0.074 A 
ATOM     32  C   UNL A   1      38.264  30.743  30.771  1.00  0.00     0.049 A 
ATOM     33  N   UNL A   1      40.274  28.883  29.497  1.00  0.00    -0.248 NA
ATOM     34  C   UNL A   1      38.974  28.880  27.560  1.00  0.00     0.031 C 
ATOM     35  C   UNL A   1      37.274  31.594  31.440  1.00  0.00     0.029 A 
ATOM     36  N   UNL A   1      39.269  30.619  31.693  1.00  0.00    -0.354 N 
ATOM     37  C   UNL A   1      40.852  28.034  28.560  1.00  0.00     0.074 A 
ATOM     38  C   UNL A   1      39.998  28.053  27.391  1.00  0.00     0.031 C 
ATOM     39  C   UNL A   1      37.730  31.933  32.652  1.00  0.00     0.029 A 
ATOM     40  C   UNL A   1      39.006  31.269  32.875  1.00  0.00     0.049 A 
ATOM     41  H   UNL A   1      40.096  30.113  31.526  1.00  0.00     0.167 HD
ATOM     42  C   UNL A   1      41.991  27.311  28.673  1.00  0.00     0.034 A 
ATOM     43  C   UNL A   1      39.703  31.306  34.025  1.00  0.00     0.034 A 
ATOM     44  C   UNL A   1      42.849  27.350  29.829  1.00  0.00     0.049 A 
ATOM     45  C   UNL A   1      40.987  30.538  34.098  1.00  0.00     0.074 A 
ATOM     46  C   UNL A   1      44.057  26.707  30.029  1.00  0.00     0.029 A 
ATOM     47  N   UNL A   1      42.588  28.078  30.982  1.00  0.00    -0.354 N 
ATOM     48  N   UNL A   1      41.563  29.810  33.171  1.00  0.00    -0.248 NA
ATOM     49  C   UNL A   1      41.726  30.604  35.364  1.00  0.00     0.031 C 
ATOM     50  C   UNL A   1      44.521  27.040  31.308  1.00  0.00     0.029 A 
ATOM     51  C   UNL A   1      43.607  27.898  31.901  1.00  0.00     0.049 A 
ATOM     52  H   UNL A   1      41.793  28.641  31.125  1.00  0.00     0.167 HD
ATOM     53  C   UNL A   1      42.737  29.334  33.737  1.00  0.00     0.074 A 
ATOM     54  C   UNL A   1      42.806  29.890  35.076  1.00  0.00     0.031 C 
ATOM     55  C   UNL A   1      43.661  28.491  33.212  1.00  0.00     0.034 A 
BRANCH  42  56
ATOM     56  C   UNL A   1      42.390  26.435  27.513  1.00  0.00     0.023 A 
ATOM     57  C   UNL A   1      43.207  26.958  26.491  1.00  0.00     0.012 A 
ATOM     58  C   UNL A   1      42.004  25.080  27.461  1.00  0.00     0.148 A 
ATOM     59  C   UNL A   1      43.616  26.155  25.426  1.00  0.00     0.002 A 
ATOM     60  C   UNL A   1      42.442  24.277  26.413  1.00  0.00     0.091 A 
ATOM     61  F   UNL A   1      41.202  24.605  28.425  1.00  0.00    -0.205 F 
ATOM     62  C   UNL A   1      43.242  24.813  25.391  1.00  0.00     0.022 A 
BRANCH  60  63
ATOM     63  S   UNL A   1      42.063  22.522  26.321  1.00  0.00     0.127 S 
ATOM     64  O   UNL A   1      42.615  22.033  27.583  1.00  0.00    -0.237 OA
ATOM     65  O   UNL A   1      40.600  22.520  26.256  1.00  0.00    -0.237 OA
ATOM     66  O   UNL A   1      42.719  22.038  25.113  1.00  0.00    -0.744 OA
ENDBRANCH  60  63
ENDBRANCH  42  56
BRANCH  43  67
ATOM     67  C   UNL A   1      39.210  32.143  35.153  1.00  0.00     0.023 A 
ATOM     68  C   UNL A   1      38.355  31.564  36.110  1.00  0.00     0.012 A 
ATOM     69  C   UNL A   1      39.663  33.463  35.347  1.00  0.00     0.148 A 
ATOM     70  C   UNL A   1      37.956  32.286  37.235  1.00  0.00     0.002 A 
ATOM     71  C   UNL A   1      39.312  34.154  36.502  1.00  0.00     0.091 A 
ATOM     72  F   UNL A   1      40.460  34.007  34.416  1.00  0.00    -0.205 F 
ATOM     73  C   UNL A   1      38.447  33.574  37.441  1.00  0.00     0.022 A 
BRANCH  71  74
ATOM     74  S   UNL A   1      40.046  35.744  36.909  1.00  0.00     0.127 S 
ATOM     75  O   UNL A   1      41.466  35.416  36.962  1.00  0.00    -0.237 OA
ATOM     76  O   UNL A   1      39.646  36.573  35.770  1.00  0.00    -0.237 OA
ATOM     77  O   UNL A   1      39.428  36.135  38.171  1.00  0.00    -0.744 OA
ENDBRANCH  71  74
ENDBRANCH  43  67
BRANCH  55  78
ATOM     78  C   UNL A   1      44.814  28.122  34.102  1.00  0.00     0.023 A 
ATOM     79  C   UNL A   1      45.943  28.964  34.151  1.00  0.00     0.012 A 
ATOM     80  C   UNL A   1      44.770  26.970  34.908  1.00  0.00     0.148 A 
ATOM     81  C   UNL A   1      47.027  28.644  34.967  1.00  0.00     0.002 A 
ATOM     82  C   UNL A   1      45.837  26.681  35.748  1.00  0.00     0.091 A 
ATOM     83  F   UNL A   1      43.698  26.168  34.825  1.00  0.00    -0.205 F 
ATOM     84  C   UNL A   1      46.970  27.510  35.772  1.00  0.00     0.022 A 
BRANCH  82  85
ATOM     85  S   UNL A   1      45.797  25.279  36.870  1.00  0.00     0.127 S 
ATOM     86  O   UNL A   1      47.071  25.418  37.571  1.00  0.00    -0.237 OA
ATOM     87  O   UNL A   1      44.616  25.559  37.688  1.00  0.00    -0.237 OA
ATOM     88  O   UNL A   1      45.665  24.104  36.018  1.00  0.00    -0.744 OA
ENDBRANCH  82  85
ENDBRANCH  55  78
ENDBRANCH  29  30
ENDBRANCH  22  24
ENDBRANCH  21  22
ENDBRANCH   1  21
TORSDOF 17
ENDMDL
MODEL 2
REMARK VINA RESULT:     -11.1      5.158     10.036
REMARK SMILES C[C@H]1CC[C@H]([N@@H+](CC(=O)OCCOC(=O)c2ccc(-c3c4nc(c(-c5cccc(S(=O)(=O)[O-])c5F)c5ccc([nH]5)c(-c5cccc(S(=O)(=O)[O-])c5F)c5nc(c(-c6cccc(S(=O)(=O)[O-])c6F)c6ccc3[nH]6)C=C5)C=C4)cc2)C(C)(C)C)C[C@@H]1C
REMARK SMILES IDX 12 1 11 2 10 3 8 4 9 5 7 6 6 7 5 9 1 10 2 11 3 12 84 13 4 14
REMARK SMILES IDX 83 15 85 16 79 17 80 18 81 19 82 20 13 21 14 22 15 23 16 24
REMARK SMILES IDX 17 25 78 26 18 27 77 28 19 29 20 30 21 31 71 32 22 33 76 34
REMARK SMILES IDX 70 35 72 36 23 37 75 38 69 39 68 40 24 42 56 43 36 44 55 45
REMARK SMILES IDX 37 46 40 47 54 48 73 49 38 50 39 51 53 53 74 54 41 55 25 56
REMARK SMILES IDX 26 57 34 58 27 59 29 60 35 61 28 62 30 63 31 64 32 65 33 66
REMARK SMILES IDX 57 67 58 68 66 69 59 70 61 71 67 72 60 73 62 74 63 75 64 76
REMARK SMILES IDX 65 77 42 78 43 79 51 80 44 81 46 82 52 83 45 84 47 85 48 86
REMARK SMILES IDX 49 87 50 88
REMARK H PARENT 6 8 72 41 40 52
REMARK Flexibility Score: inf
ROOT
ATOM      1  C   UNL A   1      36.939  20.682  24.902  1.00  0.00     0.275 C 
ENDROOT
BRANCH   1   2
ATOM      2  C   UNL A   1      35.483  21.125  24.890  1.00  0.00     0.274 C 
BRANCH   2   3
ATOM      3  O   UNL A   1      35.182  21.861  26.101  1.00  0.00    -0.458 OA
BRANCH   3   4
ATOM      4  C   UNL A   1      34.842  23.165  25.938  1.00  0.00     0.361 C 
ATOM      5  O   UNL A   1      35.658  24.048  25.676  1.00  0.00    -0.245 OA
BRANCH   4   6
ATOM      6  C   UNL A   1      33.361  23.500  26.129  1.00  0.00     0.387 C 
BRANCH   6   7
ATOM      7  N   UNL A   1      32.631  24.152  25.019  1.00  0.00    -0.319 N 
ATOM      8  H   UNL A   1      32.761  24.277  24.015  1.00  0.00     0.349 HD
BRANCH   7   9
ATOM      9  C   UNL A   1      32.286  25.573  25.244  1.00  0.00     0.185 C 
ATOM     10  C   UNL A   1      31.793  29.500  27.287  1.00  0.00     0.008 C 
ATOM     11  C   UNL A   1      32.132  28.040  26.966  1.00  0.00    -0.011 C 
ATOM     12  C   UNL A   1      30.881  27.333  26.427  1.00  0.00     0.010 C 
ATOM     13  C   UNL A   1      33.288  27.892  25.962  1.00  0.00    -0.006 C 
ATOM     14  C   UNL A   1      31.136  25.846  26.225  1.00  0.00     0.065 C 
ATOM     15  C   UNL A   1      33.526  26.425  25.568  1.00  0.00     0.068 C 
ATOM     16  C   UNL A   1      34.619  28.441  26.502  1.00  0.00     0.008 C 
ENDBRANCH   7   9
BRANCH   7  17
ATOM     17  C   UNL A   1      32.223  23.361  23.830  1.00  0.00     0.090 C 
ATOM     18  C   UNL A   1      30.879  23.841  23.242  1.00  0.00     0.078 C 
ATOM     19  C   UNL A   1      33.317  23.390  22.735  1.00  0.00     0.078 C 
ATOM     20  C   UNL A   1      32.023  21.854  24.122  1.00  0.00     0.078 C 
ENDBRANCH   7  17
ENDBRANCH   6   7
ENDBRANCH   4   6
ENDBRANCH   3   4
ENDBRANCH   2   3
ENDBRANCH   1   2
BRANCH   1  21
ATOM     21  O   UNL A   1      37.561  21.317  26.025  1.00  0.00    -0.458 OA
BRANCH  21  22
ATOM     22  C   UNL A   1      38.890  21.121  26.119  1.00  0.00     0.338 C 
ATOM     23  O   UNL A   1      39.528  20.119  25.823  1.00  0.00    -0.246 OA
BRANCH  22  24
ATOM     24  C   UNL A   1      39.510  22.357  26.594  1.00  0.00     0.060 A 
ATOM     25  C   UNL A   1      39.038  23.588  26.128  1.00  0.00     0.016 A 
ATOM     26  C   UNL A   1      40.636  22.277  27.408  1.00  0.00     0.016 A 
ATOM     27  C   UNL A   1      39.759  24.742  26.399  1.00  0.00     0.010 A 
ATOM     28  C   UNL A   1      41.292  23.450  27.770  1.00  0.00     0.010 A 
ATOM     29  C   UNL A   1      40.874  24.686  27.250  1.00  0.00    -0.014 A 
BRANCH  29  30
ATOM     30  C   UNL A   1      41.546  25.932  27.683  1.00  0.00     0.031 A 
ATOM     31  C   UNL A   1      40.821  26.949  28.516  1.00  0.00     0.074 A 
ATOM     32  C   UNL A   1      42.797  26.157  27.240  1.00  0.00     0.049 A 
ATOM     33  N   UNL A   1      41.205  28.149  28.860  1.00  0.00    -0.248 NA
ATOM     34  C   UNL A   1      39.485  26.580  29.011  1.00  0.00     0.031 C 
ATOM     35  C   UNL A   1      43.568  25.237  26.397  1.00  0.00     0.029 A 
ATOM     36  N   UNL A   1      43.635  27.226  27.414  1.00  0.00    -0.354 N 
ATOM     37  C   UNL A   1      40.137  28.707  29.552  1.00  0.00     0.074 A 
ATOM     38  C   UNL A   1      39.093  27.704  29.598  1.00  0.00     0.031 C 
ATOM     39  C   UNL A   1      44.771  25.769  26.147  1.00  0.00     0.029 A 
ATOM     40  C   UNL A   1      44.831  27.094  26.749  1.00  0.00     0.049 A 
ATOM     41  H   UNL A   1      43.404  28.011  27.960  1.00  0.00     0.167 HD
ATOM     42  C   UNL A   1      40.044  29.944  30.095  1.00  0.00     0.034 A 
ATOM     43  C   UNL A   1      45.855  27.955  26.614  1.00  0.00     0.034 A 
ATOM     44  C   UNL A   1      41.116  30.905  30.078  1.00  0.00     0.049 A 
ATOM     45  C   UNL A   1      45.743  29.296  27.275  1.00  0.00     0.074 A 
ATOM     46  C   UNL A   1      41.156  32.165  30.649  1.00  0.00     0.029 A 
ATOM     47  N   UNL A   1      42.343  30.709  29.456  1.00  0.00    -0.354 N 
ATOM     48  N   UNL A   1      44.760  29.775  27.999  1.00  0.00    -0.248 NA
ATOM     49  C   UNL A   1      46.880  30.209  27.114  1.00  0.00     0.031 C 
ATOM     50  C   UNL A   1      42.404  32.733  30.364  1.00  0.00     0.029 A 
ATOM     51  C   UNL A   1      43.145  31.825  29.625  1.00  0.00     0.049 A 
ATOM     52  H   UNL A   1      42.603  29.895  28.968  1.00  0.00     0.167 HD
ATOM     53  C   UNL A   1      45.159  31.045  28.388  1.00  0.00     0.074 A 
ATOM     54  C   UNL A   1      46.492  31.242  27.849  1.00  0.00     0.031 C 
ATOM     55  C   UNL A   1      44.479  31.976  29.101  1.00  0.00     0.034 A 
BRANCH  42  56
ATOM     56  C   UNL A   1      38.752  30.323  30.774  1.00  0.00     0.023 A 
ATOM     57  C   UNL A   1      38.567  30.027  32.139  1.00  0.00     0.012 A 
ATOM     58  C   UNL A   1      37.745  31.020  30.078  1.00  0.00     0.148 A 
ATOM     59  C   UNL A   1      37.393  30.398  32.795  1.00  0.00     0.002 A 
ATOM     60  C   UNL A   1      36.591  31.417  30.746  1.00  0.00     0.091 A 
ATOM     61  F   UNL A   1      37.923  31.270  28.772  1.00  0.00    -0.205 F 
ATOM     62  C   UNL A   1      36.410  31.101  32.103  1.00  0.00     0.022 A 
BRANCH  60  63
ATOM     63  S   UNL A   1      35.300  32.382  29.951  1.00  0.00     0.127 S 
ATOM     64  O   UNL A   1      34.343  32.554  31.042  1.00  0.00    -0.237 OA
ATOM     65  O   UNL A   1      36.012  33.603  29.568  1.00  0.00    -0.237 OA
ATOM     66  O   UNL A   1      34.839  31.577  28.827  1.00  0.00    -0.744 OA
ENDBRANCH  60  63
ENDBRANCH  42  56
BRANCH  43  67
ATOM     67  C   UNL A   1      47.074  27.533  25.871  1.00  0.00     0.023 A 
ATOM     68  C   UNL A   1      47.991  26.669  26.499  1.00  0.00     0.012 A 
ATOM     69  C   UNL A   1      47.277  27.886  24.523  1.00  0.00     0.148 A 
ATOM     70  C   UNL A   1      49.090  26.170  25.800  1.00  0.00     0.002 A 
ATOM     71  C   UNL A   1      48.339  27.335  23.814  1.00  0.00     0.091 A 
ATOM     72  F   UNL A   1      46.407  28.726  23.945  1.00  0.00    -0.205 F 
ATOM     73  C   UNL A   1      49.255  26.488  24.453  1.00  0.00     0.022 A 
BRANCH  71  74
ATOM     74  S   UNL A   1      48.510  27.567  22.040  1.00  0.00     0.127 S 
ATOM     75  O   UNL A   1      49.634  28.494  21.963  1.00  0.00    -0.237 OA
ATOM     76  O   UNL A   1      48.799  26.210  21.573  1.00  0.00    -0.237 OA
ATOM     77  O   UNL A   1      47.220  28.082  21.598  1.00  0.00    -0.744 OA
ENDBRANCH  71  74
ENDBRANCH  43  67
BRANCH  55  78
ATOM     78  C   UNL A   1      45.173  33.290  29.323  1.00  0.00     0.023 A 
ATOM     79  C   UNL A   1      45.983  33.458  30.464  1.00  0.00     0.012 A 
ATOM     80  C   UNL A   1      45.054  34.341  28.395  1.00  0.00     0.148 A 
ATOM     81  C   UNL A   1      46.637  34.667  30.695  1.00  0.00     0.002 A 
ATOM     82  C   UNL A   1      45.741  35.528  28.612  1.00  0.00     0.091 A 
ATOM     83  F   UNL A   1      44.256  34.170  27.330  1.00  0.00    -0.205 F 
ATOM     84  C   UNL A   1      46.524  35.697  29.765  1.00  0.00     0.022 A 
BRANCH  82  85
ATOM     85  S   UNL A   1      45.705  36.867  27.416  1.00  0.00     0.127 S 
ATOM     86  O   UNL A   1      44.270  37.099  27.268  1.00  0.00    -0.237 OA
ATOM     87  O   UNL A   1      46.427  37.935  28.110  1.00  0.00    -0.237 OA
ATOM     88  O   UNL A   1      46.392  36.353  26.238  1.00  0.00    -0.744 OA
ENDBRANCH  82  85
ENDBRANCH  55  78
ENDBRANCH  29  30
ENDBRANCH  22  24
ENDBRANCH  21  22
ENDBRANCH   1  21
TORSDOF 17
ENDMDL
MODEL 3
REMARK VINA RESULT:     -11.1      0.917      1.853
REMARK SMILES C[C@H]1CC[C@H]([N@@H+](CC(=O)OCCOC(=O)c2ccc(-c3c4nc(c(-c5cccc(S(=O)(=O)[O-])c5F)c5ccc([nH]5)c(-c5cccc(S(=O)(=O)[O-])c5F)c5nc(c(-c6cccc(S(=O)(=O)[O-])c6F)c6ccc3[nH]6)C=C5)C=C4)cc2)C(C)(C)C)C[C@@H]1C
REMARK SMILES IDX 12 1 11 2 10 3 8 4 9 5 7 6 6 7 5 9 1 10 2 11 3 12 84 13 4 14
REMARK SMILES IDX 83 15 85 16 79 17 80 18 81 19 82 20 13 21 14 22 15 23 16 24
REMARK SMILES IDX 17 25 78 26 18 27 77 28 19 29 20 30 21 31 71 32 22 33 76 34
REMARK SMILES IDX 70 35 72 36 23 37 75 38 69 39 68 40 24 42 56 43 36 44 55 45
REMARK SMILES IDX 37 46 40 47 54 48 73 49 38 50 39 51 53 53 74 54 41 55 25 56
REMARK SMILES IDX 26 57 34 58 27 59 29 60 35 61 28 62 30 63 31 64 32 65 33 66
REMARK SMILES IDX 57 67 58 68 66 69 59 70 61 71 67 72 60 73 62 74 63 75 64 76
REMARK SMILES IDX 65 77 42 78 43 79 51 80 44 81 46 82 52 83 45 84 47 85 48 86
REMARK SMILES IDX 49 87 50 88
REMARK H PARENT 6 8 72 41 40 52
REMARK Flexibility Score: inf
ROOT
ATOM      1  C   UNL A   1      31.741  29.854  25.341  1.00  0.00     0.275 C 
ENDROOT
BRANCH   1   2
ATOM      2  C   UNL A   1      31.225  28.522  25.865  1.00  0.00     0.274 C 
BRANCH   2   3
ATOM      3  O   UNL A   1      32.233  27.497  25.683  1.00  0.00    -0.458 OA
BRANCH   3   4
ATOM      4  C   UNL A   1      31.808  26.214  25.808  1.00  0.00     0.361 C 
ATOM      5  O   UNL A   1      31.803  25.605  26.877  1.00  0.00    -0.245 OA
BRANCH   4   6
ATOM      6  C   UNL A   1      31.352  25.532  24.516  1.00  0.00     0.387 C 
BRANCH   6   7
ATOM      7  N   UNL A   1      32.298  25.453  23.381  1.00  0.00    -0.319 N 
ATOM      8  H   UNL A   1      32.238  25.430  22.363  1.00  0.00     0.349 HD
BRANCH   7   9
ATOM      9  C   UNL A   1      33.260  24.331  23.442  1.00  0.00     0.185 C 
ATOM     10  C   UNL A   1      35.546  20.844  25.007  1.00  0.00     0.008 C 
ATOM     11  C   UNL A   1      34.569  22.015  24.856  1.00  0.00    -0.011 C 
ATOM     12  C   UNL A   1      35.344  23.276  24.449  1.00  0.00     0.010 C 
ATOM     13  C   UNL A   1      33.448  21.742  23.839  1.00  0.00    -0.006 C 
ATOM     14  C   UNL A   1      34.432  24.494  24.421  1.00  0.00     0.065 C 
ATOM     15  C   UNL A   1      32.555  22.975  23.619  1.00  0.00     0.068 C 
ATOM     16  C   UNL A   1      32.529  20.584  24.264  1.00  0.00     0.008 C 
ENDBRANCH   7   9
BRANCH   7  17
ATOM     17  C   UNL A   1      32.293  26.506  22.333  1.00  0.00     0.090 C 
ATOM     18  C   UNL A   1      31.002  27.352  22.363  1.00  0.00     0.078 C 
ATOM     19  C   UNL A   1      33.529  27.428  22.458  1.00  0.00     0.078 C 
ATOM     20  C   UNL A   1      32.382  25.951  20.890  1.00  0.00     0.078 C 
ENDBRANCH   7  17
ENDBRANCH   6   7
ENDBRANCH   4   6
ENDBRANCH   3   4
ENDBRANCH   2   3
ENDBRANCH   1   2
BRANCH   1  21
ATOM     21  O   UNL A   1      33.094  29.987  25.792  1.00  0.00    -0.458 OA
BRANCH  21  22
ATOM     22  C   UNL A   1      33.284  30.926  26.738  1.00  0.00     0.338 C 
ATOM     23  O   UNL A   1      32.534  31.839  27.056  1.00  0.00    -0.246 OA
BRANCH  22  24
ATOM     24  C   UNL A   1      34.552  30.655  27.415  1.00  0.00     0.060 A 
ATOM     25  C   UNL A   1      34.800  29.379  27.929  1.00  0.00     0.016 A 
ATOM     26  C   UNL A   1      35.435  31.707  27.637  1.00  0.00     0.016 A 
ATOM     27  C   UNL A   1      35.895  29.178  28.758  1.00  0.00     0.010 A 
ATOM     28  C   UNL A   1      36.591  31.473  28.376  1.00  0.00     0.010 A 
ATOM     29  C   UNL A   1      36.817  30.216  28.961  1.00  0.00    -0.014 A 
BRANCH  29  30
ATOM     30  C   UNL A   1      38.074  29.963  29.700  1.00  0.00     0.031 A 
ATOM     31  C   UNL A   1      39.134  29.064  29.135  1.00  0.00     0.074 A 
ATOM     32  C   UNL A   1      38.199  30.502  30.928  1.00  0.00     0.049 A 
ATOM     33  N   UNL A   1      40.223  28.622  29.705  1.00  0.00    -0.248 NA
ATOM     34  C   UNL A   1      38.939  28.582  27.757  1.00  0.00     0.031 C 
ATOM     35  C   UNL A   1      37.203  31.364  31.573  1.00  0.00     0.029 A 
ATOM     36  N   UNL A   1      39.197  30.396  31.861  1.00  0.00    -0.354 N 
ATOM     37  C   UNL A   1      40.809  27.757  28.788  1.00  0.00     0.074 A 
ATOM     38  C   UNL A   1      39.965  27.753  27.612  1.00  0.00     0.031 C 
ATOM     39  C   UNL A   1      37.648  31.725  32.783  1.00  0.00     0.029 A 
ATOM     40  C   UNL A   1      38.923  31.067  33.029  1.00  0.00     0.049 A 
ATOM     41  H   UNL A   1      40.026  29.888  31.710  1.00  0.00     0.167 HD
ATOM     42  C   UNL A   1      41.948  27.037  28.924  1.00  0.00     0.034 A 
ATOM     43  C   UNL A   1      39.610  31.125  34.184  1.00  0.00     0.034 A 
ATOM     44  C   UNL A   1      42.796  27.099  30.086  1.00  0.00     0.049 A 
ATOM     45  C   UNL A   1      40.895  30.360  34.282  1.00  0.00     0.074 A 
ATOM     46  C   UNL A   1      44.003  26.460  30.308  1.00  0.00     0.029 A 
ATOM     47  N   UNL A   1      42.524  27.846  31.224  1.00  0.00    -0.354 N 
ATOM     48  N   UNL A   1      41.479  29.617  33.373  1.00  0.00    -0.248 NA
ATOM     49  C   UNL A   1      41.622  30.450  35.552  1.00  0.00     0.031 C 
ATOM     50  C   UNL A   1      44.456  26.817  31.585  1.00  0.00     0.029 A 
ATOM     51  C   UNL A   1      43.536  27.684  32.154  1.00  0.00     0.049 A 
ATOM     52  H   UNL A   1      41.728  28.411  31.350  1.00  0.00     0.167 HD
ATOM     53  C   UNL A   1      42.648  29.152  33.957  1.00  0.00     0.074 A 
ATOM     54  C   UNL A   1      42.705  29.732  35.286  1.00  0.00     0.031 C 
ATOM     55  C   UNL A   1      43.577  28.301  33.455  1.00  0.00     0.034 A 
BRANCH  42  56
ATOM     56  C   UNL A   1      42.358  26.141  27.783  1.00  0.00     0.023 A 
ATOM     57  C   UNL A   1      43.254  26.619  26.806  1.00  0.00     0.012 A 
ATOM     58  C   UNL A   1      41.901  24.810  27.707  1.00  0.00     0.148 A 
ATOM     59  C   UNL A   1      43.673  25.795  25.761  1.00  0.00     0.002 A 
ATOM     60  C   UNL A   1      42.348  23.984  26.681  1.00  0.00     0.091 A 
ATOM     61  F   UNL A   1      41.026  24.379  28.627  1.00  0.00    -0.205 F 
ATOM     62  C   UNL A   1      43.228  24.476  25.703  1.00  0.00     0.022 A 
BRANCH  60  63
ATOM     63  S   UNL A   1      41.878  22.253  26.563  1.00  0.00     0.127 S 
ATOM     64  O   UNL A   1      40.432  22.350  26.381  1.00  0.00    -0.237 OA
ATOM     65  O   UNL A   1      42.612  21.808  25.376  1.00  0.00    -0.237 OA
ATOM     66  O   UNL A   1      42.320  21.637  27.808  1.00  0.00    -0.744 OA
ENDBRANCH  60  63
ENDBRANCH  42  56
BRANCH  43  67
ATOM     67  C   UNL A   1      39.106  31.982  35.293  1.00  0.00     0.023 A 
ATOM     68  C   UNL A   1      38.228  31.424  36.241  1.00  0.00     0.012 A 
ATOM     69  C   UNL A   1      39.570  33.299  35.478  1.00  0.00     0.148 A 
ATOM     70  C   UNL A   1      37.817  32.165  37.350  1.00  0.00     0.002 A 
ATOM     71  C   UNL A   1      39.207  34.008  36.617  1.00  0.00     0.091 A 
ATOM     72  F   UNL A   1      40.390  33.823  34.554  1.00  0.00    -0.205 F 
ATOM     73  C   UNL A   1      38.320  33.449  37.548  1.00  0.00     0.022 A 
BRANCH  71  74
ATOM     74  S   UNL A   1      39.951  35.595  37.018  1.00  0.00     0.127 S 
ATOM     75  O   UNL A   1      39.283  35.934  38.270  1.00  0.00    -0.237 OA
ATOM     76  O   UNL A   1      41.368  35.252  37.148  1.00  0.00    -0.237 OA
ATOM     77  O   UNL A   1      39.653  36.453  35.877  1.00  0.00    -0.744 OA
ENDBRANCH  71  74
ENDBRANCH  43  67
BRANCH  55  78
ATOM     78  C   UNL A   1      44.724  27.949  34.361  1.00  0.00     0.023 A 
ATOM     79  C   UNL A   1      45.892  28.735  34.330  1.00  0.00     0.012 A 
ATOM     80  C   UNL A   1      44.635  26.871  35.260  1.00  0.00     0.148 A 
ATOM     81  C   UNL A   1      46.971  28.431  35.159  1.00  0.00     0.002 A 
ATOM     82  C   UNL A   1      45.698  26.599  36.110  1.00  0.00     0.091 A 
ATOM     83  F   UNL A   1      43.524  26.118  35.254  1.00  0.00    -0.205 F 
ATOM     84  C   UNL A   1      46.870  27.370  36.055  1.00  0.00     0.022 A 
BRANCH  82  85
ATOM     85  S   UNL A   1      45.605  25.297  37.345  1.00  0.00     0.127 S 
ATOM     86  O   UNL A   1      44.419  25.685  38.102  1.00  0.00    -0.237 OA
ATOM     87  O   UNL A   1      45.441  24.093  36.527  1.00  0.00    -0.237 OA
ATOM     88  O   UNL A   1      46.870  25.357  38.066  1.00  0.00    -0.744 OA
ENDBRANCH  82  85
ENDBRANCH  55  78
ENDBRANCH  29  30
ENDBRANCH  22  24
ENDBRANCH  21  22
ENDBRANCH   1  21
TORSDOF 17
ENDMDL
