MODEL 1
REMARK VINA RESULT:     -11.6      0.000      0.000
REMARK SMILES Cc1cc(C(=O)OCCOC(=O)c2ccc(-c3c4nc(c(-c5cccc(S(=O)(=O)[O-])c5F)c5ccc([nH]5)c(-c5cccc(S(=O)(=O)[O-])c5F)c5nc(c(-c6cccc(S(=O)(=O)[O-])c6F)c6ccc3[nH]6)C=C5)C=C4)cc2)c(NC(=O)c2nc(C(C)(C)C)n[nH]2)s1
REMARK SMILES IDX 8 1 7 2 5 3 6 4 4 5 1 6 2 7 3 8 89 9 76 10 77 11 78 12 79 14
REMARK SMILES IDX 80 15 81 16 88 17 82 18 87 19 83 21 84 22 85 23 86 24 9 25
REMARK SMILES IDX 10 26 11 27 12 28 13 29 14 30 75 31 15 32 74 33 16 34 17 35
REMARK SMILES IDX 18 36 68 37 19 38 73 39 67 40 69 41 20 42 72 43 66 44 65 45
REMARK SMILES IDX 21 47 53 48 33 49 52 50 34 51 37 52 51 53 70 54 35 55 36 56
REMARK SMILES IDX 50 58 71 59 38 60 22 61 23 62 31 63 24 64 26 65 32 66 25 67
REMARK SMILES IDX 27 68 28 69 29 70 30 71 54 72 55 73 63 74 56 75 58 76 64 77
REMARK SMILES IDX 57 78 59 79 60 80 61 81 62 82 39 83 40 84 48 85 41 86 43 87
REMARK SMILES IDX 49 88 42 89 44 90 45 91 46 92 47 93
REMARK H PARENT 77 13 88 20 69 46 37 57
REMARK Flexibility Score: inf
ROOT
ATOM      1  C   UNL A   1      35.569  20.761  24.706  1.00  0.00     0.275 C 
ENDROOT
BRANCH   1   2
ATOM      2  O   UNL A   1      35.292  22.165  24.873  1.00  0.00    -0.458 OA
BRANCH   2   3
ATOM      3  C   UNL A   1      34.635  22.787  23.852  1.00  0.00     0.341 C 
ATOM      4  O   UNL A   1      35.138  23.060  22.764  1.00  0.00    -0.246 OA
BRANCH   3   5
ATOM      5  C   UNL A   1      33.235  23.074  24.165  1.00  0.00     0.095 A 
ATOM      6  C   UNL A   1      30.211  22.962  26.465  1.00  0.00     0.056 C 
ATOM      7  C   UNL A   1      31.235  23.096  25.395  1.00  0.00     0.004 A 
ATOM      8  C   UNL A   1      32.561  22.723  25.391  1.00  0.00     0.033 A 
ATOM      9  S   UNL A   1      30.793  23.789  23.911  1.00  0.00    -0.122 S 
ATOM     10  C   UNL A   1      32.369  23.729  23.295  1.00  0.00     0.110 A 
BRANCH  10  11
ATOM     11  N   UNL A   1      32.694  24.275  22.065  1.00  0.00    -0.310 N 
ATOM     12  C   UNL A   1      32.901  25.567  21.614  1.00  0.00     0.293 C 
ATOM     13  H   UNL A   1      32.802  23.597  21.359  1.00  0.00     0.171 HD
ATOM     14  O   UNL A   1      33.251  25.677  20.438  1.00  0.00    -0.265 OA
BRANCH  12  15
ATOM     15  C   UNL A   1      32.760  26.717  22.468  1.00  0.00     0.214 A 
ATOM     16  N   UNL A   1      32.974  26.768  23.771  1.00  0.00    -0.207 NA
ATOM     17  N   UNL A   1      32.261  27.917  22.063  1.00  0.00    -0.255 N 
ATOM     18  C   UNL A   1      32.598  28.050  24.111  1.00  0.00     0.156 A 
ATOM     19  N   UNL A   1      32.201  28.799  23.071  1.00  0.00    -0.158 NA
ATOM     20  H   UNL A   1      31.977  28.113  21.141  1.00  0.00     0.192 HD
BRANCH  18  21
ATOM     21  C   UNL A   1      32.560  28.545  25.542  1.00  0.00     0.024 C 
ATOM     22  C   UNL A   1      31.697  27.594  26.392  1.00  0.00     0.019 C 
ATOM     23  C   UNL A   1      33.977  28.602  26.144  1.00  0.00     0.019 C 
ATOM     24  C   UNL A   1      31.952  29.962  25.633  1.00  0.00     0.019 C 
ENDBRANCH  18  21
ENDBRANCH  12  15
ENDBRANCH  10  11
ENDBRANCH   3   5
ENDBRANCH   2   3
ENDBRANCH   1   2
BRANCH   1  25
ATOM     25  C   UNL A   1      37.033  20.426  25.012  1.00  0.00     0.275 C 
BRANCH  25  26
ATOM     26  O   UNL A   1      37.674  21.490  25.739  1.00  0.00    -0.458 OA
BRANCH  26  27
ATOM     27  C   UNL A   1      38.942  21.235  26.144  1.00  0.00     0.338 C 
ATOM     28  O   UNL A   1      39.537  20.175  26.031  1.00  0.00    -0.246 OA
BRANCH  27  29
ATOM     29  C   UNL A   1      39.595  22.494  26.559  1.00  0.00     0.060 A 
ATOM     30  C   UNL A   1      39.094  23.677  26.008  1.00  0.00     0.016 A 
ATOM     31  C   UNL A   1      40.657  22.537  27.467  1.00  0.00     0.016 A 
ATOM     32  C   UNL A   1      39.607  24.909  26.405  1.00  0.00     0.010 A 
ATOM     33  C   UNL A   1      41.195  23.777  27.840  1.00  0.00     0.010 A 
ATOM     34  C   UNL A   1      40.660  24.969  27.323  1.00  0.00    -0.014 A 
BRANCH  34  35
ATOM     35  C   UNL A   1      41.237  26.290  27.658  1.00  0.00     0.031 A 
ATOM     36  C   UNL A   1      42.595  26.650  27.135  1.00  0.00     0.074 A 
ATOM     37  C   UNL A   1      40.533  27.186  28.373  1.00  0.00     0.049 A 
ATOM     38  N   UNL A   1      43.274  27.756  27.288  1.00  0.00    -0.248 NA
ATOM     39  C   UNL A   1      43.273  25.629  26.320  1.00  0.00     0.031 C 
ATOM     40  C   UNL A   1      39.176  26.983  28.876  1.00  0.00     0.029 A 
ATOM     41  N   UNL A   1      40.863  28.449  28.798  1.00  0.00    -0.354 N 
ATOM     42  C   UNL A   1      44.466  27.563  26.605  1.00  0.00     0.074 A 
ATOM     43  C   UNL A   1      44.417  26.233  26.034  1.00  0.00     0.031 C 
ATOM     44  C   UNL A   1      38.794  28.078  29.555  1.00  0.00     0.029 A 
ATOM     45  C   UNL A   1      39.888  29.047  29.561  1.00  0.00     0.049 A 
ATOM     46  H   UNL A   1      41.718  28.886  28.577  1.00  0.00     0.167 HD
ATOM     47  C   UNL A   1      45.508  28.415  26.466  1.00  0.00     0.034 A 
ATOM     48  C   UNL A   1      39.887  30.232  30.202  1.00  0.00     0.034 A 
ATOM     49  C   UNL A   1      45.563  29.731  27.042  1.00  0.00     0.049 A 
ATOM     50  C   UNL A   1      41.091  31.133  30.087  1.00  0.00     0.074 A 
ATOM     51  C   UNL A   1      46.583  30.662  26.962  1.00  0.00     0.029 A 
ATOM     52  N   UNL A   1      44.566  30.298  27.820  1.00  0.00    -0.354 N 
ATOM     53  N   UNL A   1      42.181  30.973  29.377  1.00  0.00    -0.248 NA
ATOM     54  C   UNL A   1      41.055  32.393  30.848  1.00  0.00     0.031 C 
ATOM     55  C   UNL A   1      46.220  31.777  27.723  1.00  0.00     0.029 A 
ATOM     56  C   UNL A   1      44.954  31.558  28.246  1.00  0.00     0.049 A 
ATOM     57  H   UNL A   1      43.707  29.869  28.040  1.00  0.00     0.167 HD
ATOM     58  C   UNL A   1      42.942  32.120  29.575  1.00  0.00     0.074 A 
ATOM     59  C   UNL A   1      42.180  32.978  30.457  1.00  0.00     0.031 C 
ATOM     60  C   UNL A   1      44.167  32.429  29.082  1.00  0.00     0.034 A 
BRANCH  47  61
ATOM     61  C   UNL A   1      46.690  27.930  25.673  1.00  0.00     0.023 A 
ATOM     62  C   UNL A   1      46.753  28.172  24.286  1.00  0.00     0.012 A 
ATOM     63  C   UNL A   1      47.748  27.254  26.309  1.00  0.00     0.148 A 
ATOM     64  C   UNL A   1      47.838  27.719  23.538  1.00  0.00     0.002 A 
ATOM     65  C   UNL A   1      48.847  26.844  25.564  1.00  0.00     0.091 A 
ATOM     66  F   UNL A   1      47.653  27.011  27.624  1.00  0.00    -0.205 F 
ATOM     67  C   UNL A   1      48.888  27.064  24.179  1.00  0.00     0.022 A 
BRANCH  65  68
ATOM     68  S   UNL A   1      50.275  26.054  26.311  1.00  0.00     0.127 S 
ATOM     69  O   UNL A   1      51.190  25.961  25.174  1.00  0.00    -0.237 OA
ATOM     70  O   UNL A   1      50.668  27.029  27.330  1.00  0.00    -0.237 OA
ATOM     71  O   UNL A   1      49.803  24.782  26.840  1.00  0.00    -0.744 OA
ENDBRANCH  65  68
ENDBRANCH  47  61
BRANCH  48  72
ATOM     72  C   UNL A   1      38.704  30.647  31.010  1.00  0.00     0.023 A 
ATOM     73  C   UNL A   1      38.652  30.340  32.384  1.00  0.00     0.012 A 
ATOM     74  C   UNL A   1      37.623  31.335  30.422  1.00  0.00     0.148 A 
ATOM     75  C   UNL A   1      37.533  30.677  33.148  1.00  0.00     0.002 A 
ATOM     76  C   UNL A   1      36.538  31.719  31.200  1.00  0.00     0.091 A 
ATOM     77  F   UNL A   1      37.679  31.600  29.109  1.00  0.00    -0.205 F 
ATOM     78  C   UNL A   1      36.481  31.373  32.559  1.00  0.00     0.022 A 
BRANCH  76  79
ATOM     79  S   UNL A   1      35.191  32.716  30.554  1.00  0.00     0.127 S 
ATOM     80  O   UNL A   1      35.853  33.998  30.317  1.00  0.00    -0.237 OA
ATOM     81  O   UNL A   1      34.825  31.982  29.343  1.00  0.00    -0.237 OA
ATOM     82  O   UNL A   1      34.167  32.720  31.589  1.00  0.00    -0.744 OA
ENDBRANCH  76  79
ENDBRANCH  48  72
BRANCH  60  83
ATOM     83  C   UNL A   1      44.762  33.765  29.449  1.00  0.00     0.023 A 
ATOM     84  C   UNL A   1      45.565  33.885  30.600  1.00  0.00     0.012 A 
ATOM     85  C   UNL A   1      44.601  34.881  28.602  1.00  0.00     0.148 A 
ATOM     86  C   UNL A   1      46.172  35.100  30.920  1.00  0.00     0.002 A 
ATOM     87  C   UNL A   1      45.251  36.074  28.899  1.00  0.00     0.091 A 
ATOM     88  F   UNL A   1      43.821  34.754  27.518  1.00  0.00    -0.205 F 
ATOM     89  C   UNL A   1      46.025  36.188  30.064  1.00  0.00     0.022 A 
BRANCH  87  90
ATOM     90  S   UNL A   1      45.203  37.498  27.804  1.00  0.00     0.127 S 
ATOM     91  O   UNL A   1      46.087  37.071  26.720  1.00  0.00    -0.237 OA
ATOM     92  O   UNL A   1      43.787  37.566  27.444  1.00  0.00    -0.237 OA
ATOM     93  O   UNL A   1      45.682  38.628  28.590  1.00  0.00    -0.744 OA
ENDBRANCH  87  90
ENDBRANCH  60  83
ENDBRANCH  34  35
ENDBRANCH  27  29
ENDBRANCH  26  27
ENDBRANCH  25  26
ENDBRANCH   1  25
TORSDOF 17
ENDMDL
MODEL 2
REMARK VINA RESULT:     -11.5      4.891     10.121
REMARK SMILES Cc1cc(C(=O)OCCOC(=O)c2ccc(-c3c4nc(c(-c5cccc(S(=O)(=O)[O-])c5F)c5ccc([nH]5)c(-c5cccc(S(=O)(=O)[O-])c5F)c5nc(c(-c6cccc(S(=O)(=O)[O-])c6F)c6ccc3[nH]6)C=C5)C=C4)cc2)c(NC(=O)c2nc(C(C)(C)C)n[nH]2)s1
REMARK SMILES IDX 8 1 7 2 5 3 6 4 4 5 1 6 2 7 3 8 89 9 76 10 77 11 78 12 79 14
REMARK SMILES IDX 80 15 81 16 88 17 82 18 87 19 83 21 84 22 85 23 86 24 9 25
REMARK SMILES IDX 10 26 11 27 12 28 13 29 14 30 75 31 15 32 74 33 16 34 17 35
REMARK SMILES IDX 18 36 68 37 19 38 73 39 67 40 69 41 20 42 72 43 66 44 65 45
REMARK SMILES IDX 21 47 53 48 33 49 52 50 34 51 37 52 51 53 70 54 35 55 36 56
REMARK SMILES IDX 50 58 71 59 38 60 22 61 23 62 31 63 24 64 26 65 32 66 25 67
REMARK SMILES IDX 27 68 28 69 29 70 30 71 54 72 55 73 63 74 56 75 58 76 64 77
REMARK SMILES IDX 57 78 59 79 60 80 61 81 62 82 39 83 40 84 48 85 41 86 43 87
REMARK SMILES IDX 49 88 42 89 44 90 45 91 46 92 47 93
REMARK H PARENT 77 13 88 20 69 46 37 57
REMARK Flexibility Score: inf
ROOT
ATOM      1  C   UNL A   1      31.737  29.303  26.996  1.00  0.00     0.275 C 
ENDROOT
BRANCH   1   2
ATOM      2  O   UNL A   1      31.424  28.440  25.885  1.00  0.00    -0.458 OA
BRANCH   2   3
ATOM      3  C   UNL A   1      31.381  27.101  26.141  1.00  0.00     0.341 C 
ATOM      4  O   UNL A   1      31.341  26.608  27.266  1.00  0.00    -0.246 OA
BRANCH   3   5
ATOM      5  C   UNL A   1      31.350  26.289  24.925  1.00  0.00     0.095 A 
ATOM      6  C   UNL A   1      32.186  25.674  21.268  1.00  0.00     0.056 C 
ATOM      7  C   UNL A   1      31.722  25.705  22.681  1.00  0.00     0.004 A 
ATOM      8  C   UNL A   1      31.930  26.655  23.656  1.00  0.00     0.033 A 
ATOM      9  S   UNL A   1      30.775  24.427  23.269  1.00  0.00    -0.122 S 
ATOM     10  C   UNL A   1      30.739  25.041  24.846  1.00  0.00     0.110 A 
BRANCH  10  11
ATOM     11  N   UNL A   1      30.151  24.344  25.888  1.00  0.00    -0.310 N 
ATOM     12  C   UNL A   1      30.596  23.366  26.759  1.00  0.00     0.293 C 
ATOM     13  H   UNL A   1      29.213  24.602  26.043  1.00  0.00     0.171 HD
ATOM     14  O   UNL A   1      29.797  23.015  27.629  1.00  0.00    -0.265 OA
BRANCH  12  15
ATOM     15  C   UNL A   1      31.924  22.814  26.691  1.00  0.00     0.214 A 
ATOM     16  N   UNL A   1      32.696  22.736  25.621  1.00  0.00    -0.207 NA
ATOM     17  N   UNL A   1      32.542  22.173  27.719  1.00  0.00    -0.255 N 
ATOM     18  C   UNL A   1      33.798  22.039  26.067  1.00  0.00     0.156 A 
ATOM     19  N   UNL A   1      33.756  21.722  27.371  1.00  0.00    -0.158 NA
ATOM     20  H   UNL A   1      32.146  22.053  28.612  1.00  0.00     0.192 HD
BRANCH  18  21
ATOM     21  C   UNL A   1      34.922  21.601  25.151  1.00  0.00     0.024 C 
ATOM     22  C   UNL A   1      34.904  22.455  23.870  1.00  0.00     0.019 C 
ATOM     23  C   UNL A   1      36.290  21.766  25.839  1.00  0.00     0.019 C 
ATOM     24  C   UNL A   1      34.774  20.117  24.746  1.00  0.00     0.019 C 
ENDBRANCH  18  21
ENDBRANCH  12  15
ENDBRANCH  10  11
ENDBRANCH   3   5
ENDBRANCH   2   3
ENDBRANCH   1   2
BRANCH   1  25
ATOM     25  C   UNL A   1      31.728  30.782  26.593  1.00  0.00     0.275 C 
BRANCH  25  26
ATOM     26  O   UNL A   1      33.064  31.277  26.385  1.00  0.00    -0.458 OA
BRANCH  26  27
ATOM     27  C   UNL A   1      33.469  32.238  27.252  1.00  0.00     0.338 C 
ATOM     28  O   UNL A   1      32.837  33.229  27.577  1.00  0.00    -0.246 OA
BRANCH  27  29
ATOM     29  C   UNL A   1      34.713  31.809  27.924  1.00  0.00     0.060 A 
ATOM     30  C   UNL A   1      34.741  30.507  28.432  1.00  0.00     0.016 A 
ATOM     31  C   UNL A   1      35.832  32.637  28.053  1.00  0.00     0.016 A 
ATOM     32  C   UNL A   1      35.902  30.005  29.014  1.00  0.00     0.010 A 
ATOM     33  C   UNL A   1      36.989  32.141  28.669  1.00  0.00     0.010 A 
ATOM     34  C   UNL A   1      37.034  30.816  29.136  1.00  0.00    -0.014 A 
BRANCH  34  35
ATOM     35  C   UNL A   1      38.222  30.278  29.836  1.00  0.00     0.031 A 
ATOM     36  C   UNL A   1      38.499  30.706  31.246  1.00  0.00     0.074 A 
ATOM     37  C   UNL A   1      39.016  29.369  29.241  1.00  0.00     0.049 A 
ATOM     38  N   UNL A   1      39.465  30.342  32.046  1.00  0.00    -0.248 NA
ATOM     39  C   UNL A   1      37.551  31.665  31.834  1.00  0.00     0.031 C 
ATOM     40  C   UNL A   1      38.811  28.819  27.903  1.00  0.00     0.029 A 
ATOM     41  N   UNL A   1      40.154  28.746  29.691  1.00  0.00    -0.354 N 
ATOM     42  C   UNL A   1      39.256  31.038  33.229  1.00  0.00     0.074 A 
ATOM     43  C   UNL A   1      38.068  31.844  33.042  1.00  0.00     0.031 C 
ATOM     44  C   UNL A   1      39.800  27.950  27.632  1.00  0.00     0.029 A 
ATOM     45  C   UNL A   1      40.723  27.904  28.765  1.00  0.00     0.049 A 
ATOM     46  H   UNL A   1      40.526  28.888  30.591  1.00  0.00     0.167 HD
ATOM     47  C   UNL A   1      39.987  31.008  34.367  1.00  0.00     0.034 A 
ATOM     48  C   UNL A   1      41.867  27.193  28.820  1.00  0.00     0.034 A 
ATOM     49  C   UNL A   1      41.173  30.215  34.550  1.00  0.00     0.049 A 
ATOM     50  C   UNL A   1      42.699  27.232  30.077  1.00  0.00     0.074 A 
ATOM     51  C   UNL A   1      41.984  30.130  35.667  1.00  0.00     0.029 A 
ATOM     52  N   UNL A   1      41.730  29.388  33.587  1.00  0.00    -0.354 N 
ATOM     53  N   UNL A   1      42.452  27.833  31.216  1.00  0.00    -0.248 NA
ATOM     54  C   UNL A   1      43.962  26.476  30.065  1.00  0.00     0.031 C 
ATOM     55  C   UNL A   1      43.053  29.280  35.368  1.00  0.00     0.029 A 
ATOM     56  C   UNL A   1      42.887  28.803  34.077  1.00  0.00     0.049 A 
ATOM     57  H   UNL A   1      41.358  29.237  32.688  1.00  0.00     0.167 HD
ATOM     58  C   UNL A   1      43.505  27.501  32.063  1.00  0.00     0.074 A 
ATOM     59  C   UNL A   1      44.383  26.628  31.313  1.00  0.00     0.031 C 
ATOM     60  C   UNL A   1      43.729  27.894  33.341  1.00  0.00     0.034 A 
BRANCH  47  61
ATOM     61  C   UNL A   1      39.529  31.884  35.499  1.00  0.00     0.023 A 
ATOM     62  C   UNL A   1      38.533  31.426  36.385  1.00  0.00     0.012 A 
ATOM     63  C   UNL A   1      40.104  33.153  35.698  1.00  0.00     0.148 A 
ATOM     64  C   UNL A   1      38.092  32.233  37.432  1.00  0.00     0.002 A 
ATOM     65  C   UNL A   1      39.690  33.934  36.770  1.00  0.00     0.091 A 
ATOM     66  F   UNL A   1      41.030  33.579  34.828  1.00  0.00    -0.205 F 
ATOM     67  C   UNL A   1      38.677  33.482  37.630  1.00  0.00     0.022 A 
BRANCH  65  68
ATOM     68  S   UNL A   1      40.432  35.525  37.145  1.00  0.00     0.127 S 
ATOM     69  O   UNL A   1      39.645  36.425  36.303  1.00  0.00    -0.237 OA
ATOM     70  O   UNL A   1      40.177  35.654  38.580  1.00  0.00    -0.237 OA
ATOM     71  O   UNL A   1      41.839  35.408  36.788  1.00  0.00    -0.744 OA
ENDBRANCH  65  68
ENDBRANCH  47  61
BRANCH  48  72
ATOM     72  C   UNL A   1      42.297  26.371  27.652  1.00  0.00     0.023 A 
ATOM     73  C   UNL A   1      43.098  26.949  26.647  1.00  0.00     0.012 A 
ATOM     74  C   UNL A   1      41.907  25.023  27.524  1.00  0.00     0.148 A 
ATOM     75  C   UNL A   1      43.472  26.211  25.522  1.00  0.00     0.002 A 
ATOM     76  C   UNL A   1      42.330  24.278  26.431  1.00  0.00     0.091 A 
ATOM     77  F   UNL A   1      41.126  24.495  28.478  1.00  0.00    -0.205 F 
ATOM     78  C   UNL A   1      43.096  24.875  25.418  1.00  0.00     0.022 A 
BRANCH  76  79
ATOM     79  S   UNL A   1      41.990  22.521  26.269  1.00  0.00     0.127 S 
ATOM     80  O   UNL A   1      42.646  22.204  25.002  1.00  0.00    -0.237 OA
ATOM     81  O   UNL A   1      42.649  21.975  27.455  1.00  0.00    -0.237 OA
ATOM     82  O   UNL A   1      40.539  22.395  26.275  1.00  0.00    -0.744 OA
ENDBRANCH  76  79
ENDBRANCH  48  72
BRANCH  60  83
ATOM     83  C   UNL A   1      44.956  27.364  34.040  1.00  0.00     0.023 A 
ATOM     84  C   UNL A   1      46.139  28.128  34.059  1.00  0.00     0.012 A 
ATOM     85  C   UNL A   1      44.908  26.150  34.756  1.00  0.00     0.148 A 
ATOM     86  C   UNL A   1      47.264  27.679  34.753  1.00  0.00     0.002 A 
ATOM     87  C   UNL A   1      46.015  25.734  35.487  1.00  0.00     0.091 A 
ATOM     88  F   UNL A   1      43.779  25.427  34.714  1.00  0.00    -0.205 F 
ATOM     89  C   UNL A   1      47.197  26.491  35.475  1.00  0.00     0.022 A 
BRANCH  87  90
ATOM     90  S   UNL A   1      45.990  24.270  36.529  1.00  0.00     0.127 S 
ATOM     91  O   UNL A   1      47.121  24.520  37.422  1.00  0.00    -0.237 OA
ATOM     92  O   UNL A   1      44.678  24.366  37.168  1.00  0.00    -0.237 OA
ATOM     93  O   UNL A   1      46.144  23.133  35.631  1.00  0.00    -0.744 OA
ENDBRANCH  87  90
ENDBRANCH  60  83
ENDBRANCH  34  35
ENDBRANCH  27  29
ENDBRANCH  26  27
ENDBRANCH  25  26
ENDBRANCH   1  25
TORSDOF 17
ENDMDL
MODEL 3
REMARK VINA RESULT:     -11.5      1.164      7.659
REMARK SMILES Cc1cc(C(=O)OCCOC(=O)c2ccc(-c3c4nc(c(-c5cccc(S(=O)(=O)[O-])c5F)c5ccc([nH]5)c(-c5cccc(S(=O)(=O)[O-])c5F)c5nc(c(-c6cccc(S(=O)(=O)[O-])c6F)c6ccc3[nH]6)C=C5)C=C4)cc2)c(NC(=O)c2nc(C(C)(C)C)n[nH]2)s1
REMARK SMILES IDX 8 1 7 2 5 3 6 4 4 5 1 6 2 7 3 8 89 9 76 10 77 11 78 12 79 14
REMARK SMILES IDX 80 15 81 16 88 17 82 18 87 19 83 21 84 22 85 23 86 24 9 25
REMARK SMILES IDX 10 26 11 27 12 28 13 29 14 30 75 31 15 32 74 33 16 34 17 35
REMARK SMILES IDX 18 36 68 37 19 38 73 39 67 40 69 41 20 42 72 43 66 44 65 45
REMARK SMILES IDX 21 47 53 48 33 49 52 50 34 51 37 52 51 53 70 54 35 55 36 56
REMARK SMILES IDX 50 58 71 59 38 60 22 61 23 62 31 63 24 64 26 65 32 66 25 67
REMARK SMILES IDX 27 68 28 69 29 70 30 71 54 72 55 73 63 74 56 75 58 76 64 77
REMARK SMILES IDX 57 78 59 79 60 80 61 81 62 82 39 83 40 84 48 85 41 86 43 87
REMARK SMILES IDX 49 88 42 89 44 90 45 91 46 92 47 93
REMARK H PARENT 77 13 88 20 69 46 37 57
REMARK Flexibility Score: inf
ROOT
ATOM      1  C   UNL A   1      36.737  21.806  23.964  1.00  0.00     0.275 C 
ENDROOT
BRANCH   1   2
ATOM      2  O   UNL A   1      35.322  21.969  24.179  1.00  0.00    -0.458 OA
BRANCH   2   3
ATOM      3  C   UNL A   1      34.714  22.997  23.521  1.00  0.00     0.341 C 
ATOM      4  O   UNL A   1      35.263  23.705  22.679  1.00  0.00    -0.246 OA
BRANCH   3   5
ATOM      5  C   UNL A   1      33.310  23.161  23.892  1.00  0.00     0.095 A 
ATOM      6  C   UNL A   1      30.406  22.797  26.317  1.00  0.00     0.056 C 
ATOM      7  C   UNL A   1      31.368  23.015  25.205  1.00  0.00     0.004 A 
ATOM      8  C   UNL A   1      32.720  22.759  25.146  1.00  0.00     0.033 A 
ATOM      9  S   UNL A   1      30.806  23.659  23.740  1.00  0.00    -0.122 S 
ATOM     10  C   UNL A   1      32.353  23.734  23.059  1.00  0.00     0.110 A 
BRANCH  10  11
ATOM     11  N   UNL A   1      32.578  24.300  21.815  1.00  0.00    -0.310 N 
ATOM     12  C   UNL A   1      32.888  25.577  21.385  1.00  0.00     0.293 C 
ATOM     13  H   UNL A   1      32.500  23.652  21.077  1.00  0.00     0.171 HD
ATOM     14  O   UNL A   1      33.088  25.706  20.176  1.00  0.00    -0.265 OA
BRANCH  12  15
ATOM     15  C   UNL A   1      33.016  26.690  22.290  1.00  0.00     0.214 A 
ATOM     16  N   UNL A   1      32.560  26.760  23.528  1.00  0.00    -0.207 NA
ATOM     17  N   UNL A   1      33.535  27.900  21.950  1.00  0.00    -0.255 N 
ATOM     18  C   UNL A   1      32.847  28.054  23.907  1.00  0.00     0.156 A 
ATOM     19  N   UNL A   1      33.495  28.767  22.972  1.00  0.00    -0.158 NA
ATOM     20  H   UNL A   1      33.896  28.115  21.060  1.00  0.00     0.192 HD
BRANCH  18  21
ATOM     21  C   UNL A   1      32.403  28.644  25.229  1.00  0.00     0.024 C 
ATOM     22  C   UNL A   1      31.343  29.732  24.977  1.00  0.00     0.019 C 
ATOM     23  C   UNL A   1      31.797  27.561  26.141  1.00  0.00     0.019 C 
ATOM     24  C   UNL A   1      33.587  29.288  25.985  1.00  0.00     0.019 C 
ENDBRANCH  18  21
ENDBRANCH  12  15
ENDBRANCH  10  11
ENDBRANCH   3   5
ENDBRANCH   2   3
ENDBRANCH   1   2
BRANCH   1  25
ATOM     25  C   UNL A   1      37.349  20.780  24.925  1.00  0.00     0.275 C 
BRANCH  25  26
ATOM     26  O   UNL A   1      37.920  21.419  26.081  1.00  0.00    -0.458 OA
BRANCH  26  27
ATOM     27  C   UNL A   1      39.231  21.154  26.303  1.00  0.00     0.338 C 
ATOM     28  O   UNL A   1      39.810  20.111  26.047  1.00  0.00    -0.246 OA
BRANCH  27  29
ATOM     29  C   UNL A   1      39.927  22.392  26.710  1.00  0.00     0.060 A 
ATOM     30  C   UNL A   1      39.512  23.580  26.102  1.00  0.00     0.016 A 
ATOM     31  C   UNL A   1      40.947  22.413  27.666  1.00  0.00     0.016 A 
ATOM     32  C   UNL A   1      40.068  24.798  26.485  1.00  0.00     0.010 A 
ATOM     33  C   UNL A   1      41.530  23.635  28.027  1.00  0.00     0.010 A 
ATOM     34  C   UNL A   1      41.079  24.835  27.449  1.00  0.00    -0.014 A 
BRANCH  34  35
ATOM     35  C   UNL A   1      41.707  26.137  27.772  1.00  0.00     0.031 A 
ATOM     36  C   UNL A   1      40.913  27.168  28.515  1.00  0.00     0.074 A 
ATOM     37  C   UNL A   1      42.993  26.375  27.458  1.00  0.00     0.049 A 
ATOM     38  N   UNL A   1      41.273  28.358  28.917  1.00  0.00    -0.248 NA
ATOM     39  C   UNL A   1      39.531  26.803  28.862  1.00  0.00     0.031 C 
ATOM     40  C   UNL A   1      43.890  25.427  26.801  1.00  0.00     0.029 A 
ATOM     41  N   UNL A   1      43.768  27.492  27.654  1.00  0.00    -0.354 N 
ATOM     42  C   UNL A   1      40.161  28.895  29.549  1.00  0.00     0.074 A 
ATOM     43  C   UNL A   1      39.113  27.898  29.481  1.00  0.00     0.031 C 
ATOM     44  C   UNL A   1      45.091  26.007  26.634  1.00  0.00     0.029 A 
ATOM     45  C   UNL A   1      45.040  27.376  27.144  1.00  0.00     0.049 A 
ATOM     46  H   UNL A   1      43.444  28.299  28.116  1.00  0.00     0.167 HD
ATOM     47  C   UNL A   1      40.025  30.107  30.134  1.00  0.00     0.034 A 
ATOM     48  C   UNL A   1      46.040  28.277  27.082  1.00  0.00     0.034 A 
ATOM     49  C   UNL A   1      41.061  31.102  30.194  1.00  0.00     0.049 A 
ATOM     50  C   UNL A   1      45.837  29.646  27.681  1.00  0.00     0.074 A 
ATOM     51  C   UNL A   1      41.009  32.364  30.757  1.00  0.00     0.029 A 
ATOM     52  N   UNL A   1      42.329  30.957  29.654  1.00  0.00    -0.354 N 
ATOM     53  N   UNL A   1      44.807  30.116  28.343  1.00  0.00    -0.248 NA
ATOM     54  C   UNL A   1      46.944  30.606  27.542  1.00  0.00     0.031 C 
ATOM     55  C   UNL A   1      42.234  32.998  30.527  1.00  0.00     0.029 A 
ATOM     56  C   UNL A   1      43.064  32.115  29.853  1.00  0.00     0.049 A 
ATOM     57  H   UNL A   1      42.661  30.150  29.196  1.00  0.00     0.167 HD
ATOM     58  C   UNL A   1      45.154  31.407  28.729  1.00  0.00     0.074 A 
ATOM     59  C   UNL A   1      46.498  31.639  28.244  1.00  0.00     0.031 C 
ATOM     60  C   UNL A   1      44.421  32.320  29.412  1.00  0.00     0.034 A 
BRANCH  47  61
ATOM     61  C   UNL A   1      38.686  30.430  30.738  1.00  0.00     0.023 A 
ATOM     62  C   UNL A   1      38.399  30.041  32.061  1.00  0.00     0.012 A 
ATOM     63  C   UNL A   1      37.722  31.141  29.999  1.00  0.00     0.148 A 
ATOM     64  C   UNL A   1      37.158  30.326  32.629  1.00  0.00     0.002 A 
ATOM     65  C   UNL A   1      36.504  31.459  30.586  1.00  0.00     0.091 A 
ATOM     66  F   UNL A   1      38.006  31.477  28.733  1.00  0.00    -0.205 F 
ATOM     67  C   UNL A   1      36.215  31.042  31.895  1.00  0.00     0.022 A 
BRANCH  65  68
ATOM     68  S   UNL A   1      35.255  32.437  29.745  1.00  0.00     0.127 S 
ATOM     69  O   UNL A   1      34.256  32.610  30.797  1.00  0.00    -0.237 OA
ATOM     70  O   UNL A   1      35.995  33.652  29.401  1.00  0.00    -0.237 OA
ATOM     71  O   UNL A   1      34.826  31.644  28.600  1.00  0.00    -0.744 OA
ENDBRANCH  65  68
ENDBRANCH  47  61
BRANCH  48  72
ATOM     72  C   UNL A   1      47.335  27.918  26.435  1.00  0.00     0.023 A 
ATOM     73  C   UNL A   1      48.459  27.623  27.233  1.00  0.00     0.012 A 
ATOM     74  C   UNL A   1      47.464  27.879  25.032  1.00  0.00     0.148 A 
ATOM     75  C   UNL A   1      49.691  27.331  26.647  1.00  0.00     0.002 A 
ATOM     76  C   UNL A   1      48.679  27.533  24.455  1.00  0.00     0.091 A 
ATOM     77  F   UNL A   1      46.391  28.185  24.288  1.00  0.00    -0.205 F 
ATOM     78  C   UNL A   1      49.800  27.278  25.261  1.00  0.00     0.022 A 
BRANCH  76  79
ATOM     79  S   UNL A   1      48.884  27.327  22.683  1.00  0.00     0.127 S 
ATOM     80  O   UNL A   1      48.103  28.446  22.158  1.00  0.00    -0.237 OA
ATOM     81  O   UNL A   1      50.332  27.464  22.528  1.00  0.00    -0.237 OA
ATOM     82  O   UNL A   1      48.369  26.001  22.374  1.00  0.00    -0.744 OA
ENDBRANCH  76  79
ENDBRANCH  48  72
BRANCH  60  83
ATOM     83  C   UNL A   1      45.056  33.655  29.714  1.00  0.00     0.023 A 
ATOM     84  C   UNL A   1      45.843  33.813  30.871  1.00  0.00     0.012 A 
ATOM     85  C   UNL A   1      44.946  34.726  28.803  1.00  0.00     0.148 A 
ATOM     86  C   UNL A   1      46.486  35.024  31.133  1.00  0.00     0.002 A 
ATOM     87  C   UNL A   1      45.631  35.912  29.044  1.00  0.00     0.091 A 
ATOM     88  F   UNL A   1      44.180  34.564  27.714  1.00  0.00    -0.205 F 
ATOM     89  C   UNL A   1      46.391  36.066  30.215  1.00  0.00     0.022 A 
BRANCH  87  90
ATOM     90  S   UNL A   1      45.650  37.272  27.871  1.00  0.00     0.127 S 
ATOM     91  O   UNL A   1      46.278  38.334  28.655  1.00  0.00    -0.237 OA
ATOM     92  O   UNL A   1      46.482  36.740  26.791  1.00  0.00    -0.237 OA
ATOM     93  O   UNL A   1      44.260  37.507  27.503  1.00  0.00    -0.744 OA
ENDBRANCH  87  90
ENDBRANCH  60  83
ENDBRANCH  34  35
ENDBRANCH  27  29
ENDBRANCH  26  27
ENDBRANCH  25  26
ENDBRANCH   1  25
TORSDOF 17
ENDMDL
