MODEL 1
REMARK VINA RESULT:     -11.1      0.000      0.000
REMARK SMILES CCc1ccsc1C(=O)N(CC(=O)OCCOC(=O)c1ccc(-c2c3nc(c(-c4cccc(S(=O)(=O)[O-])c4F)c4ccc([nH]4)c(-c4cccc(S(=O)(=O)[O-])c4F)c4nc(c(-c5cccc(S(=O)(=O)[O-])c5F)c5ccc2[nH]5)C=C4)C=C3)cc1)c1ccccc1N
REMARK SMILES IDX 15 1 14 2 12 3 13 4 11 5 10 6 8 7 9 8 7 9 3 10 4 11 5 12
REMARK SMILES IDX 6 13 2 14 1 15 83 16 84 17 88 18 85 19 87 20 86 21 89 22
REMARK SMILES IDX 16 25 17 26 18 27 19 28 20 29 21 30 82 31 22 32 81 33 23 34
REMARK SMILES IDX 24 35 25 36 75 37 26 38 80 39 74 40 76 41 27 42 79 43 73 44
REMARK SMILES IDX 72 45 28 47 60 48 40 49 59 50 41 51 44 52 58 53 77 54 42 55
REMARK SMILES IDX 43 56 57 58 78 59 45 60 29 61 30 62 38 63 31 64 33 65 39 66
REMARK SMILES IDX 32 67 34 68 35 69 36 70 37 71 61 72 62 73 70 74 63 75 65 76
REMARK SMILES IDX 71 77 64 78 66 79 67 80 68 81 69 82 46 83 47 84 55 85 48 86
REMARK SMILES IDX 50 87 56 88 49 89 51 90 52 91 53 92 54 93
REMARK H PARENT 89 23 89 24 76 46 44 57
REMARK Flexibility Score: inf
ROOT
ATOM      1  C   UNL A   1      31.631  28.824  24.198  1.00  0.00     0.274 C 
ENDROOT
BRANCH   1   2
ATOM      2  O   UNL A   1      32.298  27.620  24.627  1.00  0.00    -0.461 OA
BRANCH   2   3
ATOM      3  C   UNL A   1      33.064  27.049  23.662  1.00  0.00     0.326 C 
ATOM      4  O   UNL A   1      33.138  27.475  22.511  1.00  0.00    -0.250 OA
BRANCH   3   5
ATOM      5  C   UNL A   1      33.986  25.946  24.158  1.00  0.00     0.248 C 
BRANCH   5   6
ATOM      6  N   UNL A   1      33.598  24.557  24.038  1.00  0.00    -0.294 N 
BRANCH   6   7
ATOM      7  C   UNL A   1      34.338  23.555  23.380  1.00  0.00     0.269 C 
ATOM      8  O   UNL A   1      34.341  23.626  22.139  1.00  0.00    -0.268 OA
BRANCH   7   9
ATOM      9  C   UNL A   1      35.100  22.423  24.031  1.00  0.00     0.096 A 
ATOM     10  C   UNL A   1      34.930  21.168  24.658  1.00  0.00    -0.025 A 
ATOM     11  C   UNL A   1      36.203  20.573  25.032  1.00  0.00     0.016 A 
ATOM     12  C   UNL A   1      37.293  21.335  24.740  1.00  0.00     0.066 A 
ATOM     13  S   UNL A   1      36.847  22.773  23.993  1.00  0.00    -0.138 S 
BRANCH  10  14
ATOM     14  C   UNL A   1      33.727  20.343  25.047  1.00  0.00     0.034 C 
ATOM     15  C   UNL A   1      32.554  20.388  24.073  1.00  0.00     0.009 C 
ENDBRANCH  10  14
ENDBRANCH   7   9
ENDBRANCH   6   7
BRANCH   6  16
ATOM     16  C   UNL A   1      32.572  24.192  25.001  1.00  0.00     0.068 A 
ATOM     17  C   UNL A   1      32.958  23.931  26.328  1.00  0.00     0.028 A 
ATOM     18  C   UNL A   1      31.259  23.848  24.590  1.00  0.00     0.056 A 
ATOM     19  C   UNL A   1      32.097  23.290  27.220  1.00  0.00     0.002 A 
ATOM     20  C   UNL A   1      30.432  23.151  25.486  1.00  0.00     0.028 A 
ATOM     21  C   UNL A   1      30.842  22.880  26.793  1.00  0.00     0.002 A 
BRANCH  18  22
ATOM     22  N   UNL A   1      30.824  23.986  23.265  1.00  0.00    -0.397 N 
ATOM     23  H   UNL A   1      29.870  24.141  23.074  1.00  0.00     0.156 HD
ATOM     24  H   UNL A   1      31.471  23.927  22.525  1.00  0.00     0.156 HD
ENDBRANCH  18  22
ENDBRANCH   6  16
ENDBRANCH   5   6
ENDBRANCH   3   5
ENDBRANCH   2   3
ENDBRANCH   1   2
BRANCH   1  25
ATOM     25  C   UNL A   1      31.576  29.864  25.324  1.00  0.00     0.275 C 
BRANCH  25  26
ATOM     26  O   UNL A   1      32.851  29.981  25.990  1.00  0.00    -0.458 OA
BRANCH  26  27
ATOM     27  C   UNL A   1      32.993  31.041  26.821  1.00  0.00     0.338 C 
ATOM     28  O   UNL A   1      32.219  31.977  26.933  1.00  0.00    -0.246 OA
BRANCH  27  29
ATOM     29  C   UNL A   1      34.247  30.949  27.604  1.00  0.00     0.060 A 
ATOM     30  C   UNL A   1      35.081  32.050  27.814  1.00  0.00     0.016 A 
ATOM     31  C   UNL A   1      34.647  29.691  28.054  1.00  0.00     0.016 A 
ATOM     32  C   UNL A   1      36.345  31.885  28.384  1.00  0.00     0.010 A 
ATOM     33  C   UNL A   1      35.870  29.542  28.712  1.00  0.00     0.010 A 
ATOM     34  C   UNL A   1      36.747  30.630  28.857  1.00  0.00    -0.014 A 
BRANCH  34  35
ATOM     35  C   UNL A   1      38.056  30.430  29.534  1.00  0.00     0.031 A 
ATOM     36  C   UNL A   1      39.078  29.496  28.942  1.00  0.00     0.074 A 
ATOM     37  C   UNL A   1      38.277  30.991  30.738  1.00  0.00     0.049 A 
ATOM     38  N   UNL A   1      40.154  28.996  29.489  1.00  0.00    -0.248 NA
ATOM     39  C   UNL A   1      38.843  29.049  27.560  1.00  0.00     0.031 C 
ATOM     40  C   UNL A   1      37.361  31.900  31.429  1.00  0.00     0.029 A 
ATOM     41  N   UNL A   1      39.320  30.835  31.620  1.00  0.00    -0.354 N 
ATOM     42  C   UNL A   1      40.686  28.120  28.551  1.00  0.00     0.074 A 
ATOM     43  C   UNL A   1      39.821  28.169  27.391  1.00  0.00     0.031 C 
ATOM     44  C   UNL A   1      37.858  32.190  32.639  1.00  0.00     0.029 A 
ATOM     45  C   UNL A   1      39.096  31.443  32.834  1.00  0.00     0.049 A 
ATOM     46  H   UNL A   1      40.142  30.339  31.405  1.00  0.00     0.167 HD
ATOM     47  C   UNL A   1      41.796  27.350  28.646  1.00  0.00     0.034 A 
ATOM     48  C   UNL A   1      39.775  31.368  33.995  1.00  0.00     0.034 A 
ATOM     49  C   UNL A   1      42.691  27.356  29.773  1.00  0.00     0.049 A 
ATOM     50  C   UNL A   1      41.021  30.533  34.067  1.00  0.00     0.074 A 
ATOM     51  C   UNL A   1      43.891  26.685  29.924  1.00  0.00     0.029 A 
ATOM     52  N   UNL A   1      42.482  28.069  30.945  1.00  0.00    -0.354 N 
ATOM     53  N   UNL A   1      41.571  29.798  33.131  1.00  0.00    -0.248 NA
ATOM     54  C   UNL A   1      41.753  30.537  35.340  1.00  0.00     0.031 C 
ATOM     55  C   UNL A   1      44.404  26.984  31.191  1.00  0.00     0.029 A 
ATOM     56  C   UNL A   1      43.526  27.847  31.827  1.00  0.00     0.049 A 
ATOM     57  H   UNL A   1      41.705  28.647  31.122  1.00  0.00     0.167 HD
ATOM     58  C   UNL A   1      42.723  29.264  33.696  1.00  0.00     0.074 A 
ATOM     59  C   UNL A   1      42.805  29.782  35.046  1.00  0.00     0.031 C 
ATOM     60  C   UNL A   1      43.620  28.406  33.151  1.00  0.00     0.034 A 
BRANCH  47  61
ATOM     61  C   UNL A   1      42.132  26.456  27.482  1.00  0.00     0.023 A 
ATOM     62  C   UNL A   1      42.884  26.965  26.405  1.00  0.00     0.012 A 
ATOM     63  C   UNL A   1      41.754  25.099  27.479  1.00  0.00     0.148 A 
ATOM     64  C   UNL A   1      43.232  26.145  25.332  1.00  0.00     0.002 A 
ATOM     65  C   UNL A   1      42.136  24.278  26.423  1.00  0.00     0.091 A 
ATOM     66  F   UNL A   1      41.014  24.636  28.497  1.00  0.00    -0.205 F 
ATOM     67  C   UNL A   1      42.868  24.801  25.346  1.00  0.00     0.022 A 
BRANCH  65  68
ATOM     68  S   UNL A   1      41.767  22.519  26.400  1.00  0.00     0.127 S 
ATOM     69  O   UNL A   1      42.463  22.087  25.189  1.00  0.00    -0.237 OA
ATOM     70  O   UNL A   1      42.372  22.053  27.649  1.00  0.00    -0.237 OA
ATOM     71  O   UNL A   1      40.314  22.425  26.366  1.00  0.00    -0.744 OA
ENDBRANCH  65  68
ENDBRANCH  47  61
BRANCH  48  72
ATOM     72  C   UNL A   1      39.279  32.132  35.174  1.00  0.00     0.023 A 
ATOM     73  C   UNL A   1      38.454  31.489  36.115  1.00  0.00     0.012 A 
ATOM     74  C   UNL A   1      39.698  33.456  35.415  1.00  0.00     0.148 A 
ATOM     75  C   UNL A   1      38.049  32.153  37.274  1.00  0.00     0.002 A 
ATOM     76  C   UNL A   1      39.340  34.090  36.598  1.00  0.00     0.091 A 
ATOM     77  F   UNL A   1      40.469  34.057  34.496  1.00  0.00    -0.205 F 
ATOM     78  C   UNL A   1      38.505  33.445  37.523  1.00  0.00     0.022 A 
BRANCH  76  79
ATOM     79  S   UNL A   1      40.013  35.689  37.070  1.00  0.00     0.127 S 
ATOM     80  O   UNL A   1      39.323  35.944  38.331  1.00  0.00    -0.237 OA
ATOM     81  O   UNL A   1      41.441  35.395  37.195  1.00  0.00    -0.237 OA
ATOM     82  O   UNL A   1      39.685  36.589  35.972  1.00  0.00    -0.744 OA
ENDBRANCH  76  79
ENDBRANCH  48  72
BRANCH  60  83
ATOM     83  C   UNL A   1      44.779  27.978  34.009  1.00  0.00     0.023 A 
ATOM     84  C   UNL A   1      45.908  28.815  34.114  1.00  0.00     0.012 A 
ATOM     85  C   UNL A   1      44.725  26.791  34.764  1.00  0.00     0.148 A 
ATOM     86  C   UNL A   1      46.976  28.463  34.939  1.00  0.00     0.002 A 
ATOM     87  C   UNL A   1      45.776  26.466  35.614  1.00  0.00     0.091 A 
ATOM     88  F   UNL A   1      43.653  25.996  34.632  1.00  0.00    -0.205 F 
ATOM     89  C   UNL A   1      46.906  27.297  35.697  1.00  0.00     0.022 A 
BRANCH  87  90
ATOM     90  S   UNL A   1      45.726  25.024  36.686  1.00  0.00     0.127 S 
ATOM     91  O   UNL A   1      44.407  25.155  37.302  1.00  0.00    -0.237 OA
ATOM     92  O   UNL A   1      45.848  23.919  35.734  1.00  0.00    -0.237 OA
ATOM     93  O   UNL A   1      46.861  25.166  37.589  1.00  0.00    -0.744 OA
ENDBRANCH  87  90
ENDBRANCH  60  83
ENDBRANCH  34  35
ENDBRANCH  27  29
ENDBRANCH  26  27
ENDBRANCH  25  26
ENDBRANCH   1  25
TORSDOF 20
ENDMDL
MODEL 2
REMARK VINA RESULT:     -10.8      4.815      9.712
REMARK SMILES CCc1ccsc1C(=O)N(CC(=O)OCCOC(=O)c1ccc(-c2c3nc(c(-c4cccc(S(=O)(=O)[O-])c4F)c4ccc([nH]4)c(-c4cccc(S(=O)(=O)[O-])c4F)c4nc(c(-c5cccc(S(=O)(=O)[O-])c5F)c5ccc2[nH]5)C=C4)C=C3)cc1)c1ccccc1N
REMARK SMILES IDX 15 1 14 2 12 3 13 4 11 5 10 6 8 7 9 8 7 9 3 10 4 11 5 12
REMARK SMILES IDX 6 13 2 14 1 15 83 16 84 17 88 18 85 19 87 20 86 21 89 22
REMARK SMILES IDX 16 25 17 26 18 27 19 28 20 29 21 30 82 31 22 32 81 33 23 34
REMARK SMILES IDX 24 35 25 36 75 37 26 38 80 39 74 40 76 41 27 42 79 43 73 44
REMARK SMILES IDX 72 45 28 47 60 48 40 49 59 50 41 51 44 52 58 53 77 54 42 55
REMARK SMILES IDX 43 56 57 58 78 59 45 60 29 61 30 62 38 63 31 64 33 65 39 66
REMARK SMILES IDX 32 67 34 68 35 69 36 70 37 71 61 72 62 73 70 74 63 75 65 76
REMARK SMILES IDX 71 77 64 78 66 79 67 80 68 81 69 82 46 83 47 84 55 85 48 86
REMARK SMILES IDX 50 87 56 88 49 89 51 90 52 91 53 92 54 93
REMARK H PARENT 89 23 89 24 76 46 44 57
REMARK Flexibility Score: inf
ROOT
ATOM      1  C   UNL A   1      34.656  20.911  24.945  1.00  0.00     0.274 C 
ENDROOT
BRANCH   1   2
ATOM      2  O   UNL A   1      34.360  22.136  25.645  1.00  0.00    -0.461 OA
BRANCH   2   3
ATOM      3  C   UNL A   1      33.467  21.983  26.656  1.00  0.00     0.326 C 
ATOM      4  O   UNL A   1      33.650  21.241  27.620  1.00  0.00    -0.250 OA
BRANCH   3   5
ATOM      5  C   UNL A   1      32.292  22.948  26.613  1.00  0.00     0.248 C 
BRANCH   5   6
ATOM      6  N   UNL A   1      32.222  23.971  25.591  1.00  0.00    -0.294 N 
BRANCH   6   7
ATOM      7  C   UNL A   1      31.603  23.830  24.333  1.00  0.00     0.269 C 
ATOM      8  O   UNL A   1      30.959  22.779  24.173  1.00  0.00    -0.268 OA
BRANCH   7   9
ATOM      9  C   UNL A   1      31.659  24.813  23.186  1.00  0.00     0.096 A 
ATOM     10  C   UNL A   1      31.121  26.038  22.729  1.00  0.00    -0.025 A 
ATOM     11  C   UNL A   1      31.704  26.445  21.460  1.00  0.00     0.016 A 
ATOM     12  C   UNL A   1      32.618  25.573  20.951  1.00  0.00     0.066 A 
ATOM     13  S   UNL A   1      32.832  24.253  21.969  1.00  0.00    -0.138 S 
BRANCH  10  14
ATOM     14  C   UNL A   1      30.061  26.979  23.249  1.00  0.00     0.034 C 
ATOM     15  C   UNL A   1      30.505  28.424  23.450  1.00  0.00     0.009 C 
ENDBRANCH  10  14
ENDBRANCH   7   9
ENDBRANCH   6   7
BRANCH   6  16
ATOM     16  C   UNL A   1      32.495  25.295  26.125  1.00  0.00     0.068 A 
ATOM     17  C   UNL A   1      31.417  26.061  26.605  1.00  0.00     0.028 A 
ATOM     18  C   UNL A   1      33.752  25.924  25.942  1.00  0.00     0.056 A 
ATOM     19  C   UNL A   1      31.550  27.430  26.843  1.00  0.00     0.002 A 
ATOM     20  C   UNL A   1      33.847  27.313  26.130  1.00  0.00     0.028 A 
ATOM     21  C   UNL A   1      32.759  28.060  26.585  1.00  0.00     0.002 A 
BRANCH  18  22
ATOM     22  N   UNL A   1      34.851  25.261  25.379  1.00  0.00    -0.397 N 
ATOM     23  H   UNL A   1      35.368  25.688  24.658  1.00  0.00     0.156 HD
ATOM     24  H   UNL A   1      35.107  24.367  25.705  1.00  0.00     0.156 HD
ENDBRANCH  18  22
ENDBRANCH   6  16
ENDBRANCH   5   6
ENDBRANCH   3   5
ENDBRANCH   2   3
ENDBRANCH   1   2
BRANCH   1  25
ATOM     25  C   UNL A   1      36.155  20.592  24.988  1.00  0.00     0.275 C 
BRANCH  25  26
ATOM     26  O   UNL A   1      36.895  21.642  25.644  1.00  0.00    -0.458 OA
BRANCH  26  27
ATOM     27  C   UNL A   1      38.224  21.430  25.791  1.00  0.00     0.338 C 
ATOM     28  O   UNL A   1      38.828  20.410  25.502  1.00  0.00    -0.246 OA
BRANCH  27  29
ATOM     29  C   UNL A   1      38.898  22.613  26.377  1.00  0.00     0.060 A 
ATOM     30  C   UNL A   1      38.486  23.920  26.105  1.00  0.00     0.016 A 
ATOM     31  C   UNL A   1      40.045  22.401  27.142  1.00  0.00     0.016 A 
ATOM     32  C   UNL A   1      39.261  25.008  26.512  1.00  0.00     0.010 A 
ATOM     33  C   UNL A   1      40.767  23.492  27.632  1.00  0.00     0.010 A 
ATOM     34  C   UNL A   1      40.402  24.806  27.297  1.00  0.00    -0.014 A 
BRANCH  34  35
ATOM     35  C   UNL A   1      41.213  25.943  27.809  1.00  0.00     0.031 A 
ATOM     36  C   UNL A   1      40.557  27.044  28.598  1.00  0.00     0.074 A 
ATOM     37  C   UNL A   1      42.510  26.046  27.463  1.00  0.00     0.049 A 
ATOM     38  N   UNL A   1      41.023  28.225  28.912  1.00  0.00    -0.248 NA
ATOM     39  C   UNL A   1      39.189  26.791  29.076  1.00  0.00     0.031 C 
ATOM     40  C   UNL A   1      43.259  25.057  26.686  1.00  0.00     0.029 A 
ATOM     41  N   UNL A   1      43.415  27.060  27.672  1.00  0.00    -0.354 N 
ATOM     42  C   UNL A   1      39.984  28.884  29.558  1.00  0.00     0.074 A 
ATOM     43  C   UNL A   1      38.866  27.964  29.605  1.00  0.00     0.031 C 
ATOM     44  C   UNL A   1      44.493  25.526  26.450  1.00  0.00     0.029 A 
ATOM     45  C   UNL A   1      44.604  26.871  27.005  1.00  0.00     0.049 A 
ATOM     46  H   UNL A   1      43.231  27.842  28.240  1.00  0.00     0.167 HD
ATOM     47  C   UNL A   1      39.964  30.138  30.069  1.00  0.00     0.034 A 
ATOM     48  C   UNL A   1      45.646  27.700  26.810  1.00  0.00     0.034 A 
ATOM     49  C   UNL A   1      41.099  31.024  30.081  1.00  0.00     0.049 A 
ATOM     50  C   UNL A   1      45.616  29.074  27.414  1.00  0.00     0.074 A 
ATOM     51  C   UNL A   1      41.208  32.276  30.660  1.00  0.00     0.029 A 
ATOM     52  N   UNL A   1      42.321  30.751  29.484  1.00  0.00    -0.354 N 
ATOM     53  N   UNL A   1      44.667  29.640  28.119  1.00  0.00    -0.248 NA
ATOM     54  C   UNL A   1      46.805  29.914  27.219  1.00  0.00     0.031 C 
ATOM     55  C   UNL A   1      42.494  32.766  30.405  1.00  0.00     0.029 A 
ATOM     56  C   UNL A   1      43.188  31.815  29.674  1.00  0.00     0.049 A 
ATOM     57  H   UNL A   1      42.540  29.923  28.998  1.00  0.00     0.167 HD
ATOM     58  C   UNL A   1      45.150  30.896  28.468  1.00  0.00     0.074 A 
ATOM     59  C   UNL A   1      46.487  30.997  27.918  1.00  0.00     0.031 C 
ATOM     60  C   UNL A   1      44.533  31.884  29.162  1.00  0.00     0.034 A 
BRANCH  47  61
ATOM     61  C   UNL A   1      38.683  30.622  30.694  1.00  0.00     0.023 A 
ATOM     62  C   UNL A   1      38.476  30.457  32.077  1.00  0.00     0.012 A 
ATOM     63  C   UNL A   1      37.710  31.290  29.925  1.00  0.00     0.148 A 
ATOM     64  C   UNL A   1      37.310  30.926  32.681  1.00  0.00     0.002 A 
ATOM     65  C   UNL A   1      36.566  31.788  30.541  1.00  0.00     0.091 A 
ATOM     66  F   UNL A   1      37.909  31.415  28.605  1.00  0.00    -0.205 F 
ATOM     67  C   UNL A   1      36.361  31.600  31.917  1.00  0.00     0.022 A 
BRANCH  65  68
ATOM     68  S   UNL A   1      35.330  32.730  29.639  1.00  0.00     0.127 S 
ATOM     69  O   UNL A   1      34.865  31.748  28.661  1.00  0.00    -0.237 OA
ATOM     70  O   UNL A   1      34.358  33.058  30.682  1.00  0.00    -0.237 OA
ATOM     71  O   UNL A   1      36.037  33.882  29.095  1.00  0.00    -0.744 OA
ENDBRANCH  65  68
ENDBRANCH  47  61
BRANCH  48  72
ATOM     72  C   UNL A   1      46.811  27.223  26.014  1.00  0.00     0.023 A 
ATOM     73  C   UNL A   1      46.854  27.482  24.631  1.00  0.00     0.012 A 
ATOM     74  C   UNL A   1      47.915  26.604  26.634  1.00  0.00     0.148 A 
ATOM     75  C   UNL A   1      47.974  27.126  23.878  1.00  0.00     0.002 A 
ATOM     76  C   UNL A   1      49.050  26.307  25.889  1.00  0.00     0.091 A 
ATOM     77  F   UNL A   1      47.846  26.349  27.949  1.00  0.00    -0.205 F 
ATOM     78  C   UNL A   1      49.076  26.555  24.508  1.00  0.00     0.022 A 
BRANCH  76  79
ATOM     79  S   UNL A   1      50.569  25.719  26.650  1.00  0.00     0.127 S 
ATOM     80  O   UNL A   1      50.139  24.452  27.236  1.00  0.00    -0.237 OA
ATOM     81  O   UNL A   1      51.460  25.593  25.497  1.00  0.00    -0.237 OA
ATOM     82  O   UNL A   1      50.959  26.757  27.594  1.00  0.00    -0.744 OA
ENDBRANCH  76  79
ENDBRANCH  48  72
BRANCH  60  83
ATOM     83  C   UNL A   1      45.298  33.160  29.381  1.00  0.00     0.023 A 
ATOM     84  C   UNL A   1      46.154  33.270  30.495  1.00  0.00     0.012 A 
ATOM     85  C   UNL A   1      45.230  34.217  28.454  1.00  0.00     0.148 A 
ATOM     86  C   UNL A   1      46.910  34.424  30.696  1.00  0.00     0.002 A 
ATOM     87  C   UNL A   1      46.017  35.348  28.638  1.00  0.00     0.091 A 
ATOM     88  F   UNL A   1      44.393  34.102  27.412  1.00  0.00    -0.205 F 
ATOM     89  C   UNL A   1      46.851  35.457  29.763  1.00  0.00     0.022 A 
BRANCH  87  90
ATOM     90  S   UNL A   1      46.060  36.686  27.440  1.00  0.00     0.127 S 
ATOM     91  O   UNL A   1      46.884  37.678  28.128  1.00  0.00    -0.237 OA
ATOM     92  O   UNL A   1      46.700  36.055  26.285  1.00  0.00    -0.237 OA
ATOM     93  O   UNL A   1      44.669  37.064  27.222  1.00  0.00    -0.744 OA
ENDBRANCH  87  90
ENDBRANCH  60  83
ENDBRANCH  34  35
ENDBRANCH  27  29
ENDBRANCH  26  27
ENDBRANCH  25  26
ENDBRANCH   1  25
TORSDOF 20
ENDMDL
MODEL 3
REMARK VINA RESULT:     -10.7      4.773      9.698
REMARK SMILES CCc1ccsc1C(=O)N(CC(=O)OCCOC(=O)c1ccc(-c2c3nc(c(-c4cccc(S(=O)(=O)[O-])c4F)c4ccc([nH]4)c(-c4cccc(S(=O)(=O)[O-])c4F)c4nc(c(-c5cccc(S(=O)(=O)[O-])c5F)c5ccc2[nH]5)C=C4)C=C3)cc1)c1ccccc1N
REMARK SMILES IDX 15 1 14 2 12 3 13 4 11 5 10 6 8 7 9 8 7 9 3 10 4 11 5 12
REMARK SMILES IDX 6 13 2 14 1 15 83 16 84 17 88 18 85 19 87 20 86 21 89 22
REMARK SMILES IDX 16 25 17 26 18 27 19 28 20 29 21 30 82 31 22 32 81 33 23 34
REMARK SMILES IDX 24 35 25 36 75 37 26 38 80 39 74 40 76 41 27 42 79 43 73 44
REMARK SMILES IDX 72 45 28 47 60 48 40 49 59 50 41 51 44 52 58 53 77 54 42 55
REMARK SMILES IDX 43 56 57 58 78 59 45 60 29 61 30 62 38 63 31 64 33 65 39 66
REMARK SMILES IDX 32 67 34 68 35 69 36 70 37 71 61 72 62 73 70 74 63 75 65 76
REMARK SMILES IDX 71 77 64 78 66 79 67 80 68 81 69 82 46 83 47 84 55 85 48 86
REMARK SMILES IDX 50 87 56 88 49 89 51 90 52 91 53 92 54 93
REMARK H PARENT 89 23 89 24 76 46 44 57
REMARK Flexibility Score: inf
ROOT
ATOM      1  C   UNL A   1      35.485  22.596  23.777  1.00  0.00     0.274 C 
ENDROOT
BRANCH   1   2
ATOM      2  O   UNL A   1      35.636  23.813  24.535  1.00  0.00    -0.461 OA
BRANCH   2   3
ATOM      3  C   UNL A   1      34.621  24.697  24.354  1.00  0.00     0.326 C 
ATOM      4  O   UNL A   1      34.021  24.836  23.290  1.00  0.00    -0.250 OA
BRANCH   3   5
ATOM      5  C   UNL A   1      34.142  25.377  25.628  1.00  0.00     0.248 C 
BRANCH   5   6
ATOM      6  N   UNL A   1      32.879  25.002  26.229  1.00  0.00    -0.294 N 
BRANCH   6   7
ATOM      7  C   UNL A   1      31.751  25.838  26.351  1.00  0.00     0.269 C 
ATOM      8  O   UNL A   1      30.732  25.290  26.803  1.00  0.00    -0.268 OA
BRANCH   7   9
ATOM      9  C   UNL A   1      31.670  27.301  25.980  1.00  0.00     0.096 A 
ATOM     10  C   UNL A   1      31.232  28.180  24.963  1.00  0.00    -0.025 A 
ATOM     11  C   UNL A   1      31.452  29.572  25.320  1.00  0.00     0.016 A 
ATOM     12  C   UNL A   1      32.051  29.761  26.528  1.00  0.00     0.066 A 
ATOM     13  S   UNL A   1      32.355  28.294  27.290  1.00  0.00    -0.138 S 
BRANCH  10  14
ATOM     14  C   UNL A   1      30.629  27.983  23.593  1.00  0.00     0.034 C 
ATOM     15  C   UNL A   1      29.531  26.929  23.502  1.00  0.00     0.009 C 
ENDBRANCH  10  14
ENDBRANCH   7   9
ENDBRANCH   6   7
BRANCH   6  16
ATOM     16  C   UNL A   1      32.734  23.560  26.338  1.00  0.00     0.068 A 
ATOM     17  C   UNL A   1      33.510  22.878  27.293  1.00  0.00     0.028 A 
ATOM     18  C   UNL A   1      32.041  22.807  25.356  1.00  0.00     0.056 A 
ATOM     19  C   UNL A   1      33.654  21.490  27.252  1.00  0.00     0.002 A 
ATOM     20  C   UNL A   1      32.250  21.419  25.298  1.00  0.00     0.028 A 
ATOM     21  C   UNL A   1      33.042  20.763  26.241  1.00  0.00     0.002 A 
BRANCH  18  22
ATOM     22  N   UNL A   1      31.325  23.409  24.313  1.00  0.00    -0.397 N 
ATOM     23  H   UNL A   1      31.504  23.151  23.380  1.00  0.00     0.156 HD
ATOM     24  H   UNL A   1      30.643  24.091  24.512  1.00  0.00     0.156 HD
ENDBRANCH  18  22
ENDBRANCH   6  16
ENDBRANCH   5   6
ENDBRANCH   3   5
ENDBRANCH   2   3
ENDBRANCH   1   2
BRANCH   1  25
ATOM     25  C   UNL A   1      36.139  21.408  24.492  1.00  0.00     0.275 C 
BRANCH  25  26
ATOM     26  O   UNL A   1      36.846  21.835  25.675  1.00  0.00    -0.458 OA
BRANCH  26  27
ATOM     27  C   UNL A   1      38.123  21.399  25.794  1.00  0.00     0.338 C 
ATOM     28  O   UNL A   1      38.519  20.264  25.585  1.00  0.00    -0.246 OA
BRANCH  27  29
ATOM     29  C   UNL A   1      39.026  22.487  26.236  1.00  0.00     0.060 A 
ATOM     30  C   UNL A   1      40.128  22.256  27.064  1.00  0.00     0.016 A 
ATOM     31  C   UNL A   1      38.692  23.796  25.890  1.00  0.00     0.016 A 
ATOM     32  C   UNL A   1      40.836  23.324  27.619  1.00  0.00     0.010 A 
ATOM     33  C   UNL A   1      39.460  24.861  26.367  1.00  0.00     0.010 A 
ATOM     34  C   UNL A   1      40.521  24.640  27.261  1.00  0.00    -0.014 A 
BRANCH  34  35
ATOM     35  C   UNL A   1      41.297  25.800  27.775  1.00  0.00     0.031 A 
ATOM     36  C   UNL A   1      40.608  26.883  28.560  1.00  0.00     0.074 A 
ATOM     37  C   UNL A   1      42.593  25.939  27.435  1.00  0.00     0.049 A 
ATOM     38  N   UNL A   1      41.039  28.077  28.875  1.00  0.00    -0.248 NA
ATOM     39  C   UNL A   1      39.245  26.592  29.032  1.00  0.00     0.031 C 
ATOM     40  C   UNL A   1      43.373  24.970  26.662  1.00  0.00     0.029 A 
ATOM     41  N   UNL A   1      43.468  26.977  27.647  1.00  0.00    -0.354 N 
ATOM     42  C   UNL A   1      39.979  28.707  29.515  1.00  0.00     0.074 A 
ATOM     43  C   UNL A   1      38.887  27.757  29.558  1.00  0.00     0.031 C 
ATOM     44  C   UNL A   1      44.594  25.473  26.431  1.00  0.00     0.029 A 
ATOM     45  C   UNL A   1      44.664  26.821  26.986  1.00  0.00     0.049 A 
ATOM     46  H   UNL A   1      43.259  27.754  28.214  1.00  0.00     0.167 HD
ATOM     47  C   UNL A   1      39.922  29.960  30.025  1.00  0.00     0.034 A 
ATOM     48  C   UNL A   1      45.685  27.678  26.794  1.00  0.00     0.034 A 
ATOM     49  C   UNL A   1      41.031  30.877  30.040  1.00  0.00     0.049 A 
ATOM     50  C   UNL A   1      45.613  29.052  27.396  1.00  0.00     0.074 A 
ATOM     51  C   UNL A   1      41.103  32.133  30.618  1.00  0.00     0.029 A 
ATOM     52  N   UNL A   1      42.264  30.639  29.450  1.00  0.00    -0.354 N 
ATOM     53  N   UNL A   1      44.646  29.592  28.097  1.00  0.00    -0.248 NA
ATOM     54  C   UNL A   1      46.780  29.925  27.207  1.00  0.00     0.031 C 
ATOM     55  C   UNL A   1      42.376  32.658  30.369  1.00  0.00     0.029 A 
ATOM     56  C   UNL A   1      43.099  31.726  29.642  1.00  0.00     0.049 A 
ATOM     57  H   UNL A   1      42.507  29.817  28.966  1.00  0.00     0.167 HD
ATOM     58  C   UNL A   1      45.091  30.861  28.446  1.00  0.00     0.074 A 
ATOM     59  C   UNL A   1      46.428  30.999  27.903  1.00  0.00     0.031 C 
ATOM     60  C   UNL A   1      44.444  31.832  29.137  1.00  0.00     0.034 A 
BRANCH  47  61
ATOM     61  C   UNL A   1      38.625  30.409  30.643  1.00  0.00     0.023 A 
ATOM     62  C   UNL A   1      38.395  30.194  32.016  1.00  0.00     0.012 A 
ATOM     63  C   UNL A   1      37.658  31.094  29.881  1.00  0.00     0.148 A 
ATOM     64  C   UNL A   1      37.214  30.630  32.615  1.00  0.00     0.002 A 
ATOM     65  C   UNL A   1      36.499  31.558  30.493  1.00  0.00     0.091 A 
ATOM     66  F   UNL A   1      37.878  31.267  28.569  1.00  0.00    -0.205 F 
ATOM     67  C   UNL A   1      36.272  31.320  31.858  1.00  0.00     0.022 A 
BRANCH  65  68
ATOM     68  S   UNL A   1      35.268  32.519  29.602  1.00  0.00     0.127 S 
ATOM     69  O   UNL A   1      34.786  31.546  28.623  1.00  0.00    -0.237 OA
ATOM     70  O   UNL A   1      34.305  32.852  30.653  1.00  0.00    -0.237 OA
ATOM     71  O   UNL A   1      35.985  33.665  29.060  1.00  0.00    -0.744 OA
ENDBRANCH  65  68
ENDBRANCH  47  61
BRANCH  48  72
ATOM     72  C   UNL A   1      46.866  27.233  26.004  1.00  0.00     0.023 A 
ATOM     73  C   UNL A   1      46.937  27.546  24.634  1.00  0.00     0.012 A 
ATOM     74  C   UNL A   1      47.958  26.591  26.622  1.00  0.00     0.148 A 
ATOM     75  C   UNL A   1      48.072  27.220  23.890  1.00  0.00     0.002 A 
ATOM     76  C   UNL A   1      49.108  26.324  25.889  1.00  0.00     0.091 A 
ATOM     77  F   UNL A   1      47.863  26.286  27.924  1.00  0.00    -0.205 F 
ATOM     78  C   UNL A   1      49.162  26.626  24.520  1.00  0.00     0.022 A 
BRANCH  76  79
ATOM     79  S   UNL A   1      50.612  25.708  26.658  1.00  0.00     0.127 S 
ATOM     80  O   UNL A   1      50.154  24.455  27.251  1.00  0.00    -0.237 OA
ATOM     81  O   UNL A   1      51.503  25.556  25.507  1.00  0.00    -0.237 OA
ATOM     82  O   UNL A   1      51.023  26.743  27.596  1.00  0.00    -0.744 OA
ENDBRANCH  76  79
ENDBRANCH  48  72
BRANCH  60  83
ATOM     83  C   UNL A   1      45.173  33.129  29.358  1.00  0.00     0.023 A 
ATOM     84  C   UNL A   1      46.010  33.269  30.482  1.00  0.00     0.012 A 
ATOM     85  C   UNL A   1      45.089  34.178  28.423  1.00  0.00     0.148 A 
ATOM     86  C   UNL A   1      46.733  34.444  30.686  1.00  0.00     0.002 A 
ATOM     87  C   UNL A   1      45.843  35.331  28.611  1.00  0.00     0.091 A 
ATOM     88  F   UNL A   1      44.269  34.036  27.371  1.00  0.00    -0.205 F 
ATOM     89  C   UNL A   1      46.659  35.469  29.746  1.00  0.00     0.022 A 
BRANCH  87  90
ATOM     90  S   UNL A   1      45.867  36.663  27.405  1.00  0.00     0.127 S 
ATOM     91  O   UNL A   1      46.899  37.542  27.949  1.00  0.00    -0.237 OA
ATOM     92  O   UNL A   1      46.245  35.968  26.174  1.00  0.00    -0.237 OA
ATOM     93  O   UNL A   1      44.515  37.208  27.394  1.00  0.00    -0.744 OA
ENDBRANCH  87  90
ENDBRANCH  60  83
ENDBRANCH  34  35
ENDBRANCH  27  29
ENDBRANCH  26  27
ENDBRANCH  25  26
ENDBRANCH   1  25
TORSDOF 20
ENDMDL
