MODEL 1
REMARK VINA RESULT:     -10.8      0.000      0.000
REMARK SMILES CC(=O)N[C@H](C(=O)NC1(CC(=O)OCCOC(=O)c2ccc(-c3c4nc(c(-c5cccc(S(=O)(=O)[O-])c5F)c5ccc([nH]5)c(-c5cccc(S(=O)(=O)[O-])c5F)c5nc(c(-c6cccc(S(=O)(=O)[O-])c6F)c6ccc3[nH]6)C=C5)C=C4)cc2)CCC1)C(C)C
REMARK SMILES IDX 14 1 13 2 11 3 12 4 10 5 9 6 82 7 84 8 83 9 8 10 6 11 7 12
REMARK SMILES IDX 5 14 4 15 1 16 2 17 3 18 85 20 86 21 87 22 15 23 16 24 17 25
REMARK SMILES IDX 18 26 19 27 20 28 81 29 21 30 80 31 22 32 23 33 24 34 74 35
REMARK SMILES IDX 25 36 79 37 73 38 75 39 26 40 78 41 72 42 71 43 27 45 59 46
REMARK SMILES IDX 39 47 58 48 40 49 43 50 57 51 76 52 41 53 42 54 56 56 77 57
REMARK SMILES IDX 44 58 28 59 29 60 37 61 30 62 32 63 38 64 31 65 33 66 34 67
REMARK SMILES IDX 35 68 36 69 60 70 61 71 69 72 62 73 64 74 70 75 63 76 65 77
REMARK SMILES IDX 66 78 67 79 68 80 45 81 46 82 54 83 47 84 49 85 55 86 48 87
REMARK SMILES IDX 50 88 51 89 52 90 53 91
REMARK H PARENT 8 13 4 19 75 44 43 55
REMARK Flexibility Score: inf
ROOT
ATOM      1  C   UNL A   1      31.837  28.812  24.633  1.00  0.00     0.274 C 
ENDROOT
BRANCH   1   2
ATOM      2  O   UNL A   1      33.231  28.469  24.796  1.00  0.00    -0.462 OA
BRANCH   2   3
ATOM      3  C   UNL A   1      33.465  27.144  24.961  1.00  0.00     0.308 C 
ATOM      4  O   UNL A   1      33.554  26.592  26.050  1.00  0.00    -0.252 OA
BRANCH   3   5
ATOM      5  C   UNL A   1      33.710  26.434  23.655  1.00  0.00     0.151 C 
BRANCH   5   6
ATOM      6  C   UNL A   1      32.600  25.503  23.183  1.00  0.00     0.051 C 
ATOM      7  C   UNL A   1      32.849  24.499  22.000  1.00  0.00     0.029 C 
ATOM      8  C   UNL A   1      31.683  26.268  22.150  1.00  0.00     0.029 C 
ATOM      9  C   UNL A   1      32.535  25.642  21.024  1.00  0.00     0.005 C 
BRANCH   6  10
ATOM     10  N   UNL A   1      31.807  24.866  24.244  1.00  0.00    -0.348 N 
ATOM     11  C   UNL A   1      31.782  23.635  24.817  1.00  0.00     0.243 C 
ATOM     12  O   UNL A   1      30.647  23.356  25.248  1.00  0.00    -0.273 OA
ATOM     13  H   UNL A   1      31.136  25.474  24.631  1.00  0.00     0.164 HD
BRANCH  11  14
ATOM     14  C   UNL A   1      32.977  22.646  25.117  1.00  0.00     0.173 C 
BRANCH  14  15
ATOM     15  N   UNL A   1      32.712  21.559  24.148  1.00  0.00    -0.344 N 
ATOM     16  C   UNL A   1      32.949  19.564  25.599  1.00  0.00     0.114 C 
ATOM     17  C   UNL A   1      32.677  20.209  24.272  1.00  0.00     0.217 C 
ATOM     18  O   UNL A   1      32.461  19.537  23.266  1.00  0.00    -0.275 OA
ATOM     19  H   UNL A   1      32.525  21.879  23.236  1.00  0.00     0.164 HD
ENDBRANCH  14  15
BRANCH  14  20
ATOM     20  C   UNL A   1      34.467  23.095  25.070  1.00  0.00     0.015 C 
ATOM     21  C   UNL A   1      35.148  23.024  26.455  1.00  0.00     0.010 C 
ATOM     22  C   UNL A   1      35.366  22.231  24.163  1.00  0.00     0.010 C 
ENDBRANCH  14  20
ENDBRANCH  11  14
ENDBRANCH   6  10
ENDBRANCH   5   6
ENDBRANCH   3   5
ENDBRANCH   2   3
ENDBRANCH   1   2
BRANCH   1  23
ATOM     23  C   UNL A   1      31.486  30.173  25.239  1.00  0.00     0.275 C 
BRANCH  23  24
ATOM     24  O   UNL A   1      31.891  30.252  26.620  1.00  0.00    -0.458 OA
BRANCH  24  25
ATOM     25  C   UNL A   1      32.506  31.401  26.999  1.00  0.00     0.338 C 
ATOM     26  O   UNL A   1      32.050  32.527  26.881  1.00  0.00    -0.246 OA
BRANCH  25  27
ATOM     27  C   UNL A   1      33.856  31.135  27.560  1.00  0.00     0.060 A 
ATOM     28  C   UNL A   1      34.312  29.839  27.778  1.00  0.00     0.016 A 
ATOM     29  C   UNL A   1      34.653  32.208  27.969  1.00  0.00     0.016 A 
ATOM     30  C   UNL A   1      35.503  29.620  28.485  1.00  0.00     0.010 A 
ATOM     31  C   UNL A   1      35.898  31.979  28.579  1.00  0.00     0.010 A 
ATOM     32  C   UNL A   1      36.334  30.679  28.882  1.00  0.00    -0.014 A 
BRANCH  32  33
ATOM     33  C   UNL A   1      37.626  30.439  29.614  1.00  0.00     0.031 A 
ATOM     34  C   UNL A   1      38.704  29.565  29.012  1.00  0.00     0.074 A 
ATOM     35  C   UNL A   1      37.858  30.970  30.835  1.00  0.00     0.049 A 
ATOM     36  N   UNL A   1      39.745  29.011  29.588  1.00  0.00    -0.248 NA
ATOM     37  C   UNL A   1      38.585  29.253  27.580  1.00  0.00     0.031 C 
ATOM     38  C   UNL A   1      36.957  31.865  31.559  1.00  0.00     0.029 A 
ATOM     39  N   UNL A   1      38.930  30.827  31.691  1.00  0.00    -0.354 N 
ATOM     40  C   UNL A   1      40.342  28.211  28.620  1.00  0.00     0.074 A 
ATOM     41  C   UNL A   1      39.564  28.371  27.409  1.00  0.00     0.031 C 
ATOM     42  C   UNL A   1      37.527  32.230  32.716  1.00  0.00     0.029 A 
ATOM     43  C   UNL A   1      38.779  31.502  32.883  1.00  0.00     0.049 A 
ATOM     44  H   UNL A   1      39.727  30.293  31.472  1.00  0.00     0.167 HD
ATOM     45  C   UNL A   1      41.438  27.420  28.724  1.00  0.00     0.034 A 
ATOM     46  C   UNL A   1      39.517  31.498  34.013  1.00  0.00     0.034 A 
ATOM     47  C   UNL A   1      42.288  27.345  29.886  1.00  0.00     0.049 A 
ATOM     48  C   UNL A   1      40.734  30.619  34.106  1.00  0.00     0.074 A 
ATOM     49  C   UNL A   1      43.440  26.595  30.060  1.00  0.00     0.029 A 
ATOM     50  N   UNL A   1      42.103  28.064  31.055  1.00  0.00    -0.354 N 
ATOM     51  N   UNL A   1      41.269  29.850  33.190  1.00  0.00    -0.248 NA
ATOM     52  C   UNL A   1      41.442  30.597  35.395  1.00  0.00     0.031 C 
ATOM     53  C   UNL A   1      43.945  26.853  31.340  1.00  0.00     0.029 A 
ATOM     54  C   UNL A   1      43.115  27.773  31.957  1.00  0.00     0.049 A 
ATOM     55  H   UNL A   1      41.361  28.690  31.222  1.00  0.00     0.167 HD
ATOM     56  C   UNL A   1      42.374  29.257  33.789  1.00  0.00     0.074 A 
ATOM     57  C   UNL A   1      42.457  29.784  35.136  1.00  0.00     0.031 C 
ATOM     58  C   UNL A   1      43.222  28.330  33.280  1.00  0.00     0.034 A 
BRANCH  45  59
ATOM     59  C   UNL A   1      41.808  26.562  27.540  1.00  0.00     0.023 A 
ATOM     60  C   UNL A   1      42.577  27.099  26.491  1.00  0.00     0.012 A 
ATOM     61  C   UNL A   1      41.466  25.193  27.515  1.00  0.00     0.148 A 
ATOM     62  C   UNL A   1      42.979  26.297  25.423  1.00  0.00     0.002 A 
ATOM     63  C   UNL A   1      41.904  24.390  26.468  1.00  0.00     0.091 A 
ATOM     64  F   UNL A   1      40.717  24.702  28.514  1.00  0.00    -0.205 F 
ATOM     65  C   UNL A   1      42.653  24.942  25.418  1.00  0.00     0.022 A 
BRANCH  63  66
ATOM     66  S   UNL A   1      41.604  22.618  26.419  1.00  0.00     0.127 S 
ATOM     67  O   UNL A   1      40.143  22.568  26.367  1.00  0.00    -0.237 OA
ATOM     68  O   UNL A   1      42.270  22.223  25.177  1.00  0.00    -0.237 OA
ATOM     69  O   UNL A   1      42.209  22.076  27.627  1.00  0.00    -0.744 OA
ENDBRANCH  63  66
ENDBRANCH  45  59
BRANCH  46  70
ATOM     70  C   UNL A   1      39.098  32.342  35.172  1.00  0.00     0.023 A 
ATOM     71  C   UNL A   1      38.284  31.787  36.178  1.00  0.00     0.012 A 
ATOM     72  C   UNL A   1      39.545  33.670  35.312  1.00  0.00     0.148 A 
ATOM     73  C   UNL A   1      37.916  32.541  37.294  1.00  0.00     0.002 A 
ATOM     74  C   UNL A   1      39.242  34.389  36.462  1.00  0.00     0.091 A 
ATOM     75  F   UNL A   1      40.283  34.202  34.326  1.00  0.00    -0.205 F 
ATOM     76  C   UNL A   1      38.413  33.834  37.446  1.00  0.00     0.022 A 
BRANCH  74  77
ATOM     77  S   UNL A   1      40.003  35.980  36.808  1.00  0.00     0.127 S 
ATOM     78  O   UNL A   1      39.712  36.727  35.588  1.00  0.00    -0.237 OA
ATOM     79  O   UNL A   1      39.267  36.425  37.993  1.00  0.00    -0.237 OA
ATOM     80  O   UNL A   1      41.408  35.688  37.061  1.00  0.00    -0.744 OA
ENDBRANCH  74  77
ENDBRANCH  46  70
BRANCH  58  81
ATOM     81  C   UNL A   1      44.321  27.823  34.176  1.00  0.00     0.023 A 
ATOM     82  C   UNL A   1      45.546  28.518  34.226  1.00  0.00     0.012 A 
ATOM     83  C   UNL A   1      44.129  26.702  35.007  1.00  0.00     0.148 A 
ATOM     84  C   UNL A   1      46.573  28.090  35.066  1.00  0.00     0.002 A 
ATOM     85  C   UNL A   1      45.144  26.303  35.872  1.00  0.00     0.091 A 
ATOM     86  F   UNL A   1      42.965  26.043  34.933  1.00  0.00    -0.205 F 
ATOM     87  C   UNL A   1      46.369  26.990  35.895  1.00  0.00     0.022 A 
BRANCH  85  88
ATOM     88  S   UNL A   1      44.946  24.945  37.032  1.00  0.00     0.127 S 
ATOM     89  O   UNL A   1      46.219  24.980  37.752  1.00  0.00    -0.237 OA
ATOM     90  O   UNL A   1      43.789  25.373  37.819  1.00  0.00    -0.237 OA
ATOM     91  O   UNL A   1      44.719  23.756  36.222  1.00  0.00    -0.744 OA
ENDBRANCH  85  88
ENDBRANCH  58  81
ENDBRANCH  32  33
ENDBRANCH  25  27
ENDBRANCH  24  25
ENDBRANCH  23  24
ENDBRANCH   1  23
TORSDOF 19
ENDMDL
MODEL 2
REMARK VINA RESULT:     -10.8      4.869      9.941
REMARK SMILES CC(=O)N[C@H](C(=O)NC1(CC(=O)OCCOC(=O)c2ccc(-c3c4nc(c(-c5cccc(S(=O)(=O)[O-])c5F)c5ccc([nH]5)c(-c5cccc(S(=O)(=O)[O-])c5F)c5nc(c(-c6cccc(S(=O)(=O)[O-])c6F)c6ccc3[nH]6)C=C5)C=C4)cc2)CCC1)C(C)C
REMARK SMILES IDX 14 1 13 2 11 3 12 4 10 5 9 6 82 7 84 8 83 9 8 10 6 11 7 12
REMARK SMILES IDX 5 14 4 15 1 16 2 17 3 18 85 20 86 21 87 22 15 23 16 24 17 25
REMARK SMILES IDX 18 26 19 27 20 28 81 29 21 30 80 31 22 32 23 33 24 34 74 35
REMARK SMILES IDX 25 36 79 37 73 38 75 39 26 40 78 41 72 42 71 43 27 45 59 46
REMARK SMILES IDX 39 47 58 48 40 49 43 50 57 51 76 52 41 53 42 54 56 56 77 57
REMARK SMILES IDX 44 58 28 59 29 60 37 61 30 62 32 63 38 64 31 65 33 66 34 67
REMARK SMILES IDX 35 68 36 69 60 70 61 71 69 72 62 73 64 74 70 75 63 76 65 77
REMARK SMILES IDX 66 78 67 79 68 80 45 81 46 82 54 83 47 84 49 85 55 86 48 87
REMARK SMILES IDX 50 88 51 89 52 90 53 91
REMARK H PARENT 8 13 4 19 75 44 43 55
REMARK Flexibility Score: inf
ROOT
ATOM      1  C   UNL A   1      34.511  20.665  24.972  1.00  0.00     0.274 C 
ENDROOT
BRANCH   1   2
ATOM      2  O   UNL A   1      33.963  20.871  26.293  1.00  0.00    -0.462 OA
BRANCH   2   3
ATOM      3  C   UNL A   1      33.261  22.023  26.433  1.00  0.00     0.308 C 
ATOM      4  O   UNL A   1      33.157  22.640  27.485  1.00  0.00    -0.252 OA
BRANCH   3   5
ATOM      5  C   UNL A   1      32.531  22.411  25.174  1.00  0.00     0.151 C 
BRANCH   5   6
ATOM      6  C   UNL A   1      32.542  23.895  24.826  1.00  0.00     0.051 C 
ATOM      7  C   UNL A   1      32.473  24.364  23.328  1.00  0.00     0.029 C 
ATOM      8  C   UNL A   1      34.035  24.405  24.767  1.00  0.00     0.029 C 
ATOM      9  C   UNL A   1      33.993  24.161  23.243  1.00  0.00     0.005 C 
BRANCH   6  10
ATOM     10  N   UNL A   1      31.708  24.756  25.677  1.00  0.00    -0.348 N 
ATOM     11  C   UNL A   1      31.689  26.080  25.978  1.00  0.00     0.243 C 
ATOM     12  O   UNL A   1      31.215  26.283  27.112  1.00  0.00    -0.273 OA
ATOM     13  H   UNL A   1      30.996  24.255  26.138  1.00  0.00     0.164 HD
BRANCH  11  14
ATOM     14  C   UNL A   1      32.031  27.320  25.060  1.00  0.00     0.173 C 
BRANCH  14  15
ATOM     15  N   UNL A   1      30.687  27.707  24.573  1.00  0.00    -0.344 N 
ATOM     16  C   UNL A   1      30.988  27.480  22.124  1.00  0.00     0.114 C 
ATOM     17  C   UNL A   1      30.154  27.800  23.330  1.00  0.00     0.217 C 
ATOM     18  O   UNL A   1      28.994  28.191  23.220  1.00  0.00    -0.275 OA
ATOM     19  H   UNL A   1      30.059  27.944  25.293  1.00  0.00     0.164 HD
ENDBRANCH  14  15
BRANCH  14  20
ATOM     20  C   UNL A   1      32.821  28.555  25.581  1.00  0.00     0.015 C 
ATOM     21  C   UNL A   1      31.914  29.568  26.315  1.00  0.00     0.010 C 
ATOM     22  C   UNL A   1      33.921  28.222  26.608  1.00  0.00     0.010 C 
ENDBRANCH  14  20
ENDBRANCH  11  14
ENDBRANCH   6  10
ENDBRANCH   5   6
ENDBRANCH   3   5
ENDBRANCH   2   3
ENDBRANCH   1   2
BRANCH   1  23
ATOM     23  C   UNL A   1      36.004  20.328  24.996  1.00  0.00     0.275 C 
BRANCH  23  24
ATOM     24  O   UNL A   1      36.770  21.384  25.612  1.00  0.00    -0.458 OA
BRANCH  24  25
ATOM     25  C   UNL A   1      38.109  21.181  25.694  1.00  0.00     0.338 C 
ATOM     26  O   UNL A   1      38.700  20.168  25.356  1.00  0.00    -0.246 OA
BRANCH  25  27
ATOM     27  C   UNL A   1      38.800  22.354  26.291  1.00  0.00     0.060 A 
ATOM     28  C   UNL A   1      38.335  23.650  26.099  1.00  0.00     0.016 A 
ATOM     29  C   UNL A   1      39.999  22.163  26.984  1.00  0.00     0.016 A 
ATOM     30  C   UNL A   1      39.108  24.745  26.506  1.00  0.00     0.010 A 
ATOM     31  C   UNL A   1      40.714  23.264  27.487  1.00  0.00     0.010 A 
ATOM     32  C   UNL A   1      40.301  24.582  27.228  1.00  0.00    -0.014 A 
BRANCH  32  33
ATOM     33  C   UNL A   1      41.115  25.760  27.690  1.00  0.00     0.031 A 
ATOM     34  C   UNL A   1      40.499  26.826  28.569  1.00  0.00     0.074 A 
ATOM     35  C   UNL A   1      42.404  25.920  27.320  1.00  0.00     0.049 A 
ATOM     36  N   UNL A   1      40.929  28.036  28.835  1.00  0.00    -0.248 NA
ATOM     37  C   UNL A   1      39.220  26.497  29.217  1.00  0.00     0.031 C 
ATOM     38  C   UNL A   1      43.179  24.984  26.508  1.00  0.00     0.029 A 
ATOM     39  N   UNL A   1      43.295  26.941  27.576  1.00  0.00    -0.354 N 
ATOM     40  C   UNL A   1      39.932  28.642  29.592  1.00  0.00     0.074 A 
ATOM     41  C   UNL A   1      38.885  27.658  29.768  1.00  0.00     0.031 C 
ATOM     42  C   UNL A   1      44.432  25.441  26.375  1.00  0.00     0.029 A 
ATOM     43  C   UNL A   1      44.526  26.763  26.982  1.00  0.00     0.049 A 
ATOM     44  H   UNL A   1      43.073  27.724  28.130  1.00  0.00     0.167 HD
ATOM     45  C   UNL A   1      39.892  29.899  30.099  1.00  0.00     0.034 A 
ATOM     46  C   UNL A   1      45.594  27.581  26.873  1.00  0.00     0.034 A 
ATOM     47  C   UNL A   1      40.977  30.846  30.033  1.00  0.00     0.049 A 
ATOM     48  C   UNL A   1      45.531  28.969  27.450  1.00  0.00     0.074 A 
ATOM     49  C   UNL A   1      41.031  32.128  30.555  1.00  0.00     0.029 A 
ATOM     50  N   UNL A   1      42.207  30.607  29.441  1.00  0.00    -0.354 N 
ATOM     51  N   UNL A   1      44.572  29.534  28.140  1.00  0.00    -0.248 NA
ATOM     52  C   UNL A   1      46.696  29.837  27.219  1.00  0.00     0.031 C 
ATOM     53  C   UNL A   1      42.289  32.669  30.267  1.00  0.00     0.029 A 
ATOM     54  C   UNL A   1      43.023  31.719  29.579  1.00  0.00     0.049 A 
ATOM     55  H   UNL A   1      42.463  29.771  28.989  1.00  0.00     0.167 HD
ATOM     56  C   UNL A   1      45.016  30.820  28.427  1.00  0.00     0.074 A 
ATOM     57  C   UNL A   1      46.349  30.939  27.872  1.00  0.00     0.031 C 
ATOM     58  C   UNL A   1      44.364  31.822  29.065  1.00  0.00     0.034 A 
BRANCH  45  59
ATOM     59  C   UNL A   1      38.629  30.343  30.795  1.00  0.00     0.023 A 
ATOM     60  C   UNL A   1      38.479  30.146  32.180  1.00  0.00     0.012 A 
ATOM     61  C   UNL A   1      37.628  31.039  30.083  1.00  0.00     0.148 A 
ATOM     62  C   UNL A   1      37.342  30.610  32.843  1.00  0.00     0.002 A 
ATOM     63  C   UNL A   1      36.518  31.535  30.757  1.00  0.00     0.091 A 
ATOM     64  F   UNL A   1      37.780  31.202  28.760  1.00  0.00    -0.205 F 
ATOM     65  C   UNL A   1      36.369  31.314  32.135  1.00  0.00     0.022 A 
BRANCH  63  66
ATOM     66  S   UNL A   1      35.256  32.524  29.944  1.00  0.00     0.127 S 
ATOM     67  O   UNL A   1      36.036  33.670  29.476  1.00  0.00    -0.237 OA
ATOM     68  O   UNL A   1      34.795  31.628  28.882  1.00  0.00    -0.237 OA
ATOM     69  O   UNL A   1      34.259  32.817  30.962  1.00  0.00    -0.744 OA
ENDBRANCH  63  66
ENDBRANCH  45  59
BRANCH  46  70
ATOM     70  C   UNL A   1      46.814  27.111  26.152  1.00  0.00     0.023 A 
ATOM     71  C   UNL A   1      46.974  27.413  24.786  1.00  0.00     0.012 A 
ATOM     72  C   UNL A   1      47.840  26.417  26.822  1.00  0.00     0.148 A 
ATOM     73  C   UNL A   1      48.126  27.025  24.100  1.00  0.00     0.002 A 
ATOM     74  C   UNL A   1      49.018  26.103  26.155  1.00  0.00     0.091 A 
ATOM     75  F   UNL A   1      47.657  26.095  28.111  1.00  0.00    -0.205 F 
ATOM     76  C   UNL A   1      49.158  26.389  24.790  1.00  0.00     0.022 A 
BRANCH  74  77
ATOM     77  S   UNL A   1      50.453  25.460  27.025  1.00  0.00     0.127 S 
ATOM     78  O   UNL A   1      50.784  26.564  27.921  1.00  0.00    -0.237 OA
ATOM     79  O   UNL A   1      49.909  24.273  27.686  1.00  0.00    -0.237 OA
ATOM     80  O   UNL A   1      51.431  25.162  25.987  1.00  0.00    -0.744 OA
ENDBRANCH  74  77
ENDBRANCH  46  70
BRANCH  58  81
ATOM     81  C   UNL A   1      45.076  33.142  29.202  1.00  0.00     0.023 A 
ATOM     82  C   UNL A   1      45.871  33.381  30.341  1.00  0.00     0.012 A 
ATOM     83  C   UNL A   1      45.010  34.118  28.189  1.00  0.00     0.148 A 
ATOM     84  C   UNL A   1      46.566  34.581  30.485  1.00  0.00     0.002 A 
ATOM     85  C   UNL A   1      45.738  35.298  28.320  1.00  0.00     0.091 A 
ATOM     86  F   UNL A   1      44.236  33.882  27.121  1.00  0.00    -0.205 F 
ATOM     87  C   UNL A   1      46.506  35.535  29.472  1.00  0.00     0.022 A 
BRANCH  85  88
ATOM     88  S   UNL A   1      45.785  36.552  27.034  1.00  0.00     0.127 S 
ATOM     89  O   UNL A   1      44.386  36.973  26.976  1.00  0.00    -0.237 OA
ATOM     90  O   UNL A   1      46.698  37.546  27.600  1.00  0.00    -0.237 OA
ATOM     91  O   UNL A   1      46.286  35.883  25.841  1.00  0.00    -0.744 OA
ENDBRANCH  85  88
ENDBRANCH  58  81
ENDBRANCH  32  33
ENDBRANCH  25  27
ENDBRANCH  24  25
ENDBRANCH  23  24
ENDBRANCH   1  23
TORSDOF 19
ENDMDL
MODEL 3
REMARK VINA RESULT:     -10.6      1.606      2.017
REMARK SMILES CC(=O)N[C@H](C(=O)NC1(CC(=O)OCCOC(=O)c2ccc(-c3c4nc(c(-c5cccc(S(=O)(=O)[O-])c5F)c5ccc([nH]5)c(-c5cccc(S(=O)(=O)[O-])c5F)c5nc(c(-c6cccc(S(=O)(=O)[O-])c6F)c6ccc3[nH]6)C=C5)C=C4)cc2)CCC1)C(C)C
REMARK SMILES IDX 14 1 13 2 11 3 12 4 10 5 9 6 82 7 84 8 83 9 8 10 6 11 7 12
REMARK SMILES IDX 5 14 4 15 1 16 2 17 3 18 85 20 86 21 87 22 15 23 16 24 17 25
REMARK SMILES IDX 18 26 19 27 20 28 81 29 21 30 80 31 22 32 23 33 24 34 74 35
REMARK SMILES IDX 25 36 79 37 73 38 75 39 26 40 78 41 72 42 71 43 27 45 59 46
REMARK SMILES IDX 39 47 58 48 40 49 43 50 57 51 76 52 41 53 42 54 56 56 77 57
REMARK SMILES IDX 44 58 28 59 29 60 37 61 30 62 32 63 38 64 31 65 33 66 34 67
REMARK SMILES IDX 35 68 36 69 60 70 61 71 69 72 62 73 64 74 70 75 63 76 65 77
REMARK SMILES IDX 66 78 67 79 68 80 45 81 46 82 54 83 47 84 49 85 55 86 48 87
REMARK SMILES IDX 50 88 51 89 52 90 53 91
REMARK H PARENT 8 13 4 19 75 44 43 55
REMARK Flexibility Score: inf
ROOT
ATOM      1  C   UNL A   1      31.880  28.378  26.675  1.00  0.00     0.274 C 
ENDROOT
BRANCH   1   2
ATOM      2  O   UNL A   1      30.941  27.464  26.069  1.00  0.00    -0.462 OA
BRANCH   2   3
ATOM      3  C   UNL A   1      31.516  26.441  25.388  1.00  0.00     0.308 C 
ATOM      4  O   UNL A   1      31.046  25.313  25.317  1.00  0.00    -0.252 OA
BRANCH   3   5
ATOM      5  C   UNL A   1      32.857  26.813  24.812  1.00  0.00     0.151 C 
BRANCH   5   6
ATOM      6  C   UNL A   1      32.936  26.877  23.291  1.00  0.00     0.051 C 
ATOM      7  C   UNL A   1      34.022  27.766  22.585  1.00  0.00     0.029 C 
ATOM      8  C   UNL A   1      31.913  27.959  22.762  1.00  0.00     0.029 C 
ATOM      9  C   UNL A   1      33.082  28.969  22.755  1.00  0.00     0.005 C 
BRANCH   6  10
ATOM     10  N   UNL A   1      32.780  25.595  22.590  1.00  0.00    -0.348 N 
ATOM     11  C   UNL A   1      33.401  24.389  22.643  1.00  0.00     0.243 C 
ATOM     12  O   UNL A   1      33.345  23.798  21.548  1.00  0.00    -0.273 OA
ATOM     13  H   UNL A   1      32.054  25.614  21.924  1.00  0.00     0.164 HD
BRANCH  11  14
ATOM     14  C   UNL A   1      34.013  23.633  23.889  1.00  0.00     0.173 C 
BRANCH  14  15
ATOM     15  N   UNL A   1      33.626  22.232  23.604  1.00  0.00    -0.344 N 
ATOM     16  C   UNL A   1      31.944  21.836  25.379  1.00  0.00     0.114 C 
ATOM     17  C   UNL A   1      32.744  21.388  24.192  1.00  0.00     0.217 C 
ATOM     18  O   UNL A   1      32.653  20.242  23.755  1.00  0.00    -0.275 OA
ATOM     19  H   UNL A   1      34.102  21.838  22.838  1.00  0.00     0.164 HD
ENDBRANCH  14  15
BRANCH  14  20
ATOM     20  C   UNL A   1      35.517  23.736  24.275  1.00  0.00     0.015 C 
ATOM     21  C   UNL A   1      35.801  23.186  25.691  1.00  0.00     0.010 C 
ATOM     22  C   UNL A   1      36.467  22.936  23.362  1.00  0.00     0.010 C 
ENDBRANCH  14  20
ENDBRANCH  11  14
ENDBRANCH   6  10
ENDBRANCH   5   6
ENDBRANCH   3   5
ENDBRANCH   2   3
ENDBRANCH   1   2
BRANCH   1  23
ATOM     23  C   UNL A   1      31.781  29.795  26.104  1.00  0.00     0.275 C 
BRANCH  23  24
ATOM     24  O   UNL A   1      33.067  30.446  26.091  1.00  0.00    -0.458 OA
BRANCH  24  25
ATOM     25  C   UNL A   1      33.247  31.432  27.006  1.00  0.00     0.338 C 
ATOM     26  O   UNL A   1      32.526  32.406  27.158  1.00  0.00    -0.246 OA
BRANCH  25  27
ATOM     27  C   UNL A   1      34.477  31.210  27.809  1.00  0.00     0.060 A 
ATOM     28  C   UNL A   1      35.413  32.220  28.005  1.00  0.00     0.016 A 
ATOM     29  C   UNL A   1      34.752  29.931  28.302  1.00  0.00     0.016 A 
ATOM     30  C   UNL A   1      36.649  31.932  28.598  1.00  0.00     0.010 A 
ATOM     31  C   UNL A   1      35.949  29.677  28.994  1.00  0.00     0.010 A 
ATOM     32  C   UNL A   1      36.940  30.664  29.126  1.00  0.00    -0.014 A 
BRANCH  32  33
ATOM     33  C   UNL A   1      38.257  30.365  29.789  1.00  0.00     0.031 A 
ATOM     34  C   UNL A   1      39.263  29.450  29.126  1.00  0.00     0.074 A 
ATOM     35  C   UNL A   1      38.574  30.876  30.998  1.00  0.00     0.049 A 
ATOM     36  N   UNL A   1      40.308  28.848  29.644  1.00  0.00    -0.248 NA
ATOM     37  C   UNL A   1      39.057  29.154  27.700  1.00  0.00     0.031 C 
ATOM     38  C   UNL A   1      37.751  31.802  31.773  1.00  0.00     0.029 A 
ATOM     39  N   UNL A   1      39.682  30.681  31.797  1.00  0.00    -0.354 N 
ATOM     40  C   UNL A   1      40.819  28.031  28.641  1.00  0.00     0.074 A 
ATOM     41  C   UNL A   1      39.986  28.233  27.474  1.00  0.00     0.031 C 
ATOM     42  C   UNL A   1      38.396  32.134  32.901  1.00  0.00     0.029 A 
ATOM     43  C   UNL A   1      39.622  31.352  32.998  1.00  0.00     0.049 A 
ATOM     44  H   UNL A   1      40.443  30.115  31.533  1.00  0.00     0.167 HD
ATOM     45  C   UNL A   1      41.884  27.193  28.684  1.00  0.00     0.034 A 
ATOM     46  C   UNL A   1      40.417  31.308  34.088  1.00  0.00     0.034 A 
ATOM     47  C   UNL A   1      42.789  27.073  29.799  1.00  0.00     0.049 A 
ATOM     48  C   UNL A   1      41.599  30.378  34.112  1.00  0.00     0.074 A 
ATOM     49  C   UNL A   1      43.916  26.274  29.909  1.00  0.00     0.029 A 
ATOM     50  N   UNL A   1      42.696  27.790  30.981  1.00  0.00    -0.354 N 
ATOM     51  N   UNL A   1      42.052  29.594  33.165  1.00  0.00    -0.248 NA
ATOM     52  C   UNL A   1      42.371  30.316  35.363  1.00  0.00     0.031 C 
ATOM     53  C   UNL A   1      44.497  26.500  31.162  1.00  0.00     0.029 A 
ATOM     54  C   UNL A   1      43.741  27.449  31.826  1.00  0.00     0.049 A 
ATOM     55  H   UNL A   1      41.992  28.446  31.189  1.00  0.00     0.167 HD
ATOM     56  C   UNL A   1      43.160  28.949  33.703  1.00  0.00     0.074 A 
ATOM     57  C   UNL A   1      43.336  29.463  35.046  1.00  0.00     0.031 C 
ATOM     58  C   UNL A   1      43.940  27.992  33.145  1.00  0.00     0.034 A 
BRANCH  45  59
ATOM     59  C   UNL A   1      42.155  26.329  27.478  1.00  0.00     0.023 A 
ATOM     60  C   UNL A   1      42.867  26.850  26.381  1.00  0.00     0.012 A 
ATOM     61  C   UNL A   1      41.779  24.968  27.474  1.00  0.00     0.148 A 
ATOM     62  C   UNL A   1      43.178  26.041  25.289  1.00  0.00     0.002 A 
ATOM     63  C   UNL A   1      42.128  24.157  26.400  1.00  0.00     0.091 A 
ATOM     64  F   UNL A   1      41.086  24.493  28.520  1.00  0.00    -0.205 F 
ATOM     65  C   UNL A   1      42.820  24.694  25.303  1.00  0.00     0.022 A 
BRANCH  63  66
ATOM     66  S   UNL A   1      41.782  22.393  26.370  1.00  0.00     0.127 S 
ATOM     67  O   UNL A   1      40.322  22.381  26.287  1.00  0.00    -0.237 OA
ATOM     68  O   UNL A   1      42.464  21.964  25.147  1.00  0.00    -0.237 OA
ATOM     69  O   UNL A   1      42.347  21.853  27.598  1.00  0.00    -0.744 OA
ENDBRANCH  63  66
ENDBRANCH  45  59
BRANCH  46  70
ATOM     70  C   UNL A   1      40.096  32.160  35.272  1.00  0.00     0.023 A 
ATOM     71  C   UNL A   1      40.699  33.426  35.402  1.00  0.00     0.012 A 
ATOM     72  C   UNL A   1      39.157  31.749  36.239  1.00  0.00     0.148 A 
ATOM     73  C   UNL A   1      40.380  34.259  36.476  1.00  0.00     0.002 A 
ATOM     74  C   UNL A   1      38.786  32.614  37.260  1.00  0.00     0.091 A 
ATOM     75  F   UNL A   1      38.624  30.523  36.129  1.00  0.00    -0.205 F 
ATOM     76  C   UNL A   1      39.408  33.863  37.393  1.00  0.00     0.022 A 
BRANCH  74  77
ATOM     77  S   UNL A   1      37.410  32.245  38.356  1.00  0.00     0.127 S 
ATOM     78  O   UNL A   1      37.880  32.792  39.626  1.00  0.00    -0.237 OA
ATOM     79  O   UNL A   1      36.311  32.985  37.735  1.00  0.00    -0.237 OA
ATOM     80  O   UNL A   1      37.253  30.797  38.302  1.00  0.00    -0.744 OA
ENDBRANCH  74  77
ENDBRANCH  46  70
BRANCH  58  81
ATOM     81  C   UNL A   1      45.062  27.431  33.980  1.00  0.00     0.023 A 
ATOM     82  C   UNL A   1      46.317  28.071  33.966  1.00  0.00     0.012 A 
ATOM     83  C   UNL A   1      44.864  26.316  34.817  1.00  0.00     0.148 A 
ATOM     84  C   UNL A   1      47.368  27.593  34.749  1.00  0.00     0.002 A 
ATOM     85  C   UNL A   1      45.905  25.868  35.626  1.00  0.00     0.091 A 
ATOM     86  F   UNL A   1      43.669  25.710  34.804  1.00  0.00    -0.205 F 
ATOM     87  C   UNL A   1      47.159  26.499  35.585  1.00  0.00     0.022 A 
BRANCH  85  88
ATOM     88  S   UNL A   1      45.708  24.515  36.791  1.00  0.00     0.127 S 
ATOM     89  O   UNL A   1      45.385  23.400  35.902  1.00  0.00    -0.237 OA
ATOM     90  O   UNL A   1      47.034  24.438  37.407  1.00  0.00    -0.237 OA
ATOM     91  O   UNL A   1      44.644  24.919  37.699  1.00  0.00    -0.744 OA
ENDBRANCH  85  88
ENDBRANCH  58  81
ENDBRANCH  32  33
ENDBRANCH  25  27
ENDBRANCH  24  25
ENDBRANCH  23  24
ENDBRANCH   1  23
TORSDOF 19
ENDMDL
