MODEL 1
REMARK VINA RESULT:     -11.4      0.000      0.000
REMARK SMILES CC(=O)O[C@@H](C)c1nc2ccc(C(=O)OCCOC(=O)c3ccc(-c4c5nc(c(-c6cccc(S(=O)(=O)[O-])c6F)c6ccc([nH]6)c(-c6cccc(S(=O)(=O)[O-])c6F)c6nc(c(-c7cccc(S(=O)(=O)[O-])c7F)c7ccc4[nH]7)C=C6)C=C5)cc3)cc2[nH]1
REMARK SMILES IDX 16 1 15 2 13 3 14 4 12 5 7 6 8 7 86 8 9 9 85 10 10 12 84 13
REMARK SMILES IDX 11 14 5 15 6 16 4 17 2 18 1 19 3 20 17 21 18 22 19 23 20 24
REMARK SMILES IDX 21 25 22 26 83 27 23 28 82 29 24 30 25 31 26 32 76 33 27 34
REMARK SMILES IDX 81 35 75 36 77 37 28 38 80 39 74 40 73 41 29 43 61 44 41 45
REMARK SMILES IDX 60 46 42 47 45 48 59 49 78 50 43 51 44 52 58 54 79 55 46 56
REMARK SMILES IDX 30 57 31 58 39 59 32 60 34 61 40 62 33 63 35 64 36 65 37 66
REMARK SMILES IDX 38 67 62 68 63 69 71 70 64 71 66 72 72 73 65 74 67 75 68 76
REMARK SMILES IDX 69 77 70 78 47 79 48 80 56 81 49 82 51 83 57 84 50 85 52 86
REMARK SMILES IDX 53 87 54 88 55 89
REMARK H PARENT 86 11 77 42 45 53
REMARK Flexibility Score: inf
ROOT
ATOM      1  C   UNL A   1      30.984  29.556  24.554  1.00  0.00     0.275 C 
ENDROOT
BRANCH   1   2
ATOM      2  O   UNL A   1      30.558  28.216  24.224  1.00  0.00    -0.458 OA
BRANCH   2   3
ATOM      3  C   UNL A   1      30.617  27.896  22.906  1.00  0.00     0.338 C 
ATOM      4  O   UNL A   1      30.061  28.477  21.995  1.00  0.00    -0.246 OA
BRANCH   3   5
ATOM      5  C   UNL A   1      31.565  26.776  22.674  1.00  0.00     0.062 A 
ATOM      6  C   UNL A   1      34.424  23.411  23.759  1.00  0.00     0.148 A 
ATOM      7  N   UNL A   1      34.218  23.578  22.463  1.00  0.00    -0.229 NA
ATOM      8  N   UNL A   1      33.743  24.363  24.480  1.00  0.00    -0.339 N 
ATOM      9  C   UNL A   1      33.334  24.626  22.354  1.00  0.00     0.089 A 
ATOM     10  C   UNL A   1      33.051  25.153  23.605  1.00  0.00     0.066 A 
ATOM     11  H   UNL A   1      33.753  24.460  25.459  1.00  0.00     0.168 HD
ATOM     12  C   UNL A   1      32.732  25.203  21.223  1.00  0.00     0.031 A 
ATOM     13  C   UNL A   1      32.219  26.252  23.802  1.00  0.00     0.044 A 
ATOM     14  C   UNL A   1      31.824  26.265  21.396  1.00  0.00     0.018 A 
BRANCH   6  15
ATOM     15  C   UNL A   1      35.322  22.412  24.429  1.00  0.00     0.239 C 
ATOM     16  C   UNL A   1      36.732  22.352  23.858  1.00  0.00     0.062 C 
BRANCH  15  17
ATOM     17  O   UNL A   1      34.686  21.109  24.501  1.00  0.00    -0.455 OA
BRANCH  17  18
ATOM     18  C   UNL A   1      33.440  20.993  25.035  1.00  0.00     0.303 C 
ATOM     19  C   UNL A   1      32.640  19.992  24.256  1.00  0.00     0.139 C 
ATOM     20  O   UNL A   1      33.025  21.595  26.012  1.00  0.00    -0.253 OA
ENDBRANCH  17  18
ENDBRANCH  15  17
ENDBRANCH   6  15
ENDBRANCH   3   5
ENDBRANCH   2   3
ENDBRANCH   1   2
BRANCH   1  21
ATOM     21  C   UNL A   1      31.607  29.612  25.948  1.00  0.00     0.275 C 
BRANCH  21  22
ATOM     22  O   UNL A   1      32.895  30.247  25.888  1.00  0.00    -0.458 OA
BRANCH  22  23
ATOM     23  C   UNL A   1      33.171  31.112  26.890  1.00  0.00     0.338 C 
ATOM     24  O   UNL A   1      32.430  31.960  27.361  1.00  0.00    -0.246 OA
BRANCH  23  25
ATOM     25  C   UNL A   1      34.532  30.873  27.398  1.00  0.00     0.060 A 
ATOM     26  C   UNL A   1      34.941  29.567  27.637  1.00  0.00     0.016 A 
ATOM     27  C   UNL A   1      35.341  31.938  27.781  1.00  0.00     0.016 A 
ATOM     28  C   UNL A   1      36.102  29.317  28.368  1.00  0.00     0.010 A 
ATOM     29  C   UNL A   1      36.566  31.681  28.410  1.00  0.00     0.010 A 
ATOM     30  C   UNL A   1      36.941  30.370  28.761  1.00  0.00    -0.014 A 
BRANCH  30  31
ATOM     31  C   UNL A   1      38.181  30.110  29.558  1.00  0.00     0.031 A 
ATOM     32  C   UNL A   1      39.278  29.230  29.004  1.00  0.00     0.074 A 
ATOM     33  C   UNL A   1      38.332  30.643  30.789  1.00  0.00     0.049 A 
ATOM     34  N   UNL A   1      40.336  28.748  29.607  1.00  0.00    -0.248 NA
ATOM     35  C   UNL A   1      39.161  28.822  27.594  1.00  0.00     0.031 C 
ATOM     36  C   UNL A   1      37.366  31.517  31.459  1.00  0.00     0.029 A 
ATOM     37  N   UNL A   1      39.350  30.519  31.706  1.00  0.00    -0.354 N 
ATOM     38  C   UNL A   1      40.953  27.908  28.685  1.00  0.00     0.074 A 
ATOM     39  C   UNL A   1      40.162  27.962  27.475  1.00  0.00     0.031 C 
ATOM     40  C   UNL A   1      37.848  31.872  32.659  1.00  0.00     0.029 A 
ATOM     41  C   UNL A   1      39.109  31.180  32.888  1.00  0.00     0.049 A 
ATOM     42  H   UNL A   1      40.172  30.006  31.531  1.00  0.00     0.167 HD
ATOM     43  C   UNL A   1      42.078  27.164  28.828  1.00  0.00     0.034 A 
ATOM     44  C   UNL A   1      39.794  31.196  34.050  1.00  0.00     0.034 A 
ATOM     45  C   UNL A   1      42.915  27.176  29.999  1.00  0.00     0.049 A 
ATOM     46  C   UNL A   1      41.051  30.383  34.176  1.00  0.00     0.074 A 
ATOM     47  C   UNL A   1      44.110  26.509  30.208  1.00  0.00     0.029 A 
ATOM     48  N   UNL A   1      42.653  27.894  31.155  1.00  0.00    -0.354 N 
ATOM     49  N   UNL A   1      41.644  29.641  33.274  1.00  0.00    -0.248 NA
ATOM     50  C   UNL A   1      41.736  30.417  35.475  1.00  0.00     0.031 C 
ATOM     51  C   UNL A   1      44.564  26.815  31.496  1.00  0.00     0.029 A 
ATOM     52  C   UNL A   1      43.662  27.688  32.082  1.00  0.00     0.049 A 
ATOM     53  H   UNL A   1      41.865  28.468  31.297  1.00  0.00     0.167 HD
ATOM     54  C   UNL A   1      42.782  29.133  33.890  1.00  0.00     0.074 A 
ATOM     55  C   UNL A   1      42.810  29.678  35.232  1.00  0.00     0.031 C 
ATOM     56  C   UNL A   1      43.708  28.274  33.396  1.00  0.00     0.034 A 
BRANCH  43  57
ATOM     57  C   UNL A   1      42.491  26.282  27.675  1.00  0.00     0.023 A 
ATOM     58  C   UNL A   1      43.410  26.755  26.718  1.00  0.00     0.012 A 
ATOM     59  C   UNL A   1      42.009  24.961  27.572  1.00  0.00     0.148 A 
ATOM     60  C   UNL A   1      43.814  25.943  25.658  1.00  0.00     0.002 A 
ATOM     61  C   UNL A   1      42.450  24.142  26.538  1.00  0.00     0.091 A 
ATOM     62  F   UNL A   1      41.120  24.532  28.479  1.00  0.00    -0.205 F 
ATOM     63  C   UNL A   1      43.343  24.636  25.573  1.00  0.00     0.022 A 
BRANCH  61  64
ATOM     64  S   UNL A   1      41.962  22.419  26.397  1.00  0.00     0.127 S 
ATOM     65  O   UNL A   1      42.669  22.009  25.184  1.00  0.00    -0.237 OA
ATOM     66  O   UNL A   1      42.492  21.843  27.634  1.00  0.00    -0.237 OA
ATOM     67  O   UNL A   1      40.509  22.423  26.308  1.00  0.00    -0.744 OA
ENDBRANCH  61  64
ENDBRANCH  43  57
BRANCH  44  68
ATOM     68  C   UNL A   1      39.299  32.026  35.187  1.00  0.00     0.023 A 
ATOM     69  C   UNL A   1      38.415  31.457  36.125  1.00  0.00     0.012 A 
ATOM     70  C   UNL A   1      39.739  33.351  35.374  1.00  0.00     0.148 A 
ATOM     71  C   UNL A   1      37.971  32.196  37.221  1.00  0.00     0.002 A 
ATOM     72  C   UNL A   1      39.344  34.059  36.502  1.00  0.00     0.091 A 
ATOM     73  F   UNL A   1      40.560  33.882  34.457  1.00  0.00    -0.205 F 
ATOM     74  C   UNL A   1      38.447  33.490  37.419  1.00  0.00     0.022 A 
BRANCH  72  75
ATOM     75  S   UNL A   1      40.031  35.667  36.913  1.00  0.00     0.127 S 
ATOM     76  O   UNL A   1      41.459  35.372  36.989  1.00  0.00    -0.237 OA
ATOM     77  O   UNL A   1      39.628  36.471  35.759  1.00  0.00    -0.237 OA
ATOM     78  O   UNL A   1      39.395  36.056  38.164  1.00  0.00    -0.744 OA
ENDBRANCH  72  75
ENDBRANCH  44  68
BRANCH  56  79
ATOM     79  C   UNL A   1      44.853  27.893  34.296  1.00  0.00     0.023 A 
ATOM     80  C   UNL A   1      46.013  28.691  34.330  1.00  0.00     0.012 A 
ATOM     81  C   UNL A   1      44.754  26.780  35.154  1.00  0.00     0.148 A 
ATOM     82  C   UNL A   1      47.070  28.369  35.181  1.00  0.00     0.002 A 
ATOM     83  C   UNL A   1      45.791  26.492  36.032  1.00  0.00     0.091 A 
ATOM     84  F   UNL A   1      43.651  26.019  35.090  1.00  0.00    -0.205 F 
ATOM     85  C   UNL A   1      46.955  27.279  36.039  1.00  0.00     0.022 A 
BRANCH  83  86
ATOM     86  S   UNL A   1      45.691  25.158  37.231  1.00  0.00     0.127 S 
ATOM     87  O   UNL A   1      46.162  24.017  36.450  1.00  0.00    -0.237 OA
ATOM     88  O   UNL A   1      46.615  25.607  38.274  1.00  0.00    -0.237 OA
ATOM     89  O   UNL A   1      44.296  25.100  37.647  1.00  0.00    -0.744 OA
ENDBRANCH  83  86
ENDBRANCH  56  79
ENDBRANCH  30  31
ENDBRANCH  23  25
ENDBRANCH  22  23
ENDBRANCH  21  22
ENDBRANCH   1  21
TORSDOF 17
ENDMDL
MODEL 2
REMARK VINA RESULT:     -11.3      4.792     10.053
REMARK SMILES CC(=O)O[C@@H](C)c1nc2ccc(C(=O)OCCOC(=O)c3ccc(-c4c5nc(c(-c6cccc(S(=O)(=O)[O-])c6F)c6ccc([nH]6)c(-c6cccc(S(=O)(=O)[O-])c6F)c6nc(c(-c7cccc(S(=O)(=O)[O-])c7F)c7ccc4[nH]7)C=C6)C=C5)cc3)cc2[nH]1
REMARK SMILES IDX 16 1 15 2 13 3 14 4 12 5 7 6 8 7 86 8 9 9 85 10 10 12 84 13
REMARK SMILES IDX 11 14 5 15 6 16 4 17 2 18 1 19 3 20 17 21 18 22 19 23 20 24
REMARK SMILES IDX 21 25 22 26 83 27 23 28 82 29 24 30 25 31 26 32 76 33 27 34
REMARK SMILES IDX 81 35 75 36 77 37 28 38 80 39 74 40 73 41 29 43 61 44 41 45
REMARK SMILES IDX 60 46 42 47 45 48 59 49 78 50 43 51 44 52 58 54 79 55 46 56
REMARK SMILES IDX 30 57 31 58 39 59 32 60 34 61 40 62 33 63 35 64 36 65 37 66
REMARK SMILES IDX 38 67 62 68 63 69 71 70 64 71 66 72 72 73 65 74 67 75 68 76
REMARK SMILES IDX 69 77 70 78 47 79 48 80 56 81 49 82 51 83 57 84 50 85 52 86
REMARK SMILES IDX 53 87 54 88 55 89
REMARK H PARENT 86 11 77 42 45 53
REMARK Flexibility Score: inf
ROOT
ATOM      1  C   UNL A   1      34.940  20.382  25.019  1.00  0.00     0.275 C 
ENDROOT
BRANCH   1   2
ATOM      2  O   UNL A   1      33.852  20.785  24.161  1.00  0.00    -0.458 OA
BRANCH   2   3
ATOM      3  C   UNL A   1      32.610  20.645  24.693  1.00  0.00     0.338 C 
ATOM      4  O   UNL A   1      32.065  19.602  24.993  1.00  0.00    -0.246 OA
BRANCH   3   5
ATOM      5  C   UNL A   1      32.006  21.970  24.984  1.00  0.00     0.062 A 
ATOM      6  C   UNL A   1      30.856  26.307  24.246  1.00  0.00     0.148 A 
ATOM      7  N   UNL A   1      30.425  25.798  25.388  1.00  0.00    -0.229 NA
ATOM      8  N   UNL A   1      31.616  25.386  23.566  1.00  0.00    -0.339 N 
ATOM      9  C   UNL A   1      30.871  24.497  25.412  1.00  0.00     0.089 A 
ATOM     10  C   UNL A   1      31.647  24.230  24.296  1.00  0.00     0.066 A 
ATOM     11  H   UNL A   1      32.063  25.534  22.702  1.00  0.00     0.168 HD
ATOM     12  C   UNL A   1      30.670  23.477  26.359  1.00  0.00     0.031 A 
ATOM     13  C   UNL A   1      32.270  23.005  24.072  1.00  0.00     0.044 A 
ATOM     14  C   UNL A   1      31.222  22.204  26.121  1.00  0.00     0.018 A 
BRANCH   6  15
ATOM     15  C   UNL A   1      30.664  27.702  23.728  1.00  0.00     0.239 C 
ATOM     16  C   UNL A   1      29.290  27.967  23.127  1.00  0.00     0.062 C 
BRANCH  15  17
ATOM     17  O   UNL A   1      31.749  28.082  22.842  1.00  0.00    -0.455 OA
BRANCH  17  18
ATOM     18  C   UNL A   1      32.859  28.682  23.352  1.00  0.00     0.303 C 
ATOM     19  C   UNL A   1      34.030  28.450  22.443  1.00  0.00     0.139 C 
ATOM     20  O   UNL A   1      32.908  29.330  24.385  1.00  0.00    -0.253 OA
ENDBRANCH  17  18
ENDBRANCH  15  17
ENDBRANCH   6  15
ENDBRANCH   3   5
ENDBRANCH   2   3
ENDBRANCH   1   2
BRANCH   1  21
ATOM     21  C   UNL A   1      36.241  21.084  24.630  1.00  0.00     0.275 C 
BRANCH  21  22
ATOM     22  O   UNL A   1      36.907  21.574  25.806  1.00  0.00    -0.458 OA
BRANCH  22  23
ATOM     23  C   UNL A   1      38.249  21.408  25.833  1.00  0.00     0.338 C 
ATOM     24  O   UNL A   1      38.889  20.475  25.375  1.00  0.00    -0.246 OA
BRANCH  23  25
ATOM     25  C   UNL A   1      38.884  22.565  26.484  1.00  0.00     0.060 A 
ATOM     26  C   UNL A   1      38.395  23.839  26.218  1.00  0.00     0.016 A 
ATOM     27  C   UNL A   1      40.050  22.408  27.227  1.00  0.00     0.016 A 
ATOM     28  C   UNL A   1      39.130  24.965  26.587  1.00  0.00     0.010 A 
ATOM     29  C   UNL A   1      40.723  23.541  27.701  1.00  0.00     0.010 A 
ATOM     30  C   UNL A   1      40.304  24.837  27.344  1.00  0.00    -0.014 A 
BRANCH  30  31
ATOM     31  C   UNL A   1      41.104  26.041  27.731  1.00  0.00     0.031 A 
ATOM     32  C   UNL A   1      40.493  27.125  28.588  1.00  0.00     0.074 A 
ATOM     33  C   UNL A   1      42.378  26.185  27.308  1.00  0.00     0.049 A 
ATOM     34  N   UNL A   1      40.961  28.313  28.879  1.00  0.00    -0.248 NA
ATOM     35  C   UNL A   1      39.175  26.846  29.181  1.00  0.00     0.031 C 
ATOM     36  C   UNL A   1      43.111  25.224  26.480  1.00  0.00     0.029 A 
ATOM     37  N   UNL A   1      43.283  27.203  27.505  1.00  0.00    -0.354 N 
ATOM     38  C   UNL A   1      39.959  28.954  29.602  1.00  0.00     0.074 A 
ATOM     39  C   UNL A   1      38.866  28.015  29.723  1.00  0.00     0.031 C 
ATOM     40  C   UNL A   1      44.353  25.681  26.265  1.00  0.00     0.029 A 
ATOM     41  C   UNL A   1      44.481  27.006  26.856  1.00  0.00     0.049 A 
ATOM     42  H   UNL A   1      43.091  27.995  28.056  1.00  0.00     0.167 HD
ATOM     43  C   UNL A   1      39.951  30.206  30.124  1.00  0.00     0.034 A 
ATOM     44  C   UNL A   1      45.550  27.814  26.706  1.00  0.00     0.034 A 
ATOM     45  C   UNL A   1      41.071  31.109  30.082  1.00  0.00     0.049 A 
ATOM     46  C   UNL A   1      45.528  29.187  27.314  1.00  0.00     0.074 A 
ATOM     47  C   UNL A   1      41.179  32.371  30.642  1.00  0.00     0.029 A 
ATOM     48  N   UNL A   1      42.278  30.849  29.451  1.00  0.00    -0.354 N 
ATOM     49  N   UNL A   1      44.592  29.751  28.039  1.00  0.00    -0.248 NA
ATOM     50  C   UNL A   1      46.709  30.032  27.092  1.00  0.00     0.031 C 
ATOM     51  C   UNL A   1      42.448  32.878  30.340  1.00  0.00     0.029 A 
ATOM     52  C   UNL A   1      43.137  31.925  29.609  1.00  0.00     0.049 A 
ATOM     53  H   UNL A   1      42.493  30.021  28.963  1.00  0.00     0.167 HD
ATOM     54  C   UNL A   1      45.079  31.009  28.374  1.00  0.00     0.074 A 
ATOM     55  C   UNL A   1      46.405  31.113  27.799  1.00  0.00     0.031 C 
ATOM     56  C   UNL A   1      44.473  31.999  29.076  1.00  0.00     0.034 A 
BRANCH  43  57
ATOM     57  C   UNL A   1      38.693  30.674  30.812  1.00  0.00     0.023 A 
ATOM     58  C   UNL A   1      38.544  30.506  32.202  1.00  0.00     0.012 A 
ATOM     59  C   UNL A   1      37.679  31.333  30.086  1.00  0.00     0.148 A 
ATOM     60  C   UNL A   1      37.393  30.951  32.854  1.00  0.00     0.002 A 
ATOM     61  C   UNL A   1      36.554  31.814  30.749  1.00  0.00     0.091 A 
ATOM     62  F   UNL A   1      37.826  31.467  28.760  1.00  0.00    -0.205 F 
ATOM     63  C   UNL A   1      36.405  31.613  32.130  1.00  0.00     0.022 A 
BRANCH  61  64
ATOM     64  S   UNL A   1      35.270  32.751  29.913  1.00  0.00     0.127 S 
ATOM     65  O   UNL A   1      34.346  33.031  31.011  1.00  0.00    -0.237 OA
ATOM     66  O   UNL A   1      36.005  33.919  29.424  1.00  0.00    -0.237 OA
ATOM     67  O   UNL A   1      34.758  31.879  28.866  1.00  0.00    -0.744 OA
ENDBRANCH  61  64
ENDBRANCH  43  57
BRANCH  44  68
ATOM     68  C   UNL A   1      46.741  27.330  25.949  1.00  0.00     0.023 A 
ATOM     69  C   UNL A   1      46.826  27.575  24.565  1.00  0.00     0.012 A 
ATOM     70  C   UNL A   1      47.809  26.679  26.598  1.00  0.00     0.148 A 
ATOM     71  C   UNL A   1      47.948  27.172  23.840  1.00  0.00     0.002 A 
ATOM     72  C   UNL A   1      48.950  26.339  25.883  1.00  0.00     0.091 A 
ATOM     73  F   UNL A   1      47.697  26.432  27.911  1.00  0.00    -0.205 F 
ATOM     74  C   UNL A   1      49.016  26.569  24.500  1.00  0.00     0.022 A 
BRANCH  72  75
ATOM     75  S   UNL A   1      50.428  25.703  26.682  1.00  0.00     0.127 S 
ATOM     76  O   UNL A   1      49.942  24.452  27.257  1.00  0.00    -0.237 OA
ATOM     77  O   UNL A   1      51.340  25.548  25.549  1.00  0.00    -0.237 OA
ATOM     78  O   UNL A   1      50.828  26.728  27.637  1.00  0.00    -0.744 OA
ENDBRANCH  72  75
ENDBRANCH  44  68
BRANCH  56  79
ATOM     79  C   UNL A   1      45.247  33.271  29.293  1.00  0.00     0.023 A 
ATOM     80  C   UNL A   1      46.135  33.373  30.382  1.00  0.00     0.012 A 
ATOM     81  C   UNL A   1      45.141  34.342  28.384  1.00  0.00     0.148 A 
ATOM     82  C   UNL A   1      46.883  34.534  30.580  1.00  0.00     0.002 A 
ATOM     83  C   UNL A   1      45.923  35.477  28.562  1.00  0.00     0.091 A 
ATOM     84  F   UNL A   1      44.273  34.235  27.367  1.00  0.00    -0.205 F 
ATOM     85  C   UNL A   1      46.786  35.579  29.665  1.00  0.00     0.022 A 
BRANCH  83  86
ATOM     86  S   UNL A   1      45.927  36.834  27.385  1.00  0.00     0.127 S 
ATOM     87  O   UNL A   1      46.160  36.135  26.123  1.00  0.00    -0.237 OA
ATOM     88  O   UNL A   1      44.579  37.383  27.538  1.00  0.00    -0.237 OA
ATOM     89  O   UNL A   1      46.994  37.729  27.811  1.00  0.00    -0.744 OA
ENDBRANCH  83  86
ENDBRANCH  56  79
ENDBRANCH  30  31
ENDBRANCH  23  25
ENDBRANCH  22  23
ENDBRANCH  21  22
ENDBRANCH   1  21
TORSDOF 17
ENDMDL
MODEL 3
REMARK VINA RESULT:     -11.3      5.221     10.178
REMARK SMILES CC(=O)O[C@@H](C)c1nc2ccc(C(=O)OCCOC(=O)c3ccc(-c4c5nc(c(-c6cccc(S(=O)(=O)[O-])c6F)c6ccc([nH]6)c(-c6cccc(S(=O)(=O)[O-])c6F)c6nc(c(-c7cccc(S(=O)(=O)[O-])c7F)c7ccc4[nH]7)C=C6)C=C5)cc3)cc2[nH]1
REMARK SMILES IDX 16 1 15 2 13 3 14 4 12 5 7 6 8 7 86 8 9 9 85 10 10 12 84 13
REMARK SMILES IDX 11 14 5 15 6 16 4 17 2 18 1 19 3 20 17 21 18 22 19 23 20 24
REMARK SMILES IDX 21 25 22 26 83 27 23 28 82 29 24 30 25 31 26 32 76 33 27 34
REMARK SMILES IDX 81 35 75 36 77 37 28 38 80 39 74 40 73 41 29 43 61 44 41 45
REMARK SMILES IDX 60 46 42 47 45 48 59 49 78 50 43 51 44 52 58 54 79 55 46 56
REMARK SMILES IDX 30 57 31 58 39 59 32 60 34 61 40 62 33 63 35 64 36 65 37 66
REMARK SMILES IDX 38 67 62 68 63 69 71 70 64 71 66 72 72 73 65 74 67 75 68 76
REMARK SMILES IDX 69 77 70 78 47 79 48 80 56 81 49 82 51 83 57 84 50 85 52 86
REMARK SMILES IDX 53 87 54 88 55 89
REMARK H PARENT 86 11 77 42 45 53
REMARK Flexibility Score: inf
ROOT
ATOM      1  C   UNL A   1      35.220  20.313  24.905  1.00  0.00     0.275 C 
ENDROOT
BRANCH   1   2
ATOM      2  O   UNL A   1      34.897  21.717  24.809  1.00  0.00    -0.458 OA
BRANCH   2   3
ATOM      3  C   UNL A   1      33.584  22.023  24.969  1.00  0.00     0.338 C 
ATOM      4  O   UNL A   1      32.824  21.547  25.789  1.00  0.00    -0.246 OA
BRANCH   3   5
ATOM      5  C   UNL A   1      33.185  23.133  24.066  1.00  0.00     0.062 A 
ATOM      6  C   UNL A   1      31.795  27.305  22.911  1.00  0.00     0.148 A 
ATOM      7  N   UNL A   1      32.049  26.495  21.896  1.00  0.00    -0.229 NA
ATOM      8  N   UNL A   1      31.966  26.646  24.104  1.00  0.00    -0.339 N 
ATOM      9  C   UNL A   1      32.453  25.305  22.455  1.00  0.00     0.089 A 
ATOM     10  C   UNL A   1      32.375  25.369  23.837  1.00  0.00     0.066 A 
ATOM     11  H   UNL A   1      31.819  27.028  24.999  1.00  0.00     0.168 HD
ATOM     12  C   UNL A   1      32.890  24.112  21.853  1.00  0.00     0.031 A 
ATOM     13  C   UNL A   1      32.680  24.296  24.670  1.00  0.00     0.044 A 
ATOM     14  C   UNL A   1      33.281  23.036  22.672  1.00  0.00     0.018 A 
BRANCH   6  15
ATOM     15  C   UNL A   1      31.302  28.721  22.859  1.00  0.00     0.239 C 
ATOM     16  C   UNL A   1      31.030  29.343  24.223  1.00  0.00     0.062 C 
BRANCH  15  17
ATOM     17  O   UNL A   1      30.178  28.848  21.948  1.00  0.00    -0.455 OA
BRANCH  17  18
ATOM     18  C   UNL A   1      28.910  28.877  22.440  1.00  0.00     0.303 C 
ATOM     19  C   UNL A   1      28.143  30.002  21.811  1.00  0.00     0.139 C 
ATOM     20  O   UNL A   1      28.445  28.100  23.258  1.00  0.00    -0.253 OA
ENDBRANCH  17  18
ENDBRANCH  15  17
ENDBRANCH   6  15
ENDBRANCH   3   5
ENDBRANCH   2   3
ENDBRANCH   1   2
BRANCH   1  21
ATOM     21  C   UNL A   1      36.731  20.087  24.866  1.00  0.00     0.275 C 
BRANCH  21  22
ATOM     22  O   UNL A   1      37.411  21.199  25.474  1.00  0.00    -0.458 OA
BRANCH  22  23
ATOM     23  C   UNL A   1      38.690  20.969  25.850  1.00  0.00     0.338 C 
ATOM     24  O   UNL A   1      39.340  19.951  25.681  1.00  0.00    -0.246 OA
BRANCH  23  25
ATOM     25  C   UNL A   1      39.247  22.172  26.490  1.00  0.00     0.060 A 
ATOM     26  C   UNL A   1      38.755  23.419  26.123  1.00  0.00     0.016 A 
ATOM     27  C   UNL A   1      40.352  22.080  27.330  1.00  0.00     0.016 A 
ATOM     28  C   UNL A   1      39.434  24.579  26.491  1.00  0.00     0.010 A 
ATOM     29  C   UNL A   1      40.962  23.250  27.798  1.00  0.00     0.010 A 
ATOM     30  C   UNL A   1      40.546  24.517  27.344  1.00  0.00    -0.014 A 
BRANCH  30  31
ATOM     31  C   UNL A   1      41.289  25.757  27.733  1.00  0.00     0.031 A 
ATOM     32  C   UNL A   1      40.619  26.820  28.573  1.00  0.00     0.074 A 
ATOM     33  C   UNL A   1      42.561  25.953  27.326  1.00  0.00     0.049 A 
ATOM     34  N   UNL A   1      41.032  28.029  28.861  1.00  0.00    -0.248 NA
ATOM     35  C   UNL A   1      39.307  26.488  29.151  1.00  0.00     0.031 C 
ATOM     36  C   UNL A   1      43.345  25.019  26.515  1.00  0.00     0.029 A 
ATOM     37  N   UNL A   1      43.418  27.011  27.526  1.00  0.00    -0.354 N 
ATOM     38  C   UNL A   1      39.993  28.631  29.566  1.00  0.00     0.074 A 
ATOM     39  C   UNL A   1      38.940  27.646  29.679  1.00  0.00     0.031 C 
ATOM     40  C   UNL A   1      44.570  25.528  26.313  1.00  0.00     0.029 A 
ATOM     41  C   UNL A   1      44.632  26.862  26.895  1.00  0.00     0.049 A 
ATOM     42  H   UNL A   1      43.184  27.798  28.069  1.00  0.00     0.167 HD
ATOM     43  C   UNL A   1      39.924  29.885  30.077  1.00  0.00     0.034 A 
ATOM     44  C   UNL A   1      45.667  27.715  26.753  1.00  0.00     0.034 A 
ATOM     45  C   UNL A   1      41.003  30.836  30.043  1.00  0.00     0.049 A 
ATOM     46  C   UNL A   1      45.576  29.090  27.350  1.00  0.00     0.074 A 
ATOM     47  C   UNL A   1      41.049  32.105  30.595  1.00  0.00     0.029 A 
ATOM     48  N   UNL A   1      42.229  30.625  29.430  1.00  0.00    -0.354 N 
ATOM     49  N   UNL A   1      44.608  29.618  28.058  1.00  0.00    -0.248 NA
ATOM     50  C   UNL A   1      46.723  29.984  27.137  1.00  0.00     0.031 C 
ATOM     51  C   UNL A   1      42.298  32.665  30.306  1.00  0.00     0.029 A 
ATOM     52  C   UNL A   1      43.039  31.737  29.591  1.00  0.00     0.049 A 
ATOM     53  H   UNL A   1      42.487  29.803  28.952  1.00  0.00     0.167 HD
ATOM     54  C   UNL A   1      45.035  30.898  28.389  1.00  0.00     0.074 A 
ATOM     55  C   UNL A   1      46.362  31.055  27.831  1.00  0.00     0.031 C 
ATOM     56  C   UNL A   1      44.377  31.866  29.075  1.00  0.00     0.034 A 
BRANCH  43  57
ATOM     57  C   UNL A   1      38.636  30.303  30.745  1.00  0.00     0.023 A 
ATOM     58  C   UNL A   1      38.418  30.008  32.105  1.00  0.00     0.012 A 
ATOM     59  C   UNL A   1      37.665  31.039  30.036  1.00  0.00     0.148 A 
ATOM     60  C   UNL A   1      37.241  30.405  32.739  1.00  0.00     0.002 A 
ATOM     61  C   UNL A   1      36.513  31.471  30.686  1.00  0.00     0.091 A 
ATOM     62  F   UNL A   1      37.878  31.296  28.737  1.00  0.00    -0.205 F 
ATOM     63  C   UNL A   1      36.294  31.144  32.034  1.00  0.00     0.022 A 
BRANCH  61  64
ATOM     64  S   UNL A   1      35.279  32.499  29.882  1.00  0.00     0.127 S 
ATOM     65  O   UNL A   1      34.762  31.593  28.856  1.00  0.00    -0.237 OA
ATOM     66  O   UNL A   1      34.346  32.778  30.974  1.00  0.00    -0.237 OA
ATOM     67  O   UNL A   1      35.995  33.667  29.388  1.00  0.00    -0.744 OA
ENDBRANCH  61  64
ENDBRANCH  43  57
BRANCH  44  68
ATOM     68  C   UNL A   1      46.888  27.277  26.015  1.00  0.00     0.023 A 
ATOM     69  C   UNL A   1      47.778  26.373  26.626  1.00  0.00     0.012 A 
ATOM     70  C   UNL A   1      47.143  27.707  24.698  1.00  0.00     0.148 A 
ATOM     71  C   UNL A   1      48.904  25.914  25.943  1.00  0.00     0.002 A 
ATOM     72  C   UNL A   1      48.230  27.196  24.001  1.00  0.00     0.091 A 
ATOM     73  F   UNL A   1      46.298  28.588  24.144  1.00  0.00    -0.205 F 
ATOM     74  C   UNL A   1      49.122  26.311  24.627  1.00  0.00     0.022 A 
BRANCH  72  75
ATOM     75  S   UNL A   1      48.495  27.534  22.256  1.00  0.00     0.127 S 
ATOM     76  O   UNL A   1      48.754  26.198  21.729  1.00  0.00    -0.237 OA
ATOM     77  O   UNL A   1      47.210  28.114  21.864  1.00  0.00    -0.237 OA
ATOM     78  O   UNL A   1      49.613  28.467  22.204  1.00  0.00    -0.744 OA
ENDBRANCH  72  75
ENDBRANCH  44  68
BRANCH  56  79
ATOM     79  C   UNL A   1      45.092  33.172  29.293  1.00  0.00     0.023 A 
ATOM     80  C   UNL A   1      45.867  33.361  30.454  1.00  0.00     0.012 A 
ATOM     81  C   UNL A   1      45.047  34.188  28.319  1.00  0.00     0.148 A 
ATOM     82  C   UNL A   1      46.561  34.554  30.656  1.00  0.00     0.002 A 
ATOM     83  C   UNL A   1      45.777  35.355  28.505  1.00  0.00     0.091 A 
ATOM     84  F   UNL A   1      44.284  33.998  27.231  1.00  0.00    -0.205 F 
ATOM     85  C   UNL A   1      46.526  35.545  29.678  1.00  0.00     0.022 A 
BRANCH  83  86
ATOM     86  S   UNL A   1      45.858  36.647  27.259  1.00  0.00     0.127 S 
ATOM     87  O   UNL A   1      44.486  37.149  27.259  1.00  0.00    -0.237 OA
ATOM     88  O   UNL A   1      46.845  37.566  27.827  1.00  0.00    -0.237 OA
ATOM     89  O   UNL A   1      46.285  35.989  26.031  1.00  0.00    -0.744 OA
ENDBRANCH  83  86
ENDBRANCH  56  79
ENDBRANCH  30  31
ENDBRANCH  23  25
ENDBRANCH  22  23
ENDBRANCH  21  22
ENDBRANCH   1  21
TORSDOF 17
ENDMDL
