MODEL 1
REMARK VINA RESULT:     -12.3      0.000      0.000
REMARK SMILES O=C(COc1ccccc1/C=C1/SC(=S)N(c2ccc(F)c(Cl)c2)C1=O)OCCOC(=O)c1ccc(-c2c3nc(c(-c4cccc(S(=O)(=O)[O-])c4F)c4ccc([nH]4)c(-c4cccc(S(=O)(=O)[O-])c4F)c4nc(c(-c5cccc(S(=O)(=O)[O-])c5F)c5ccc2[nH]5)C=C4)C=C3)cc1
REMARK SMILES IDX 28 1 27 2 2 3 1 4 3 5 4 6 5 7 6 8 10 9 7 10 9 11 8 12 11 13
REMARK SMILES IDX 12 14 13 15 25 16 14 17 16 18 26 19 15 20 17 21 18 22 24 23
REMARK SMILES IDX 19 24 22 25 20 26 23 27 21 28 29 29 30 30 31 31 32 32 33 33
REMARK SMILES IDX 34 34 95 35 35 36 94 37 36 38 37 39 38 40 88 41 39 42 93 43
REMARK SMILES IDX 87 44 89 45 40 46 92 47 86 48 85 49 41 51 73 52 53 53 72 54
REMARK SMILES IDX 54 55 57 56 71 57 90 58 55 59 56 60 70 62 91 63 58 64 42 65
REMARK SMILES IDX 43 66 51 67 44 68 46 69 52 70 45 71 47 72 48 73 49 74 50 75
REMARK SMILES IDX 74 76 75 77 83 78 76 79 78 80 84 81 77 82 79 83 80 84 81 85
REMARK SMILES IDX 82 86 59 87 60 88 68 89 61 90 63 91 69 92 62 93 64 94 65 95
REMARK SMILES IDX 66 96 67 97
REMARK H PARENT 89 50 57 61
REMARK Flexibility Score: inf
ROOT
ATOM      1  C   UNL A   1      31.596  29.595  24.950  1.00  0.00     0.274 C 
ENDROOT
BRANCH   1   2
ATOM      2  O   UNL A   1      32.894  29.289  24.399  1.00  0.00    -0.460 OA
BRANCH   2   3
ATOM      3  C   UNL A   1      33.095  28.698  23.194  1.00  0.00     0.344 C 
ATOM      4  O   UNL A   1      34.190  28.782  22.640  1.00  0.00    -0.248 OA
BRANCH   3   5
ATOM      5  C   UNL A   1      31.974  27.862  22.607  1.00  0.00     0.352 C 
BRANCH   5   6
ATOM      6  O   UNL A   1      32.251  26.473  22.794  1.00  0.00    -0.481 OA
BRANCH   6   7
ATOM      7  C   UNL A   1      31.696  26.028  23.971  1.00  0.00     0.127 A 
ATOM      8  C   UNL A   1      30.349  26.321  24.199  1.00  0.00     0.047 A 
ATOM      9  C   UNL A   1      32.460  25.327  24.924  1.00  0.00     0.018 A 
ATOM     10  C   UNL A   1      29.729  25.860  25.358  1.00  0.00     0.004 A 
ATOM     11  C   UNL A   1      31.814  24.855  26.073  1.00  0.00     0.012 A 
ATOM     12  C   UNL A   1      30.458  25.120  26.289  1.00  0.00     0.001 A 
BRANCH   9  13
ATOM     13  C   UNL A   1      33.877  24.983  24.728  1.00  0.00     0.033 C 
ATOM     14  C   UNL A   1      34.386  23.756  24.538  1.00  0.00     0.081 C 
ATOM     15  S   UNL A   1      36.072  23.425  24.579  1.00  0.00    -0.054 SA
ATOM     16  C   UNL A   1      33.632  22.482  24.383  1.00  0.00     0.270 C 
ATOM     17  C   UNL A   1      35.816  21.690  24.792  1.00  0.00     0.152 C 
ATOM     18  N   UNL A   1      34.464  21.392  24.669  1.00  0.00    -0.261 N 
ATOM     19  O   UNL A   1      32.461  22.446  24.032  1.00  0.00    -0.268 OA
ATOM     20  S   UNL A   1      37.131  20.669  24.978  1.00  0.00    -0.051 S 
BRANCH  18  21
ATOM     21  C   UNL A   1      33.886  20.081  24.796  1.00  0.00     0.052 A 
ATOM     22  C   UNL A   1      33.109  19.752  25.921  1.00  0.00     0.030 A 
ATOM     23  C   UNL A   1      34.149  19.063  23.864  1.00  0.00     0.050 A 
ATOM     24  C   UNL A   1      32.630  18.454  26.122  1.00  0.00     0.043 A 
ATOM     25  C   UNL A   1      33.689  17.758  24.077  1.00  0.00     0.078 A 
ATOM     26  C   UNL A   1      32.932  17.460  25.204  1.00  0.00     0.141 A 
ATOM     27  Cl  UNL A   1      34.106  16.522  22.951  1.00  0.00    -0.081 Cl
ATOM     28  F   UNL A   1      32.487  16.215  25.428  1.00  0.00    -0.205 F 
ENDBRANCH  18  21
ENDBRANCH   9  13
ENDBRANCH   6   7
ENDBRANCH   5   6
ENDBRANCH   3   5
ENDBRANCH   2   3
ENDBRANCH   1   2
BRANCH   1  29
ATOM     29  C   UNL A   1      31.723  30.573  26.114  1.00  0.00     0.275 C 
BRANCH  29  30
ATOM     30  O   UNL A   1      33.078  30.564  26.572  1.00  0.00    -0.458 OA
BRANCH  30  31
ATOM     31  C   UNL A   1      33.482  31.672  27.242  1.00  0.00     0.338 C 
ATOM     32  O   UNL A   1      32.815  32.654  27.514  1.00  0.00    -0.246 OA
BRANCH  31  33
ATOM     33  C   UNL A   1      34.810  31.366  27.804  1.00  0.00     0.060 A 
ATOM     34  C   UNL A   1      35.115  30.038  28.135  1.00  0.00     0.016 A 
ATOM     35  C   UNL A   1      35.766  32.376  27.937  1.00  0.00     0.016 A 
ATOM     36  C   UNL A   1      36.381  29.718  28.621  1.00  0.00     0.010 A 
ATOM     37  C   UNL A   1      37.023  32.059  28.431  1.00  0.00     0.010 A 
ATOM     38  C   UNL A   1      37.321  30.738  28.805  1.00  0.00    -0.014 A 
BRANCH  38  39
ATOM     39  C   UNL A   1      38.542  30.523  29.605  1.00  0.00     0.031 A 
ATOM     40  C   UNL A   1      39.531  29.525  29.081  1.00  0.00     0.074 A 
ATOM     41  C   UNL A   1      38.672  31.068  30.824  1.00  0.00     0.049 A 
ATOM     42  N   UNL A   1      40.556  28.982  29.679  1.00  0.00    -0.248 NA
ATOM     43  C   UNL A   1      39.307  29.047  27.704  1.00  0.00     0.031 C 
ATOM     44  C   UNL A   1      37.741  32.019  31.428  1.00  0.00     0.029 A 
ATOM     45  N   UNL A   1      39.607  30.837  31.799  1.00  0.00    -0.354 N 
ATOM     46  C   UNL A   1      41.069  28.064  28.772  1.00  0.00     0.074 A 
ATOM     47  C   UNL A   1      40.243  28.120  27.587  1.00  0.00     0.031 C 
ATOM     48  C   UNL A   1      38.115  32.241  32.700  1.00  0.00     0.029 A 
ATOM     49  C   UNL A   1      39.292  31.427  33.000  1.00  0.00     0.049 A 
ATOM     50  H   UNL A   1      40.421  30.303  31.654  1.00  0.00     0.167 HD
ATOM     51  C   UNL A   1      42.136  27.247  28.915  1.00  0.00     0.034 A 
ATOM     52  C   UNL A   1      39.867  31.286  34.211  1.00  0.00     0.034 A 
ATOM     53  C   UNL A   1      42.949  27.209  30.097  1.00  0.00     0.049 A 
ATOM     54  C   UNL A   1      41.072  30.390  34.345  1.00  0.00     0.074 A 
ATOM     55  C   UNL A   1      44.101  26.482  30.327  1.00  0.00     0.029 A 
ATOM     56  N   UNL A   1      42.680  27.922  31.256  1.00  0.00    -0.354 N 
ATOM     57  N   UNL A   1      41.648  29.642  33.434  1.00  0.00    -0.248 NA
ATOM     58  C   UNL A   1      41.728  30.344  35.660  1.00  0.00     0.031 C 
ATOM     59  C   UNL A   1      44.516  26.738  31.638  1.00  0.00     0.029 A 
ATOM     60  C   UNL A   1      43.636  27.644  32.213  1.00  0.00     0.049 A 
ATOM     61  H   UNL A   1      41.919  28.535  31.378  1.00  0.00     0.167 HD
ATOM     62  C   UNL A   1      42.752  29.064  34.052  1.00  0.00     0.074 A 
ATOM     63  C   UNL A   1      42.769  29.557  35.415  1.00  0.00     0.031 C 
ATOM     64  C   UNL A   1      43.663  28.198  33.544  1.00  0.00     0.034 A 
BRANCH  51  65
ATOM     65  C   UNL A   1      42.476  26.351  27.757  1.00  0.00     0.023 A 
ATOM     66  C   UNL A   1      43.311  26.830  26.726  1.00  0.00     0.012 A 
ATOM     67  C   UNL A   1      41.969  25.040  27.684  1.00  0.00     0.148 A 
ATOM     68  C   UNL A   1      43.599  26.034  25.618  1.00  0.00     0.002 A 
ATOM     69  C   UNL A   1      42.298  24.237  26.598  1.00  0.00     0.091 A 
ATOM     70  F   UNL A   1      41.149  24.614  28.654  1.00  0.00    -0.205 F 
ATOM     71  C   UNL A   1      43.100  24.736  25.559  1.00  0.00     0.022 A 
BRANCH  69  72
ATOM     72  S   UNL A   1      41.756  22.529  26.475  1.00  0.00     0.127 S 
ATOM     73  O   UNL A   1      42.264  21.966  27.724  1.00  0.00    -0.237 OA
ATOM     74  O   UNL A   1      40.299  22.668  26.418  1.00  0.00    -0.237 OA
ATOM     75  O   UNL A   1      42.357  22.010  25.256  1.00  0.00    -0.744 OA
ENDBRANCH  69  72
ENDBRANCH  51  65
BRANCH  52  76
ATOM     76  C   UNL A   1      39.322  32.041  35.373  1.00  0.00     0.023 A 
ATOM     77  C   UNL A   1      38.417  31.409  36.247  1.00  0.00     0.012 A 
ATOM     78  C   UNL A   1      39.748  33.355  35.655  1.00  0.00     0.148 A 
ATOM     79  C   UNL A   1      37.931  32.078  37.372  1.00  0.00     0.002 A 
ATOM     80  C   UNL A   1      39.301  33.995  36.805  1.00  0.00     0.091 A 
ATOM     81  F   UNL A   1      40.604  33.940  34.806  1.00  0.00    -0.205 F 
ATOM     82  C   UNL A   1      38.381  33.364  37.657  1.00  0.00     0.022 A 
BRANCH  80  83
ATOM     83  S   UNL A   1      39.929  35.595  37.329  1.00  0.00     0.127 S 
ATOM     84  O   UNL A   1      41.345  35.305  37.544  1.00  0.00    -0.237 OA
ATOM     85  O   UNL A   1      39.641  36.426  36.159  1.00  0.00    -0.237 OA
ATOM     86  O   UNL A   1      39.170  35.948  38.520  1.00  0.00    -0.744 OA
ENDBRANCH  80  83
ENDBRANCH  52  76
BRANCH  64  87
ATOM     87  C   UNL A   1      44.788  27.751  34.438  1.00  0.00     0.023 A 
ATOM     88  C   UNL A   1      45.958  28.527  34.533  1.00  0.00     0.012 A 
ATOM     89  C   UNL A   1      44.625  26.632  35.280  1.00  0.00     0.148 A 
ATOM     90  C   UNL A   1      46.958  28.188  35.444  1.00  0.00     0.002 A 
ATOM     91  C   UNL A   1      45.604  26.329  36.218  1.00  0.00     0.091 A 
ATOM     92  F   UNL A   1      43.509  25.900  35.159  1.00  0.00    -0.205 F 
ATOM     93  C   UNL A   1      46.774  27.100  36.295  1.00  0.00     0.022 A 
BRANCH  91  94
ATOM     94  S   UNL A   1      45.404  25.012  37.423  1.00  0.00     0.127 S 
ATOM     95  O   UNL A   1      44.176  25.418  38.106  1.00  0.00    -0.237 OA
ATOM     96  O   UNL A   1      45.266  23.829  36.572  1.00  0.00    -0.237 OA
ATOM     97  O   UNL A   1      46.608  25.029  38.243  1.00  0.00    -0.744 OA
ENDBRANCH  91  94
ENDBRANCH  64  87
ENDBRANCH  38  39
ENDBRANCH  31  33
ENDBRANCH  30  31
ENDBRANCH  29  30
ENDBRANCH   1  29
TORSDOF 18
ENDMDL
MODEL 2
REMARK VINA RESULT:     -12.3      5.745     10.507
REMARK SMILES O=C(COc1ccccc1/C=C1/SC(=S)N(c2ccc(F)c(Cl)c2)C1=O)OCCOC(=O)c1ccc(-c2c3nc(c(-c4cccc(S(=O)(=O)[O-])c4F)c4ccc([nH]4)c(-c4cccc(S(=O)(=O)[O-])c4F)c4nc(c(-c5cccc(S(=O)(=O)[O-])c5F)c5ccc2[nH]5)C=C4)C=C3)cc1
REMARK SMILES IDX 28 1 27 2 2 3 1 4 3 5 4 6 5 7 6 8 10 9 7 10 9 11 8 12 11 13
REMARK SMILES IDX 12 14 13 15 25 16 14 17 16 18 26 19 15 20 17 21 18 22 24 23
REMARK SMILES IDX 19 24 22 25 20 26 23 27 21 28 29 29 30 30 31 31 32 32 33 33
REMARK SMILES IDX 34 34 95 35 35 36 94 37 36 38 37 39 38 40 88 41 39 42 93 43
REMARK SMILES IDX 87 44 89 45 40 46 92 47 86 48 85 49 41 51 73 52 53 53 72 54
REMARK SMILES IDX 54 55 57 56 71 57 90 58 55 59 56 60 70 62 91 63 58 64 42 65
REMARK SMILES IDX 43 66 51 67 44 68 46 69 52 70 45 71 47 72 48 73 49 74 50 75
REMARK SMILES IDX 74 76 75 77 83 78 76 79 78 80 84 81 77 82 79 83 80 84 81 85
REMARK SMILES IDX 82 86 59 87 60 88 68 89 61 90 63 91 69 92 62 93 64 94 65 95
REMARK SMILES IDX 66 96 67 97
REMARK H PARENT 89 50 57 61
REMARK Flexibility Score: inf
ROOT
ATOM      1  C   UNL A   1      35.574  20.869  25.140  1.00  0.00     0.274 C 
ENDROOT
BRANCH   1   2
ATOM      2  O   UNL A   1      35.331  21.718  26.281  1.00  0.00    -0.460 OA
BRANCH   2   3
ATOM      3  C   UNL A   1      34.131  21.838  26.905  1.00  0.00     0.344 C 
ATOM      4  O   UNL A   1      34.071  22.311  28.039  1.00  0.00    -0.248 OA
BRANCH   3   5
ATOM      5  C   UNL A   1      32.879  21.467  26.135  1.00  0.00     0.352 C 
BRANCH   5   6
ATOM      6  O   UNL A   1      32.186  22.648  25.730  1.00  0.00    -0.481 OA
BRANCH   6   7
ATOM      7  C   UNL A   1      32.603  23.044  24.481  1.00  0.00     0.127 A 
ATOM      8  C   UNL A   1      32.478  22.122  23.439  1.00  0.00     0.047 A 
ATOM      9  C   UNL A   1      33.160  24.319  24.262  1.00  0.00     0.018 A 
ATOM     10  C   UNL A   1      32.851  22.487  22.146  1.00  0.00     0.004 A 
ATOM     11  C   UNL A   1      33.511  24.673  22.953  1.00  0.00     0.012 A 
ATOM     12  C   UNL A   1      33.356  23.763  21.902  1.00  0.00     0.001 A 
BRANCH   9  13
ATOM     13  C   UNL A   1      33.304  25.330  25.322  1.00  0.00     0.033 C 
ATOM     14  C   UNL A   1      32.642  26.493  25.415  1.00  0.00     0.081 C 
ATOM     15  S   UNL A   1      33.063  27.722  26.541  1.00  0.00    -0.054 SA
ATOM     16  C   UNL A   1      31.548  26.981  24.531  1.00  0.00     0.270 C 
ATOM     17  C   UNL A   1      32.155  28.959  25.666  1.00  0.00     0.152 C 
ATOM     18  N   UNL A   1      31.431  28.373  24.633  1.00  0.00    -0.261 N 
ATOM     19  O   UNL A   1      30.863  26.229  23.852  1.00  0.00    -0.268 OA
ATOM     20  S   UNL A   1      32.168  30.544  26.207  1.00  0.00    -0.051 S 
BRANCH  18  21
ATOM     21  C   UNL A   1      30.588  29.077  23.704  1.00  0.00     0.052 A 
ATOM     22  C   UNL A   1      30.954  29.184  22.351  1.00  0.00     0.030 A 
ATOM     23  C   UNL A   1      29.432  29.758  24.123  1.00  0.00     0.050 A 
ATOM     24  C   UNL A   1      30.210  29.955  21.453  1.00  0.00     0.043 A 
ATOM     25  C   UNL A   1      28.701  30.549  23.229  1.00  0.00     0.078 A 
ATOM     26  C   UNL A   1      29.093  30.644  21.900  1.00  0.00     0.141 A 
ATOM     27  Cl  UNL A   1      27.339  31.433  23.806  1.00  0.00    -0.081 Cl
ATOM     28  F   UNL A   1      28.408  31.401  21.030  1.00  0.00    -0.205 F 
ENDBRANCH  18  21
ENDBRANCH   9  13
ENDBRANCH   6   7
ENDBRANCH   5   6
ENDBRANCH   3   5
ENDBRANCH   2   3
ENDBRANCH   1   2
BRANCH   1  29
ATOM     29  C   UNL A   1      37.068  20.606  24.973  1.00  0.00     0.275 C 
BRANCH  29  30
ATOM     30  O   UNL A   1      37.790  21.592  25.717  1.00  0.00    -0.458 OA
BRANCH  30  31
ATOM     31  C   UNL A   1      39.060  21.261  26.056  1.00  0.00     0.338 C 
ATOM     32  O   UNL A   1      39.664  20.248  25.755  1.00  0.00    -0.246 OA
BRANCH  31  33
ATOM     33  C   UNL A   1      39.668  22.466  26.649  1.00  0.00     0.060 A 
ATOM     34  C   UNL A   1      39.161  23.724  26.293  1.00  0.00     0.016 A 
ATOM     35  C   UNL A   1      40.685  22.346  27.599  1.00  0.00     0.016 A 
ATOM     36  C   UNL A   1      39.687  24.874  26.878  1.00  0.00     0.010 A 
ATOM     37  C   UNL A   1      41.216  23.492  28.173  1.00  0.00     0.010 A 
ATOM     38  C   UNL A   1      40.742  24.757  27.789  1.00  0.00    -0.014 A 
BRANCH  38  39
ATOM     39  C   UNL A   1      41.545  25.928  28.189  1.00  0.00     0.031 A 
ATOM     40  C   UNL A   1      40.820  27.048  28.875  1.00  0.00     0.074 A 
ATOM     41  C   UNL A   1      42.824  26.051  27.801  1.00  0.00     0.049 A 
ATOM     42  N   UNL A   1      41.221  28.264  29.124  1.00  0.00    -0.248 NA
ATOM     43  C   UNL A   1      39.438  26.764  29.303  1.00  0.00     0.031 C 
ATOM     44  C   UNL A   1      43.596  25.029  27.098  1.00  0.00     0.029 A 
ATOM     45  N   UNL A   1      43.671  27.126  27.883  1.00  0.00    -0.354 N 
ATOM     46  C   UNL A   1      40.128  28.904  29.692  1.00  0.00     0.074 A 
ATOM     47  C   UNL A   1      39.047  27.946  29.747  1.00  0.00     0.031 C 
ATOM     48  C   UNL A   1      44.785  25.549  26.752  1.00  0.00     0.029 A 
ATOM     49  C   UNL A   1      44.842  26.944  27.186  1.00  0.00     0.049 A 
ATOM     50  H   UNL A   1      43.463  27.944  28.390  1.00  0.00     0.167 HD
ATOM     51  C   UNL A   1      40.034  30.180  30.129  1.00  0.00     0.034 A 
ATOM     52  C   UNL A   1      45.822  27.823  26.897  1.00  0.00     0.034 A 
ATOM     53  C   UNL A   1      41.120  31.116  30.073  1.00  0.00     0.049 A 
ATOM     54  C   UNL A   1      45.712  29.234  27.416  1.00  0.00     0.074 A 
ATOM     55  C   UNL A   1      41.168  32.409  30.557  1.00  0.00     0.029 A 
ATOM     56  N   UNL A   1      42.345  30.860  29.476  1.00  0.00    -0.354 N 
ATOM     57  N   UNL A   1      44.734  29.789  28.093  1.00  0.00    -0.248 NA
ATOM     58  C   UNL A   1      46.849  30.130  27.163  1.00  0.00     0.031 C 
ATOM     59  C   UNL A   1      42.419  32.943  30.231  1.00  0.00     0.029 A 
ATOM     60  C   UNL A   1      43.157  31.973  29.567  1.00  0.00     0.049 A 
ATOM     61  H   UNL A   1      42.599  30.009  29.050  1.00  0.00     0.167 HD
ATOM     62  C   UNL A   1      45.151  31.085  28.378  1.00  0.00     0.074 A 
ATOM     63  C   UNL A   1      46.476  31.229  27.807  1.00  0.00     0.031 C 
ATOM     64  C   UNL A   1      44.496  32.069  29.042  1.00  0.00     0.034 A 
BRANCH  51  65
ATOM     65  C   UNL A   1      38.718  30.611  30.714  1.00  0.00     0.023 A 
ATOM     66  C   UNL A   1      38.459  30.396  32.084  1.00  0.00     0.012 A 
ATOM     67  C   UNL A   1      37.736  31.223  29.912  1.00  0.00     0.148 A 
ATOM     68  C   UNL A   1      37.227  30.743  32.636  1.00  0.00     0.002 A 
ATOM     69  C   UNL A   1      36.527  31.606  30.481  1.00  0.00     0.091 A 
ATOM     70  F   UNL A   1      37.985  31.387  28.606  1.00  0.00    -0.205 F 
ATOM     71  C   UNL A   1      36.266  31.355  31.838  1.00  0.00     0.022 A 
BRANCH  69  72
ATOM     72  S   UNL A   1      35.260  32.465  29.541  1.00  0.00     0.127 S 
ATOM     73  O   UNL A   1      36.014  33.584  28.980  1.00  0.00    -0.237 OA
ATOM     74  O   UNL A   1      34.858  31.452  28.563  1.00  0.00    -0.237 OA
ATOM     75  O   UNL A   1      34.225  32.816  30.502  1.00  0.00    -0.744 OA
ENDBRANCH  69  72
ENDBRANCH  51  65
BRANCH  52  76
ATOM     76  C   UNL A   1      47.000  27.372  26.106  1.00  0.00     0.023 A 
ATOM     77  C   UNL A   1      47.926  26.485  26.688  1.00  0.00     0.012 A 
ATOM     78  C   UNL A   1      47.171  27.761  24.762  1.00  0.00     0.148 A 
ATOM     79  C   UNL A   1      49.011  26.007  25.952  1.00  0.00     0.002 A 
ATOM     80  C   UNL A   1      48.225  27.240  24.020  1.00  0.00     0.091 A 
ATOM     81  F   UNL A   1      46.283  28.612  24.231  1.00  0.00    -0.205 F 
ATOM     82  C   UNL A   1      49.155  26.375  24.617  1.00  0.00     0.022 A 
BRANCH  80  83
ATOM     83  S   UNL A   1      48.412  27.545  22.259  1.00  0.00     0.127 S 
ATOM     84  O   UNL A   1      49.570  28.435  22.230  1.00  0.00    -0.237 OA
ATOM     85  O   UNL A   1      48.659  26.195  21.748  1.00  0.00    -0.237 OA
ATOM     86  O   UNL A   1      47.153  28.133  21.823  1.00  0.00    -0.744 OA
ENDBRANCH  80  83
ENDBRANCH  52  76
BRANCH  64  87
ATOM     87  C   UNL A   1      45.205  33.383  29.237  1.00  0.00     0.023 A 
ATOM     88  C   UNL A   1      46.033  33.572  30.358  1.00  0.00     0.012 A 
ATOM     89  C   UNL A   1      45.149  34.375  28.237  1.00  0.00     0.148 A 
ATOM     90  C   UNL A   1      46.787  34.739  30.490  1.00  0.00     0.002 A 
ATOM     91  C   UNL A   1      45.938  35.512  28.352  1.00  0.00     0.091 A 
ATOM     92  F   UNL A   1      44.339  34.177  27.186  1.00  0.00    -0.205 F 
ATOM     93  C   UNL A   1      46.750  35.699  29.480  1.00  0.00     0.022 A 
BRANCH  91  94
ATOM     94  S   UNL A   1      46.034  36.749  27.053  1.00  0.00     0.127 S 
ATOM     95  O   UNL A   1      46.403  35.936  25.895  1.00  0.00    -0.237 OA
ATOM     96  O   UNL A   1      44.668  37.273  27.021  1.00  0.00    -0.237 OA
ATOM     97  O   UNL A   1      47.040  37.710  27.485  1.00  0.00    -0.744 OA
ENDBRANCH  91  94
ENDBRANCH  64  87
ENDBRANCH  38  39
ENDBRANCH  31  33
ENDBRANCH  30  31
ENDBRANCH  29  30
ENDBRANCH   1  29
TORSDOF 18
ENDMDL
MODEL 3
REMARK VINA RESULT:     -11.8      5.217      8.367
REMARK SMILES O=C(COc1ccccc1/C=C1/SC(=S)N(c2ccc(F)c(Cl)c2)C1=O)OCCOC(=O)c1ccc(-c2c3nc(c(-c4cccc(S(=O)(=O)[O-])c4F)c4ccc([nH]4)c(-c4cccc(S(=O)(=O)[O-])c4F)c4nc(c(-c5cccc(S(=O)(=O)[O-])c5F)c5ccc2[nH]5)C=C4)C=C3)cc1
REMARK SMILES IDX 28 1 27 2 2 3 1 4 3 5 4 6 5 7 6 8 10 9 7 10 9 11 8 12 11 13
REMARK SMILES IDX 12 14 13 15 25 16 14 17 16 18 26 19 15 20 17 21 18 22 24 23
REMARK SMILES IDX 19 24 22 25 20 26 23 27 21 28 29 29 30 30 31 31 32 32 33 33
REMARK SMILES IDX 34 34 95 35 35 36 94 37 36 38 37 39 38 40 88 41 39 42 93 43
REMARK SMILES IDX 87 44 89 45 40 46 92 47 86 48 85 49 41 51 73 52 53 53 72 54
REMARK SMILES IDX 54 55 57 56 71 57 90 58 55 59 56 60 70 62 91 63 58 64 42 65
REMARK SMILES IDX 43 66 51 67 44 68 46 69 52 70 45 71 47 72 48 73 49 74 50 75
REMARK SMILES IDX 74 76 75 77 83 78 76 79 78 80 84 81 77 82 79 83 80 84 81 85
REMARK SMILES IDX 82 86 59 87 60 88 68 89 61 90 63 91 69 92 62 93 64 94 65 95
REMARK SMILES IDX 66 96 67 97
REMARK H PARENT 89 50 57 61
REMARK Flexibility Score: inf
ROOT
ATOM      1  C   UNL A   1      37.207  20.674  24.617  1.00  0.00     0.274 C 
ENDROOT
BRANCH   1   2
ATOM      2  O   UNL A   1      37.489  22.046  24.271  1.00  0.00    -0.460 OA
BRANCH   2   3
ATOM      3  C   UNL A   1      36.640  22.855  23.587  1.00  0.00     0.344 C 
ATOM      4  O   UNL A   1      36.736  22.958  22.365  1.00  0.00    -0.248 OA
BRANCH   3   5
ATOM      5  C   UNL A   1      35.525  23.540  24.354  1.00  0.00     0.352 C 
BRANCH   5   6
ATOM      6  O   UNL A   1      34.306  22.814  24.196  1.00  0.00    -0.481 OA
BRANCH   6   7
ATOM      7  C   UNL A   1      33.634  22.737  25.393  1.00  0.00     0.127 A 
ATOM      8  C   UNL A   1      34.230  21.999  26.419  1.00  0.00     0.047 A 
ATOM      9  C   UNL A   1      32.382  23.355  25.574  1.00  0.00     0.018 A 
ATOM     10  C   UNL A   1      33.609  21.922  27.663  1.00  0.00     0.004 A 
ATOM     11  C   UNL A   1      31.783  23.282  26.837  1.00  0.00     0.012 A 
ATOM     12  C   UNL A   1      32.393  22.570  27.876  1.00  0.00     0.001 A 
BRANCH   9  13
ATOM     13  C   UNL A   1      31.717  24.152  24.530  1.00  0.00     0.033 C 
ATOM     14  C   UNL A   1      31.775  25.485  24.380  1.00  0.00     0.081 C 
ATOM     15  S   UNL A   1      30.760  26.349  23.295  1.00  0.00    -0.054 SA
ATOM     16  C   UNL A   1      32.597  26.445  25.166  1.00  0.00     0.270 C 
ATOM     17  C   UNL A   1      31.079  27.895  24.089  1.00  0.00     0.152 C 
ATOM     18  N   UNL A   1      32.067  27.736  25.055  1.00  0.00    -0.261 N 
ATOM     19  O   UNL A   1      33.597  26.107  25.784  1.00  0.00    -0.268 OA
ATOM     20  S   UNL A   1      30.312  29.283  23.551  1.00  0.00    -0.051 S 
BRANCH  18  21
ATOM     21  C   UNL A   1      32.572  28.779  25.907  1.00  0.00     0.052 A 
ATOM     22  C   UNL A   1      31.784  29.908  26.194  1.00  0.00     0.030 A 
ATOM     23  C   UNL A   1      33.887  28.759  26.401  1.00  0.00     0.050 A 
ATOM     24  C   UNL A   1      32.291  30.985  26.926  1.00  0.00     0.043 A 
ATOM     25  C   UNL A   1      34.403  29.848  27.115  1.00  0.00     0.078 A 
ATOM     26  C   UNL A   1      33.603  30.954  27.374  1.00  0.00     0.141 A 
ATOM     27  Cl  UNL A   1      36.047  29.816  27.629  1.00  0.00    -0.081 Cl
ATOM     28  F   UNL A   1      34.082  32.008  28.051  1.00  0.00    -0.205 F 
ENDBRANCH  18  21
ENDBRANCH   9  13
ENDBRANCH   6   7
ENDBRANCH   5   6
ENDBRANCH   3   5
ENDBRANCH   2   3
ENDBRANCH   1   2
BRANCH   1  29
ATOM     29  C   UNL A   1      38.281  20.122  25.550  1.00  0.00     0.275 C 
BRANCH  29  30
ATOM     30  O   UNL A   1      39.354  21.065  25.619  1.00  0.00    -0.458 OA
BRANCH  30  31
ATOM     31  C   UNL A   1      40.008  21.128  26.805  1.00  0.00     0.338 C 
ATOM     32  O   UNL A   1      40.474  20.201  27.441  1.00  0.00    -0.246 OA
BRANCH  31  33
ATOM     33  C   UNL A   1      40.276  22.554  27.066  1.00  0.00     0.060 A 
ATOM     34  C   UNL A   1      39.484  23.519  26.427  1.00  0.00     0.016 A 
ATOM     35  C   UNL A   1      41.258  22.928  27.986  1.00  0.00     0.016 A 
ATOM     36  C   UNL A   1      39.687  24.871  26.696  1.00  0.00     0.010 A 
ATOM     37  C   UNL A   1      41.468  24.275  28.246  1.00  0.00     0.010 A 
ATOM     38  C   UNL A   1      40.706  25.248  27.578  1.00  0.00    -0.014 A 
BRANCH  38  39
ATOM     39  C   UNL A   1      41.179  26.643  27.655  1.00  0.00     0.031 A 
ATOM     40  C   UNL A   1      42.550  26.928  27.119  1.00  0.00     0.074 A 
ATOM     41  C   UNL A   1      40.480  27.571  28.328  1.00  0.00     0.049 A 
ATOM     42  N   UNL A   1      43.291  27.991  27.263  1.00  0.00    -0.248 NA
ATOM     43  C   UNL A   1      43.186  25.844  26.347  1.00  0.00     0.031 C 
ATOM     44  C   UNL A   1      39.157  27.371  28.914  1.00  0.00     0.029 A 
ATOM     45  N   UNL A   1      40.829  28.845  28.693  1.00  0.00    -0.354 N 
ATOM     46  C   UNL A   1      44.497  27.689  26.644  1.00  0.00     0.074 A 
ATOM     47  C   UNL A   1      44.390  26.343  26.126  1.00  0.00     0.031 C 
ATOM     48  C   UNL A   1      38.830  28.464  29.625  1.00  0.00     0.029 A 
ATOM     49  C   UNL A   1      39.934  29.422  29.562  1.00  0.00     0.049 A 
ATOM     50  H   UNL A   1      41.638  29.301  28.366  1.00  0.00     0.167 HD
ATOM     51  C   UNL A   1      45.596  28.466  26.517  1.00  0.00     0.034 A 
ATOM     52  C   UNL A   1      40.022  30.571  30.260  1.00  0.00     0.034 A 
ATOM     53  C   UNL A   1      45.682  29.802  27.031  1.00  0.00     0.049 A 
ATOM     54  C   UNL A   1      41.244  31.437  30.085  1.00  0.00     0.074 A 
ATOM     55  C   UNL A   1      46.712  30.713  26.895  1.00  0.00     0.029 A 
ATOM     56  N   UNL A   1      44.700  30.411  27.799  1.00  0.00    -0.354 N 
ATOM     57  N   UNL A   1      42.319  31.210  29.366  1.00  0.00    -0.248 NA
ATOM     58  C   UNL A   1      41.254  32.729  30.786  1.00  0.00     0.031 C 
ATOM     59  C   UNL A   1      46.361  31.868  27.603  1.00  0.00     0.029 A 
ATOM     60  C   UNL A   1      45.102  31.683  28.157  1.00  0.00     0.049 A 
ATOM     61  H   UNL A   1      43.843  29.997  28.052  1.00  0.00     0.167 HD
ATOM     62  C   UNL A   1      43.116  32.342  29.499  1.00  0.00     0.074 A 
ATOM     63  C   UNL A   1      42.395  33.258  30.361  1.00  0.00     0.031 C 
ATOM     64  C   UNL A   1      44.336  32.598  28.966  1.00  0.00     0.034 A 
BRANCH  51  65
ATOM     65  C   UNL A   1      46.770  27.881  25.783  1.00  0.00     0.023 A 
ATOM     66  C   UNL A   1      46.823  27.960  24.376  1.00  0.00     0.012 A 
ATOM     67  C   UNL A   1      47.817  27.250  26.480  1.00  0.00     0.148 A 
ATOM     68  C   UNL A   1      47.877  27.381  23.671  1.00  0.00     0.002 A 
ATOM     69  C   UNL A   1      48.887  26.714  25.773  1.00  0.00     0.091 A 
ATOM     70  F   UNL A   1      47.733  27.152  27.814  1.00  0.00    -0.205 F 
ATOM     71  C   UNL A   1      48.913  26.767  24.369  1.00  0.00     0.022 A 
BRANCH  69  72
ATOM     72  S   UNL A   1      50.298  25.967  26.597  1.00  0.00     0.127 S 
ATOM     73  O   UNL A   1      51.283  25.924  25.518  1.00  0.00    -0.237 OA
ATOM     74  O   UNL A   1      50.593  26.939  27.651  1.00  0.00    -0.237 OA
ATOM     75  O   UNL A   1      49.833  24.676  27.083  1.00  0.00    -0.744 OA
ENDBRANCH  69  72
ENDBRANCH  51  65
BRANCH  52  76
ATOM     76  C   UNL A   1      38.902  30.974  31.154  1.00  0.00     0.023 A 
ATOM     77  C   UNL A   1      38.929  30.599  32.510  1.00  0.00     0.012 A 
ATOM     78  C   UNL A   1      37.848  31.784  30.685  1.00  0.00     0.148 A 
ATOM     79  C   UNL A   1      37.917  31.007  33.381  1.00  0.00     0.002 A 
ATOM     80  C   UNL A   1      36.872  32.229  31.569  1.00  0.00     0.091 A 
ATOM     81  F   UNL A   1      37.837  32.123  29.388  1.00  0.00    -0.205 F 
ATOM     82  C   UNL A   1      36.896  31.830  32.914  1.00  0.00     0.022 A 
BRANCH  80  83
ATOM     83  S   UNL A   1      35.597  33.403  31.092  1.00  0.00     0.127 S 
ATOM     84  O   UNL A   1      36.062  33.833  29.776  1.00  0.00    -0.237 OA
ATOM     85  O   UNL A   1      34.403  32.557  31.078  1.00  0.00    -0.237 OA
ATOM     86  O   UNL A   1      35.596  34.428  32.126  1.00  0.00    -0.744 OA
ENDBRANCH  80  83
ENDBRANCH  52  76
BRANCH  64  87
ATOM     87  C   UNL A   1      44.966  33.935  29.251  1.00  0.00     0.023 A 
ATOM     88  C   UNL A   1      45.724  34.116  30.423  1.00  0.00     0.012 A 
ATOM     89  C   UNL A   1      44.913  34.965  28.290  1.00  0.00     0.148 A 
ATOM     90  C   UNL A   1      46.410  35.310  30.643  1.00  0.00     0.002 A 
ATOM     91  C   UNL A   1      45.637  36.133  28.494  1.00  0.00     0.091 A 
ATOM     92  F   UNL A   1      44.171  34.774  27.190  1.00  0.00    -0.205 F 
ATOM     93  C   UNL A   1      46.379  36.310  29.672  1.00  0.00     0.022 A 
BRANCH  91  94
ATOM     94  S   UNL A   1      45.739  37.428  27.253  1.00  0.00     0.127 S 
ATOM     95  O   UNL A   1      44.330  37.769  27.063  1.00  0.00    -0.237 OA
ATOM     96  O   UNL A   1      46.528  38.453  27.938  1.00  0.00    -0.237 OA
ATOM     97  O   UNL A   1      46.397  36.830  26.099  1.00  0.00    -0.744 OA
ENDBRANCH  91  94
ENDBRANCH  64  87
ENDBRANCH  38  39
ENDBRANCH  31  33
ENDBRANCH  30  31
ENDBRANCH  29  30
ENDBRANCH   1  29
TORSDOF 18
ENDMDL
