MODEL 1
REMARK VINA RESULT:     -11.3      0.000      0.000
REMARK SMILES Cc1cscc1CNC(=O)CC(C)(C)C(=O)OCCOC(=O)c1ccc(-c2c3nc(c(-c4cccc(S(=O)(=O)[O-])c4F)c4ccc([nH]4)c(-c4cccc(S(=O)(=O)[O-])c4F)c4nc(c(-c5cccc(S(=O)(=O)[O-])c5F)c5ccc2[nH]5)C=C4)C=C3)cc1
REMARK SMILES IDX 18 1 17 2 15 3 16 4 12 5 13 6 14 7 11 8 9 9 8 10 10 12 7 13
REMARK SMILES IDX 6 14 1 15 2 16 3 17 4 18 5 19 19 20 20 21 21 22 22 23 23 24
REMARK SMILES IDX 24 25 85 26 25 27 84 28 26 29 27 30 28 31 78 32 29 33 83 34
REMARK SMILES IDX 77 35 79 36 30 37 82 38 76 39 75 40 31 42 63 43 43 44 62 45
REMARK SMILES IDX 44 46 47 47 61 48 80 49 45 50 46 51 60 53 81 54 48 55 32 56
REMARK SMILES IDX 33 57 41 58 34 59 36 60 42 61 35 62 37 63 38 64 39 65 40 66
REMARK SMILES IDX 64 67 65 68 73 69 66 70 68 71 74 72 67 73 69 74 70 75 71 76
REMARK SMILES IDX 72 77 49 78 50 79 58 80 51 81 53 82 59 83 52 84 54 85 55 86
REMARK SMILES IDX 56 87 57 88
REMARK H PARENT 8 11 79 41 47 52
REMARK Flexibility Score: inf
ROOT
ATOM      1  C   UNL A   1      36.144  22.823  23.722  1.00  0.00     0.274 C 
ENDROOT
BRANCH   1   2
ATOM      2  O   UNL A   1      35.157  23.606  24.428  1.00  0.00    -0.462 OA
BRANCH   2   3
ATOM      3  C   UNL A   1      34.042  23.951  23.720  1.00  0.00     0.312 C 
ATOM      4  O   UNL A   1      34.027  24.055  22.504  1.00  0.00    -0.252 OA
BRANCH   3   5
ATOM      5  C   UNL A   1      32.866  24.303  24.649  1.00  0.00     0.071 C 
ATOM      6  C   UNL A   1      32.528  25.782  24.400  1.00  0.00     0.024 C 
ATOM      7  C   UNL A   1      33.298  24.165  26.128  1.00  0.00     0.024 C 
BRANCH   5   8
ATOM      8  C   UNL A   1      31.594  23.422  24.449  1.00  0.00     0.118 C 
BRANCH   8   9
ATOM      9  C   UNL A   1      31.268  22.346  25.471  1.00  0.00     0.221 C 
ATOM     10  N   UNL A   1      31.833  21.116  25.409  1.00  0.00    -0.352 N 
ATOM     11  H   UNL A   1      31.730  20.567  26.219  1.00  0.00     0.163 HD
ATOM     12  O   UNL A   1      30.451  22.558  26.366  1.00  0.00    -0.275 OA
BRANCH  10  13
ATOM     13  C   UNL A   1      32.558  20.493  24.337  1.00  0.00     0.152 C 
BRANCH  13  14
ATOM     14  C   UNL A   1      32.693  19.013  24.549  1.00  0.00    -0.015 A 
ATOM     15  C   UNL A   1      32.406  18.394  22.038  1.00  0.00     0.045 C 
ATOM     16  C   UNL A   1      32.662  18.048  23.469  1.00  0.00    -0.035 A 
ATOM     17  C   UNL A   1      32.899  16.765  23.926  1.00  0.00     0.068 A 
ATOM     18  S   UNL A   1      33.119  16.693  25.614  1.00  0.00    -0.152 S 
ATOM     19  C   UNL A   1      32.891  18.376  25.763  1.00  0.00     0.070 A 
ENDBRANCH  13  14
ENDBRANCH  10  13
ENDBRANCH   8   9
ENDBRANCH   5   8
ENDBRANCH   3   5
ENDBRANCH   2   3
ENDBRANCH   1   2
BRANCH   1  20
ATOM     20  C   UNL A   1      36.395  21.496  24.432  1.00  0.00     0.275 C 
BRANCH  20  21
ATOM     21  O   UNL A   1      36.979  21.726  25.725  1.00  0.00    -0.458 OA
BRANCH  21  22
ATOM     22  C   UNL A   1      38.285  21.417  25.844  1.00  0.00     0.338 C 
ATOM     23  O   UNL A   1      38.857  20.408  25.441  1.00  0.00    -0.246 OA
BRANCH  22  24
ATOM     24  C   UNL A   1      38.990  22.547  26.455  1.00  0.00     0.060 A 
ATOM     25  C   UNL A   1      38.543  23.833  26.160  1.00  0.00     0.016 A 
ATOM     26  C   UNL A   1      40.126  22.356  27.237  1.00  0.00     0.016 A 
ATOM     27  C   UNL A   1      39.238  24.945  26.622  1.00  0.00     0.010 A 
ATOM     28  C   UNL A   1      40.813  23.474  27.722  1.00  0.00     0.010 A 
ATOM     29  C   UNL A   1      40.383  24.776  27.401  1.00  0.00    -0.014 A 
BRANCH  29  30
ATOM     30  C   UNL A   1      41.194  25.952  27.793  1.00  0.00     0.031 A 
ATOM     31  C   UNL A   1      40.552  27.028  28.618  1.00  0.00     0.074 A 
ATOM     32  C   UNL A   1      42.483  26.059  27.423  1.00  0.00     0.049 A 
ATOM     33  N   UNL A   1      40.999  28.216  28.924  1.00  0.00    -0.248 NA
ATOM     34  C   UNL A   1      39.223  26.720  29.176  1.00  0.00     0.031 C 
ATOM     35  C   UNL A   1      43.246  25.039  26.706  1.00  0.00     0.029 A 
ATOM     36  N   UNL A   1      43.372  27.091  27.588  1.00  0.00    -0.354 N 
ATOM     37  C   UNL A   1      39.982  28.825  29.647  1.00  0.00     0.074 A 
ATOM     38  C   UNL A   1      38.904  27.866  29.760  1.00  0.00     0.031 C 
ATOM     39  C   UNL A   1      44.485  25.504  26.474  1.00  0.00     0.029 A 
ATOM     40  C   UNL A   1      44.584  26.872  26.975  1.00  0.00     0.049 A 
ATOM     41  H   UNL A   1      43.164  27.909  28.096  1.00  0.00     0.167 HD
ATOM     42  C   UNL A   1      39.951  30.074  30.166  1.00  0.00     0.034 A 
ATOM     43  C   UNL A   1      45.636  27.697  26.807  1.00  0.00     0.034 A 
ATOM     44  C   UNL A   1      41.045  31.001  30.095  1.00  0.00     0.049 A 
ATOM     45  C   UNL A   1      45.556  29.101  27.351  1.00  0.00     0.074 A 
ATOM     46  C   UNL A   1      41.120  32.285  30.602  1.00  0.00     0.029 A 
ATOM     47  N   UNL A   1      42.259  30.740  29.479  1.00  0.00    -0.354 N 
ATOM     48  N   UNL A   1      44.605  29.660  28.060  1.00  0.00    -0.248 NA
ATOM     49  C   UNL A   1      46.698  29.987  27.077  1.00  0.00     0.031 C 
ATOM     50  C   UNL A   1      42.378  32.806  30.280  1.00  0.00     0.029 A 
ATOM     51  C   UNL A   1      43.089  31.841  29.585  1.00  0.00     0.049 A 
ATOM     52  H   UNL A   1      42.495  29.895  29.031  1.00  0.00     0.167 HD
ATOM     53  C   UNL A   1      45.047  30.946  28.350  1.00  0.00     0.074 A 
ATOM     54  C   UNL A   1      46.357  31.082  27.746  1.00  0.00     0.031 C 
ATOM     55  C   UNL A   1      44.420  31.930  29.039  1.00  0.00     0.034 A 
BRANCH  42  56
ATOM     56  C   UNL A   1      38.684  30.506  30.849  1.00  0.00     0.023 A 
ATOM     57  C   UNL A   1      38.496  30.240  32.219  1.00  0.00     0.012 A 
ATOM     58  C   UNL A   1      37.684  31.193  30.132  1.00  0.00     0.148 A 
ATOM     59  C   UNL A   1      37.318  30.624  32.860  1.00  0.00     0.002 A 
ATOM     60  C   UNL A   1      36.529  31.604  30.786  1.00  0.00     0.091 A 
ATOM     61  F   UNL A   1      37.866  31.406  28.821  1.00  0.00    -0.205 F 
ATOM     62  C   UNL A   1      36.340  31.314  32.146  1.00  0.00     0.022 A 
BRANCH  60  63
ATOM     63  S   UNL A   1      35.252  32.553  29.952  1.00  0.00     0.127 S 
ATOM     64  O   UNL A   1      34.813  31.616  28.919  1.00  0.00    -0.237 OA
ATOM     65  O   UNL A   1      34.279  32.779  31.021  1.00  0.00    -0.237 OA
ATOM     66  O   UNL A   1      35.909  33.762  29.475  1.00  0.00    -0.744 OA
ENDBRANCH  60  63
ENDBRANCH  42  56
BRANCH  43  67
ATOM     67  C   UNL A   1      46.864  27.215  26.113  1.00  0.00     0.023 A 
ATOM     68  C   UNL A   1      46.989  27.415  24.724  1.00  0.00     0.012 A 
ATOM     69  C   UNL A   1      47.913  26.587  26.812  1.00  0.00     0.148 A 
ATOM     70  C   UNL A   1      48.125  26.982  24.041  1.00  0.00     0.002 A 
ATOM     71  C   UNL A   1      49.065  26.202  26.134  1.00  0.00     0.091 A 
ATOM     72  F   UNL A   1      47.768  26.382  28.129  1.00  0.00    -0.205 F 
ATOM     73  C   UNL A   1      49.168  26.387  24.747  1.00  0.00     0.022 A 
BRANCH  71  74
ATOM     74  S   UNL A   1      50.504  25.529  26.975  1.00  0.00     0.127 S 
ATOM     75  O   UNL A   1      49.953  24.325  27.593  1.00  0.00    -0.237 OA
ATOM     76  O   UNL A   1      51.420  25.284  25.860  1.00  0.00    -0.237 OA
ATOM     77  O   UNL A   1      50.943  26.567  27.897  1.00  0.00    -0.744 OA
ENDBRANCH  71  74
ENDBRANCH  43  67
BRANCH  55  78
ATOM     78  C   UNL A   1      45.148  33.234  29.228  1.00  0.00     0.023 A 
ATOM     79  C   UNL A   1      46.013  33.396  30.327  1.00  0.00     0.012 A 
ATOM     80  C   UNL A   1      45.064  34.248  28.253  1.00  0.00     0.148 A 
ATOM     81  C   UNL A   1      46.776  34.555  30.460  1.00  0.00     0.002 A 
ATOM     82  C   UNL A   1      45.859  35.381  28.370  1.00  0.00     0.091 A 
ATOM     83  F   UNL A   1      44.219  34.079  27.225  1.00  0.00    -0.205 F 
ATOM     84  C   UNL A   1      46.710  35.540  29.476  1.00  0.00     0.022 A 
BRANCH  82  85
ATOM     85  S   UNL A   1      45.912  36.653  27.102  1.00  0.00     0.127 S 
ATOM     86  O   UNL A   1      46.899  37.581  27.650  1.00  0.00    -0.237 OA
ATOM     87  O   UNL A   1      46.363  35.906  25.928  1.00  0.00    -0.237 OA
ATOM     88  O   UNL A   1      44.555  37.173  26.999  1.00  0.00    -0.744 OA
ENDBRANCH  82  85
ENDBRANCH  55  78
ENDBRANCH  29  30
ENDBRANCH  22  24
ENDBRANCH  21  22
ENDBRANCH  20  21
ENDBRANCH   1  20
TORSDOF 18
ENDMDL
MODEL 2
REMARK VINA RESULT:     -11.3      1.845      3.199
REMARK SMILES Cc1cscc1CNC(=O)CC(C)(C)C(=O)OCCOC(=O)c1ccc(-c2c3nc(c(-c4cccc(S(=O)(=O)[O-])c4F)c4ccc([nH]4)c(-c4cccc(S(=O)(=O)[O-])c4F)c4nc(c(-c5cccc(S(=O)(=O)[O-])c5F)c5ccc2[nH]5)C=C4)C=C3)cc1
REMARK SMILES IDX 18 1 17 2 15 3 16 4 12 5 13 6 14 7 11 8 9 9 8 10 10 12 7 13
REMARK SMILES IDX 6 14 1 15 2 16 3 17 4 18 5 19 19 20 20 21 21 22 22 23 23 24
REMARK SMILES IDX 24 25 85 26 25 27 84 28 26 29 27 30 28 31 78 32 29 33 83 34
REMARK SMILES IDX 77 35 79 36 30 37 82 38 76 39 75 40 31 42 63 43 43 44 62 45
REMARK SMILES IDX 44 46 47 47 61 48 80 49 45 50 46 51 60 53 81 54 48 55 32 56
REMARK SMILES IDX 33 57 41 58 34 59 36 60 42 61 35 62 37 63 38 64 39 65 40 66
REMARK SMILES IDX 64 67 65 68 73 69 66 70 68 71 74 72 67 73 69 74 70 75 71 76
REMARK SMILES IDX 72 77 49 78 50 79 58 80 51 81 53 82 59 83 52 84 54 85 55 86
REMARK SMILES IDX 56 87 57 88
REMARK H PARENT 8 11 79 41 47 52
REMARK Flexibility Score: inf
ROOT
ATOM      1  C   UNL A   1      34.839  21.069  24.790  1.00  0.00     0.274 C 
ENDROOT
BRANCH   1   2
ATOM      2  O   UNL A   1      34.784  22.499  24.976  1.00  0.00    -0.462 OA
BRANCH   2   3
ATOM      3  C   UNL A   1      34.596  23.247  23.849  1.00  0.00     0.312 C 
ATOM      4  O   UNL A   1      35.198  23.048  22.806  1.00  0.00    -0.252 OA
BRANCH   3   5
ATOM      5  C   UNL A   1      33.635  24.423  24.102  1.00  0.00     0.071 C 
ATOM      6  C   UNL A   1      33.485  25.171  22.767  1.00  0.00     0.024 C 
ATOM      7  C   UNL A   1      34.256  25.407  25.122  1.00  0.00     0.024 C 
BRANCH   5   8
ATOM      8  C   UNL A   1      32.232  24.010  24.644  1.00  0.00     0.118 C 
BRANCH   8   9
ATOM      9  C   UNL A   1      31.847  24.380  26.067  1.00  0.00     0.221 C 
ATOM     10  N   UNL A   1      30.908  25.322  26.325  1.00  0.00    -0.352 N 
ATOM     11  H   UNL A   1      30.578  25.340  27.252  1.00  0.00     0.163 HD
ATOM     12  O   UNL A   1      32.411  23.853  27.026  1.00  0.00    -0.275 OA
BRANCH  10  13
ATOM     13  C   UNL A   1      30.323  26.297  25.449  1.00  0.00     0.152 C 
BRANCH  13  14
ATOM     14  C   UNL A   1      31.257  27.447  25.201  1.00  0.00    -0.015 A 
ATOM     15  C   UNL A   1      31.483  28.103  27.709  1.00  0.00     0.045 C 
ATOM     16  C   UNL A   1      31.823  28.255  26.262  1.00  0.00    -0.035 A 
ATOM     17  C   UNL A   1      32.718  29.186  25.769  1.00  0.00     0.068 A 
ATOM     18  S   UNL A   1      32.862  29.135  24.072  1.00  0.00    -0.152 S 
ATOM     19  C   UNL A   1      31.722  27.871  23.967  1.00  0.00     0.070 A 
ENDBRANCH  13  14
ENDBRANCH  10  13
ENDBRANCH   8   9
ENDBRANCH   5   8
ENDBRANCH   3   5
ENDBRANCH   2   3
ENDBRANCH   1   2
BRANCH   1  20
ATOM     20  C   UNL A   1      36.250  20.542  25.037  1.00  0.00     0.275 C 
BRANCH  20  21
ATOM     21  O   UNL A   1      37.051  21.548  25.679  1.00  0.00    -0.458 OA
BRANCH  21  22
ATOM     22  C   UNL A   1      38.357  21.252  25.829  1.00  0.00     0.338 C 
ATOM     23  O   UNL A   1      38.945  20.241  25.456  1.00  0.00    -0.246 OA
BRANCH  22  24
ATOM     24  C   UNL A   1      39.040  22.399  26.434  1.00  0.00     0.060 A 
ATOM     25  C   UNL A   1      38.596  23.676  26.099  1.00  0.00     0.016 A 
ATOM     26  C   UNL A   1      40.156  22.231  27.250  1.00  0.00     0.016 A 
ATOM     27  C   UNL A   1      39.274  24.801  26.554  1.00  0.00     0.010 A 
ATOM     28  C   UNL A   1      40.825  23.362  27.729  1.00  0.00     0.010 A 
ATOM     29  C   UNL A   1      40.398  24.655  27.368  1.00  0.00    -0.014 A 
BRANCH  29  30
ATOM     30  C   UNL A   1      41.192  25.844  27.755  1.00  0.00     0.031 A 
ATOM     31  C   UNL A   1      40.536  26.915  28.575  1.00  0.00     0.074 A 
ATOM     32  C   UNL A   1      42.481  25.966  27.386  1.00  0.00     0.049 A 
ATOM     33  N   UNL A   1      40.967  28.110  28.876  1.00  0.00    -0.248 NA
ATOM     34  C   UNL A   1      39.211  26.591  29.133  1.00  0.00     0.031 C 
ATOM     35  C   UNL A   1      43.258  24.953  26.674  1.00  0.00     0.029 A 
ATOM     36  N   UNL A   1      43.356  27.010  27.547  1.00  0.00    -0.354 N 
ATOM     37  C   UNL A   1      39.942  28.709  29.595  1.00  0.00     0.074 A 
ATOM     38  C   UNL A   1      38.877  27.736  29.712  1.00  0.00     0.031 C 
ATOM     39  C   UNL A   1      44.490  25.434  26.440  1.00  0.00     0.029 A 
ATOM     40  C   UNL A   1      44.571  26.804  26.936  1.00  0.00     0.049 A 
ATOM     41  H   UNL A   1      43.137  27.827  28.051  1.00  0.00     0.167 HD
ATOM     42  C   UNL A   1      39.893  29.959  30.109  1.00  0.00     0.034 A 
ATOM     43  C   UNL A   1      45.612  27.643  26.765  1.00  0.00     0.034 A 
ATOM     44  C   UNL A   1      40.975  30.900  30.034  1.00  0.00     0.049 A 
ATOM     45  C   UNL A   1      45.514  29.047  27.302  1.00  0.00     0.074 A 
ATOM     46  C   UNL A   1      41.032  32.188  30.536  1.00  0.00     0.029 A 
ATOM     47  N   UNL A   1      42.194  30.652  29.420  1.00  0.00    -0.354 N 
ATOM     48  N   UNL A   1      44.555  29.597  28.009  1.00  0.00    -0.248 NA
ATOM     49  C   UNL A   1      46.644  29.947  27.026  1.00  0.00     0.031 C 
ATOM     50  C   UNL A   1      42.284  32.723  30.213  1.00  0.00     0.029 A 
ATOM     51  C   UNL A   1      43.009  31.764  29.523  1.00  0.00     0.049 A 
ATOM     52  H   UNL A   1      42.441  29.808  28.977  1.00  0.00     0.167 HD
ATOM     53  C   UNL A   1      44.979  30.890  28.293  1.00  0.00     0.074 A 
ATOM     54  C   UNL A   1      46.288  31.041  27.689  1.00  0.00     0.031 C 
ATOM     55  C   UNL A   1      44.339  31.869  28.977  1.00  0.00     0.034 A 
BRANCH  42  56
ATOM     56  C   UNL A   1      38.620  30.377  30.789  1.00  0.00     0.023 A 
ATOM     57  C   UNL A   1      38.414  30.071  32.148  1.00  0.00     0.012 A 
ATOM     58  C   UNL A   1      37.632  31.090  30.081  1.00  0.00     0.148 A 
ATOM     59  C   UNL A   1      37.231  30.443  32.786  1.00  0.00     0.002 A 
ATOM     60  C   UNL A   1      36.472  31.488  30.732  1.00  0.00     0.091 A 
ATOM     61  F   UNL A   1      37.832  31.341  28.779  1.00  0.00    -0.205 F 
ATOM     62  C   UNL A   1      36.265  31.159  32.081  1.00  0.00     0.022 A 
BRANCH  60  63
ATOM     63  S   UNL A   1      35.209  32.468  29.911  1.00  0.00     0.127 S 
ATOM     64  O   UNL A   1      34.279  32.732  31.008  1.00  0.00    -0.237 OA
ATOM     65  O   UNL A   1      35.963  33.637  29.459  1.00  0.00    -0.237 OA
ATOM     66  O   UNL A   1      34.700  31.629  28.835  1.00  0.00    -0.744 OA
ENDBRANCH  60  63
ENDBRANCH  42  56
BRANCH  43  67
ATOM     67  C   UNL A   1      46.847  27.174  26.074  1.00  0.00     0.023 A 
ATOM     68  C   UNL A   1      46.979  27.386  24.688  1.00  0.00     0.012 A 
ATOM     69  C   UNL A   1      47.896  26.546  26.774  1.00  0.00     0.148 A 
ATOM     70  C   UNL A   1      48.122  26.965  24.008  1.00  0.00     0.002 A 
ATOM     71  C   UNL A   1      49.054  26.174  26.100  1.00  0.00     0.091 A 
ATOM     72  F   UNL A   1      47.744  26.330  28.088  1.00  0.00    -0.205 F 
ATOM     73  C   UNL A   1      49.164  26.371  24.714  1.00  0.00     0.022 A 
BRANCH  71  74
ATOM     74  S   UNL A   1      50.492  25.503  26.943  1.00  0.00     0.127 S 
ATOM     75  O   UNL A   1      51.412  25.278  25.831  1.00  0.00    -0.237 OA
ATOM     76  O   UNL A   1      50.862  26.603  27.834  1.00  0.00    -0.237 OA
ATOM     77  O   UNL A   1      50.024  24.306  27.628  1.00  0.00    -0.744 OA
ENDBRANCH  71  74
ENDBRANCH  43  67
BRANCH  55  78
ATOM     78  C   UNL A   1      45.049  33.183  29.161  1.00  0.00     0.023 A 
ATOM     79  C   UNL A   1      45.922  33.356  30.252  1.00  0.00     0.012 A 
ATOM     80  C   UNL A   1      44.941  34.197  28.189  1.00  0.00     0.148 A 
ATOM     81  C   UNL A   1      46.670  34.527  30.379  1.00  0.00     0.002 A 
ATOM     82  C   UNL A   1      45.720  35.342  28.299  1.00  0.00     0.091 A 
ATOM     83  F   UNL A   1      44.088  34.017  27.169  1.00  0.00    -0.205 F 
ATOM     84  C   UNL A   1      46.580  35.512  29.397  1.00  0.00     0.022 A 
BRANCH  82  85
ATOM     85  S   UNL A   1      45.741  36.616  27.033  1.00  0.00     0.127 S 
ATOM     86  O   UNL A   1      46.243  35.878  25.875  1.00  0.00    -0.237 OA
ATOM     87  O   UNL A   1      44.331  36.998  26.949  1.00  0.00    -0.237 OA
ATOM     88  O   UNL A   1      46.619  37.665  27.535  1.00  0.00    -0.744 OA
ENDBRANCH  82  85
ENDBRANCH  55  78
ENDBRANCH  29  30
ENDBRANCH  22  24
ENDBRANCH  21  22
ENDBRANCH  20  21
ENDBRANCH   1  20
TORSDOF 18
ENDMDL
MODEL 3
REMARK VINA RESULT:     -11.2      2.326      3.626
REMARK SMILES Cc1cscc1CNC(=O)CC(C)(C)C(=O)OCCOC(=O)c1ccc(-c2c3nc(c(-c4cccc(S(=O)(=O)[O-])c4F)c4ccc([nH]4)c(-c4cccc(S(=O)(=O)[O-])c4F)c4nc(c(-c5cccc(S(=O)(=O)[O-])c5F)c5ccc2[nH]5)C=C4)C=C3)cc1
REMARK SMILES IDX 18 1 17 2 15 3 16 4 12 5 13 6 14 7 11 8 9 9 8 10 10 12 7 13
REMARK SMILES IDX 6 14 1 15 2 16 3 17 4 18 5 19 19 20 20 21 21 22 22 23 23 24
REMARK SMILES IDX 24 25 85 26 25 27 84 28 26 29 27 30 28 31 78 32 29 33 83 34
REMARK SMILES IDX 77 35 79 36 30 37 82 38 76 39 75 40 31 42 63 43 43 44 62 45
REMARK SMILES IDX 44 46 47 47 61 48 80 49 45 50 46 51 60 53 81 54 48 55 32 56
REMARK SMILES IDX 33 57 41 58 34 59 36 60 42 61 35 62 37 63 38 64 39 65 40 66
REMARK SMILES IDX 64 67 65 68 73 69 66 70 68 71 74 72 67 73 69 74 70 75 71 76
REMARK SMILES IDX 72 77 49 78 50 79 58 80 51 81 53 82 59 83 52 84 54 85 55 86
REMARK SMILES IDX 56 87 57 88
REMARK H PARENT 8 11 79 41 47 52
REMARK Flexibility Score: inf
ROOT
ATOM      1  C   UNL A   1      34.781  20.922  25.309  1.00  0.00     0.274 C 
ENDROOT
BRANCH   1   2
ATOM      2  O   UNL A   1      34.006  21.452  24.212  1.00  0.00    -0.462 OA
BRANCH   2   3
ATOM      3  C   UNL A   1      32.905  22.185  24.549  1.00  0.00     0.312 C 
ATOM      4  O   UNL A   1      32.158  21.886  25.467  1.00  0.00    -0.252 OA
BRANCH   3   5
ATOM      5  C   UNL A   1      32.672  23.346  23.564  1.00  0.00     0.071 C 
ATOM      6  C   UNL A   1      31.161  23.631  23.562  1.00  0.00     0.024 C 
ATOM      7  C   UNL A   1      33.068  22.915  22.133  1.00  0.00     0.024 C 
BRANCH   5   8
ATOM      8  C   UNL A   1      33.461  24.649  23.898  1.00  0.00     0.118 C 
BRANCH   8   9
ATOM      9  C   UNL A   1      34.016  24.843  25.300  1.00  0.00     0.221 C 
ATOM     10  N   UNL A   1      33.241  25.306  26.310  1.00  0.00    -0.352 N 
ATOM     11  H   UNL A   1      33.620  25.196  27.211  1.00  0.00     0.163 HD
ATOM     12  O   UNL A   1      35.200  24.613  25.542  1.00  0.00    -0.275 OA
BRANCH  10  13
ATOM     13  C   UNL A   1      31.951  25.934  26.262  1.00  0.00     0.152 C 
BRANCH  13  14
ATOM     14  C   UNL A   1      32.066  27.431  26.239  1.00  0.00    -0.015 A 
ATOM     15  C   UNL A   1      30.626  27.740  24.094  1.00  0.00     0.045 C 
ATOM     16  C   UNL A   1      31.413  28.265  25.250  1.00  0.00    -0.035 A 
ATOM     17  C   UNL A   1      31.607  29.608  25.510  1.00  0.00     0.068 A 
ATOM     18  S   UNL A   1      32.580  29.885  26.881  1.00  0.00    -0.152 S 
ATOM     19  C   UNL A   1      32.765  28.211  27.146  1.00  0.00     0.070 A 
ENDBRANCH  13  14
ENDBRANCH  10  13
ENDBRANCH   8   9
ENDBRANCH   5   8
ENDBRANCH   3   5
ENDBRANCH   2   3
ENDBRANCH   1   2
BRANCH   1  20
ATOM     20  C   UNL A   1      36.259  20.837  24.939  1.00  0.00     0.275 C 
BRANCH  20  21
ATOM     21  O   UNL A   1      37.038  21.676  25.808  1.00  0.00    -0.458 OA
BRANCH  21  22
ATOM     22  C   UNL A   1      38.360  21.414  25.850  1.00  0.00     0.338 C 
ATOM     23  O   UNL A   1      38.946  20.440  25.387  1.00  0.00    -0.246 OA
BRANCH  22  24
ATOM     24  C   UNL A   1      39.053  22.552  26.460  1.00  0.00     0.060 A 
ATOM     25  C   UNL A   1      38.607  23.834  26.147  1.00  0.00     0.016 A 
ATOM     26  C   UNL A   1      40.180  22.371  27.258  1.00  0.00     0.016 A 
ATOM     27  C   UNL A   1      39.293  24.952  26.607  1.00  0.00     0.010 A 
ATOM     28  C   UNL A   1      40.858  23.495  27.741  1.00  0.00     0.010 A 
ATOM     29  C   UNL A   1      40.429  24.793  27.402  1.00  0.00    -0.014 A 
BRANCH  29  30
ATOM     30  C   UNL A   1      41.231  25.975  27.794  1.00  0.00     0.031 A 
ATOM     31  C   UNL A   1      40.589  27.036  28.638  1.00  0.00     0.074 A 
ATOM     32  C   UNL A   1      42.514  26.101  27.407  1.00  0.00     0.049 A 
ATOM     33  N   UNL A   1      41.027  28.226  28.948  1.00  0.00    -0.248 NA
ATOM     34  C   UNL A   1      39.272  26.708  29.211  1.00  0.00     0.031 C 
ATOM     35  C   UNL A   1      43.278  25.096  26.669  1.00  0.00     0.029 A 
ATOM     36  N   UNL A   1      43.394  27.141  27.569  1.00  0.00    -0.354 N 
ATOM     37  C   UNL A   1      40.013  28.817  29.691  1.00  0.00     0.074 A 
ATOM     38  C   UNL A   1      38.948  27.845  29.810  1.00  0.00     0.031 C 
ATOM     39  C   UNL A   1      44.508  25.578  26.424  1.00  0.00     0.029 A 
ATOM     40  C   UNL A   1      44.598  26.941  26.936  1.00  0.00     0.049 A 
ATOM     41  H   UNL A   1      43.183  27.952  28.087  1.00  0.00     0.167 HD
ATOM     42  C   UNL A   1      39.975  30.061  30.222  1.00  0.00     0.034 A 
ATOM     43  C   UNL A   1      45.638  27.781  26.761  1.00  0.00     0.034 A 
ATOM     44  C   UNL A   1      41.057  31.001  30.143  1.00  0.00     0.049 A 
ATOM     45  C   UNL A   1      45.551  29.178  27.318  1.00  0.00     0.074 A 
ATOM     46  C   UNL A   1      41.124  32.282  30.661  1.00  0.00     0.029 A 
ATOM     47  N   UNL A   1      42.266  30.759  29.508  1.00  0.00    -0.354 N 
ATOM     48  N   UNL A   1      44.604  29.720  28.046  1.00  0.00    -0.248 NA
ATOM     49  C   UNL A   1      46.678  30.080  27.037  1.00  0.00     0.031 C 
ATOM     50  C   UNL A   1      42.372  32.820  30.326  1.00  0.00     0.029 A 
ATOM     51  C   UNL A   1      43.084  31.869  29.612  1.00  0.00     0.049 A 
ATOM     52  H   UNL A   1      42.505  29.921  29.049  1.00  0.00     0.167 HD
ATOM     53  C   UNL A   1      45.035  31.008  28.341  1.00  0.00     0.074 A 
ATOM     54  C   UNL A   1      46.334  31.165  27.720  1.00  0.00     0.031 C 
ATOM     55  C   UNL A   1      44.406  31.979  29.048  1.00  0.00     0.034 A 
BRANCH  42  56
ATOM     56  C   UNL A   1      38.713  30.472  30.926  1.00  0.00     0.023 A 
ATOM     57  C   UNL A   1      38.530  30.155  32.286  1.00  0.00     0.012 A 
ATOM     58  C   UNL A   1      37.712  31.189  30.240  1.00  0.00     0.148 A 
ATOM     59  C   UNL A   1      37.357  30.520  32.947  1.00  0.00     0.002 A 
ATOM     60  C   UNL A   1      36.562  31.580  30.915  1.00  0.00     0.091 A 
ATOM     61  F   UNL A   1      37.889  31.451  28.937  1.00  0.00    -0.205 F 
ATOM     62  C   UNL A   1      36.378  31.241  32.264  1.00  0.00     0.022 A 
BRANCH  60  63
ATOM     63  S   UNL A   1      35.285  32.565  30.123  1.00  0.00     0.127 S 
ATOM     64  O   UNL A   1      36.038  33.745  29.702  1.00  0.00    -0.237 OA
ATOM     65  O   UNL A   1      34.853  31.697  29.027  1.00  0.00    -0.237 OA
ATOM     66  O   UNL A   1      34.272  32.789  31.145  1.00  0.00    -0.744 OA
ENDBRANCH  60  63
ENDBRANCH  42  56
BRANCH  43  67
ATOM     67  C   UNL A   1      46.862  27.319  26.045  1.00  0.00     0.023 A 
ATOM     68  C   UNL A   1      47.763  26.465  26.709  1.00  0.00     0.012 A 
ATOM     69  C   UNL A   1      47.129  27.696  24.713  1.00  0.00     0.148 A 
ATOM     70  C   UNL A   1      48.916  26.009  26.069  1.00  0.00     0.002 A 
ATOM     71  C   UNL A   1      48.253  27.198  24.064  1.00  0.00     0.091 A 
ATOM     72  F   UNL A   1      46.274  28.529  24.104  1.00  0.00    -0.205 F 
ATOM     73  C   UNL A   1      49.155  26.365  24.745  1.00  0.00     0.022 A 
BRANCH  71  74
ATOM     74  S   UNL A   1      48.587  27.511  22.327  1.00  0.00     0.127 S 
ATOM     75  O   UNL A   1      49.872  28.205  22.390  1.00  0.00    -0.237 OA
ATOM     76  O   UNL A   1      48.646  26.155  21.779  1.00  0.00    -0.237 OA
ATOM     77  O   UNL A   1      47.464  28.305  21.847  1.00  0.00    -0.744 OA
ENDBRANCH  71  74
ENDBRANCH  43  67
BRANCH  55  78
ATOM     78  C   UNL A   1      45.121  33.289  29.239  1.00  0.00     0.023 A 
ATOM     79  C   UNL A   1      45.957  33.470  30.357  1.00  0.00     0.012 A 
ATOM     80  C   UNL A   1      45.057  34.290  28.249  1.00  0.00     0.148 A 
ATOM     81  C   UNL A   1      46.710  34.636  30.495  1.00  0.00     0.002 A 
ATOM     82  C   UNL A   1      45.841  35.430  28.372  1.00  0.00     0.091 A 
ATOM     83  F   UNL A   1      44.238  34.103  27.203  1.00  0.00    -0.205 F 
ATOM     84  C   UNL A   1      46.664  35.608  29.497  1.00  0.00     0.022 A 
BRANCH  82  85
ATOM     85  S   UNL A   1      45.919  36.686  27.089  1.00  0.00     0.127 S 
ATOM     86  O   UNL A   1      44.539  37.169  27.061  1.00  0.00    -0.237 OA
ATOM     87  O   UNL A   1      46.887  37.635  27.639  1.00  0.00    -0.237 OA
ATOM     88  O   UNL A   1      46.365  36.000  25.884  1.00  0.00    -0.744 OA
ENDBRANCH  82  85
ENDBRANCH  55  78
ENDBRANCH  29  30
ENDBRANCH  22  24
ENDBRANCH  21  22
ENDBRANCH  20  21
ENDBRANCH   1  20
TORSDOF 18
ENDMDL
