MODEL 1
REMARK VINA RESULT:     -12.0      0.000      0.000
REMARK SMILES O=C(COc1ccc(/C=C2\SC(=O)N(Cc3cc4c(cc3Cl)OCO4)C2=O)cc1)OCCOC(=O)c1ccc(-c2c3nc(c(-c4cccc(S(=O)(=O)[O-])c4F)c4ccc([nH]4)c(-c4cccc(S(=O)(=O)[O-])c4F)c4nc(c(-c5cccc(S(=O)(=O)[O-])c5F)c5ccc2[nH]5)C=C4)C=C3)cc1
REMARK SMILES IDX 31 1 30 2 2 3 1 4 3 5 4 6 5 7 6 8 29 9 7 10 28 11 8 12 9 13
REMARK SMILES IDX 10 14 11 15 26 16 12 17 14 18 27 19 13 20 15 21 16 22 17 23
REMARK SMILES IDX 21 24 18 25 20 26 22 27 19 28 25 29 23 30 24 31 32 32 33 33
REMARK SMILES IDX 34 34 35 35 36 36 37 37 98 38 38 39 97 40 39 41 40 42 41 43
REMARK SMILES IDX 91 44 42 45 96 46 90 47 92 48 43 49 95 50 89 51 88 52 44 54
REMARK SMILES IDX 76 55 56 56 75 57 57 58 60 59 74 60 93 61 58 62 59 63 73 65
REMARK SMILES IDX 94 66 61 67 45 68 46 69 54 70 47 71 49 72 55 73 48 74 50 75
REMARK SMILES IDX 51 76 52 77 53 78 77 79 78 80 86 81 79 82 81 83 87 84 80 85
REMARK SMILES IDX 82 86 83 87 84 88 85 89 62 90 63 91 71 92 64 93 66 94 72 95
REMARK SMILES IDX 65 96 67 97 68 98 69 99 70 100
REMARK H PARENT 92 53 60 64
REMARK Flexibility Score: inf
ROOT
ATOM      1  C   UNL A   1      34.472  34.165  32.341  1.00  0.00     0.274 C 
ENDROOT
BRANCH   1   2
ATOM      2  O   UNL A   1      34.035  33.034  31.564  1.00  0.00    -0.460 OA
BRANCH   2   3
ATOM      3  C   UNL A   1      34.708  32.585  30.476  1.00  0.00     0.344 C 
ATOM      4  O   UNL A   1      35.599  31.747  30.609  1.00  0.00    -0.248 OA
BRANCH   3   5
ATOM      5  C   UNL A   1      34.281  33.087  29.094  1.00  0.00     0.351 C 
BRANCH   5   6
ATOM      6  O   UNL A   1      35.046  32.608  27.994  1.00  0.00    -0.482 OA
BRANCH   6   7
ATOM      7  C   UNL A   1      34.612  31.364  27.640  1.00  0.00     0.120 A 
ATOM      8  C   UNL A   1      33.274  31.207  27.282  1.00  0.00     0.047 A 
ATOM      9  C   UNL A   1      35.494  30.291  27.629  1.00  0.00     0.047 A 
ATOM     10  C   UNL A   1      32.816  29.951  26.886  1.00  0.00     0.012 A 
ATOM     11  C   UNL A   1      35.055  29.065  27.186  1.00  0.00     0.012 A 
ATOM     12  C   UNL A   1      33.710  28.879  26.859  1.00  0.00    -0.024 A 
BRANCH  12  13
ATOM     13  C   UNL A   1      33.316  27.531  26.492  1.00  0.00     0.029 C 
ATOM     14  C   UNL A   1      33.288  27.115  25.221  1.00  0.00     0.083 C 
ATOM     15  S   UNL A   1      33.907  27.840  23.791  1.00  0.00    -0.022 SA
ATOM     16  C   UNL A   1      32.579  25.876  24.876  1.00  0.00     0.268 C 
ATOM     17  C   UNL A   1      33.480  26.442  22.812  1.00  0.00     0.293 C 
ATOM     18  N   UNL A   1      32.914  25.481  23.610  1.00  0.00    -0.264 N 
ATOM     19  O   UNL A   1      31.737  25.379  25.606  1.00  0.00    -0.268 OA
ATOM     20  O   UNL A   1      33.650  26.398  21.614  1.00  0.00    -0.261 OA
BRANCH  18  21
ATOM     21  C   UNL A   1      32.568  24.159  23.121  1.00  0.00     0.167 C 
BRANCH  21  22
ATOM     22  C   UNL A   1      33.522  23.135  23.717  1.00  0.00    -0.005 A 
ATOM     23  C   UNL A   1      34.879  23.161  23.336  1.00  0.00     0.057 A 
ATOM     24  C   UNL A   1      33.122  22.235  24.742  1.00  0.00     0.050 A 
ATOM     25  C   UNL A   1      35.755  22.331  24.006  1.00  0.00     0.166 A 
ATOM     26  C   UNL A   1      34.057  21.538  25.507  1.00  0.00     0.071 A 
ATOM     27  Cl  UNL A   1      31.473  21.776  24.982  1.00  0.00    -0.084 Cl
ATOM     28  C   UNL A   1      35.362  21.585  25.093  1.00  0.00     0.167 A 
ATOM     29  O   UNL A   1      37.060  22.111  23.690  1.00  0.00    -0.454 OA
ATOM     30  O   UNL A   1      36.380  20.852  25.618  1.00  0.00    -0.454 OA
ATOM     31  C   UNL A   1      37.351  20.998  24.566  1.00  0.00     0.468 C 
ENDBRANCH  21  22
ENDBRANCH  18  21
ENDBRANCH  12  13
ENDBRANCH   6   7
ENDBRANCH   5   6
ENDBRANCH   3   5
ENDBRANCH   2   3
ENDBRANCH   1   2
BRANCH   1  32
ATOM     32  C   UNL A   1      34.993  33.720  33.709  1.00  0.00     0.275 C 
BRANCH  32  33
ATOM     33  O   UNL A   1      36.237  33.006  33.571  1.00  0.00    -0.458 OA
BRANCH  33  34
ATOM     34  C   UNL A   1      37.349  33.754  33.337  1.00  0.00     0.338 C 
ATOM     35  O   UNL A   1      37.614  34.834  33.833  1.00  0.00    -0.246 OA
BRANCH  34  36
ATOM     36  C   UNL A   1      38.308  32.931  32.557  1.00  0.00     0.060 A 
ATOM     37  C   UNL A   1      39.061  31.952  33.222  1.00  0.00     0.016 A 
ATOM     38  C   UNL A   1      38.411  33.069  31.170  1.00  0.00     0.016 A 
ATOM     39  C   UNL A   1      39.926  31.119  32.505  1.00  0.00     0.010 A 
ATOM     40  C   UNL A   1      39.287  32.246  30.457  1.00  0.00     0.010 A 
ATOM     41  C   UNL A   1      40.068  31.283  31.121  1.00  0.00    -0.014 A 
BRANCH  41  42
ATOM     42  C   UNL A   1      41.153  30.597  30.375  1.00  0.00     0.031 A 
ATOM     43  C   UNL A   1      42.426  31.356  30.118  1.00  0.00     0.074 A 
ATOM     44  C   UNL A   1      40.997  29.362  29.863  1.00  0.00     0.049 A 
ATOM     45  N   UNL A   1      43.464  31.018  29.401  1.00  0.00    -0.248 NA
ATOM     46  C   UNL A   1      42.529  32.684  30.746  1.00  0.00     0.031 C 
ATOM     47  C   UNL A   1      39.814  28.521  30.026  1.00  0.00     0.029 A 
ATOM     48  N   UNL A   1      41.831  28.623  29.058  1.00  0.00    -0.354 N 
ATOM     49  C   UNL A   1      44.328  32.104  29.457  1.00  0.00     0.074 A 
ATOM     50  C   UNL A   1      43.689  33.113  30.274  1.00  0.00     0.031 C 
ATOM     51  C   UNL A   1      39.976  27.400  29.301  1.00  0.00     0.029 A 
ATOM     52  C   UNL A   1      41.262  27.457  28.602  1.00  0.00     0.049 A 
ATOM     53  H   UNL A   1      42.747  28.901  28.830  1.00  0.00     0.167 HD
ATOM     54  C   UNL A   1      45.549  32.249  28.891  1.00  0.00     0.034 A 
ATOM     55  C   UNL A   1      41.709  26.557  27.700  1.00  0.00     0.034 A 
ATOM     56  C   UNL A   1      46.192  31.248  28.087  1.00  0.00     0.049 A 
ATOM     57  C   UNL A   1      43.064  26.746  27.061  1.00  0.00     0.074 A 
ATOM     58  C   UNL A   1      47.457  31.279  27.528  1.00  0.00     0.029 A 
ATOM     59  N   UNL A   1      45.613  30.049  27.702  1.00  0.00    -0.354 N 
ATOM     60  N   UNL A   1      43.934  27.710  27.240  1.00  0.00    -0.248 NA
ATOM     61  C   UNL A   1      43.513  25.707  26.120  1.00  0.00     0.031 C 
ATOM     62  C   UNL A   1      47.627  30.117  26.770  1.00  0.00     0.029 A 
ATOM     63  C   UNL A   1      46.485  29.343  26.892  1.00  0.00     0.049 A 
ATOM     64  H   UNL A   1      44.715  29.746  27.966  1.00  0.00     0.167 HD
ATOM     65  C   UNL A   1      45.042  27.377  26.467  1.00  0.00     0.074 A 
ATOM     66  C   UNL A   1      44.740  26.115  25.825  1.00  0.00     0.031 C 
ATOM     67  C   UNL A   1      46.203  28.060  26.300  1.00  0.00     0.034 A 
BRANCH  54  68
ATOM     68  C   UNL A   1      46.270  33.548  29.127  1.00  0.00     0.023 A 
ATOM     69  C   UNL A   1      47.065  33.710  30.281  1.00  0.00     0.012 A 
ATOM     70  C   UNL A   1      46.185  34.597  28.192  1.00  0.00     0.148 A 
ATOM     71  C   UNL A   1      47.729  34.912  30.521  1.00  0.00     0.002 A 
ATOM     72  C   UNL A   1      46.888  35.774  28.414  1.00  0.00     0.091 A 
ATOM     73  F   UNL A   1      45.403  34.432  27.115  1.00  0.00    -0.205 F 
ATOM     74  C   UNL A   1      47.649  35.938  29.584  1.00  0.00     0.022 A 
BRANCH  72  75
ATOM     75  S   UNL A   1      46.911  37.119  27.226  1.00  0.00     0.127 S 
ATOM     76  O   UNL A   1      47.735  38.109  27.918  1.00  0.00    -0.237 OA
ATOM     77  O   UNL A   1      47.551  36.496  26.067  1.00  0.00    -0.237 OA
ATOM     78  O   UNL A   1      45.519  37.495  27.019  1.00  0.00    -0.744 OA
ENDBRANCH  72  75
ENDBRANCH  54  68
BRANCH  55  79
ATOM     79  C   UNL A   1      40.863  25.379  27.349  1.00  0.00     0.023 A 
ATOM     80  C   UNL A   1      39.595  25.577  26.771  1.00  0.00     0.012 A 
ATOM     81  C   UNL A   1      41.322  24.066  27.568  1.00  0.00     0.148 A 
ATOM     82  C   UNL A   1      38.786  24.487  26.443  1.00  0.00     0.002 A 
ATOM     83  C   UNL A   1      40.537  22.985  27.186  1.00  0.00     0.091 A 
ATOM     84  F   UNL A   1      42.525  23.901  28.135  1.00  0.00    -0.205 F 
ATOM     85  C   UNL A   1      39.261  23.193  26.639  1.00  0.00     0.022 A 
BRANCH  83  86
ATOM     86  S   UNL A   1      41.117  21.288  27.280  1.00  0.00     0.127 S 
ATOM     87  O   UNL A   1      40.189  20.603  26.383  1.00  0.00    -0.237 OA
ATOM     88  O   UNL A   1      42.485  21.412  26.774  1.00  0.00    -0.237 OA
ATOM     89  O   UNL A   1      41.026  20.914  28.684  1.00  0.00    -0.744 OA
ENDBRANCH  83  86
ENDBRANCH  55  79
BRANCH  67  90
ATOM     90  C   UNL A   1      47.274  27.455  25.426  1.00  0.00     0.023 A 
ATOM     91  C   UNL A   1      48.014  26.347  25.879  1.00  0.00     0.012 A 
ATOM     92  C   UNL A   1      47.458  27.915  24.106  1.00  0.00     0.148 A 
ATOM     93  C   UNL A   1      48.934  25.717  25.040  1.00  0.00     0.002 A 
ATOM     94  C   UNL A   1      48.338  27.252  23.259  1.00  0.00     0.091 A 
ATOM     95  F   UNL A   1      46.753  28.980  23.697  1.00  0.00    -0.205 F 
ATOM     96  C   UNL A   1      49.085  26.159  23.727  1.00  0.00     0.022 A 
BRANCH  94  97
ATOM     97  S   UNL A   1      48.525  27.684  21.525  1.00  0.00     0.127 S 
ATOM     98  O   UNL A   1      49.111  26.462  20.975  1.00  0.00    -0.237 OA
ATOM     99  O   UNL A   1      47.143  27.934  21.117  1.00  0.00    -0.237 OA
ATOM    100  O   UNL A   1      49.389  28.857  21.490  1.00  0.00    -0.744 OA
ENDBRANCH  94  97
ENDBRANCH  67  90
ENDBRANCH  41  42
ENDBRANCH  34  36
ENDBRANCH  33  34
ENDBRANCH  32  33
ENDBRANCH   1  32
TORSDOF 19
ENDMDL
MODEL 2
REMARK VINA RESULT:     -11.8      5.028     10.957
REMARK SMILES O=C(COc1ccc(/C=C2\SC(=O)N(Cc3cc4c(cc3Cl)OCO4)C2=O)cc1)OCCOC(=O)c1ccc(-c2c3nc(c(-c4cccc(S(=O)(=O)[O-])c4F)c4ccc([nH]4)c(-c4cccc(S(=O)(=O)[O-])c4F)c4nc(c(-c5cccc(S(=O)(=O)[O-])c5F)c5ccc2[nH]5)C=C4)C=C3)cc1
REMARK SMILES IDX 31 1 30 2 2 3 1 4 3 5 4 6 5 7 6 8 29 9 7 10 28 11 8 12 9 13
REMARK SMILES IDX 10 14 11 15 26 16 12 17 14 18 27 19 13 20 15 21 16 22 17 23
REMARK SMILES IDX 21 24 18 25 20 26 22 27 19 28 25 29 23 30 24 31 32 32 33 33
REMARK SMILES IDX 34 34 35 35 36 36 37 37 98 38 38 39 97 40 39 41 40 42 41 43
REMARK SMILES IDX 91 44 42 45 96 46 90 47 92 48 43 49 95 50 89 51 88 52 44 54
REMARK SMILES IDX 76 55 56 56 75 57 57 58 60 59 74 60 93 61 58 62 59 63 73 65
REMARK SMILES IDX 94 66 61 67 45 68 46 69 54 70 47 71 49 72 55 73 48 74 50 75
REMARK SMILES IDX 51 76 52 77 53 78 77 79 78 80 86 81 79 82 81 83 87 84 80 85
REMARK SMILES IDX 82 86 83 87 84 88 85 89 62 90 63 91 71 92 64 93 66 94 72 95
REMARK SMILES IDX 65 96 67 97 68 98 69 99 70 100
REMARK H PARENT 92 53 60 64
REMARK Flexibility Score: inf
ROOT
ATOM      1  C   UNL A   1      44.718  20.282  25.279  1.00  0.00     0.274 C 
ENDROOT
BRANCH   1   2
ATOM      2  O   UNL A   1      43.328  19.944  25.120  1.00  0.00    -0.460 OA
BRANCH   2   3
ATOM      3  C   UNL A   1      42.703  19.018  25.888  1.00  0.00     0.344 C 
ATOM      4  O   UNL A   1      43.343  18.080  26.360  1.00  0.00    -0.248 OA
BRANCH   3   5
ATOM      5  C   UNL A   1      41.218  19.214  26.203  1.00  0.00     0.351 C 
BRANCH   5   6
ATOM      6  O   UNL A   1      40.873  20.437  26.843  1.00  0.00    -0.482 OA
BRANCH   6   7
ATOM      7  C   UNL A   1      39.782  20.983  26.231  1.00  0.00     0.120 A 
ATOM      8  C   UNL A   1      39.041  20.184  25.362  1.00  0.00     0.047 A 
ATOM      9  C   UNL A   1      39.422  22.301  26.486  1.00  0.00     0.047 A 
ATOM     10  C   UNL A   1      37.905  20.711  24.750  1.00  0.00     0.012 A 
ATOM     11  C   UNL A   1      38.270  22.803  25.925  1.00  0.00     0.012 A 
ATOM     12  C   UNL A   1      37.536  22.030  25.023  1.00  0.00    -0.024 A 
BRANCH  12  13
ATOM     13  C   UNL A   1      36.388  22.672  24.408  1.00  0.00     0.029 C 
ATOM     14  C   UNL A   1      35.152  22.169  24.501  1.00  0.00     0.083 C 
ATOM     15  S   UNL A   1      34.525  20.913  25.491  1.00  0.00    -0.022 SA
ATOM     16  C   UNL A   1      34.099  22.659  23.603  1.00  0.00     0.268 C 
ATOM     17  C   UNL A   1      32.880  21.198  24.936  1.00  0.00     0.293 C 
ATOM     18  N   UNL A   1      32.874  22.244  24.048  1.00  0.00    -0.264 N 
ATOM     19  O   UNL A   1      34.346  23.248  22.564  1.00  0.00    -0.268 OA
ATOM     20  O   UNL A   1      31.938  20.525  25.288  1.00  0.00    -0.261 OA
BRANCH  18  21
ATOM     21  C   UNL A   1      31.650  22.804  23.505  1.00  0.00     0.167 C 
BRANCH  21  22
ATOM     22  C   UNL A   1      31.469  24.221  24.027  1.00  0.00    -0.005 A 
ATOM     23  C   UNL A   1      31.925  25.301  23.244  1.00  0.00     0.057 A 
ATOM     24  C   UNL A   1      30.741  24.504  25.215  1.00  0.00     0.050 A 
ATOM     25  C   UNL A   1      31.610  26.580  23.658  1.00  0.00     0.166 A 
ATOM     26  C   UNL A   1      30.299  25.794  25.510  1.00  0.00     0.071 A 
ATOM     27  Cl  UNL A   1      30.529  23.338  26.472  1.00  0.00    -0.084 Cl
ATOM     28  C   UNL A   1      30.776  26.812  24.728  1.00  0.00     0.167 A 
ATOM     29  O   UNL A   1      32.076  27.741  23.122  1.00  0.00    -0.454 OA
ATOM     30  O   UNL A   1      30.579  28.138  24.957  1.00  0.00    -0.454 OA
ATOM     31  C   UNL A   1      31.606  28.685  24.111  1.00  0.00     0.468 C 
ENDBRANCH  21  22
ENDBRANCH  18  21
ENDBRANCH  12  13
ENDBRANCH   6   7
ENDBRANCH   5   6
ENDBRANCH   3   5
ENDBRANCH   2   3
ENDBRANCH   1   2
BRANCH   1  32
ATOM     32  C   UNL A   1      44.976  21.737  24.879  1.00  0.00     0.275 C 
BRANCH  32  33
ATOM     33  O   UNL A   1      44.403  22.640  25.845  1.00  0.00    -0.458 OA
BRANCH  33  34
ATOM     34  C   UNL A   1      43.288  23.318  25.461  1.00  0.00     0.338 C 
ATOM     35  O   UNL A   1      42.561  23.047  24.523  1.00  0.00    -0.246 OA
BRANCH  34  36
ATOM     36  C   UNL A   1      42.962  24.311  26.516  1.00  0.00     0.060 A 
ATOM     37  C   UNL A   1      42.137  23.923  27.583  1.00  0.00     0.016 A 
ATOM     38  C   UNL A   1      43.523  25.591  26.498  1.00  0.00     0.016 A 
ATOM     39  C   UNL A   1      41.863  24.816  28.624  1.00  0.00     0.010 A 
ATOM     40  C   UNL A   1      43.235  26.487  27.531  1.00  0.00     0.010 A 
ATOM     41  C   UNL A   1      42.385  26.115  28.587  1.00  0.00    -0.014 A 
BRANCH  41  42
ATOM     42  C   UNL A   1      41.913  27.159  29.533  1.00  0.00     0.031 A 
ATOM     43  C   UNL A   1      42.634  27.305  30.844  1.00  0.00     0.074 A 
ATOM     44  C   UNL A   1      40.825  27.910  29.281  1.00  0.00     0.049 A 
ATOM     45  N   UNL A   1      42.345  28.059  31.871  1.00  0.00    -0.248 NA
ATOM     46  C   UNL A   1      43.836  26.473  31.022  1.00  0.00     0.031 C 
ATOM     47  C   UNL A   1      40.027  27.863  28.058  1.00  0.00     0.029 A 
ATOM     48  N   UNL A   1      40.179  28.829  30.073  1.00  0.00    -0.354 N 
ATOM     49  C   UNL A   1      43.304  27.766  32.833  1.00  0.00     0.074 A 
ATOM     50  C   UNL A   1      44.178  26.761  32.268  1.00  0.00     0.031 C 
ATOM     51  C   UNL A   1      38.968  28.680  28.200  1.00  0.00     0.029 A 
ATOM     52  C   UNL A   1      39.000  29.286  29.533  1.00  0.00     0.049 A 
ATOM     53  H   UNL A   1      40.527  29.132  30.942  1.00  0.00     0.167 HD
ATOM     54  C   UNL A   1      43.453  28.290  34.072  1.00  0.00     0.034 A 
ATOM     55  C   UNL A   1      38.039  30.073  30.062  1.00  0.00     0.034 A 
ATOM     56  C   UNL A   1      42.594  29.294  34.634  1.00  0.00     0.049 A 
ATOM     57  C   UNL A   1      38.211  30.632  31.455  1.00  0.00     0.074 A 
ATOM     58  C   UNL A   1      42.708  29.935  35.855  1.00  0.00     0.029 A 
ATOM     59  N   UNL A   1      41.447  29.784  34.030  1.00  0.00    -0.354 N 
ATOM     60  N   UNL A   1      39.201  30.460  32.297  1.00  0.00    -0.248 NA
ATOM     61  C   UNL A   1      37.150  31.519  31.958  1.00  0.00     0.031 C 
ATOM     62  C   UNL A   1      41.606  30.782  36.007  1.00  0.00     0.029 A 
ATOM     63  C   UNL A   1      40.829  30.701  34.863  1.00  0.00     0.049 A 
ATOM     64  H   UNL A   1      41.120  29.519  33.140  1.00  0.00     0.167 HD
ATOM     65  C   UNL A   1      38.901  31.242  33.408  1.00  0.00     0.074 A 
ATOM     66  C   UNL A   1      37.642  31.899  33.130  1.00  0.00     0.031 C 
ATOM     67  C   UNL A   1      39.605  31.395  34.559  1.00  0.00     0.034 A 
BRANCH  54  68
ATOM     68  C   UNL A   1      44.599  27.782  34.904  1.00  0.00     0.023 A 
ATOM     69  C   UNL A   1      44.427  26.640  35.713  1.00  0.00     0.012 A 
ATOM     70  C   UNL A   1      45.854  28.418  34.861  1.00  0.00     0.148 A 
ATOM     71  C   UNL A   1      45.475  26.165  36.500  1.00  0.00     0.002 A 
ATOM     72  C   UNL A   1      46.907  27.909  35.610  1.00  0.00     0.091 A 
ATOM     73  F   UNL A   1      45.989  29.517  34.105  1.00  0.00    -0.205 F 
ATOM     74  C   UNL A   1      46.716  26.792  36.440  1.00  0.00     0.022 A 
BRANCH  72  75
ATOM     75  S   UNL A   1      48.562  28.602  35.537  1.00  0.00     0.127 S 
ATOM     76  O   UNL A   1      48.296  30.024  35.751  1.00  0.00    -0.237 OA
ATOM     77  O   UNL A   1      49.227  27.932  36.655  1.00  0.00    -0.237 OA
ATOM     78  O   UNL A   1      49.086  28.251  34.224  1.00  0.00    -0.744 OA
ENDBRANCH  72  75
ENDBRANCH  54  68
BRANCH  55  79
ATOM     79  C   UNL A   1      36.819  30.390  29.265  1.00  0.00     0.023 A 
ATOM     80  C   UNL A   1      36.050  29.345  28.718  1.00  0.00     0.012 A 
ATOM     81  C   UNL A   1      36.408  31.722  29.066  1.00  0.00     0.148 A 
ATOM     82  C   UNL A   1      34.910  29.623  27.961  1.00  0.00     0.002 A 
ATOM     83  C   UNL A   1      35.241  31.990  28.362  1.00  0.00     0.091 A 
ATOM     84  F   UNL A   1      37.164  32.702  29.581  1.00  0.00    -0.205 F 
ATOM     85  C   UNL A   1      34.499  30.943  27.793  1.00  0.00     0.022 A 
BRANCH  83  86
ATOM     86  S   UNL A   1      34.564  33.646  28.205  1.00  0.00     0.127 S 
ATOM     87  O   UNL A   1      35.478  34.254  27.242  1.00  0.00    -0.237 OA
ATOM     88  O   UNL A   1      33.221  33.372  27.692  1.00  0.00    -0.237 OA
ATOM     89  O   UNL A   1      34.592  34.215  29.545  1.00  0.00    -0.744 OA
ENDBRANCH  83  86
ENDBRANCH  55  79
BRANCH  67  90
ATOM     90  C   UNL A   1      39.073  32.344  35.605  1.00  0.00     0.023 A 
ATOM     91  C   UNL A   1      38.109  31.905  36.533  1.00  0.00     0.012 A 
ATOM     92  C   UNL A   1      39.625  33.635  35.741  1.00  0.00     0.148 A 
ATOM     93  C   UNL A   1      37.688  32.742  37.566  1.00  0.00     0.002 A 
ATOM     94  C   UNL A   1      39.238  34.444  36.802  1.00  0.00     0.091 A 
ATOM     95  F   UNL A   1      40.532  34.039  34.840  1.00  0.00    -0.205 F 
ATOM     96  C   UNL A   1      38.262  34.004  37.710  1.00  0.00     0.022 A 
BRANCH  94  97
ATOM     97  S   UNL A   1      39.994  36.041  37.128  1.00  0.00     0.127 S 
ATOM     98  O   UNL A   1      39.727  36.758  35.882  1.00  0.00    -0.237 OA
ATOM     99  O   UNL A   1      39.228  36.516  38.281  1.00  0.00    -0.237 OA
ATOM    100  O   UNL A   1      41.400  35.775  37.403  1.00  0.00    -0.744 OA
ENDBRANCH  94  97
ENDBRANCH  67  90
ENDBRANCH  41  42
ENDBRANCH  34  36
ENDBRANCH  33  34
ENDBRANCH  32  33
ENDBRANCH   1  32
TORSDOF 19
ENDMDL
MODEL 3
REMARK VINA RESULT:     -11.7      4.935      8.776
REMARK SMILES O=C(COc1ccc(/C=C2\SC(=O)N(Cc3cc4c(cc3Cl)OCO4)C2=O)cc1)OCCOC(=O)c1ccc(-c2c3nc(c(-c4cccc(S(=O)(=O)[O-])c4F)c4ccc([nH]4)c(-c4cccc(S(=O)(=O)[O-])c4F)c4nc(c(-c5cccc(S(=O)(=O)[O-])c5F)c5ccc2[nH]5)C=C4)C=C3)cc1
REMARK SMILES IDX 31 1 30 2 2 3 1 4 3 5 4 6 5 7 6 8 29 9 7 10 28 11 8 12 9 13
REMARK SMILES IDX 10 14 11 15 26 16 12 17 14 18 27 19 13 20 15 21 16 22 17 23
REMARK SMILES IDX 21 24 18 25 20 26 22 27 19 28 25 29 23 30 24 31 32 32 33 33
REMARK SMILES IDX 34 34 35 35 36 36 37 37 98 38 38 39 97 40 39 41 40 42 41 43
REMARK SMILES IDX 91 44 42 45 96 46 90 47 92 48 43 49 95 50 89 51 88 52 44 54
REMARK SMILES IDX 76 55 56 56 75 57 57 58 60 59 74 60 93 61 58 62 59 63 73 65
REMARK SMILES IDX 94 66 61 67 45 68 46 69 54 70 47 71 49 72 55 73 48 74 50 75
REMARK SMILES IDX 51 76 52 77 53 78 77 79 78 80 86 81 79 82 81 83 87 84 80 85
REMARK SMILES IDX 82 86 83 87 84 88 85 89 62 90 63 91 71 92 64 93 66 94 72 95
REMARK SMILES IDX 65 96 67 97 68 98 69 99 70 100
REMARK H PARENT 92 53 60 64
REMARK Flexibility Score: inf
ROOT
ATOM      1  C   UNL A   1      31.924  29.901  25.708  1.00  0.00     0.274 C 
ENDROOT
BRANCH   1   2
ATOM      2  O   UNL A   1      31.516  28.525  25.605  1.00  0.00    -0.460 OA
BRANCH   2   3
ATOM      3  C   UNL A   1      31.528  27.839  24.435  1.00  0.00     0.344 C 
ATOM      4  O   UNL A   1      31.197  28.400  23.392  1.00  0.00    -0.248 OA
BRANCH   3   5
ATOM      5  C   UNL A   1      32.029  26.392  24.442  1.00  0.00     0.351 C 
BRANCH   5   6
ATOM      6  O   UNL A   1      32.925  26.038  23.395  1.00  0.00    -0.482 OA
BRANCH   6   7
ATOM      7  C   UNL A   1      33.828  25.125  23.853  1.00  0.00     0.120 A 
ATOM      8  C   UNL A   1      34.105  25.094  25.219  1.00  0.00     0.047 A 
ATOM      9  C   UNL A   1      34.444  24.244  22.972  1.00  0.00     0.047 A 
ATOM     10  C   UNL A   1      35.002  24.149  25.715  1.00  0.00     0.012 A 
ATOM     11  C   UNL A   1      35.286  23.276  23.468  1.00  0.00     0.012 A 
ATOM     12  C   UNL A   1      35.603  23.254  24.828  1.00  0.00    -0.024 A 
BRANCH  12  13
ATOM     13  C   UNL A   1      36.572  22.257  25.248  1.00  0.00     0.029 C 
ATOM     14  C   UNL A   1      37.723  22.586  25.845  1.00  0.00     0.083 C 
ATOM     15  S   UNL A   1      38.257  24.081  26.503  1.00  0.00    -0.022 SA
ATOM     16  C   UNL A   1      38.799  21.592  25.947  1.00  0.00     0.268 C 
ATOM     17  C   UNL A   1      39.737  23.360  27.125  1.00  0.00     0.293 C 
ATOM     18  N   UNL A   1      39.751  22.021  26.831  1.00  0.00    -0.264 N 
ATOM     19  O   UNL A   1      38.844  20.601  25.237  1.00  0.00    -0.268 OA
ATOM     20  O   UNL A   1      40.596  24.000  27.689  1.00  0.00    -0.261 OA
BRANCH  18  21
ATOM     21  C   UNL A   1      40.780  21.122  27.319  1.00  0.00     0.167 C 
BRANCH  21  22
ATOM     22  C   UNL A   1      41.933  21.088  26.327  1.00  0.00    -0.005 A 
ATOM     23  C   UNL A   1      42.380  22.297  25.757  1.00  0.00     0.057 A 
ATOM     24  C   UNL A   1      42.660  19.897  26.052  1.00  0.00     0.050 A 
ATOM     25  C   UNL A   1      43.526  22.264  24.986  1.00  0.00     0.166 A 
ATOM     26  C   UNL A   1      43.899  19.931  25.412  1.00  0.00     0.071 A 
ATOM     27  Cl  UNL A   1      41.987  18.323  26.292  1.00  0.00    -0.084 Cl
ATOM     28  C   UNL A   1      44.288  21.125  24.866  1.00  0.00     0.167 A 
ATOM     29  O   UNL A   1      44.028  23.287  24.243  1.00  0.00    -0.454 OA
ATOM     30  O   UNL A   1      45.382  21.311  24.080  1.00  0.00    -0.454 OA
ATOM     31  C   UNL A   1      45.048  22.584  23.499  1.00  0.00     0.468 C 
ENDBRANCH  21  22
ENDBRANCH  18  21
ENDBRANCH  12  13
ENDBRANCH   6   7
ENDBRANCH   5   6
ENDBRANCH   3   5
ENDBRANCH   2   3
ENDBRANCH   1   2
BRANCH   1  32
ATOM     32  C   UNL A   1      33.391  30.006  26.132  1.00  0.00     0.275 C 
BRANCH  32  33
ATOM     33  O   UNL A   1      33.500  30.579  27.450  1.00  0.00    -0.458 OA
BRANCH  33  34
ATOM     34  C   UNL A   1      34.370  31.614  27.597  1.00  0.00     0.338 C 
ATOM     35  O   UNL A   1      34.148  32.787  27.358  1.00  0.00    -0.246 OA
BRANCH  34  36
ATOM     36  C   UNL A   1      35.566  31.118  28.323  1.00  0.00     0.060 A 
ATOM     37  C   UNL A   1      35.535  29.832  28.883  1.00  0.00     0.016 A 
ATOM     38  C   UNL A   1      36.736  31.880  28.388  1.00  0.00     0.016 A 
ATOM     39  C   UNL A   1      36.668  29.312  29.519  1.00  0.00     0.010 A 
ATOM     40  C   UNL A   1      37.861  31.364  29.037  1.00  0.00     0.010 A 
ATOM     41  C   UNL A   1      37.828  30.088  29.628  1.00  0.00    -0.014 A 
BRANCH  41  42
ATOM     42  C   UNL A   1      38.950  29.673  30.508  1.00  0.00     0.031 A 
ATOM     43  C   UNL A   1      39.064  30.319  31.862  1.00  0.00     0.074 A 
ATOM     44  C   UNL A   1      39.895  28.808  30.099  1.00  0.00     0.049 A 
ATOM     45  N   UNL A   1      40.008  30.208  32.757  1.00  0.00    -0.248 NA
ATOM     46  C   UNL A   1      37.968  31.224  32.245  1.00  0.00     0.031 C 
ATOM     47  C   UNL A   1      39.913  28.119  28.810  1.00  0.00     0.029 A 
ATOM     48  N   UNL A   1      41.052  28.399  30.718  1.00  0.00    -0.354 N 
ATOM     49  C   UNL A   1      39.643  31.057  33.794  1.00  0.00     0.074 A 
ATOM     50  C   UNL A   1      38.394  31.680  33.413  1.00  0.00     0.031 C 
ATOM     51  C   UNL A   1      41.052  27.411  28.714  1.00  0.00     0.029 A 
ATOM     52  C   UNL A   1      41.855  27.617  29.921  1.00  0.00     0.049 A 
ATOM     53  H   UNL A   1      41.284  28.642  31.643  1.00  0.00     0.167 HD
ATOM     54  C   UNL A   1      40.281  31.293  34.965  1.00  0.00     0.034 A 
ATOM     55  C   UNL A   1      43.105  27.151  30.124  1.00  0.00     0.034 A 
ATOM     56  C   UNL A   1      41.515  30.671  35.353  1.00  0.00     0.049 A 
ATOM     57  C   UNL A   1      43.811  27.441  31.427  1.00  0.00     0.074 A 
ATOM     58  C   UNL A   1      42.200  30.796  36.548  1.00  0.00     0.029 A 
ATOM     59  N   UNL A   1      42.266  29.830  34.547  1.00  0.00    -0.354 N 
ATOM     60  N   UNL A   1      43.387  28.128  32.461  1.00  0.00    -0.248 NA
ATOM     61  C   UNL A   1      45.155  26.867  31.606  1.00  0.00     0.031 C 
ATOM     62  C   UNL A   1      43.388  30.064  36.448  1.00  0.00     0.029 A 
ATOM     63  C   UNL A   1      43.421  29.449  35.208  1.00  0.00     0.049 A 
ATOM     64  H   UNL A   1      42.016  29.547  33.638  1.00  0.00     0.167 HD
ATOM     65  C   UNL A   1      44.391  28.037  33.421  1.00  0.00     0.074 A 
ATOM     66  C   UNL A   1      45.441  27.220  32.852  1.00  0.00     0.031 C 
ATOM     67  C   UNL A   1      44.438  28.589  34.660  1.00  0.00     0.034 A 
BRANCH  54  68
ATOM     68  C   UNL A   1      39.644  32.271  35.914  1.00  0.00     0.023 A 
ATOM     69  C   UNL A   1      38.595  31.849  36.758  1.00  0.00     0.012 A 
ATOM     70  C   UNL A   1      40.103  33.599  35.991  1.00  0.00     0.148 A 
ATOM     71  C   UNL A   1      37.986  32.746  37.633  1.00  0.00     0.002 A 
ATOM     72  C   UNL A   1      39.524  34.474  36.901  1.00  0.00     0.091 A 
ATOM     73  F   UNL A   1      41.083  33.987  35.162  1.00  0.00    -0.205 F 
ATOM     74  C   UNL A   1      38.456  34.054  37.712  1.00  0.00     0.022 A 
BRANCH  72  75
ATOM     75  S   UNL A   1      40.115  36.154  37.130  1.00  0.00     0.127 S 
ATOM     76  O   UNL A   1      39.253  36.624  38.213  1.00  0.00    -0.237 OA
ATOM     77  O   UNL A   1      41.512  35.939  37.512  1.00  0.00    -0.237 OA
ATOM     78  O   UNL A   1      39.935  36.821  35.848  1.00  0.00    -0.744 OA
ENDBRANCH  72  75
ENDBRANCH  54  68
BRANCH  55  79
ATOM     79  C   UNL A   1      43.776  26.345  29.063  1.00  0.00     0.023 A 
ATOM     80  C   UNL A   1      43.733  24.939  29.121  1.00  0.00     0.012 A 
ATOM     81  C   UNL A   1      44.438  26.969  27.988  1.00  0.00     0.148 A 
ATOM     82  C   UNL A   1      44.363  24.168  28.142  1.00  0.00     0.002 A 
ATOM     83  C   UNL A   1      45.013  26.197  26.986  1.00  0.00     0.091 A 
ATOM     84  F   UNL A   1      44.481  28.308  27.962  1.00  0.00    -0.205 F 
ATOM     85  C   UNL A   1      44.992  24.796  27.069  1.00  0.00     0.022 A 
BRANCH  83  86
ATOM     86  S   UNL A   1      45.729  26.914  25.503  1.00  0.00     0.127 S 
ATOM     87  O   UNL A   1      44.634  27.746  25.012  1.00  0.00    -0.237 OA
ATOM     88  O   UNL A   1      46.868  27.653  26.051  1.00  0.00    -0.237 OA
ATOM     89  O   UNL A   1      46.095  25.789  24.655  1.00  0.00    -0.744 OA
ENDBRANCH  83  86
ENDBRANCH  55  79
BRANCH  67  90
ATOM     90  C   UNL A   1      45.638  28.303  35.528  1.00  0.00     0.023 A 
ATOM     91  C   UNL A   1      46.736  29.185  35.531  1.00  0.00     0.012 A 
ATOM     92  C   UNL A   1      45.620  27.220  36.432  1.00  0.00     0.148 A 
ATOM     93  C   UNL A   1      47.804  28.984  36.405  1.00  0.00     0.002 A 
ATOM     94  C   UNL A   1      46.664  27.056  37.335  1.00  0.00     0.091 A 
ATOM     95  F   UNL A   1      44.572  26.384  36.405  1.00  0.00    -0.205 F 
ATOM     96  C   UNL A   1      47.762  27.930  37.316  1.00  0.00     0.022 A 
BRANCH  94  97
ATOM     97  S   UNL A   1      46.651  25.791  38.611  1.00  0.00     0.127 S 
ATOM     98  O   UNL A   1      47.862  26.114  39.364  1.00  0.00    -0.237 OA
ATOM     99  O   UNL A   1      45.401  26.075  39.316  1.00  0.00    -0.237 OA
ATOM    100  O   UNL A   1      46.676  24.511  37.913  1.00  0.00    -0.744 OA
ENDBRANCH  94  97
ENDBRANCH  67  90
ENDBRANCH  41  42
ENDBRANCH  34  36
ENDBRANCH  33  34
ENDBRANCH  32  33
ENDBRANCH   1  32
TORSDOF 19
ENDMDL
