MODEL 1
REMARK VINA RESULT:     -11.9      0.000      0.000
REMARK SMILES O=CN[C@@H](CCS[C@@H]1CCO[C@]2(CCOC2)C1)C(=O)OCCOC(=O)c1ccc(-c2c3nc(c(-c4cccc(S(=O)(=O)[O-])c4F)c4ccc([nH]4)c(-c4cccc(S(=O)(=O)[O-])c4F)c4nc(c(-c5cccc(S(=O)(=O)[O-])c5F)c5ccc2[nH]5)C=C4)C=C3)cc1
REMARK SMILES IDX 21 1 20 2 18 3 19 4 4 5 3 6 1 7 2 8 5 10 6 11 7 12 8 13 9 14
REMARK SMILES IDX 17 15 10 16 12 17 11 18 13 19 16 20 14 21 15 22 22 23 23 24
REMARK SMILES IDX 24 25 25 26 26 27 27 28 88 29 28 30 87 31 29 32 30 33 31 34
REMARK SMILES IDX 81 35 32 36 86 37 80 38 82 39 33 40 85 41 79 42 78 43 34 45
REMARK SMILES IDX 66 46 46 47 65 48 47 49 50 50 64 51 83 52 48 53 49 54 63 56
REMARK SMILES IDX 84 57 51 58 35 59 36 60 44 61 37 62 39 63 45 64 38 65 40 66
REMARK SMILES IDX 41 67 42 68 43 69 67 70 68 71 76 72 69 73 71 74 77 75 70 76
REMARK SMILES IDX 72 77 73 78 74 79 75 80 52 81 53 82 61 83 54 84 56 85 62 86
REMARK SMILES IDX 55 87 57 88 58 89 59 90 60 91
REMARK H PARENT 3 9 82 44 50 55
REMARK Flexibility Score: inf
ROOT
ATOM      1  C   UNL A   1      37.314  21.635  25.104  1.00  0.00     0.274 C 
ENDROOT
BRANCH   1   2
ATOM      2  O   UNL A   1      35.711  21.467  25.120  1.00  0.00    -0.461 OA
BRANCH   2   3
ATOM      3  C   UNL A   1      34.623  21.558  25.941  1.00  0.00     0.328 C 
ATOM      4  O   UNL A   1      34.624  21.709  27.140  1.00  0.00    -0.250 OA
BRANCH   3   5
ATOM      5  C   UNL A   1      33.321  21.553  25.065  1.00  0.00     0.192 C 
BRANCH   5   6
ATOM      6  N   UNL A   1      32.660  20.261  24.796  1.00  0.00    -0.345 N 
ATOM      7  O   UNL A   1      32.151  18.085  25.012  1.00  0.00    -0.279 OA
ATOM      8  C   UNL A   1      32.815  19.049  25.377  1.00  0.00     0.337 C 
ATOM      9  H   UNL A   1      31.993  20.286  24.072  1.00  0.00     0.164 HD
ENDBRANCH   5   6
BRANCH   5  10
ATOM     10  C   UNL A   1      32.306  22.443  25.775  1.00  0.00     0.048 C 
BRANCH  10  11
ATOM     11  C   UNL A   1      31.343  23.213  24.838  1.00  0.00     0.072 C 
BRANCH  11  12
ATOM     12  S   UNL A   1      30.740  24.869  25.430  1.00  0.00    -0.158 SA
BRANCH  12  13
ATOM     13  C   UNL A   1      30.565  26.070  23.917  1.00  0.00     0.052 C 
ATOM     14  C   UNL A   1      32.377  26.502  23.388  1.00  0.00     0.043 C 
ATOM     15  C   UNL A   1      29.166  27.411  23.477  1.00  0.00     0.052 C 
ATOM     16  C   UNL A   1      32.751  28.265  22.718  1.00  0.00     0.162 C 
ATOM     17  C   UNL A   1      29.687  29.181  22.777  1.00  0.00     0.095 C 
ATOM     18  O   UNL A   1      31.406  29.358  22.268  1.00  0.00    -0.372 OA
ATOM     19  C   UNL A   1      29.519  30.449  23.701  1.00  0.00     0.066 C 
ATOM     20  C   UNL A   1      28.774  29.798  21.663  1.00  0.00     0.195 C 
ATOM     21  C   UNL A   1      28.113  30.958  23.522  1.00  0.00     0.163 C 
ATOM     22  O   UNL A   1      27.636  30.363  22.324  1.00  0.00    -0.378 OA
ENDBRANCH  12  13
ENDBRANCH  11  12
ENDBRANCH  10  11
ENDBRANCH   5  10
ENDBRANCH   3   5
ENDBRANCH   2   3
ENDBRANCH   1   2
BRANCH   1  23
ATOM     23  C   UNL A   1      38.750  20.085  25.194  1.00  0.00     0.275 C 
BRANCH  23  24
ATOM     24  O   UNL A   1      39.663  19.678  26.380  1.00  0.00    -0.458 OA
BRANCH  24  25
ATOM     25  C   UNL A   1      41.035  19.726  26.361  1.00  0.00     0.338 C 
ATOM     26  O   UNL A   1      41.775  18.860  25.926  1.00  0.00    -0.246 OA
BRANCH  25  27
ATOM     27  C   UNL A   1      41.453  21.136  26.672  1.00  0.00     0.060 A 
ATOM     28  C   UNL A   1      41.571  22.061  25.618  1.00  0.00     0.016 A 
ATOM     29  C   UNL A   1      41.610  21.589  27.983  1.00  0.00     0.016 A 
ATOM     30  C   UNL A   1      41.717  23.429  25.860  1.00  0.00     0.010 A 
ATOM     31  C   UNL A   1      41.826  22.960  28.226  1.00  0.00     0.010 A 
ATOM     32  C   UNL A   1      41.857  23.892  27.169  1.00  0.00    -0.014 A 
BRANCH  32  33
ATOM     33  C   UNL A   1      42.215  25.316  27.406  1.00  0.00     0.031 A 
ATOM     34  C   UNL A   1      43.576  25.788  26.976  1.00  0.00     0.074 A 
ATOM     35  C   UNL A   1      41.355  26.182  27.977  1.00  0.00     0.049 A 
ATOM     36  N   UNL A   1      44.152  26.947  27.161  1.00  0.00    -0.248 NA
ATOM     37  C   UNL A   1      44.395  24.816  26.236  1.00  0.00     0.031 C 
ATOM     38  C   UNL A   1      39.985  25.875  28.387  1.00  0.00     0.029 A 
ATOM     39  N   UNL A   1      41.524  27.501  28.334  1.00  0.00    -0.354 N 
ATOM     40  C   UNL A   1      45.418  26.830  26.598  1.00  0.00     0.074 A 
ATOM     41  C   UNL A   1      45.520  25.493  26.055  1.00  0.00     0.031 C 
ATOM     42  C   UNL A   1      39.453  26.961  28.978  1.00  0.00     0.029 A 
ATOM     43  C   UNL A   1      40.450  28.031  29.015  1.00  0.00     0.049 A 
ATOM     44  H   UNL A   1      42.335  28.017  28.123  1.00  0.00     0.167 HD
ATOM     45  C   UNL A   1      46.409  27.750  26.536  1.00  0.00     0.034 A 
ATOM     46  C   UNL A   1      40.303  29.227  29.620  1.00  0.00     0.034 A 
ATOM     47  C   UNL A   1      46.308  29.083  27.063  1.00  0.00     0.049 A 
ATOM     48  C   UNL A   1      41.435  30.228  29.567  1.00  0.00     0.074 A 
ATOM     49  C   UNL A   1      47.257  30.090  27.047  1.00  0.00     0.029 A 
ATOM     50  N   UNL A   1      45.191  29.595  27.705  1.00  0.00    -0.354 N 
ATOM     51  N   UNL A   1      42.600  30.129  28.972  1.00  0.00    -0.248 NA
ATOM     52  C   UNL A   1      41.222  31.515  30.247  1.00  0.00     0.031 C 
ATOM     53  C   UNL A   1      46.718  31.209  27.693  1.00  0.00     0.029 A 
ATOM     54  C   UNL A   1      45.426  30.904  28.093  1.00  0.00     0.049 A 
ATOM     55  H   UNL A   1      44.355  29.101  27.863  1.00  0.00     0.167 HD
ATOM     56  C   UNL A   1      43.241  31.348  29.175  1.00  0.00     0.074 A 
ATOM     57  C   UNL A   1      42.326  32.178  29.931  1.00  0.00     0.031 C 
ATOM     58  C   UNL A   1      44.481  31.739  28.789  1.00  0.00     0.034 A 
BRANCH  45  59
ATOM     59  C   UNL A   1      47.691  27.335  25.866  1.00  0.00     0.023 A 
ATOM     60  C   UNL A   1      48.708  26.720  26.623  1.00  0.00     0.012 A 
ATOM     61  C   UNL A   1      47.882  27.538  24.485  1.00  0.00     0.148 A 
ATOM     62  C   UNL A   1      49.911  26.347  26.025  1.00  0.00     0.002 A 
ATOM     63  C   UNL A   1      49.067  27.127  23.887  1.00  0.00     0.091 A 
ATOM     64  F   UNL A   1      46.914  28.149  23.787  1.00  0.00    -0.205 F 
ATOM     65  C   UNL A   1      50.086  26.542  24.657  1.00  0.00     0.022 A 
BRANCH  63  66
ATOM     66  S   UNL A   1      49.361  27.274  22.122  1.00  0.00     0.127 S 
ATOM     67  O   UNL A   1      50.814  27.131  22.050  1.00  0.00    -0.237 OA
ATOM     68  O   UNL A   1      48.610  26.137  21.588  1.00  0.00    -0.237 OA
ATOM     69  O   UNL A   1      48.840  28.578  21.736  1.00  0.00    -0.744 OA
ENDBRANCH  63  66
ENDBRANCH  45  59
BRANCH  46  70
ATOM     70  C   UNL A   1      39.028  29.571  30.318  1.00  0.00     0.023 A 
ATOM     71  C   UNL A   1      38.766  29.027  31.592  1.00  0.00     0.012 A 
ATOM     72  C   UNL A   1      38.072  30.425  29.732  1.00  0.00     0.148 A 
ATOM     73  C   UNL A   1      37.568  29.302  32.254  1.00  0.00     0.002 A 
ATOM     74  C   UNL A   1      36.904  30.739  30.420  1.00  0.00     0.091 A 
ATOM     75  F   UNL A   1      38.321  30.911  28.507  1.00  0.00    -0.205 F 
ATOM     76  C   UNL A   1      36.642  30.165  31.674  1.00  0.00     0.022 A 
BRANCH  74  77
ATOM     77  S   UNL A   1      35.707  31.929  29.803  1.00  0.00     0.127 S 
ATOM     78  O   UNL A   1      35.122  31.209  28.675  1.00  0.00    -0.237 OA
ATOM     79  O   UNL A   1      34.821  32.092  30.956  1.00  0.00    -0.237 OA
ATOM     80  O   UNL A   1      36.476  33.119  29.466  1.00  0.00    -0.744 OA
ENDBRANCH  74  77
ENDBRANCH  46  70
BRANCH  58  81
ATOM     81  C   UNL A   1      44.917  33.140  29.138  1.00  0.00     0.023 A 
ATOM     82  C   UNL A   1      45.542  33.391  30.376  1.00  0.00     0.012 A 
ATOM     83  C   UNL A   1      44.776  34.191  28.210  1.00  0.00     0.148 A 
ATOM     84  C   UNL A   1      45.990  34.673  30.697  1.00  0.00     0.002 A 
ATOM     85  C   UNL A   1      45.266  35.456  28.520  1.00  0.00     0.091 A 
ATOM     86  F   UNL A   1      44.160  33.942  27.046  1.00  0.00    -0.205 F 
ATOM     87  C   UNL A   1      45.864  35.701  29.767  1.00  0.00     0.022 A 
BRANCH  85  88
ATOM     88  S   UNL A   1      45.225  36.809  27.338  1.00  0.00     0.127 S 
ATOM     89  O   UNL A   1      45.816  37.900  28.111  1.00  0.00    -0.237 OA
ATOM     90  O   UNL A   1      46.068  36.307  26.252  1.00  0.00    -0.237 OA
ATOM     91  O   UNL A   1      43.823  36.978  26.979  1.00  0.00    -0.744 OA
ENDBRANCH  85  88
ENDBRANCH  58  81
ENDBRANCH  32  33
ENDBRANCH  25  27
ENDBRANCH  24  25
ENDBRANCH  23  24
ENDBRANCH   1  23
TORSDOF 19
ENDMDL
MODEL 2
REMARK VINA RESULT:     -11.7      5.440     11.481
REMARK SMILES O=CN[C@@H](CCS[C@@H]1CCO[C@]2(CCOC2)C1)C(=O)OCCOC(=O)c1ccc(-c2c3nc(c(-c4cccc(S(=O)(=O)[O-])c4F)c4ccc([nH]4)c(-c4cccc(S(=O)(=O)[O-])c4F)c4nc(c(-c5cccc(S(=O)(=O)[O-])c5F)c5ccc2[nH]5)C=C4)C=C3)cc1
REMARK SMILES IDX 21 1 20 2 18 3 19 4 4 5 3 6 1 7 2 8 5 10 6 11 7 12 8 13 9 14
REMARK SMILES IDX 17 15 10 16 12 17 11 18 13 19 16 20 14 21 15 22 22 23 23 24
REMARK SMILES IDX 24 25 25 26 26 27 27 28 88 29 28 30 87 31 29 32 30 33 31 34
REMARK SMILES IDX 81 35 32 36 86 37 80 38 82 39 33 40 85 41 79 42 78 43 34 45
REMARK SMILES IDX 66 46 46 47 65 48 47 49 50 50 64 51 83 52 48 53 49 54 63 56
REMARK SMILES IDX 84 57 51 58 35 59 36 60 44 61 37 62 39 63 45 64 38 65 40 66
REMARK SMILES IDX 41 67 42 68 43 69 67 70 68 71 76 72 69 73 71 74 77 75 70 76
REMARK SMILES IDX 72 77 73 78 74 79 75 80 52 81 53 82 61 83 54 84 56 85 62 86
REMARK SMILES IDX 55 87 57 88 58 89 59 90 60 91
REMARK H PARENT 3 9 82 44 50 55
REMARK Flexibility Score: inf
ROOT
ATOM      1  C   UNL A   1      32.601  30.667  27.039  1.00  0.00     0.274 C 
ENDROOT
BRANCH   1   2
ATOM      2  O   UNL A   1      32.416  29.663  25.791  1.00  0.00    -0.461 OA
BRANCH   2   3
ATOM      3  C   UNL A   1      32.843  28.464  25.297  1.00  0.00     0.328 C 
ATOM      4  O   UNL A   1      33.973  28.035  25.294  1.00  0.00    -0.250 OA
BRANCH   3   5
ATOM      5  C   UNL A   1      31.598  27.639  24.815  1.00  0.00     0.192 C 
BRANCH   5   6
ATOM      6  N   UNL A   1      30.799  28.164  23.691  1.00  0.00    -0.345 N 
ATOM      7  O   UNL A   1      30.317  29.305  21.819  1.00  0.00    -0.279 OA
ATOM      8  C   UNL A   1      31.135  28.991  22.675  1.00  0.00     0.337 C 
ATOM      9  H   UNL A   1      29.862  27.861  23.680  1.00  0.00     0.164 HD
ENDBRANCH   5   6
BRANCH   5  10
ATOM     10  C   UNL A   1      32.111  26.263  24.403  1.00  0.00     0.048 C 
BRANCH  10  11
ATOM     11  C   UNL A   1      31.380  25.626  23.194  1.00  0.00     0.072 C 
BRANCH  11  12
ATOM     12  S   UNL A   1      30.596  23.964  23.468  1.00  0.00    -0.158 SA
BRANCH  12  13
ATOM     13  C   UNL A   1      31.865  22.787  24.344  1.00  0.00     0.052 C 
ATOM     14  C   UNL A   1      31.378  22.806  26.218  1.00  0.00     0.043 C 
ATOM     15  C   UNL A   1      33.763  22.377  23.922  1.00  0.00     0.052 C 
ATOM     16  C   UNL A   1      32.771  22.685  27.538  1.00  0.00     0.162 C 
ATOM     17  C   UNL A   1      35.090  22.264  25.377  1.00  0.00     0.095 C 
ATOM     18  O   UNL A   1      34.430  22.218  27.052  1.00  0.00    -0.372 OA
ATOM     19  C   UNL A   1      36.174  23.403  25.516  1.00  0.00     0.066 C 
ATOM     20  C   UNL A   1      36.189  21.154  25.247  1.00  0.00     0.195 C 
ATOM     21  C   UNL A   1      37.335  23.036  24.630  1.00  0.00     0.163 C 
ATOM     22  O   UNL A   1      37.181  21.654  24.344  1.00  0.00    -0.378 OA
ENDBRANCH  12  13
ENDBRANCH  11  12
ENDBRANCH  10  11
ENDBRANCH   5  10
ENDBRANCH   3   5
ENDBRANCH   2   3
ENDBRANCH   1   2
BRANCH   1  23
ATOM     23  C   UNL A   1      32.364  32.768  27.020  1.00  0.00     0.275 C 
BRANCH  23  24
ATOM     24  O   UNL A   1      32.486  33.768  28.200  1.00  0.00    -0.458 OA
BRANCH  24  25
ATOM     25  C   UNL A   1      33.517  34.659  28.364  1.00  0.00     0.338 C 
ATOM     26  O   UNL A   1      33.438  35.871  28.257  1.00  0.00    -0.246 OA
BRANCH  25  27
ATOM     27  C   UNL A   1      34.666  33.925  28.995  1.00  0.00     0.060 A 
ATOM     28  C   UNL A   1      34.396  32.828  29.834  1.00  0.00     0.016 A 
ATOM     29  C   UNL A   1      35.994  34.219  28.683  1.00  0.00     0.016 A 
ATOM     30  C   UNL A   1      35.409  31.963  30.254  1.00  0.00     0.010 A 
ATOM     31  C   UNL A   1      37.024  33.387  29.162  1.00  0.00     0.010 A 
ATOM     32  C   UNL A   1      36.738  32.240  29.930  1.00  0.00    -0.014 A 
BRANCH  32  33
ATOM     33  C   UNL A   1      37.824  31.434  30.548  1.00  0.00     0.031 A 
ATOM     34  C   UNL A   1      38.175  31.696  31.986  1.00  0.00     0.074 A 
ATOM     35  C   UNL A   1      38.483  30.480  29.862  1.00  0.00     0.049 A 
ATOM     36  N   UNL A   1      39.140  31.198  32.713  1.00  0.00    -0.248 NA
ATOM     37  C   UNL A   1      37.313  32.654  32.699  1.00  0.00     0.031 C 
ATOM     38  C   UNL A   1      38.208  30.080  28.482  1.00  0.00     0.029 A 
ATOM     39  N   UNL A   1      39.546  29.687  30.234  1.00  0.00    -0.354 N 
ATOM     40  C   UNL A   1      39.030  31.812  33.955  1.00  0.00     0.074 A 
ATOM     41  C   UNL A   1      37.897  32.709  33.887  1.00  0.00     0.031 C 
ATOM     42  C   UNL A   1      39.105  29.149  28.110  1.00  0.00     0.029 A 
ATOM     43  C   UNL A   1      40.036  28.905  29.212  1.00  0.00     0.049 A 
ATOM     44  H   UNL A   1      39.920  29.680  31.144  1.00  0.00     0.167 HD
ATOM     45  C   UNL A   1      39.800  31.646  35.057  1.00  0.00     0.034 A 
ATOM     46  C   UNL A   1      41.125  28.110  29.165  1.00  0.00     0.034 A 
ATOM     47  C   UNL A   1      40.918  30.747  35.133  1.00  0.00     0.049 A 
ATOM     48  C   UNL A   1      41.989  27.965  30.397  1.00  0.00     0.074 A 
ATOM     49  C   UNL A   1      41.759  30.507  36.206  1.00  0.00     0.029 A 
ATOM     50  N   UNL A   1      41.355  29.942  34.093  1.00  0.00    -0.354 N 
ATOM     51  N   UNL A   1      41.833  28.498  31.585  1.00  0.00    -0.248 NA
ATOM     52  C   UNL A   1      43.166  27.088  30.288  1.00  0.00     0.031 C 
ATOM     53  C   UNL A   1      42.715  29.565  35.809  1.00  0.00     0.029 A 
ATOM     54  C   UNL A   1      42.456  29.204  34.496  1.00  0.00     0.049 A 
ATOM     55  H   UNL A   1      40.945  29.901  33.200  1.00  0.00     0.167 HD
ATOM     56  C   UNL A   1      42.866  27.995  32.371  1.00  0.00     0.074 A 
ATOM     57  C   UNL A   1      43.631  27.098  31.529  1.00  0.00     0.031 C 
ATOM     58  C   UNL A   1      43.168  28.266  33.665  1.00  0.00     0.034 A 
BRANCH  45  59
ATOM     59  C   UNL A   1      39.445  32.461  36.271  1.00  0.00     0.023 A 
ATOM     60  C   UNL A   1      40.057  33.714  36.475  1.00  0.00     0.012 A 
ATOM     61  C   UNL A   1      38.496  31.995  37.202  1.00  0.00     0.148 A 
ATOM     62  C   UNL A   1      39.757  34.474  37.604  1.00  0.00     0.002 A 
ATOM     63  C   UNL A   1      38.172  32.776  38.304  1.00  0.00     0.091 A 
ATOM     64  F   UNL A   1      37.945  30.788  37.004  1.00  0.00    -0.205 F 
ATOM     65  C   UNL A   1      38.809  34.010  38.513  1.00  0.00     0.022 A 
BRANCH  63  66
ATOM     66  S   UNL A   1      36.916  32.296  39.493  1.00  0.00     0.127 S 
ATOM     67  O   UNL A   1      37.103  33.296  40.544  1.00  0.00    -0.237 OA
ATOM     68  O   UNL A   1      35.682  32.449  38.721  1.00  0.00    -0.237 OA
ATOM     69  O   UNL A   1      37.225  30.924  39.872  1.00  0.00    -0.744 OA
ENDBRANCH  63  66
ENDBRANCH  45  59
BRANCH  46  70
ATOM     70  C   UNL A   1      41.462  27.362  27.917  1.00  0.00     0.023 A 
ATOM     71  C   UNL A   1      41.923  28.069  26.788  1.00  0.00     0.012 A 
ATOM     72  C   UNL A   1      41.327  25.961  27.835  1.00  0.00     0.148 A 
ATOM     73  C   UNL A   1      42.213  27.402  25.596  1.00  0.00     0.002 A 
ATOM     74  C   UNL A   1      41.670  25.296  26.662  1.00  0.00     0.091 A 
ATOM     75  F   UNL A   1      40.860  25.305  28.907  1.00  0.00    -0.205 F 
ATOM     76  C   UNL A   1      42.098  26.016  25.536  1.00  0.00     0.022 A 
BRANCH  74  77
ATOM     77  S   UNL A   1      41.662  23.504  26.528  1.00  0.00     0.127 S 
ATOM     78  O   UNL A   1      42.390  23.293  25.280  1.00  0.00    -0.237 OA
ATOM     79  O   UNL A   1      42.385  23.107  27.737  1.00  0.00    -0.237 OA
ATOM     80  O   UNL A   1      40.258  23.118  26.516  1.00  0.00    -0.744 OA
ENDBRANCH  74  77
ENDBRANCH  46  70
BRANCH  58  81
ATOM     81  C   UNL A   1      44.352  27.558  34.275  1.00  0.00     0.023 A 
ATOM     82  C   UNL A   1      45.636  28.129  34.176  1.00  0.00     0.012 A 
ATOM     83  C   UNL A   1      44.181  26.367  35.009  1.00  0.00     0.148 A 
ATOM     84  C   UNL A   1      46.736  27.509  34.771  1.00  0.00     0.002 A 
ATOM     85  C   UNL A   1      45.274  25.780  35.636  1.00  0.00     0.091 A 
ATOM     86  F   UNL A   1      42.956  25.825  35.076  1.00  0.00    -0.205 F 
ATOM     87  C   UNL A   1      46.554  26.343  35.510  1.00  0.00     0.022 A 
BRANCH  85  88
ATOM     88  S   UNL A   1      45.105  24.329  36.684  1.00  0.00     0.127 S 
ATOM     89  O   UNL A   1      44.160  24.799  37.696  1.00  0.00    -0.237 OA
ATOM     90  O   UNL A   1      44.562  23.333  35.761  1.00  0.00    -0.237 OA
ATOM     91  O   UNL A   1      46.448  24.031  37.165  1.00  0.00    -0.744 OA
ENDBRANCH  85  88
ENDBRANCH  58  81
ENDBRANCH  32  33
ENDBRANCH  25  27
ENDBRANCH  24  25
ENDBRANCH  23  24
ENDBRANCH   1  23
TORSDOF 19
ENDMDL
MODEL 3
REMARK VINA RESULT:     -11.6      6.039      9.809
REMARK SMILES O=CN[C@@H](CCS[C@@H]1CCO[C@]2(CCOC2)C1)C(=O)OCCOC(=O)c1ccc(-c2c3nc(c(-c4cccc(S(=O)(=O)[O-])c4F)c4ccc([nH]4)c(-c4cccc(S(=O)(=O)[O-])c4F)c4nc(c(-c5cccc(S(=O)(=O)[O-])c5F)c5ccc2[nH]5)C=C4)C=C3)cc1
REMARK SMILES IDX 21 1 20 2 18 3 19 4 4 5 3 6 1 7 2 8 5 10 6 11 7 12 8 13 9 14
REMARK SMILES IDX 17 15 10 16 12 17 11 18 13 19 16 20 14 21 15 22 22 23 23 24
REMARK SMILES IDX 24 25 25 26 26 27 27 28 88 29 28 30 87 31 29 32 30 33 31 34
REMARK SMILES IDX 81 35 32 36 86 37 80 38 82 39 33 40 85 41 79 42 78 43 34 45
REMARK SMILES IDX 66 46 46 47 65 48 47 49 50 50 64 51 83 52 48 53 49 54 63 56
REMARK SMILES IDX 84 57 51 58 35 59 36 60 44 61 37 62 39 63 45 64 38 65 40 66
REMARK SMILES IDX 41 67 42 68 43 69 67 70 68 71 76 72 69 73 71 74 77 75 70 76
REMARK SMILES IDX 72 77 73 78 74 79 75 80 52 81 53 82 61 83 54 84 56 85 62 86
REMARK SMILES IDX 55 87 57 88 58 89 59 90 60 91
REMARK H PARENT 3 9 82 44 50 55
REMARK Flexibility Score: inf
ROOT
ATOM      1  C   UNL A   1      32.906  30.170  27.147  1.00  0.00     0.274 C 
ENDROOT
BRANCH   1   2
ATOM      2  O   UNL A   1      32.183  29.720  25.779  1.00  0.00    -0.461 OA
BRANCH   2   3
ATOM      3  C   UNL A   1      32.445  29.291  24.509  1.00  0.00     0.328 C 
ATOM      4  O   UNL A   1      33.528  29.189  23.981  1.00  0.00    -0.250 OA
BRANCH   3   5
ATOM      5  C   UNL A   1      31.104  28.823  23.842  1.00  0.00     0.192 C 
BRANCH   5   6
ATOM      6  N   UNL A   1      30.630  29.538  22.641  1.00  0.00    -0.345 N 
ATOM      7  O   UNL A   1      29.192  30.350  21.120  1.00  0.00    -0.279 OA
ATOM      8  C   UNL A   1      29.383  29.700  22.141  1.00  0.00     0.337 C 
ATOM      9  H   UNL A   1      31.342  29.971  22.115  1.00  0.00     0.164 HD
ENDBRANCH   5   6
BRANCH   5  10
ATOM     10  C   UNL A   1      31.289  27.359  23.454  1.00  0.00     0.048 C 
BRANCH  10  11
ATOM     11  C   UNL A   1      30.230  26.389  24.035  1.00  0.00     0.072 C 
BRANCH  11  12
ATOM     12  S   UNL A   1      30.293  26.077  25.866  1.00  0.00    -0.158 SA
BRANCH  12  13
ATOM     13  C   UNL A   1      31.564  24.659  26.236  1.00  0.00     0.052 C 
ATOM     14  C   UNL A   1      33.312  25.466  26.030  1.00  0.00     0.043 C 
ATOM     15  C   UNL A   1      31.448  22.698  25.935  1.00  0.00     0.052 C 
ATOM     16  C   UNL A   1      34.745  24.401  25.315  1.00  0.00     0.162 C 
ATOM     17  C   UNL A   1      33.002  21.722  25.212  1.00  0.00     0.095 C 
ATOM     18  O   UNL A   1      34.560  22.626  25.174  1.00  0.00    -0.372 OA
ATOM     19  C   UNL A   1      32.942  21.172  23.734  1.00  0.00     0.066 C 
ATOM     20  C   UNL A   1      33.274  20.292  25.796  1.00  0.00     0.195 C 
ATOM     21  C   UNL A   1      32.298  19.811  23.782  1.00  0.00     0.163 C 
ATOM     22  O   UNL A   1      32.370  19.397  25.138  1.00  0.00    -0.378 OA
ENDBRANCH  12  13
ENDBRANCH  11  12
ENDBRANCH  10  11
ENDBRANCH   5  10
ENDBRANCH   3   5
ENDBRANCH   2   3
ENDBRANCH   1   2
BRANCH   1  23
ATOM     23  C   UNL A   1      33.610  32.104  27.631  1.00  0.00     0.275 C 
BRANCH  23  24
ATOM     24  O   UNL A   1      32.795  33.406  27.850  1.00  0.00    -0.458 OA
BRANCH  24  25
ATOM     25  C   UNL A   1      33.216  34.472  28.606  1.00  0.00     0.338 C 
ATOM     26  O   UNL A   1      32.577  35.486  28.830  1.00  0.00    -0.246 OA
BRANCH  25  27
ATOM     27  C   UNL A   1      34.449  34.050  29.355  1.00  0.00     0.060 A 
ATOM     28  C   UNL A   1      34.314  33.183  30.455  1.00  0.00     0.016 A 
ATOM     29  C   UNL A   1      35.731  34.392  28.923  1.00  0.00     0.016 A 
ATOM     30  C   UNL A   1      35.424  32.566  31.038  1.00  0.00     0.010 A 
ATOM     31  C   UNL A   1      36.854  33.824  29.555  1.00  0.00     0.010 A 
ATOM     32  C   UNL A   1      36.709  32.889  30.601  1.00  0.00    -0.014 A 
BRANCH  32  33
ATOM     33  C   UNL A   1      37.887  32.388  31.357  1.00  0.00     0.031 A 
ATOM     34  C   UNL A   1      38.706  31.284  30.747  1.00  0.00     0.074 A 
ATOM     35  C   UNL A   1      38.239  32.901  32.551  1.00  0.00     0.049 A 
ATOM     36  N   UNL A   1      39.711  30.617  31.250  1.00  0.00    -0.248 NA
ATOM     37  C   UNL A   1      38.334  30.880  29.381  1.00  0.00     0.031 C 
ATOM     38  C   UNL A   1      37.573  34.012  33.230  1.00  0.00     0.029 A 
ATOM     39  N   UNL A   1      39.242  32.532  33.420  1.00  0.00    -0.354 N 
ATOM     40  C   UNL A   1      40.066  29.686  30.281  1.00  0.00     0.074 A 
ATOM     41  C   UNL A   1      39.177  29.883  29.157  1.00  0.00     0.031 C 
ATOM     42  C   UNL A   1      38.157  34.205  34.428  1.00  0.00     0.029 A 
ATOM     43  C   UNL A   1      39.218  33.216  34.615  1.00  0.00     0.049 A 
ATOM     44  H   UNL A   1      39.912  31.842  33.208  1.00  0.00     0.167 HD
ATOM     45  C   UNL A   1      41.045  28.750  30.318  1.00  0.00     0.034 A 
ATOM     46  C   UNL A   1      39.949  33.045  35.735  1.00  0.00     0.034 A 
ATOM     47  C   UNL A   1      41.938  28.560  31.428  1.00  0.00     0.049 A 
ATOM     48  C   UNL A   1      41.014  31.972  35.767  1.00  0.00     0.074 A 
ATOM     49  C   UNL A   1      42.963  27.640  31.560  1.00  0.00     0.029 A 
ATOM     50  N   UNL A   1      41.911  29.301  32.599  1.00  0.00    -0.354 N 
ATOM     51  N   UNL A   1      41.386  31.145  34.819  1.00  0.00    -0.248 NA
ATOM     52  C   UNL A   1      41.778  31.826  37.016  1.00  0.00     0.031 C 
ATOM     53  C   UNL A   1      43.548  27.816  32.819  1.00  0.00     0.029 A 
ATOM     54  C   UNL A   1      42.900  28.859  33.462  1.00  0.00     0.049 A 
ATOM     55  H   UNL A   1      41.281  30.033  32.789  1.00  0.00     0.167 HD
ATOM     56  C   UNL A   1      42.444  30.409  35.342  1.00  0.00     0.074 A 
ATOM     57  C   UNL A   1      42.670  30.902  36.685  1.00  0.00     0.031 C 
ATOM     58  C   UNL A   1      43.153  29.403  34.772  1.00  0.00     0.034 A 
BRANCH  45  59
ATOM     59  C   UNL A   1      41.194  27.865  29.111  1.00  0.00     0.023 A 
ATOM     60  C   UNL A   1      40.359  26.739  28.964  1.00  0.00     0.012 A 
ATOM     61  C   UNL A   1      42.148  28.154  28.117  1.00  0.00     0.148 A 
ATOM     62  C   UNL A   1      40.496  25.893  27.864  1.00  0.00     0.002 A 
ATOM     63  C   UNL A   1      42.251  27.331  27.002  1.00  0.00     0.091 A 
ATOM     64  F   UNL A   1      42.950  29.214  28.288  1.00  0.00    -0.205 F 
ATOM     65  C   UNL A   1      41.434  26.194  26.880  1.00  0.00     0.022 A 
BRANCH  63  66
ATOM     66  S   UNL A   1      43.382  27.672  25.650  1.00  0.00     0.127 S 
ATOM     67  O   UNL A   1      44.005  28.918  26.091  1.00  0.00    -0.237 OA
ATOM     68  O   UNL A   1      44.264  26.505  25.682  1.00  0.00    -0.237 OA
ATOM     69  O   UNL A   1      42.557  27.773  24.454  1.00  0.00    -0.744 OA
ENDBRANCH  63  66
ENDBRANCH  45  59
BRANCH  46  70
ATOM     70  C   UNL A   1      39.726  33.918  36.926  1.00  0.00     0.023 A 
ATOM     71  C   UNL A   1      40.154  35.260  36.891  1.00  0.00     0.012 A 
ATOM     72  C   UNL A   1      39.100  33.432  38.092  1.00  0.00     0.148 A 
ATOM     73  C   UNL A   1      39.991  36.092  38.001  1.00  0.00     0.002 A 
ATOM     74  C   UNL A   1      38.890  34.281  39.175  1.00  0.00     0.091 A 
ATOM     75  F   UNL A   1      38.724  32.145  38.121  1.00  0.00    -0.205 F 
ATOM     76  C   UNL A   1      39.350  35.606  39.137  1.00  0.00     0.022 A 
BRANCH  74  77
ATOM     77  S   UNL A   1      37.973  33.777  40.635  1.00  0.00     0.127 S 
ATOM     78  O   UNL A   1      37.795  35.049  41.331  1.00  0.00    -0.237 OA
ATOM     79  O   UNL A   1      36.754  33.219  40.050  1.00  0.00    -0.237 OA
ATOM     80  O   UNL A   1      38.816  32.799  41.310  1.00  0.00    -0.744 OA
ENDBRANCH  74  77
ENDBRANCH  46  70
BRANCH  58  81
ATOM     81  C   UNL A   1      44.271  28.787  35.575  1.00  0.00     0.023 A 
ATOM     82  C   UNL A   1      45.571  29.323  35.492  1.00  0.00     0.012 A 
ATOM     83  C   UNL A   1      44.018  27.726  36.468  1.00  0.00     0.148 A 
ATOM     84  C   UNL A   1      46.608  28.793  36.260  1.00  0.00     0.002 A 
ATOM     85  C   UNL A   1      45.048  27.233  37.263  1.00  0.00     0.091 A 
ATOM     86  F   UNL A   1      42.781  27.212  36.520  1.00  0.00    -0.205 F 
ATOM     87  C   UNL A   1      46.345  27.758  37.153  1.00  0.00     0.022 A 
BRANCH  85  88
ATOM     88  S   UNL A   1      44.767  25.964  38.505  1.00  0.00     0.127 S 
ATOM     89  O   UNL A   1      43.860  26.644  39.428  1.00  0.00    -0.237 OA
ATOM     90  O   UNL A   1      44.150  24.890  37.727  1.00  0.00    -0.237 OA
ATOM     91  O   UNL A   1      46.083  25.637  39.039  1.00  0.00    -0.744 OA
ENDBRANCH  85  88
ENDBRANCH  58  81
ENDBRANCH  32  33
ENDBRANCH  25  27
ENDBRANCH  24  25
ENDBRANCH  23  24
ENDBRANCH   1  23
TORSDOF 19
ENDMDL
