MODEL 1
REMARK VINA RESULT:      -9.8      0.000      0.000
REMARK SMILES O=C(CCNC(=O)c1ccccc1OC(F)F)OCCOC(=O)c1ccc(-c2c3nc(c(-c4cccc(S(=O)(=O)[O-])c4F)c4ccc([nH]4)c(-c4cccc(S(=O)(=O)[O-])c4F)c4nc(c(-c5cccc(S(=O)(=O)[O-])c5F)c5ccc2[nH]5)C=C4)C=C3)cc1
REMARK SMILES IDX 19 1 18 2 2 3 1 4 3 5 4 6 5 7 6 8 7 10 8 11 9 12 13 13 10 14
REMARK SMILES IDX 12 15 11 16 14 17 15 18 16 19 17 20 20 21 21 22 22 23 23 24
REMARK SMILES IDX 24 25 25 26 86 27 26 28 85 29 27 30 28 31 29 32 79 33 30 34
REMARK SMILES IDX 84 35 78 36 80 37 31 38 83 39 77 40 76 41 32 43 64 44 44 45
REMARK SMILES IDX 63 46 45 47 48 48 62 49 81 50 46 51 47 52 61 54 82 55 49 56
REMARK SMILES IDX 33 57 34 58 42 59 35 60 37 61 43 62 36 63 38 64 39 65 40 66
REMARK SMILES IDX 41 67 65 68 66 69 74 70 67 71 69 72 75 73 68 74 70 75 71 76
REMARK SMILES IDX 72 77 73 78 50 79 51 80 59 81 52 82 54 83 60 84 53 85 55 86
REMARK SMILES IDX 56 87 57 88 58 89
REMARK H PARENT 5 9 80 42 48 53
REMARK Flexibility Score: inf
ROOT
ATOM      1  C   UNL A   1      42.315  19.969  26.448  1.00  0.00     0.274 C 
ENDROOT
BRANCH   1   2
ATOM      2  O   UNL A   1      42.837  19.834  25.110  1.00  0.00    -0.462 OA
BRANCH   2   3
ATOM      3  C   UNL A   1      43.965  19.113  24.884  1.00  0.00     0.307 C 
ATOM      4  O   UNL A   1      44.126  18.011  25.401  1.00  0.00    -0.252 OA
BRANCH   3   5
ATOM      5  C   UNL A   1      45.043  19.774  24.065  1.00  0.00     0.144 C 
BRANCH   5   6
ATOM      6  C   UNL A   1      45.452  21.131  24.602  1.00  0.00     0.128 C 
BRANCH   6   7
ATOM      7  N   UNL A   1      44.454  22.153  24.319  1.00  0.00    -0.351 N 
ATOM      8  C   UNL A   1      44.197  23.344  24.943  1.00  0.00     0.255 C 
ATOM      9  H   UNL A   1      43.869  21.956  23.552  1.00  0.00     0.163 HD
ATOM     10  O   UNL A   1      43.133  23.919  24.713  1.00  0.00    -0.269 OA
BRANCH   8  11
ATOM     11  C   UNL A   1      45.155  23.931  25.906  1.00  0.00     0.082 A 
ATOM     12  C   UNL A   1      46.145  24.774  25.374  1.00  0.00     0.018 A 
ATOM     13  C   UNL A   1      45.147  23.655  27.281  1.00  0.00     0.138 A 
ATOM     14  C   UNL A   1      47.071  25.394  26.213  1.00  0.00     0.001 A 
ATOM     15  C   UNL A   1      46.053  24.315  28.120  1.00  0.00     0.047 A 
ATOM     16  C   UNL A   1      47.013  25.176  27.587  1.00  0.00     0.004 A 
BRANCH  13  17
ATOM     17  O   UNL A   1      44.242  22.851  27.914  1.00  0.00    -0.434 OA
BRANCH  17  18
ATOM     18  C   UNL A   1      43.566  23.433  29.029  1.00  0.00     0.542 C 
ATOM     19  F   UNL A   1      42.241  23.168  28.905  1.00  0.00    -0.167 F 
ATOM     20  F   UNL A   1      43.976  22.914  30.210  1.00  0.00    -0.167 F 
ENDBRANCH  17  18
ENDBRANCH  13  17
ENDBRANCH   8  11
ENDBRANCH   6   7
ENDBRANCH   5   6
ENDBRANCH   3   5
ENDBRANCH   2   3
ENDBRANCH   1   2
BRANCH   1  21
ATOM     21  C   UNL A   1      40.876  20.488  26.465  1.00  0.00     0.275 C 
BRANCH  21  22
ATOM     22  O   UNL A   1      40.840  21.889  26.146  1.00  0.00    -0.458 OA
BRANCH  22  23
ATOM     23  C   UNL A   1      39.613  22.461  26.212  1.00  0.00     0.338 C 
ATOM     24  O   UNL A   1      38.544  21.908  26.010  1.00  0.00    -0.246 OA
BRANCH  23  25
ATOM     25  C   UNL A   1      39.729  23.834  26.757  1.00  0.00     0.060 A 
ATOM     26  C   UNL A   1      40.205  24.834  25.896  1.00  0.00     0.016 A 
ATOM     27  C   UNL A   1      39.360  24.158  28.068  1.00  0.00     0.016 A 
ATOM     28  C   UNL A   1      40.358  26.141  26.355  1.00  0.00     0.010 A 
ATOM     29  C   UNL A   1      39.520  25.470  28.530  1.00  0.00     0.010 A 
ATOM     30  C   UNL A   1      40.054  26.459  27.686  1.00  0.00    -0.014 A 
BRANCH  30  31
ATOM     31  C   UNL A   1      40.482  27.767  28.237  1.00  0.00     0.031 A 
ATOM     32  C   UNL A   1      41.956  28.071  28.289  1.00  0.00     0.074 A 
ATOM     33  C   UNL A   1      39.593  28.678  28.671  1.00  0.00     0.049 A 
ATOM     34  N   UNL A   1      42.561  29.170  28.657  1.00  0.00    -0.248 NA
ATOM     35  C   UNL A   1      42.865  26.993  27.868  1.00  0.00     0.031 C 
ATOM     36  C   UNL A   1      38.142  28.503  28.698  1.00  0.00     0.029 A 
ATOM     37  N   UNL A   1      39.791  29.934  29.192  1.00  0.00    -0.354 N 
ATOM     38  C   UNL A   1      43.919  28.918  28.506  1.00  0.00     0.074 A 
ATOM     39  C   UNL A   1      44.052  27.552  28.050  1.00  0.00     0.031 C 
ATOM     40  C   UNL A   1      37.582  29.604  29.235  1.00  0.00     0.029 A 
ATOM     41  C   UNL A   1      38.632  30.558  29.587  1.00  0.00     0.049 A 
ATOM     42  H   UNL A   1      40.681  30.347  29.276  1.00  0.00     0.167 HD
ATOM     43  C   UNL A   1      44.966  29.756  28.696  1.00  0.00     0.034 A 
ATOM     44  C   UNL A   1      38.445  31.763  30.165  1.00  0.00     0.034 A 
ATOM     45  C   UNL A   1      44.845  31.112  29.152  1.00  0.00     0.049 A 
ATOM     46  C   UNL A   1      39.632  32.667  30.398  1.00  0.00     0.074 A 
ATOM     47  C   UNL A   1      45.848  32.044  29.352  1.00  0.00     0.029 A 
ATOM     48  N   UNL A   1      43.652  31.726  29.494  1.00  0.00    -0.354 N 
ATOM     49  N   UNL A   1      40.893  32.474  30.097  1.00  0.00    -0.248 NA
ATOM     50  C   UNL A   1      39.361  33.976  31.013  1.00  0.00     0.031 C 
ATOM     51  C   UNL A   1      45.260  33.222  29.828  1.00  0.00     0.029 A 
ATOM     52  C   UNL A   1      43.891  33.024  29.911  1.00  0.00     0.049 A 
ATOM     53  H   UNL A   1      42.765  31.302  29.448  1.00  0.00     0.167 HD
ATOM     54  C   UNL A   1      41.555  33.647  30.443  1.00  0.00     0.074 A 
ATOM     55  C   UNL A   1      40.553  34.555  30.961  1.00  0.00     0.031 C 
ATOM     56  C   UNL A   1      42.876  33.943  30.358  1.00  0.00     0.034 A 
BRANCH  43  57
ATOM     57  C   UNL A   1      46.332  29.234  28.353  1.00  0.00     0.023 A 
ATOM     58  C   UNL A   1      46.844  29.456  27.057  1.00  0.00     0.012 A 
ATOM     59  C   UNL A   1      47.122  28.562  29.304  1.00  0.00     0.148 A 
ATOM     60  C   UNL A   1      48.110  28.993  26.705  1.00  0.00     0.002 A 
ATOM     61  C   UNL A   1      48.397  28.135  28.957  1.00  0.00     0.091 A 
ATOM     62  F   UNL A   1      46.603  28.335  30.520  1.00  0.00    -0.205 F 
ATOM     63  C   UNL A   1      48.889  28.342  27.657  1.00  0.00     0.022 A 
BRANCH  61  64
ATOM     64  S   UNL A   1      49.500  27.339  30.129  1.00  0.00     0.127 S 
ATOM     65  O   UNL A   1      50.652  27.027  29.285  1.00  0.00    -0.237 OA
ATOM     66  O   UNL A   1      49.732  28.403  31.108  1.00  0.00    -0.237 OA
ATOM     67  O   UNL A   1      48.772  26.190  30.646  1.00  0.00    -0.744 OA
ENDBRANCH  61  64
ENDBRANCH  43  57
BRANCH  44  68
ATOM     68  C   UNL A   1      37.070  32.223  30.514  1.00  0.00     0.023 A 
ATOM     69  C   UNL A   1      36.583  32.024  31.820  1.00  0.00     0.012 A 
ATOM     70  C   UNL A   1      36.241  32.842  29.560  1.00  0.00     0.148 A 
ATOM     71  C   UNL A   1      35.281  32.395  32.159  1.00  0.00     0.002 A 
ATOM     72  C   UNL A   1      34.963  33.258  29.918  1.00  0.00     0.091 A 
ATOM     73  F   UNL A   1      36.712  33.003  28.315  1.00  0.00    -0.205 F 
ATOM     74  C   UNL A   1      34.474  33.019  31.211  1.00  0.00     0.022 A 
BRANCH  72  75
ATOM     75  S   UNL A   1      33.912  34.180  28.790  1.00  0.00     0.127 S 
ATOM     76  O   UNL A   1      33.514  33.147  27.837  1.00  0.00    -0.237 OA
ATOM     77  O   UNL A   1      32.843  34.645  29.676  1.00  0.00    -0.237 OA
ATOM     78  O   UNL A   1      34.751  35.248  28.264  1.00  0.00    -0.744 OA
ENDBRANCH  72  75
ENDBRANCH  44  68
BRANCH  56  79
ATOM     79  C   UNL A   1      43.325  35.313  30.798  1.00  0.00     0.023 A 
ATOM     80  C   UNL A   1      43.700  35.526  32.139  1.00  0.00     0.012 A 
ATOM     81  C   UNL A   1      43.460  36.363  29.868  1.00  0.00     0.148 A 
ATOM     82  C   UNL A   1      44.174  36.771  32.554  1.00  0.00     0.002 A 
ATOM     83  C   UNL A   1      43.975  37.587  30.278  1.00  0.00     0.091 A 
ATOM     84  F   UNL A   1      43.080  36.148  28.599  1.00  0.00    -0.205 F 
ATOM     85  C   UNL A   1      44.324  37.797  31.623  1.00  0.00     0.022 A 
BRANCH  83  86
ATOM     86  S   UNL A   1      44.290  38.929  29.126  1.00  0.00     0.127 S 
ATOM     87  O   UNL A   1      45.392  39.631  29.778  1.00  0.00    -0.237 OA
ATOM     88  O   UNL A   1      44.660  38.214  27.903  1.00  0.00    -0.237 OA
ATOM     89  O   UNL A   1      43.039  39.670  29.031  1.00  0.00    -0.744 OA
ENDBRANCH  83  86
ENDBRANCH  56  79
ENDBRANCH  30  31
ENDBRANCH  23  25
ENDBRANCH  22  23
ENDBRANCH  21  22
ENDBRANCH   1  21
TORSDOF 19
ENDMDL
MODEL 2
REMARK VINA RESULT:      -9.5      3.866      6.640
REMARK SMILES O=C(CCNC(=O)c1ccccc1OC(F)F)OCCOC(=O)c1ccc(-c2c3nc(c(-c4cccc(S(=O)(=O)[O-])c4F)c4ccc([nH]4)c(-c4cccc(S(=O)(=O)[O-])c4F)c4nc(c(-c5cccc(S(=O)(=O)[O-])c5F)c5ccc2[nH]5)C=C4)C=C3)cc1
REMARK SMILES IDX 19 1 18 2 2 3 1 4 3 5 4 6 5 7 6 8 7 10 8 11 9 12 13 13 10 14
REMARK SMILES IDX 12 15 11 16 14 17 15 18 16 19 17 20 20 21 21 22 22 23 23 24
REMARK SMILES IDX 24 25 25 26 86 27 26 28 85 29 27 30 28 31 29 32 79 33 30 34
REMARK SMILES IDX 84 35 78 36 80 37 31 38 83 39 77 40 76 41 32 43 64 44 44 45
REMARK SMILES IDX 63 46 45 47 48 48 62 49 81 50 46 51 47 52 61 54 82 55 49 56
REMARK SMILES IDX 33 57 34 58 42 59 35 60 37 61 43 62 36 63 38 64 39 65 40 66
REMARK SMILES IDX 41 67 65 68 66 69 74 70 67 71 69 72 75 73 68 74 70 75 71 76
REMARK SMILES IDX 72 77 73 78 50 79 51 80 59 81 52 82 54 83 60 84 53 85 55 86
REMARK SMILES IDX 56 87 57 88 58 89
REMARK H PARENT 5 9 80 42 48 53
REMARK Flexibility Score: inf
ROOT
ATOM      1  C   UNL A   1      35.545  20.511  25.001  1.00  0.00     0.274 C 
ENDROOT
BRANCH   1   2
ATOM      2  O   UNL A   1      35.147  21.722  25.678  1.00  0.00    -0.462 OA
BRANCH   2   3
ATOM      3  C   UNL A   1      34.205  22.534  25.133  1.00  0.00     0.307 C 
ATOM      4  O   UNL A   1      33.097  22.103  24.829  1.00  0.00    -0.252 OA
BRANCH   3   5
ATOM      5  C   UNL A   1      34.623  23.949  24.823  1.00  0.00     0.144 C 
BRANCH   5   6
ATOM      6  C   UNL A   1      33.955  24.976  25.715  1.00  0.00     0.128 C 
BRANCH   6   7
ATOM      7  N   UNL A   1      32.524  24.737  25.845  1.00  0.00    -0.351 N 
ATOM      8  C   UNL A   1      31.498  25.602  26.114  1.00  0.00     0.255 C 
ATOM      9  H   UNL A   1      32.250  23.800  25.719  1.00  0.00     0.163 HD
ATOM     10  O   UNL A   1      30.407  25.145  26.454  1.00  0.00    -0.269 OA
BRANCH   8  11
ATOM     11  C   UNL A   1      31.686  27.068  26.033  1.00  0.00     0.082 A 
ATOM     12  C   UNL A   1      31.611  27.779  27.242  1.00  0.00     0.018 A 
ATOM     13  C   UNL A   1      31.886  27.764  24.832  1.00  0.00     0.138 A 
ATOM     14  C   UNL A   1      31.807  29.160  27.263  1.00  0.00     0.001 A 
ATOM     15  C   UNL A   1      32.124  29.142  24.868  1.00  0.00     0.047 A 
ATOM     16  C   UNL A   1      32.080  29.838  26.078  1.00  0.00     0.004 A 
BRANCH  13  17
ATOM     17  O   UNL A   1      31.973  27.187  23.597  1.00  0.00    -0.434 OA
BRANCH  17  18
ATOM     18  C   UNL A   1      30.935  27.524  22.677  1.00  0.00     0.542 C 
ATOM     19  F   UNL A   1      31.005  26.667  21.628  1.00  0.00    -0.167 F 
ATOM     20  F   UNL A   1      29.702  27.400  23.222  1.00  0.00    -0.167 F 
ENDBRANCH  17  18
ENDBRANCH  13  17
ENDBRANCH   8  11
ENDBRANCH   6   7
ENDBRANCH   5   6
ENDBRANCH   3   5
ENDBRANCH   2   3
ENDBRANCH   1   2
BRANCH   1  21
ATOM     21  C   UNL A   1      37.063  20.324  24.980  1.00  0.00     0.275 C 
BRANCH  21  22
ATOM     22  O   UNL A   1      37.724  21.502  25.472  1.00  0.00    -0.458 OA
BRANCH  22  23
ATOM     23  C   UNL A   1      38.954  21.291  26.002  1.00  0.00     0.338 C 
ATOM     24  O   UNL A   1      39.640  20.291  25.863  1.00  0.00    -0.246 OA
BRANCH  23  25
ATOM     25  C   UNL A   1      39.447  22.537  26.635  1.00  0.00     0.060 A 
ATOM     26  C   UNL A   1      38.782  23.730  26.318  1.00  0.00     0.016 A 
ATOM     27  C   UNL A   1      40.514  22.551  27.539  1.00  0.00     0.016 A 
ATOM     28  C   UNL A   1      39.211  24.939  26.863  1.00  0.00     0.010 A 
ATOM     29  C   UNL A   1      40.949  23.766  28.082  1.00  0.00     0.010 A 
ATOM     30  C   UNL A   1      40.322  24.970  27.717  1.00  0.00    -0.014 A 
BRANCH  30  31
ATOM     31  C   UNL A   1      40.938  26.273  28.062  1.00  0.00     0.031 A 
ATOM     32  C   UNL A   1      42.347  26.540  27.605  1.00  0.00     0.074 A 
ATOM     33  C   UNL A   1      40.267  27.213  28.753  1.00  0.00     0.049 A 
ATOM     34  N   UNL A   1      43.064  27.627  27.722  1.00  0.00    -0.248 NA
ATOM     35  C   UNL A   1      43.038  25.432  26.924  1.00  0.00     0.031 C 
ATOM     36  C   UNL A   1      38.909  27.077  29.273  1.00  0.00     0.029 A 
ATOM     37  N   UNL A   1      40.656  28.470  29.148  1.00  0.00    -0.354 N 
ATOM     38  C   UNL A   1      44.285  27.338  27.125  1.00  0.00     0.074 A 
ATOM     39  C   UNL A   1      44.227  25.963  26.681  1.00  0.00     0.031 C 
ATOM     40  C   UNL A   1      38.586  28.199  29.945  1.00  0.00     0.029 A 
ATOM     41  C   UNL A   1      39.713  29.130  29.899  1.00  0.00     0.049 A 
ATOM     42  H   UNL A   1      41.529  28.861  28.916  1.00  0.00     0.167 HD
ATOM     43  C   UNL A   1      45.350  28.150  26.932  1.00  0.00     0.034 A 
ATOM     44  C   UNL A   1      39.757  30.347  30.480  1.00  0.00     0.034 A 
ATOM     45  C   UNL A   1      45.419  29.515  27.372  1.00  0.00     0.049 A 
ATOM     46  C   UNL A   1      40.970  31.222  30.278  1.00  0.00     0.074 A 
ATOM     47  C   UNL A   1      46.448  30.423  27.200  1.00  0.00     0.029 A 
ATOM     48  N   UNL A   1      44.425  30.164  28.085  1.00  0.00    -0.354 N 
ATOM     49  N   UNL A   1      42.050  30.992  29.571  1.00  0.00    -0.248 NA
ATOM     50  C   UNL A   1      40.950  32.547  30.920  1.00  0.00     0.031 C 
ATOM     51  C   UNL A   1      46.080  31.622  27.822  1.00  0.00     0.029 A 
ATOM     52  C   UNL A   1      44.817  31.461  28.368  1.00  0.00     0.049 A 
ATOM     53  H   UNL A   1      43.567  29.763  28.351  1.00  0.00     0.167 HD
ATOM     54  C   UNL A   1      42.814  32.153  29.648  1.00  0.00     0.074 A 
ATOM     55  C   UNL A   1      42.066  33.093  30.454  1.00  0.00     0.031 C 
ATOM     56  C   UNL A   1      44.033  32.412  29.113  1.00  0.00     0.034 A 
BRANCH  43  57
ATOM     57  C   UNL A   1      46.508  27.588  26.156  1.00  0.00     0.023 A 
ATOM     58  C   UNL A   1      46.543  27.759  24.757  1.00  0.00     0.012 A 
ATOM     59  C   UNL A   1      47.571  26.928  26.800  1.00  0.00     0.148 A 
ATOM     60  C   UNL A   1      47.604  27.258  24.007  1.00  0.00     0.002 A 
ATOM     61  C   UNL A   1      48.643  26.462  26.050  1.00  0.00     0.091 A 
ATOM     62  F   UNL A   1      47.502  26.749  28.128  1.00  0.00    -0.205 F 
ATOM     63  C   UNL A   1      48.657  26.619  24.654  1.00  0.00     0.022 A 
BRANCH  61  64
ATOM     64  S   UNL A   1      50.075  25.678  26.797  1.00  0.00     0.127 S 
ATOM     65  O   UNL A   1      50.494  26.690  27.766  1.00  0.00    -0.237 OA
ATOM     66  O   UNL A   1      49.495  24.471  27.388  1.00  0.00    -0.237 OA
ATOM     67  O   UNL A   1      51.008  25.429  25.707  1.00  0.00    -0.744 OA
ENDBRANCH  61  64
ENDBRANCH  43  57
BRANCH  44  68
ATOM     68  C   UNL A   1      38.592  30.847  31.265  1.00  0.00     0.023 A 
ATOM     69  C   UNL A   1      38.591  30.716  32.667  1.00  0.00     0.012 A 
ATOM     70  C   UNL A   1      37.482  31.437  30.631  1.00  0.00     0.148 A 
ATOM     71  C   UNL A   1      37.491  31.125  33.420  1.00  0.00     0.002 A 
ATOM     72  C   UNL A   1      36.410  31.893  31.392  1.00  0.00     0.091 A 
ATOM     73  F   UNL A   1      37.488  31.535  29.294  1.00  0.00    -0.205 F 
ATOM     74  C   UNL A   1      36.404  31.721  32.785  1.00  0.00     0.022 A 
BRANCH  72  75
ATOM     75  S   UNL A   1      35.032  32.783  30.660  1.00  0.00     0.127 S 
ATOM     76  O   UNL A   1      34.739  31.967  29.484  1.00  0.00    -0.237 OA
ATOM     77  O   UNL A   1      34.026  32.720  31.721  1.00  0.00    -0.237 OA
ATOM     78  O   UNL A   1      35.534  34.125  30.399  1.00  0.00    -0.744 OA
ENDBRANCH  72  75
ENDBRANCH  44  68
BRANCH  56  79
ATOM     79  C   UNL A   1      44.632  33.776  29.345  1.00  0.00     0.023 A 
ATOM     80  C   UNL A   1      45.270  34.057  30.570  1.00  0.00     0.012 A 
ATOM     81  C   UNL A   1      44.641  34.745  28.323  1.00  0.00     0.148 A 
ATOM     82  C   UNL A   1      45.882  35.293  30.783  1.00  0.00     0.002 A 
ATOM     83  C   UNL A   1      45.292  35.957  28.526  1.00  0.00     0.091 A 
ATOM     84  F   UNL A   1      44.012  34.468  27.171  1.00  0.00    -0.205 F 
ATOM     85  C   UNL A   1      45.905  36.237  29.758  1.00  0.00     0.022 A 
BRANCH  83  86
ATOM     86  S   UNL A   1      45.449  37.189  27.227  1.00  0.00     0.127 S 
ATOM     87  O   UNL A   1      45.987  36.395  26.125  1.00  0.00    -0.237 OA
ATOM     88  O   UNL A   1      44.066  37.631  27.043  1.00  0.00    -0.237 OA
ATOM     89  O   UNL A   1      46.340  38.212  27.760  1.00  0.00    -0.744 OA
ENDBRANCH  83  86
ENDBRANCH  56  79
ENDBRANCH  30  31
ENDBRANCH  23  25
ENDBRANCH  22  23
ENDBRANCH  21  22
ENDBRANCH   1  21
TORSDOF 19
ENDMDL
MODEL 3
REMARK VINA RESULT:      -9.5      3.753      6.533
REMARK SMILES O=C(CCNC(=O)c1ccccc1OC(F)F)OCCOC(=O)c1ccc(-c2c3nc(c(-c4cccc(S(=O)(=O)[O-])c4F)c4ccc([nH]4)c(-c4cccc(S(=O)(=O)[O-])c4F)c4nc(c(-c5cccc(S(=O)(=O)[O-])c5F)c5ccc2[nH]5)C=C4)C=C3)cc1
REMARK SMILES IDX 19 1 18 2 2 3 1 4 3 5 4 6 5 7 6 8 7 10 8 11 9 12 13 13 10 14
REMARK SMILES IDX 12 15 11 16 14 17 15 18 16 19 17 20 20 21 21 22 22 23 23 24
REMARK SMILES IDX 24 25 25 26 86 27 26 28 85 29 27 30 28 31 29 32 79 33 30 34
REMARK SMILES IDX 84 35 78 36 80 37 31 38 83 39 77 40 76 41 32 43 64 44 44 45
REMARK SMILES IDX 63 46 45 47 48 48 62 49 81 50 46 51 47 52 61 54 82 55 49 56
REMARK SMILES IDX 33 57 34 58 42 59 35 60 37 61 43 62 36 63 38 64 39 65 40 66
REMARK SMILES IDX 41 67 65 68 66 69 74 70 67 71 69 72 75 73 68 74 70 75 71 76
REMARK SMILES IDX 72 77 73 78 50 79 51 80 59 81 52 82 54 83 60 84 53 85 55 86
REMARK SMILES IDX 56 87 57 88 58 89
REMARK H PARENT 5 9 80 42 48 53
REMARK Flexibility Score: inf
ROOT
ATOM      1  C   UNL A   1      35.746  21.784  25.689  1.00  0.00     0.274 C 
ENDROOT
BRANCH   1   2
ATOM      2  O   UNL A   1      35.799  23.072  25.041  1.00  0.00    -0.462 OA
BRANCH   2   3
ATOM      3  C   UNL A   1      35.222  23.253  23.826  1.00  0.00     0.307 C 
ATOM      4  O   UNL A   1      35.899  23.283  22.802  1.00  0.00    -0.252 OA
BRANCH   3   5
ATOM      5  C   UNL A   1      33.740  23.522  23.809  1.00  0.00     0.144 C 
BRANCH   5   6
ATOM      6  C   UNL A   1      33.384  24.925  24.257  1.00  0.00     0.128 C 
BRANCH   6   7
ATOM      7  N   UNL A   1      32.503  24.920  25.418  1.00  0.00    -0.351 N 
ATOM      8  C   UNL A   1      31.597  25.850  25.852  1.00  0.00     0.255 C 
ATOM      9  H   UNL A   1      32.570  24.116  25.982  1.00  0.00     0.163 HD
ATOM     10  O   UNL A   1      31.165  25.769  27.001  1.00  0.00    -0.269 OA
BRANCH   8  11
ATOM     11  C   UNL A   1      31.155  26.960  24.979  1.00  0.00     0.082 A 
ATOM     12  C   UNL A   1      30.264  26.630  23.945  1.00  0.00     0.018 A 
ATOM     13  C   UNL A   1      31.609  28.281  25.106  1.00  0.00     0.138 A 
ATOM     14  C   UNL A   1      29.772  27.620  23.093  1.00  0.00     0.001 A 
ATOM     15  C   UNL A   1      31.078  29.273  24.275  1.00  0.00     0.047 A 
ATOM     16  C   UNL A   1      30.168  28.943  23.269  1.00  0.00     0.004 A 
BRANCH  13  17
ATOM     17  O   UNL A   1      32.476  28.723  26.065  1.00  0.00    -0.434 OA
BRANCH  17  18
ATOM     18  C   UNL A   1      33.860  28.685  25.719  1.00  0.00     0.542 C 
ATOM     19  F   UNL A   1      34.503  27.915  26.633  1.00  0.00    -0.167 F 
ATOM     20  F   UNL A   1      34.074  28.134  24.501  1.00  0.00    -0.167 F 
ENDBRANCH  17  18
ENDBRANCH  13  17
ENDBRANCH   8  11
ENDBRANCH   6   7
ENDBRANCH   5   6
ENDBRANCH   3   5
ENDBRANCH   2   3
ENDBRANCH   1   2
BRANCH   1  21
ATOM     21  C   UNL A   1      36.833  20.832  25.188  1.00  0.00     0.275 C 
BRANCH  21  22
ATOM     22  O   UNL A   1      38.067  21.539  24.979  1.00  0.00    -0.458 OA
BRANCH  22  23
ATOM     23  C   UNL A   1      39.057  21.238  25.855  1.00  0.00     0.338 C 
ATOM     24  O   UNL A   1      39.594  20.151  25.996  1.00  0.00    -0.246 OA
BRANCH  23  25
ATOM     25  C   UNL A   1      39.543  22.477  26.506  1.00  0.00     0.060 A 
ATOM     26  C   UNL A   1      38.912  23.680  26.159  1.00  0.00     0.016 A 
ATOM     27  C   UNL A   1      40.571  22.476  27.456  1.00  0.00     0.016 A 
ATOM     28  C   UNL A   1      39.337  24.883  26.720  1.00  0.00     0.010 A 
ATOM     29  C   UNL A   1      41.001  23.685  28.014  1.00  0.00     0.010 A 
ATOM     30  C   UNL A   1      40.411  24.898  27.621  1.00  0.00    -0.014 A 
BRANCH  30  31
ATOM     31  C   UNL A   1      41.033  26.192  27.990  1.00  0.00     0.031 A 
ATOM     32  C   UNL A   1      42.458  26.443  27.575  1.00  0.00     0.074 A 
ATOM     33  C   UNL A   1      40.354  27.137  28.666  1.00  0.00     0.049 A 
ATOM     34  N   UNL A   1      43.184  27.520  27.718  1.00  0.00    -0.248 NA
ATOM     35  C   UNL A   1      43.154  25.330  26.908  1.00  0.00     0.031 C 
ATOM     36  C   UNL A   1      38.980  27.015  29.147  1.00  0.00     0.029 A 
ATOM     37  N   UNL A   1      40.747  28.387  29.079  1.00  0.00    -0.354 N 
ATOM     38  C   UNL A   1      44.418  27.219  27.155  1.00  0.00     0.074 A 
ATOM     39  C   UNL A   1      44.356  25.846  26.702  1.00  0.00     0.031 C 
ATOM     40  C   UNL A   1      38.652  28.138  29.814  1.00  0.00     0.029 A 
ATOM     41  C   UNL A   1      39.791  29.055  29.805  1.00  0.00     0.049 A 
ATOM     42  H   UNL A   1      41.631  28.768  28.874  1.00  0.00     0.167 HD
ATOM     43  C   UNL A   1      45.499  28.018  26.996  1.00  0.00     0.034 A 
ATOM     44  C   UNL A   1      39.834  30.269  30.393  1.00  0.00     0.034 A 
ATOM     45  C   UNL A   1      45.571  29.381  27.445  1.00  0.00     0.049 A 
ATOM     46  C   UNL A   1      41.062  31.130  30.230  1.00  0.00     0.074 A 
ATOM     47  C   UNL A   1      46.616  30.276  27.307  1.00  0.00     0.029 A 
ATOM     48  N   UNL A   1      44.566  30.039  28.132  1.00  0.00    -0.354 N 
ATOM     49  N   UNL A   1      42.160  30.889  29.554  1.00  0.00    -0.248 NA
ATOM     50  C   UNL A   1      41.041  32.451  30.878  1.00  0.00     0.031 C 
ATOM     51  C   UNL A   1      46.246  31.477  27.924  1.00  0.00     0.029 A 
ATOM     52  C   UNL A   1      44.966  31.329  28.433  1.00  0.00     0.049 A 
ATOM     53  H   UNL A   1      43.695  29.647  28.372  1.00  0.00     0.167 HD
ATOM     54  C   UNL A   1      42.935  32.040  29.658  1.00  0.00     0.074 A 
ATOM     55  C   UNL A   1      42.176  32.986  30.448  1.00  0.00     0.031 C 
ATOM     56  C   UNL A   1      44.173  32.286  29.160  1.00  0.00     0.034 A 
BRANCH  43  57
ATOM     57  C   UNL A   1      46.671  27.445  26.251  1.00  0.00     0.023 A 
ATOM     58  C   UNL A   1      46.724  27.582  24.848  1.00  0.00     0.012 A 
ATOM     59  C   UNL A   1      47.729  26.810  26.926  1.00  0.00     0.148 A 
ATOM     60  C   UNL A   1      47.799  27.070  24.126  1.00  0.00     0.002 A 
ATOM     61  C   UNL A   1      48.815  26.333  26.203  1.00  0.00     0.091 A 
ATOM     62  F   UNL A   1      47.643  26.664  28.257  1.00  0.00    -0.205 F 
ATOM     63  C   UNL A   1      48.848  26.455  24.803  1.00  0.00     0.022 A 
BRANCH  61  64
ATOM     64  S   UNL A   1      50.242  25.579  26.989  1.00  0.00     0.127 S 
ATOM     65  O   UNL A   1      50.631  26.611  27.948  1.00  0.00    -0.237 OA
ATOM     66  O   UNL A   1      49.665  24.375  27.590  1.00  0.00    -0.237 OA
ATOM     67  O   UNL A   1      51.198  25.323  25.921  1.00  0.00    -0.744 OA
ENDBRANCH  61  64
ENDBRANCH  43  57
BRANCH  44  68
ATOM     68  C   UNL A   1      38.653  30.780  31.147  1.00  0.00     0.023 A 
ATOM     69  C   UNL A   1      38.566  30.559  32.535  1.00  0.00     0.012 A 
ATOM     70  C   UNL A   1      37.612  31.469  30.497  1.00  0.00     0.148 A 
ATOM     71  C   UNL A   1      37.447  30.978  33.255  1.00  0.00     0.002 A 
ATOM     72  C   UNL A   1      36.523  31.932  31.229  1.00  0.00     0.091 A 
ATOM     73  F   UNL A   1      37.699  31.652  29.171  1.00  0.00    -0.205 F 
ATOM     74  C   UNL A   1      36.430  31.672  32.604  1.00  0.00     0.022 A 
BRANCH  72  75
ATOM     75  S   UNL A   1      35.236  32.941  30.485  1.00  0.00     0.127 S 
ATOM     76  O   UNL A   1      36.014  33.996  29.842  1.00  0.00    -0.237 OA
ATOM     77  O   UNL A   1      34.598  31.997  29.566  1.00  0.00    -0.237 OA
ATOM     78  O   UNL A   1      34.384  33.357  31.591  1.00  0.00    -0.744 OA
ENDBRANCH  72  75
ENDBRANCH  44  68
BRANCH  56  79
ATOM     79  C   UNL A   1      44.782  33.642  29.416  1.00  0.00     0.023 A 
ATOM     80  C   UNL A   1      45.572  33.844  30.564  1.00  0.00     0.012 A 
ATOM     81  C   UNL A   1      44.645  34.685  28.478  1.00  0.00     0.148 A 
ATOM     82  C   UNL A   1      46.193  35.073  30.790  1.00  0.00     0.002 A 
ATOM     83  C   UNL A   1      45.303  35.892  28.687  1.00  0.00     0.091 A 
ATOM     84  F   UNL A   1      43.872  34.481  27.401  1.00  0.00    -0.205 F 
ATOM     85  C   UNL A   1      46.070  36.091  29.847  1.00  0.00     0.022 A 
BRANCH  83  86
ATOM     86  S   UNL A   1      45.274  37.220  27.478  1.00  0.00     0.127 S 
ATOM     87  O   UNL A   1      45.887  38.317  28.224  1.00  0.00    -0.237 OA
ATOM     88  O   UNL A   1      46.100  36.680  26.397  1.00  0.00    -0.237 OA
ATOM     89  O   UNL A   1      43.871  37.403  27.127  1.00  0.00    -0.744 OA
ENDBRANCH  83  86
ENDBRANCH  56  79
ENDBRANCH  30  31
ENDBRANCH  23  25
ENDBRANCH  22  23
ENDBRANCH  21  22
ENDBRANCH   1  21
TORSDOF 19
ENDMDL
