MODEL 1
REMARK VINA RESULT:     -12.4      0.000      0.000
REMARK SMILES CC(C)Cc1cc2c(cc1Cl)C=C(C(=O)OCCOC(=O)c1ccc(-c3c4nc(c(-c5cccc(S(=O)(=O)[O-])c5F)c5ccc([nH]5)c(-c5cccc(S(=O)(=O)[O-])c5F)c5nc(c(-c6cccc(S(=O)(=O)[O-])c6F)c6ccc3[nH]6)C=C5)C=C4)cc1)[C@H](C(F)(F)F)O2
REMARK SMILES IDX 18 1 17 2 16 3 14 4 15 5 13 6 5 7 6 8 10 9 7 10 9 11 11 12
REMARK SMILES IDX 8 13 90 14 12 15 85 16 4 17 2 18 1 19 3 20 86 21 87 22 88 23
REMARK SMILES IDX 89 24 19 25 20 26 21 27 22 28 23 29 84 30 24 31 83 32 25 33
REMARK SMILES IDX 26 34 27 35 77 36 28 37 82 38 76 39 78 40 29 41 81 42 75 43
REMARK SMILES IDX 74 44 30 46 62 47 42 48 61 49 43 50 46 51 60 52 79 53 44 54
REMARK SMILES IDX 45 55 59 57 80 58 47 59 31 60 32 61 40 62 33 63 35 64 41 65
REMARK SMILES IDX 34 66 36 67 37 68 38 69 39 70 63 71 64 72 72 73 65 74 67 75
REMARK SMILES IDX 73 76 66 77 68 78 69 79 70 80 71 81 48 82 49 83 57 84 50 85
REMARK SMILES IDX 52 86 58 87 51 88 53 89 54 90 55 91 56 92
REMARK H PARENT 78 45 46 56
REMARK Flexibility Score: inf
ROOT
ATOM      1  C   UNL A   1      36.437  20.404  25.047  1.00  0.00     0.275 C 
ENDROOT
BRANCH   1   2
ATOM      2  C   UNL A   1      34.997  20.897  25.192  1.00  0.00     0.275 C 
BRANCH   2   3
ATOM      3  O   UNL A   1      34.968  22.316  25.467  1.00  0.00    -0.459 OA
BRANCH   3   4
ATOM      4  C   UNL A   1      34.212  22.677  26.528  1.00  0.00     0.338 C 
ATOM      5  O   UNL A   1      34.296  22.204  27.651  1.00  0.00    -0.246 OA
BRANCH   4   6
ATOM      6  C   UNL A   1      33.318  23.807  26.200  1.00  0.00     0.087 C 
ATOM      7  C   UNL A   1      31.743  28.349  24.590  1.00  0.00    -0.025 A 
ATOM      8  C   UNL A   1      31.192  27.329  25.418  1.00  0.00     0.052 A 
ATOM      9  C   UNL A   1      33.004  28.103  24.023  1.00  0.00     0.045 A 
ATOM     10  C   UNL A   1      31.870  26.134  25.680  1.00  0.00     0.128 A 
ATOM     11  C   UNL A   1      33.666  26.895  24.270  1.00  0.00     0.032 A 
ATOM     12  Cl  UNL A   1      33.912  29.209  23.062  1.00  0.00    -0.084 Cl
ATOM     13  C   UNL A   1      33.118  25.935  25.118  1.00  0.00     0.019 A 
ATOM     14  O   UNL A   1      31.284  25.240  26.531  1.00  0.00    -0.475 OA
ATOM     15  C   UNL A   1      33.892  24.771  25.473  1.00  0.00     0.027 C 
ATOM     16  C   UNL A   1      31.916  23.934  26.741  1.00  0.00     0.316 C 
BRANCH   7  17
ATOM     17  C   UNL A   1      30.919  29.628  24.510  1.00  0.00     0.040 C 
BRANCH  17  18
ATOM     18  C   UNL A   1      29.723  29.793  23.554  1.00  0.00    -0.013 C 
ATOM     19  C   UNL A   1      29.054  31.164  23.686  1.00  0.00     0.008 C 
ATOM     20  C   UNL A   1      30.172  29.593  22.100  1.00  0.00     0.008 C 
ENDBRANCH  17  18
ENDBRANCH   7  17
BRANCH  16  21
ATOM     21  C   UNL A   1      30.932  22.815  26.342  1.00  0.00     0.430 C 
ATOM     22  F   UNL A   1      30.267  23.106  25.196  1.00  0.00    -0.167 F 
ATOM     23  F   UNL A   1      31.525  21.617  26.159  1.00  0.00    -0.167 F 
ATOM     24  F   UNL A   1      29.980  22.661  27.299  1.00  0.00    -0.167 F 
ENDBRANCH  16  21
ENDBRANCH   4   6
ENDBRANCH   3   4
ENDBRANCH   2   3
ENDBRANCH   1   2
BRANCH   1  25
ATOM     25  O   UNL A   1      37.356  21.499  25.232  1.00  0.00    -0.458 OA
BRANCH  25  26
ATOM     26  C   UNL A   1      38.551  21.182  25.781  1.00  0.00     0.338 C 
ATOM     27  O   UNL A   1      39.086  20.082  25.804  1.00  0.00    -0.246 OA
BRANCH  26  28
ATOM     28  C   UNL A   1      39.158  22.381  26.382  1.00  0.00     0.060 A 
ATOM     29  C   UNL A   1      40.322  22.281  27.137  1.00  0.00     0.016 A 
ATOM     30  C   UNL A   1      38.625  23.633  26.092  1.00  0.00     0.016 A 
ATOM     31  C   UNL A   1      40.929  23.446  27.621  1.00  0.00     0.010 A 
ATOM     32  C   UNL A   1      39.296  24.796  26.475  1.00  0.00     0.010 A 
ATOM     33  C   UNL A   1      40.446  24.724  27.271  1.00  0.00    -0.014 A 
BRANCH  33  34
ATOM     34  C   UNL A   1      41.147  25.966  27.725  1.00  0.00     0.031 A 
ATOM     35  C   UNL A   1      42.573  26.262  27.315  1.00  0.00     0.074 A 
ATOM     36  C   UNL A   1      40.516  26.827  28.551  1.00  0.00     0.049 A 
ATOM     37  N   UNL A   1      43.310  27.307  27.603  1.00  0.00    -0.248 NA
ATOM     38  C   UNL A   1      43.278  25.249  26.514  1.00  0.00     0.031 C 
ATOM     39  C   UNL A   1      39.191  26.618  29.141  1.00  0.00     0.029 A 
ATOM     40  N   UNL A   1      40.899  28.056  29.035  1.00  0.00    -0.354 N 
ATOM     41  C   UNL A   1      44.569  27.049  27.071  1.00  0.00     0.074 A 
ATOM     42  C   UNL A   1      44.511  25.736  26.473  1.00  0.00     0.031 C 
ATOM     43  C   UNL A   1      38.844  27.706  29.847  1.00  0.00     0.029 A 
ATOM     44  C   UNL A   1      39.928  28.681  29.785  1.00  0.00     0.049 A 
ATOM     45  H   UNL A   1      41.783  28.451  28.862  1.00  0.00     0.167 HD
ATOM     46  C   UNL A   1      45.663  27.849  27.031  1.00  0.00     0.034 A 
ATOM     47  C   UNL A   1      39.895  29.911  30.336  1.00  0.00     0.034 A 
ATOM     48  C   UNL A   1      45.695  29.200  27.517  1.00  0.00     0.049 A 
ATOM     49  C   UNL A   1      41.063  30.839  30.156  1.00  0.00     0.074 A 
ATOM     50  C   UNL A   1      46.717  30.127  27.407  1.00  0.00     0.029 A 
ATOM     51  N   UNL A   1      44.653  29.828  28.178  1.00  0.00    -0.354 N 
ATOM     52  N   UNL A   1      42.188  30.624  29.521  1.00  0.00    -0.248 NA
ATOM     53  C   UNL A   1      40.949  32.184  30.739  1.00  0.00     0.031 C 
ATOM     54  C   UNL A   1      46.287  31.322  27.991  1.00  0.00     0.029 A 
ATOM     55  C   UNL A   1      44.999  31.135  28.467  1.00  0.00     0.049 A 
ATOM     56  H   UNL A   1      43.793  29.405  28.409  1.00  0.00     0.167 HD
ATOM     57  C   UNL A   1      42.911  31.807  29.614  1.00  0.00     0.074 A 
ATOM     58  C   UNL A   1      42.088  32.745  30.350  1.00  0.00     0.031 C 
ATOM     59  C   UNL A   1      44.154  32.079  29.151  1.00  0.00     0.034 A 
BRANCH  46  60
ATOM     60  C   UNL A   1      46.891  27.327  26.332  1.00  0.00     0.023 A 
ATOM     61  C   UNL A   1      47.054  27.590  24.957  1.00  0.00     0.012 A 
ATOM     62  C   UNL A   1      47.912  26.659  27.036  1.00  0.00     0.148 A 
ATOM     63  C   UNL A   1      48.200  27.172  24.284  1.00  0.00     0.002 A 
ATOM     64  C   UNL A   1      49.069  26.275  26.364  1.00  0.00     0.091 A 
ATOM     65  F   UNL A   1      47.736  26.414  28.342  1.00  0.00    -0.205 F 
ATOM     66  C   UNL A   1      49.210  26.523  24.988  1.00  0.00     0.022 A 
BRANCH  64  67
ATOM     67  S   UNL A   1      50.461  25.487  27.184  1.00  0.00     0.127 S 
ATOM     68  O   UNL A   1      49.849  24.258  27.688  1.00  0.00    -0.237 OA
ATOM     69  O   UNL A   1      51.398  25.292  26.077  1.00  0.00    -0.237 OA
ATOM     70  O   UNL A   1      50.910  26.421  28.206  1.00  0.00    -0.744 OA
ENDBRANCH  64  67
ENDBRANCH  46  60
BRANCH  47  71
ATOM     71  C   UNL A   1      38.643  30.371  31.001  1.00  0.00     0.023 A 
ATOM     72  C   UNL A   1      38.519  30.209  32.395  1.00  0.00     0.012 A 
ATOM     73  C   UNL A   1      37.630  31.040  30.290  1.00  0.00     0.148 A 
ATOM     74  C   UNL A   1      37.403  30.703  33.071  1.00  0.00     0.002 A 
ATOM     75  C   UNL A   1      36.539  31.564  30.975  1.00  0.00     0.091 A 
ATOM     76  F   UNL A   1      37.774  31.178  28.965  1.00  0.00    -0.205 F 
ATOM     77  C   UNL A   1      36.420  31.390  32.364  1.00  0.00     0.022 A 
BRANCH  75  78
ATOM     78  S   UNL A   1      35.273  32.555  30.175  1.00  0.00     0.127 S 
ATOM     79  O   UNL A   1      34.827  31.664  29.106  1.00  0.00    -0.237 OA
ATOM     80  O   UNL A   1      34.311  32.743  31.262  1.00  0.00    -0.237 OA
ATOM     81  O   UNL A   1      35.939  33.773  29.736  1.00  0.00    -0.744 OA
ENDBRANCH  75  78
ENDBRANCH  47  71
BRANCH  59  82
ATOM     82  C   UNL A   1      44.728  33.443  29.407  1.00  0.00     0.023 A 
ATOM     83  C   UNL A   1      45.469  33.663  30.584  1.00  0.00     0.012 A 
ATOM     84  C   UNL A   1      44.659  34.452  28.428  1.00  0.00     0.148 A 
ATOM     85  C   UNL A   1      46.135  34.871  30.785  1.00  0.00     0.002 A 
ATOM     86  C   UNL A   1      45.350  35.643  28.620  1.00  0.00     0.091 A 
ATOM     87  F   UNL A   1      43.940  34.219  27.320  1.00  0.00    -0.205 F 
ATOM     88  C   UNL A   1      46.085  35.854  29.799  1.00  0.00     0.022 A 
BRANCH  86  89
ATOM     89  S   UNL A   1      45.413  36.940  27.378  1.00  0.00     0.127 S 
ATOM     90  O   UNL A   1      45.991  36.231  26.237  1.00  0.00    -0.237 OA
ATOM     91  O   UNL A   1      44.001  37.292  27.226  1.00  0.00    -0.237 OA
ATOM     92  O   UNL A   1      46.247  37.995  27.938  1.00  0.00    -0.744 OA
ENDBRANCH  86  89
ENDBRANCH  59  82
ENDBRANCH  33  34
ENDBRANCH  26  28
ENDBRANCH  25  26
ENDBRANCH   1  25
TORSDOF 17
ENDMDL
MODEL 2
REMARK VINA RESULT:     -12.2      1.590      1.952
REMARK SMILES CC(C)Cc1cc2c(cc1Cl)C=C(C(=O)OCCOC(=O)c1ccc(-c3c4nc(c(-c5cccc(S(=O)(=O)[O-])c5F)c5ccc([nH]5)c(-c5cccc(S(=O)(=O)[O-])c5F)c5nc(c(-c6cccc(S(=O)(=O)[O-])c6F)c6ccc3[nH]6)C=C5)C=C4)cc1)[C@H](C(F)(F)F)O2
REMARK SMILES IDX 18 1 17 2 16 3 14 4 15 5 13 6 5 7 6 8 10 9 7 10 9 11 11 12
REMARK SMILES IDX 8 13 90 14 12 15 85 16 4 17 2 18 1 19 3 20 86 21 87 22 88 23
REMARK SMILES IDX 89 24 19 25 20 26 21 27 22 28 23 29 84 30 24 31 83 32 25 33
REMARK SMILES IDX 26 34 27 35 77 36 28 37 82 38 76 39 78 40 29 41 81 42 75 43
REMARK SMILES IDX 74 44 30 46 62 47 42 48 61 49 43 50 46 51 60 52 79 53 44 54
REMARK SMILES IDX 45 55 59 57 80 58 47 59 31 60 32 61 40 62 33 63 35 64 41 65
REMARK SMILES IDX 34 66 36 67 37 68 38 69 39 70 63 71 64 72 72 73 65 74 67 75
REMARK SMILES IDX 73 76 66 77 68 78 69 79 70 80 71 81 48 82 49 83 57 84 50 85
REMARK SMILES IDX 52 86 58 87 51 88 53 89 54 90 55 91 56 92
REMARK H PARENT 78 45 46 56
REMARK Flexibility Score: inf
ROOT
ATOM      1  C   UNL A   1      37.384  20.456  25.069  1.00  0.00     0.275 C 
ENDROOT
BRANCH   1   2
ATOM      2  C   UNL A   1      35.897  20.807  25.023  1.00  0.00     0.275 C 
BRANCH   2   3
ATOM      3  O   UNL A   1      35.604  21.909  25.912  1.00  0.00    -0.459 OA
BRANCH   3   4
ATOM      4  C   UNL A   1      34.336  21.946  26.379  1.00  0.00     0.338 C 
ATOM      5  O   UNL A   1      33.895  21.257  27.287  1.00  0.00    -0.246 OA
BRANCH   4   6
ATOM      6  C   UNL A   1      33.545  23.007  25.723  1.00  0.00     0.087 C 
ATOM      7  C   UNL A   1      31.642  27.582  24.648  1.00  0.00    -0.025 A 
ATOM      8  C   UNL A   1      31.263  26.241  24.354  1.00  0.00     0.052 A 
ATOM      9  C   UNL A   1      32.827  27.768  25.379  1.00  0.00     0.045 A 
ATOM     10  C   UNL A   1      32.016  25.142  24.780  1.00  0.00     0.128 A 
ATOM     11  C   UNL A   1      33.588  26.665  25.782  1.00  0.00     0.032 A 
ATOM     12  Cl  UNL A   1      33.447  29.279  25.929  1.00  0.00    -0.084 Cl
ATOM     13  C   UNL A   1      33.168  25.365  25.514  1.00  0.00     0.019 A 
ATOM     14  O   UNL A   1      31.542  23.893  24.496  1.00  0.00    -0.475 OA
ATOM     15  C   UNL A   1      33.893  24.250  26.074  1.00  0.00     0.027 C 
ATOM     16  C   UNL A   1      32.361  22.724  24.834  1.00  0.00     0.316 C 
BRANCH   7  17
ATOM     17  C   UNL A   1      30.643  28.644  24.207  1.00  0.00     0.040 C 
BRANCH  17  18
ATOM     18  C   UNL A   1      29.847  28.548  22.892  1.00  0.00    -0.013 C 
ATOM     19  C   UNL A   1      28.335  28.493  23.128  1.00  0.00     0.008 C 
ATOM     20  C   UNL A   1      30.169  29.743  21.985  1.00  0.00     0.008 C 
ENDBRANCH  17  18
ENDBRANCH   7  17
BRANCH  16  21
ATOM     21  C   UNL A   1      32.653  21.914  23.555  1.00  0.00     0.430 C 
ATOM     22  F   UNL A   1      32.863  20.600  23.819  1.00  0.00    -0.167 F 
ATOM     23  F   UNL A   1      31.663  21.978  22.640  1.00  0.00    -0.167 F 
ATOM     24  F   UNL A   1      33.790  22.364  22.961  1.00  0.00    -0.167 F 
ENDBRANCH  16  21
ENDBRANCH   4   6
ENDBRANCH   3   4
ENDBRANCH   2   3
ENDBRANCH   1   2
BRANCH   1  25
ATOM     25  O   UNL A   1      38.159  21.627  25.393  1.00  0.00    -0.458 OA
BRANCH  25  26
ATOM     26  C   UNL A   1      39.275  21.413  26.126  1.00  0.00     0.338 C 
ATOM     27  O   UNL A   1      39.843  20.346  26.315  1.00  0.00    -0.246 OA
BRANCH  26  28
ATOM     28  C   UNL A   1      39.744  22.684  26.703  1.00  0.00     0.060 A 
ATOM     29  C   UNL A   1      40.789  22.701  27.620  1.00  0.00     0.016 A 
ATOM     30  C   UNL A   1      39.213  23.882  26.236  1.00  0.00     0.016 A 
ATOM     31  C   UNL A   1      41.277  23.929  28.084  1.00  0.00     0.010 A 
ATOM     32  C   UNL A   1      39.778  25.102  26.610  1.00  0.00     0.010 A 
ATOM     33  C   UNL A   1      40.802  25.150  27.563  1.00  0.00    -0.014 A 
BRANCH  33  34
ATOM     34  C   UNL A   1      41.384  26.457  28.003  1.00  0.00     0.031 A 
ATOM     35  C   UNL A   1      42.816  26.829  27.689  1.00  0.00     0.074 A 
ATOM     36  C   UNL A   1      40.635  27.310  28.733  1.00  0.00     0.049 A 
ATOM     37  N   UNL A   1      43.459  27.934  27.978  1.00  0.00    -0.248 NA
ATOM     38  C   UNL A   1      43.647  25.830  26.999  1.00  0.00     0.031 C 
ATOM     39  C   UNL A   1      39.283  27.040  29.230  1.00  0.00     0.029 A 
ATOM     40  N   UNL A   1      40.899  28.584  29.181  1.00  0.00    -0.354 N 
ATOM     41  C   UNL A   1      44.771  27.738  27.559  1.00  0.00     0.074 A 
ATOM     42  C   UNL A   1      44.845  26.397  27.027  1.00  0.00     0.031 C 
ATOM     43  C   UNL A   1      38.812  28.134  29.849  1.00  0.00     0.029 A 
ATOM     44  C   UNL A   1      39.833  29.176  29.820  1.00  0.00     0.049 A 
ATOM     45  H   UNL A   1      41.767  29.030  29.055  1.00  0.00     0.167 HD
ATOM     46  C   UNL A   1      45.811  28.607  27.561  1.00  0.00     0.034 A 
ATOM     47  C   UNL A   1      39.677  30.426  30.302  1.00  0.00     0.034 A 
ATOM     48  C   UNL A   1      45.718  29.979  27.977  1.00  0.00     0.049 A 
ATOM     49  C   UNL A   1      40.794  31.421  30.164  1.00  0.00     0.074 A 
ATOM     50  C   UNL A   1      46.684  30.967  27.897  1.00  0.00     0.029 A 
ATOM     51  N   UNL A   1      44.589  30.564  28.523  1.00  0.00    -0.354 N 
ATOM     52  N   UNL A   1      41.978  31.254  29.629  1.00  0.00    -0.248 NA
ATOM     53  C   UNL A   1      40.548  32.781  30.666  1.00  0.00     0.031 C 
ATOM     54  C   UNL A   1      46.133  32.155  28.384  1.00  0.00     0.029 A 
ATOM     55  C   UNL A   1      44.826  31.904  28.769  1.00  0.00     0.049 A 
ATOM     56  H   UNL A   1      43.742  30.096  28.708  1.00  0.00     0.167 HD
ATOM     57  C   UNL A   1      42.614  32.486  29.716  1.00  0.00     0.074 A 
ATOM     58  C   UNL A   1      41.677  33.399  30.336  1.00  0.00     0.031 C 
ATOM     59  C   UNL A   1      43.870  32.819  29.336  1.00  0.00     0.034 A 
BRANCH  46  60
ATOM     60  C   UNL A   1      47.123  28.137  26.987  1.00  0.00     0.023 A 
ATOM     61  C   UNL A   1      48.166  27.793  27.869  1.00  0.00     0.012 A 
ATOM     62  C   UNL A   1      47.299  27.957  25.601  1.00  0.00     0.148 A 
ATOM     63  C   UNL A   1      49.376  27.304  27.383  1.00  0.00     0.002 A 
ATOM     64  C   UNL A   1      48.497  27.435  25.125  1.00  0.00     0.091 A 
ATOM     65  F   UNL A   1      46.296  28.295  24.779  1.00  0.00    -0.205 F 
ATOM     66  C   UNL A   1      49.539  27.116  26.014  1.00  0.00     0.022 A 
BRANCH  64  67
ATOM     67  S   UNL A   1      48.796  27.096  23.386  1.00  0.00     0.127 S 
ATOM     68  O   UNL A   1      48.074  28.193  22.743  1.00  0.00    -0.237 OA
ATOM     69  O   UNL A   1      50.253  27.192  23.300  1.00  0.00    -0.237 OA
ATOM     70  O   UNL A   1      48.256  25.766  23.135  1.00  0.00    -0.744 OA
ENDBRANCH  64  67
ENDBRANCH  46  60
BRANCH  47  71
ATOM     71  C   UNL A   1      38.350  30.830  30.844  1.00  0.00     0.023 A 
ATOM     72  C   UNL A   1      38.103  30.667  32.222  1.00  0.00     0.012 A 
ATOM     73  C   UNL A   1      37.378  31.450  30.037  1.00  0.00     0.148 A 
ATOM     74  C   UNL A   1      36.908  31.112  32.787  1.00  0.00     0.002 A 
ATOM     75  C   UNL A   1      36.206  31.927  30.613  1.00  0.00     0.091 A 
ATOM     76  F   UNL A   1      37.639  31.591  28.730  1.00  0.00    -0.205 F 
ATOM     77  C   UNL A   1      35.965  31.751  31.986  1.00  0.00     0.022 A 
BRANCH  75  78
ATOM     78  S   UNL A   1      34.977  32.857  29.692  1.00  0.00     0.127 S 
ATOM     79  O   UNL A   1      34.033  33.229  30.743  1.00  0.00    -0.237 OA
ATOM     80  O   UNL A   1      35.776  33.963  29.163  1.00  0.00    -0.237 OA
ATOM     81  O   UNL A   1      34.461  31.944  28.683  1.00  0.00    -0.744 OA
ENDBRANCH  75  78
ENDBRANCH  47  71
BRANCH  59  82
ATOM     82  C   UNL A   1      44.333  34.230  29.564  1.00  0.00     0.023 A 
ATOM     83  C   UNL A   1      44.915  34.566  30.801  1.00  0.00     0.012 A 
ATOM     84  C   UNL A   1      44.326  35.172  28.517  1.00  0.00     0.148 A 
ATOM     85  C   UNL A   1      45.485  35.824  30.995  1.00  0.00     0.002 A 
ATOM     86  C   UNL A   1      44.922  36.413  28.707  1.00  0.00     0.091 A 
ATOM     87  F   UNL A   1      43.758  34.828  27.353  1.00  0.00    -0.205 F 
ATOM     88  C   UNL A   1      45.499  36.741  29.947  1.00  0.00     0.022 A 
BRANCH  86  89
ATOM     89  S   UNL A   1      45.061  37.634  27.397  1.00  0.00     0.127 S 
ATOM     90  O   UNL A   1      43.666  37.788  26.985  1.00  0.00    -0.237 OA
ATOM     91  O   UNL A   1      45.619  38.787  28.104  1.00  0.00    -0.237 OA
ATOM     92  O   UNL A   1      45.941  37.051  26.394  1.00  0.00    -0.744 OA
ENDBRANCH  86  89
ENDBRANCH  59  82
ENDBRANCH  33  34
ENDBRANCH  26  28
ENDBRANCH  25  26
ENDBRANCH   1  25
TORSDOF 17
ENDMDL
MODEL 3
REMARK VINA RESULT:     -12.1      4.899     10.095
REMARK SMILES CC(C)Cc1cc2c(cc1Cl)C=C(C(=O)OCCOC(=O)c1ccc(-c3c4nc(c(-c5cccc(S(=O)(=O)[O-])c5F)c5ccc([nH]5)c(-c5cccc(S(=O)(=O)[O-])c5F)c5nc(c(-c6cccc(S(=O)(=O)[O-])c6F)c6ccc3[nH]6)C=C5)C=C4)cc1)[C@H](C(F)(F)F)O2
REMARK SMILES IDX 18 1 17 2 16 3 14 4 15 5 13 6 5 7 6 8 10 9 7 10 9 11 11 12
REMARK SMILES IDX 8 13 90 14 12 15 85 16 4 17 2 18 1 19 3 20 86 21 87 22 88 23
REMARK SMILES IDX 89 24 19 25 20 26 21 27 22 28 23 29 84 30 24 31 83 32 25 33
REMARK SMILES IDX 26 34 27 35 77 36 28 37 82 38 76 39 78 40 29 41 81 42 75 43
REMARK SMILES IDX 74 44 30 46 62 47 42 48 61 49 43 50 46 51 60 52 79 53 44 54
REMARK SMILES IDX 45 55 59 57 80 58 47 59 31 60 32 61 40 62 33 63 35 64 41 65
REMARK SMILES IDX 34 66 36 67 37 68 38 69 39 70 63 71 64 72 72 73 65 74 67 75
REMARK SMILES IDX 73 76 66 77 68 78 69 79 70 80 71 81 48 82 49 83 57 84 50 85
REMARK SMILES IDX 52 86 58 87 51 88 53 89 54 90 55 91 56 92
REMARK H PARENT 78 45 46 56
REMARK Flexibility Score: inf
ROOT
ATOM      1  C   UNL A   1      31.464  30.359  25.401  1.00  0.00     0.275 C 
ENDROOT
BRANCH   1   2
ATOM      2  C   UNL A   1      31.412  28.969  24.767  1.00  0.00     0.275 C 
BRANCH   2   3
ATOM      3  O   UNL A   1      32.594  28.208  25.106  1.00  0.00    -0.459 OA
BRANCH   3   4
ATOM      4  C   UNL A   1      33.394  27.899  24.061  1.00  0.00     0.338 C 
ATOM      5  O   UNL A   1      34.021  28.702  23.387  1.00  0.00    -0.246 OA
BRANCH   4   6
ATOM      6  C   UNL A   1      33.512  26.437  23.879  1.00  0.00     0.087 C 
ATOM      7  C   UNL A   1      34.351  21.543  24.900  1.00  0.00    -0.025 A 
ATOM      8  C   UNL A   1      34.259  22.320  23.710  1.00  0.00     0.052 A 
ATOM      9  C   UNL A   1      34.143  22.209  26.119  1.00  0.00     0.045 A 
ATOM     10  C   UNL A   1      33.990  23.692  23.735  1.00  0.00     0.128 A 
ATOM     11  C   UNL A   1      33.851  23.577  26.135  1.00  0.00     0.032 A 
ATOM     12  Cl  UNL A   1      34.285  21.510  27.688  1.00  0.00    -0.084 Cl
ATOM     13  C   UNL A   1      33.809  24.317  24.956  1.00  0.00     0.019 A 
ATOM     14  O   UNL A   1      33.976  24.363  22.545  1.00  0.00    -0.475 OA
ATOM     15  C   UNL A   1      33.658  25.751  25.017  1.00  0.00     0.027 C 
ATOM     16  C   UNL A   1      33.591  25.778  22.526  1.00  0.00     0.316 C 
BRANCH   7  17
ATOM     17  C   UNL A   1      34.765  20.092  24.691  1.00  0.00     0.040 C 
BRANCH  17  18
ATOM     18  C   UNL A   1      33.766  18.921  24.744  1.00  0.00    -0.013 C 
ATOM     19  C   UNL A   1      32.573  19.128  23.807  1.00  0.00     0.008 C 
ATOM     20  C   UNL A   1      34.467  17.606  24.380  1.00  0.00     0.008 C 
ENDBRANCH  17  18
ENDBRANCH   7  17
BRANCH  16  21
ATOM     21  C   UNL A   1      32.367  25.966  21.608  1.00  0.00     0.430 C 
ATOM     22  F   UNL A   1      32.686  25.827  20.297  1.00  0.00    -0.167 F 
ATOM     23  F   UNL A   1      31.365  25.099  21.863  1.00  0.00    -0.167 F 
ATOM     24  F   UNL A   1      31.866  27.222  21.741  1.00  0.00    -0.167 F 
ENDBRANCH  16  21
ENDBRANCH   4   6
ENDBRANCH   3   4
ENDBRANCH   2   3
ENDBRANCH   1   2
BRANCH   1  25
ATOM     25  O   UNL A   1      32.808  30.659  25.828  1.00  0.00    -0.458 OA
BRANCH  25  26
ATOM     26  C   UNL A   1      32.922  31.547  26.841  1.00  0.00     0.338 C 
ATOM     27  O   UNL A   1      32.194  32.502  27.073  1.00  0.00    -0.246 OA
BRANCH  26  28
ATOM     28  C   UNL A   1      34.091  31.211  27.670  1.00  0.00     0.060 A 
ATOM     29  C   UNL A   1      34.367  29.889  28.001  1.00  0.00     0.016 A 
ATOM     30  C   UNL A   1      34.988  32.215  28.023  1.00  0.00     0.016 A 
ATOM     31  C   UNL A   1      35.535  29.587  28.712  1.00  0.00     0.010 A 
ATOM     32  C   UNL A   1      36.205  31.899  28.628  1.00  0.00     0.010 A 
ATOM     33  C   UNL A   1      36.489  30.582  29.009  1.00  0.00    -0.014 A 
BRANCH  33  34
ATOM     34  C   UNL A   1      37.773  30.240  29.698  1.00  0.00     0.031 A 
ATOM     35  C   UNL A   1      38.068  30.720  31.102  1.00  0.00     0.074 A 
ATOM     36  C   UNL A   1      38.713  29.524  29.045  1.00  0.00     0.049 A 
ATOM     37  N   UNL A   1      39.122  30.487  31.845  1.00  0.00    -0.248 NA
ATOM     38  C   UNL A   1      37.080  31.601  31.745  1.00  0.00     0.031 C 
ATOM     39  C   UNL A   1      38.635  29.101  27.644  1.00  0.00     0.029 A 
ATOM     40  N   UNL A   1      39.917  29.015  29.474  1.00  0.00    -0.354 N 
ATOM     41  C   UNL A   1      38.948  31.232  33.007  1.00  0.00     0.074 A 
ATOM     42  C   UNL A   1      37.705  31.954  32.859  1.00  0.00     0.031 C 
ATOM     43  C   UNL A   1      39.704  28.344  27.351  1.00  0.00     0.029 A 
ATOM     44  C   UNL A   1      40.558  28.245  28.529  1.00  0.00     0.049 A 
ATOM     45  H   UNL A   1      40.285  29.185  30.370  1.00  0.00     0.167 HD
ATOM     46  C   UNL A   1      39.717  31.275  34.122  1.00  0.00     0.034 A 
ATOM     47  C   UNL A   1      41.689  27.514  28.606  1.00  0.00     0.034 A 
ATOM     48  C   UNL A   1      40.890  30.472  34.326  1.00  0.00     0.049 A 
ATOM     49  C   UNL A   1      42.451  27.459  29.900  1.00  0.00     0.074 A 
ATOM     50  C   UNL A   1      41.662  30.355  35.470  1.00  0.00     0.029 A 
ATOM     51  N   UNL A   1      41.445  29.628  33.380  1.00  0.00    -0.354 N 
ATOM     52  N   UNL A   1      42.185  28.058  31.034  1.00  0.00    -0.248 NA
ATOM     53  C   UNL A   1      43.650  26.607  29.937  1.00  0.00     0.031 C 
ATOM     54  C   UNL A   1      42.677  29.428  35.218  1.00  0.00     0.029 A 
ATOM     55  C   UNL A   1      42.539  28.973  33.916  1.00  0.00     0.049 A 
ATOM     56  H   UNL A   1      41.111  29.511  32.460  1.00  0.00     0.167 HD
ATOM     57  C   UNL A   1      43.171  27.649  31.923  1.00  0.00     0.074 A 
ATOM     58  C   UNL A   1      44.030  26.731  31.203  1.00  0.00     0.031 C 
ATOM     59  C   UNL A   1      43.356  28.020  33.212  1.00  0.00     0.034 A 
BRANCH  46  60
ATOM     60  C   UNL A   1      39.253  32.139  35.266  1.00  0.00     0.023 A 
ATOM     61  C   UNL A   1      38.346  31.598  36.200  1.00  0.00     0.012 A 
ATOM     62  C   UNL A   1      39.764  33.435  35.466  1.00  0.00     0.148 A 
ATOM     63  C   UNL A   1      37.933  32.343  37.302  1.00  0.00     0.002 A 
ATOM     64  C   UNL A   1      39.373  34.161  36.587  1.00  0.00     0.091 A 
ATOM     65  F   UNL A   1      40.620  33.933  34.562  1.00  0.00    -0.205 F 
ATOM     66  C   UNL A   1      38.452  33.620  37.500  1.00  0.00     0.022 A 
BRANCH  64  67
ATOM     67  S   UNL A   1      40.023  35.791  36.974  1.00  0.00     0.127 S 
ATOM     68  O   UNL A   1      41.453  35.516  37.102  1.00  0.00    -0.237 OA
ATOM     69  O   UNL A   1      39.653  36.559  35.785  1.00  0.00    -0.237 OA
ATOM     70  O   UNL A   1      39.359  36.209  38.201  1.00  0.00    -0.744 OA
ENDBRANCH  64  67
ENDBRANCH  46  60
BRANCH  47  71
ATOM     71  C   UNL A   1      42.084  26.671  27.444  1.00  0.00     0.023 A 
ATOM     72  C   UNL A   1      42.869  27.248  26.426  1.00  0.00     0.012 A 
ATOM     73  C   UNL A   1      41.773  25.300  27.383  1.00  0.00     0.148 A 
ATOM     74  C   UNL A   1      43.334  26.473  25.363  1.00  0.00     0.002 A 
ATOM     75  C   UNL A   1      42.273  24.525  26.342  1.00  0.00     0.091 A 
ATOM     76  F   UNL A   1      41.025  24.778  28.365  1.00  0.00    -0.205 F 
ATOM     77  C   UNL A   1      43.047  25.112  25.327  1.00  0.00     0.022 A 
BRANCH  75  78
ATOM     78  S   UNL A   1      42.050  22.745  26.260  1.00  0.00     0.127 S 
ATOM     79  O   UNL A   1      42.700  22.421  24.992  1.00  0.00    -0.237 OA
ATOM     80  O   UNL A   1      42.772  22.300  27.453  1.00  0.00    -0.237 OA
ATOM     81  O   UNL A   1      40.612  22.522  26.301  1.00  0.00    -0.744 OA
ENDBRANCH  75  78
ENDBRANCH  47  71
BRANCH  59  82
ATOM     82  C   UNL A   1      44.527  27.446  33.958  1.00  0.00     0.023 A 
ATOM     83  C   UNL A   1      45.738  28.163  33.985  1.00  0.00     0.012 A 
ATOM     84  C   UNL A   1      44.385  26.285  34.742  1.00  0.00     0.148 A 
ATOM     85  C   UNL A   1      46.796  27.733  34.784  1.00  0.00     0.002 A 
ATOM     86  C   UNL A   1      45.434  25.878  35.560  1.00  0.00     0.091 A 
ATOM     87  F   UNL A   1      43.224  25.617  34.691  1.00  0.00    -0.205 F 
ATOM     88  C   UNL A   1      46.640  26.599  35.579  1.00  0.00     0.022 A 
BRANCH  86  89
ATOM     89  S   UNL A   1      45.305  24.478  36.678  1.00  0.00     0.127 S 
ATOM     90  O   UNL A   1      46.673  24.374  37.183  1.00  0.00    -0.237 OA
ATOM     91  O   UNL A   1      44.327  24.953  37.658  1.00  0.00    -0.237 OA
ATOM     92  O   UNL A   1      44.857  23.354  35.868  1.00  0.00    -0.744 OA
ENDBRANCH  86  89
ENDBRANCH  59  82
ENDBRANCH  33  34
ENDBRANCH  26  28
ENDBRANCH  25  26
ENDBRANCH   1  25
TORSDOF 17
ENDMDL
