MODEL 1
REMARK VINA RESULT:     -13.2      0.000      0.000
REMARK SMILES O=C(OCCOC(=O)[C@H]1CC2(CC[NH+](C(=O)c3cccc(O)c3)CC2)CN1C(=O)C1CC1)c1ccc(-c2c3nc(c(-c4cccc(S(=O)(=O)[O-])c4F)c4ccc([nH]4)c(-c4cccc(S(=O)(=O)[O-])c4F)c4nc(c(-c5cccc(S(=O)(=O)[O-])c5F)c5ccc2[nH]5)C=C4)C=C3)cc1
REMARK SMILES IDX 4 1 3 2 2 3 1 4 33 5 34 6 95 7 35 8 94 9 36 10 37 11 38 12
REMARK SMILES IDX 88 13 39 14 93 15 87 16 89 17 40 18 92 19 86 20 85 21 41 23
REMARK SMILES IDX 73 24 53 25 72 26 54 27 57 28 71 29 90 30 55 31 56 32 70 34
REMARK SMILES IDX 91 35 58 36 42 37 43 38 51 39 44 40 46 41 52 42 45 43 47 44
REMARK SMILES IDX 48 45 49 46 50 47 74 48 75 49 83 50 76 51 78 52 84 53 77 54
REMARK SMILES IDX 79 55 80 56 81 57 82 58 59 59 60 60 68 61 61 62 63 63 69 64
REMARK SMILES IDX 62 65 64 66 65 67 66 68 67 69 5 70 6 71 7 72 8 73 9 74 10 75
REMARK SMILES IDX 27 76 11 77 26 78 12 79 25 80 13 81 24 82 14 83 28 85 29 86
REMARK SMILES IDX 30 87 31 88 32 89 15 90 16 91 17 92 18 93 23 94 19 95 21 96
REMARK SMILES IDX 20 97 22 98
REMARK H PARENT 89 22 57 33 14 84 22 99
REMARK Flexibility Score: inf
ROOT
ATOM      1  C   UNL A   1      32.570  32.826  27.069  1.00  0.00     0.275 C 
ENDROOT
BRANCH   1   2
ATOM      2  O   UNL A   1      32.222  34.082  27.661  1.00  0.00    -0.458 OA
BRANCH   2   3
ATOM      3  C   UNL A   1      32.920  34.759  28.598  1.00  0.00     0.338 C 
ATOM      4  O   UNL A   1      32.713  35.960  28.752  1.00  0.00    -0.246 OA
BRANCH   3   5
ATOM      5  C   UNL A   1      34.035  34.145  29.371  1.00  0.00     0.060 A 
ATOM      6  C   UNL A   1      33.944  33.245  30.971  1.00  0.00     0.016 A 
ATOM      7  C   UNL A   1      35.627  34.225  28.497  1.00  0.00     0.016 A 
ATOM      8  C   UNL A   1      35.416  32.391  31.651  1.00  0.00     0.010 A 
ATOM      9  C   UNL A   1      37.128  33.578  29.295  1.00  0.00     0.010 A 
ATOM     10  C   UNL A   1      37.030  32.646  30.868  1.00  0.00    -0.014 A 
BRANCH  10  11
ATOM     11  C   UNL A   1      38.259  32.087  31.498  1.00  0.00     0.031 A 
ATOM     12  C   UNL A   1      38.960  30.932  30.834  1.00  0.00     0.074 A 
ATOM     13  C   UNL A   1      38.688  32.564  32.689  1.00  0.00     0.049 A 
ATOM     14  N   UNL A   1      39.951  30.202  31.272  1.00  0.00    -0.248 NA
ATOM     15  C   UNL A   1      38.487  30.543  29.496  1.00  0.00     0.031 C 
ATOM     16  C   UNL A   1      38.112  33.693  33.425  1.00  0.00     0.029 A 
ATOM     17  N   UNL A   1      39.675  32.116  33.536  1.00  0.00    -0.354 N 
ATOM     18  C   UNL A   1      40.182  29.245  30.287  1.00  0.00     0.074 A 
ATOM     19  C   UNL A   1      39.207  29.463  29.248  1.00  0.00     0.031 C 
ATOM     20  C   UNL A   1      38.681  33.797  34.630  1.00  0.00     0.029 A 
ATOM     21  C   UNL A   1      39.670  32.745  34.765  1.00  0.00     0.049 A 
ATOM     22  H   UNL A   1      40.322  31.416  33.290  1.00  0.00     0.167 HD
ATOM     23  C   UNL A   1      41.131  28.280  30.244  1.00  0.00     0.034 A 
ATOM     24  C   UNL A   1      40.357  32.494  35.896  1.00  0.00     0.034 A 
ATOM     25  C   UNL A   1      42.081  28.080  31.300  1.00  0.00     0.049 A 
ATOM     26  C   UNL A   1      41.388  31.410  35.852  1.00  0.00     0.074 A 
ATOM     27  C   UNL A   1      43.110  27.162  31.380  1.00  0.00     0.029 A 
ATOM     28  N   UNL A   1      42.092  28.804  32.485  1.00  0.00    -0.354 N 
ATOM     29  N   UNL A   1      41.654  30.586  34.867  1.00  0.00    -0.248 NA
ATOM     30  C   UNL A   1      42.246  31.252  37.029  1.00  0.00     0.031 C 
ATOM     31  C   UNL A   1      43.702  27.291  32.640  1.00  0.00     0.029 A 
ATOM     32  C   UNL A   1      43.086  28.334  33.319  1.00  0.00     0.049 A 
ATOM     33  H   UNL A   1      41.479  29.545  32.699  1.00  0.00     0.167 HD
ATOM     34  C   UNL A   1      42.742  29.836  35.285  1.00  0.00     0.074 A 
ATOM     35  C   UNL A   1      43.081  30.305  36.616  1.00  0.00     0.031 C 
ATOM     36  C   UNL A   1      43.404  28.857  34.625  1.00  0.00     0.034 A 
BRANCH  23  37
ATOM     37  C   UNL A   1      41.136  27.370  29.037  1.00  0.00     0.023 A 
ATOM     38  C   UNL A   1      40.382  26.176  29.040  1.00  0.00     0.012 A 
ATOM     39  C   UNL A   1      41.945  27.665  27.923  1.00  0.00     0.148 A 
ATOM     40  C   UNL A   1      40.500  25.255  27.998  1.00  0.00     0.002 A 
ATOM     41  C   UNL A   1      42.019  26.765  26.864  1.00  0.00     0.091 A 
ATOM     42  F   UNL A   1      42.662  28.797  27.934  1.00  0.00    -0.205 F 
ATOM     43  C   UNL A   1      41.317  25.549  26.911  1.00  0.00     0.022 A 
BRANCH  41  44
ATOM     44  S   UNL A   1      42.997  27.079  25.391  1.00  0.00     0.127 S 
ATOM     45  O   UNL A   1      42.275  28.201  24.790  1.00  0.00    -0.237 OA
ATOM     46  O   UNL A   1      44.300  27.427  25.959  1.00  0.00    -0.237 OA
ATOM     47  O   UNL A   1      42.977  25.843  24.622  1.00  0.00    -0.744 OA
ENDBRANCH  41  44
ENDBRANCH  23  37
BRANCH  24  48
ATOM     48  C   UNL A   1      40.106  33.326  37.110  1.00  0.00     0.023 A 
ATOM     49  C   UNL A   1      39.066  32.988  37.997  1.00  0.00     0.012 A 
ATOM     50  C   UNL A   1      40.981  34.379  37.454  1.00  0.00     0.148 A 
ATOM     51  C   UNL A   1      38.894  33.689  39.194  1.00  0.00     0.002 A 
ATOM     52  C   UNL A   1      40.837  35.036  38.672  1.00  0.00     0.091 A 
ATOM     53  F   UNL A   1      41.967  34.685  36.599  1.00  0.00    -0.205 F 
ATOM     54  C   UNL A   1      39.786  34.701  39.538  1.00  0.00     0.022 A 
BRANCH  52  55
ATOM     55  S   UNL A   1      42.034  36.238  39.268  1.00  0.00     0.127 S 
ATOM     56  O   UNL A   1      43.256  35.441  39.318  1.00  0.00    -0.237 OA
ATOM     57  O   UNL A   1      41.996  37.248  38.209  1.00  0.00    -0.237 OA
ATOM     58  O   UNL A   1      41.517  36.697  40.549  1.00  0.00    -0.744 OA
ENDBRANCH  52  55
ENDBRANCH  24  48
BRANCH  36  59
ATOM     59  C   UNL A   1      44.598  28.256  35.305  1.00  0.00     0.023 A 
ATOM     60  C   UNL A   1      45.886  28.765  35.058  1.00  0.00     0.012 A 
ATOM     61  C   UNL A   1      44.405  27.277  36.298  1.00  0.00     0.148 A 
ATOM     62  C   UNL A   1      46.973  28.300  35.794  1.00  0.00     0.002 A 
ATOM     63  C   UNL A   1      45.481  26.864  37.066  1.00  0.00     0.091 A 
ATOM     64  F   UNL A   1      43.168  26.796  36.487  1.00  0.00    -0.205 F 
ATOM     65  C   UNL A   1      46.768  27.365  36.809  1.00  0.00     0.022 A 
BRANCH  63  66
ATOM     66  S   UNL A   1      45.285  25.766  38.472  1.00  0.00     0.127 S 
ATOM     67  O   UNL A   1      46.648  25.714  38.998  1.00  0.00    -0.237 OA
ATOM     68  O   UNL A   1      44.334  26.502  39.304  1.00  0.00    -0.237 OA
ATOM     69  O   UNL A   1      44.780  24.509  37.937  1.00  0.00    -0.744 OA
ENDBRANCH  63  66
ENDBRANCH  36  59
ENDBRANCH  10  11
ENDBRANCH   3   5
ENDBRANCH   2   3
ENDBRANCH   1   2
BRANCH   1  70
ATOM     70  C   UNL A   1      31.337  31.962  26.733  1.00  0.00     0.274 C 
BRANCH  70  71
ATOM     71  O   UNL A   1      31.566  30.998  25.679  1.00  0.00    -0.461 OA
BRANCH  71  72
ATOM     72  C   UNL A   1      31.700  29.695  26.063  1.00  0.00     0.328 C 
ATOM     73  O   UNL A   1      31.804  29.377  27.242  1.00  0.00    -0.250 OA
BRANCH  72  74
ATOM     74  C   UNL A   1      31.635  28.683  24.818  1.00  0.00     0.195 C 
ATOM     75  C   UNL A   1      32.054  27.329  25.506  1.00  0.00     0.046 C 
ATOM     76  N   UNL A   1      30.371  28.104  23.768  1.00  0.00    -0.328 N 
ATOM     77  C   UNL A   1      32.001  26.178  24.504  1.00  0.00     0.001 C 
ATOM     78  C   UNL A   1      31.294  26.778  23.290  1.00  0.00     0.128 C 
ATOM     79  C   UNL A   1      31.221  24.949  25.036  1.00  0.00     0.071 C 
ATOM     80  C   UNL A   1      33.417  25.706  24.072  1.00  0.00     0.071 C 
ATOM     81  C   UNL A   1      31.989  24.183  26.108  1.00  0.00     0.271 C 
ATOM     82  C   UNL A   1      34.140  24.873  25.129  1.00  0.00     0.271 C 
ATOM     83  N   UNL A   1      33.298  23.780  25.605  1.00  0.00    -0.267 N 
ATOM     84  H   UNL A   1      32.876  24.665  25.702  1.00  0.00     0.357 HD
BRANCH  76  85
ATOM     85  C   UNL A   1      28.617  28.827  23.154  1.00  0.00     0.226 C 
ATOM     86  O   UNL A   1      27.490  28.273  23.067  1.00  0.00    -0.275 OA
BRANCH  85  87
ATOM     87  C   UNL A   1      28.111  30.386  22.534  1.00  0.00     0.079 C 
ATOM     88  C   UNL A   1      27.670  31.377  23.634  1.00  0.00     0.014 C 
ATOM     89  C   UNL A   1      28.621  31.818  22.578  1.00  0.00     0.014 C 
ENDBRANCH  85  87
ENDBRANCH  76  85
BRANCH  83  90
ATOM     90  C   UNL A   1      33.842  22.501  25.681  1.00  0.00     0.344 C 
ATOM     91  O   UNL A   1      34.753  22.183  26.440  1.00  0.00    -0.226 OA
BRANCH  90  92
ATOM     92  C   UNL A   1      33.281  21.424  24.841  1.00  0.00     0.083 A 
ATOM     93  C   UNL A   1      33.243  20.098  25.286  1.00  0.00     0.018 A 
ATOM     94  C   UNL A   1      32.722  21.777  23.610  1.00  0.00     0.064 A 
ATOM     95  C   UNL A   1      32.688  19.113  24.465  1.00  0.00     0.005 A 
ATOM     96  C   UNL A   1      32.169  20.789  22.807  1.00  0.00     0.116 A 
ATOM     97  C   UNL A   1      32.154  19.458  23.220  1.00  0.00     0.046 A 
BRANCH  96  98
ATOM     98  O   UNL A   1      31.640  21.166  21.608  1.00  0.00    -0.508 OA
ATOM     99  H   UNL A   1      30.791  20.860  21.353  1.00  0.00     0.293 HD
ENDBRANCH  96  98
ENDBRANCH  90  92
ENDBRANCH  83  90
ENDBRANCH  72  74
ENDBRANCH  71  72
ENDBRANCH  70  71
ENDBRANCH   1  70
TORSDOF 19
ENDMDL
MODEL 2
REMARK VINA RESULT:     -13.1      5.881     10.032
REMARK SMILES O=C(OCCOC(=O)[C@H]1CC2(CC[NH+](C(=O)c3cccc(O)c3)CC2)CN1C(=O)C1CC1)c1ccc(-c2c3nc(c(-c4cccc(S(=O)(=O)[O-])c4F)c4ccc([nH]4)c(-c4cccc(S(=O)(=O)[O-])c4F)c4nc(c(-c5cccc(S(=O)(=O)[O-])c5F)c5ccc2[nH]5)C=C4)C=C3)cc1
REMARK SMILES IDX 4 1 3 2 2 3 1 4 33 5 34 6 95 7 35 8 94 9 36 10 37 11 38 12
REMARK SMILES IDX 88 13 39 14 93 15 87 16 89 17 40 18 92 19 86 20 85 21 41 23
REMARK SMILES IDX 73 24 53 25 72 26 54 27 57 28 71 29 90 30 55 31 56 32 70 34
REMARK SMILES IDX 91 35 58 36 42 37 43 38 51 39 44 40 46 41 52 42 45 43 47 44
REMARK SMILES IDX 48 45 49 46 50 47 74 48 75 49 83 50 76 51 78 52 84 53 77 54
REMARK SMILES IDX 79 55 80 56 81 57 82 58 59 59 60 60 68 61 61 62 63 63 69 64
REMARK SMILES IDX 62 65 64 66 65 67 66 68 67 69 5 70 6 71 7 72 8 73 9 74 10 75
REMARK SMILES IDX 27 76 11 77 26 78 12 79 25 80 13 81 24 82 14 83 28 85 29 86
REMARK SMILES IDX 30 87 31 88 32 89 15 90 16 91 17 92 18 93 23 94 19 95 21 96
REMARK SMILES IDX 20 97 22 98
REMARK H PARENT 89 22 57 33 14 84 22 99
REMARK Flexibility Score: inf
ROOT
ATOM      1  C   UNL A   1      39.252  19.840  25.955  1.00  0.00     0.275 C 
ENDROOT
BRANCH   1   2
ATOM      2  O   UNL A   1      40.522  19.203  25.781  1.00  0.00    -0.458 OA
BRANCH   2   3
ATOM      3  C   UNL A   1      41.724  19.663  26.189  1.00  0.00     0.338 C 
ATOM      4  O   UNL A   1      42.668  18.883  26.277  1.00  0.00    -0.246 OA
BRANCH   3   5
ATOM      5  C   UNL A   1      41.932  21.057  26.669  1.00  0.00     0.060 A 
ATOM      6  C   UNL A   1      41.862  21.682  28.396  1.00  0.00     0.016 A 
ATOM      7  C   UNL A   1      42.442  22.191  25.344  1.00  0.00     0.016 A 
ATOM      8  C   UNL A   1      42.350  23.404  28.789  1.00  0.00     0.010 A 
ATOM      9  C   UNL A   1      42.696  23.954  25.712  1.00  0.00     0.010 A 
ATOM     10  C   UNL A   1      42.665  24.568  27.437  1.00  0.00    -0.014 A 
BRANCH  10  11
ATOM     11  C   UNL A   1      42.910  26.007  27.735  1.00  0.00     0.031 A 
ATOM     12  C   UNL A   1      44.326  26.519  27.756  1.00  0.00     0.074 A 
ATOM     13  C   UNL A   1      41.878  26.818  28.059  1.00  0.00     0.049 A 
ATOM     14  N   UNL A   1      44.780  27.686  28.128  1.00  0.00    -0.248 NA
ATOM     15  C   UNL A   1      45.377  25.597  27.295  1.00  0.00     0.031 C 
ATOM     16  C   UNL A   1      40.458  26.452  28.056  1.00  0.00     0.029 A 
ATOM     17  N   UNL A   1      41.860  28.113  28.526  1.00  0.00    -0.354 N 
ATOM     18  C   UNL A   1      46.164  27.617  27.991  1.00  0.00     0.074 A 
ATOM     19  C   UNL A   1      46.479  26.285  27.538  1.00  0.00     0.031 C 
ATOM     20  C   UNL A   1      39.724  27.444  28.572  1.00  0.00     0.029 A 
ATOM     21  C   UNL A   1      40.612  28.527  28.947  1.00  0.00     0.049 A 
ATOM     22  H   UNL A   1      42.658  28.687  28.556  1.00  0.00     0.167 HD
ATOM     23  C   UNL A   1      47.090  28.581  28.208  1.00  0.00     0.034 A 
ATOM     24  C   UNL A   1      40.215  29.640  29.594  1.00  0.00     0.034 A 
ATOM     25  C   UNL A   1      46.747  29.895  28.670  1.00  0.00     0.049 A 
ATOM     26  C   UNL A   1      41.247  30.692  29.854  1.00  0.00     0.074 A 
ATOM     27  C   UNL A   1      47.574  30.975  28.909  1.00  0.00     0.029 A 
ATOM     28  N   UNL A   1      45.456  30.294  28.995  1.00  0.00    -0.354 N 
ATOM     29  N   UNL A   1      42.536  30.638  29.619  1.00  0.00    -0.248 NA
ATOM     30  C   UNL A   1      40.780  31.967  30.406  1.00  0.00     0.031 C 
ATOM     31  C   UNL A   1      46.790  32.006  29.436  1.00  0.00     0.029 A 
ATOM     32  C   UNL A   1      45.465  31.592  29.464  1.00  0.00     0.049 A 
ATOM     33  H   UNL A   1      44.653  29.731  28.904  1.00  0.00     0.167 HD
ATOM     34  C   UNL A   1      43.033  31.887  29.952  1.00  0.00     0.074 A 
ATOM     35  C   UNL A   1      41.903  32.674  30.410  1.00  0.00     0.031 C 
ATOM     36  C   UNL A   1      44.306  32.344  29.879  1.00  0.00     0.034 A 
BRANCH  23  37
ATOM     37  C   UNL A   1      48.537  28.211  27.980  1.00  0.00     0.023 A 
ATOM     38  C   UNL A   1      49.357  27.831  29.066  1.00  0.00     0.012 A 
ATOM     39  C   UNL A   1      49.107  28.307  26.696  1.00  0.00     0.148 A 
ATOM     40  C   UNL A   1      50.728  27.639  28.893  1.00  0.00     0.002 A 
ATOM     41  C   UNL A   1      50.465  28.064  26.521  1.00  0.00     0.091 A 
ATOM     42  F   UNL A   1      48.322  28.676  25.674  1.00  0.00    -0.205 F 
ATOM     43  C   UNL A   1      51.282  27.754  27.621  1.00  0.00     0.022 A 
BRANCH  41  44
ATOM     44  S   UNL A   1      51.264  28.130  24.914  1.00  0.00     0.127 S 
ATOM     45  O   UNL A   1      51.172  29.556  24.596  1.00  0.00    -0.237 OA
ATOM     46  O   UNL A   1      52.615  27.662  25.225  1.00  0.00    -0.237 OA
ATOM     47  O   UNL A   1      50.498  27.248  24.046  1.00  0.00    -0.744 OA
ENDBRANCH  41  44
ENDBRANCH  23  37
BRANCH  24  48
ATOM     48  C   UNL A   1      38.779  29.799  29.971  1.00  0.00     0.023 A 
ATOM     49  C   UNL A   1      38.347  29.462  31.267  1.00  0.00     0.012 A 
ATOM     50  C   UNL A   1      37.866  30.408  29.083  1.00  0.00     0.148 A 
ATOM     51  C   UNL A   1      37.032  29.714  31.668  1.00  0.00     0.002 A 
ATOM     52  C   UNL A   1      36.575  30.706  29.507  1.00  0.00     0.091 A 
ATOM     53  F   UNL A   1      38.296  30.726  27.854  1.00  0.00    -0.205 F 
ATOM     54  C   UNL A   1      36.152  30.348  30.796  1.00  0.00     0.022 A 
BRANCH  52  55
ATOM     55  S   UNL A   1      35.427  31.664  28.509  1.00  0.00     0.127 S 
ATOM     56  O   UNL A   1      34.394  32.000  29.483  1.00  0.00    -0.237 OA
ATOM     57  O   UNL A   1      36.266  32.787  28.085  1.00  0.00    -0.237 OA
ATOM     58  O   UNL A   1      35.022  30.779  27.426  1.00  0.00    -0.744 OA
ENDBRANCH  52  55
ENDBRANCH  24  48
BRANCH  36  59
ATOM     59  C   UNL A   1      44.545  33.776  30.251  1.00  0.00     0.023 A 
ATOM     60  C   UNL A   1      44.938  34.113  31.559  1.00  0.00     0.012 A 
ATOM     61  C   UNL A   1      44.513  34.762  29.247  1.00  0.00     0.148 A 
ATOM     62  C   UNL A   1      45.293  35.425  31.864  1.00  0.00     0.002 A 
ATOM     63  C   UNL A   1      44.927  36.051  29.545  1.00  0.00     0.091 A 
ATOM     64  F   UNL A   1      44.109  34.410  28.018  1.00  0.00    -0.205 F 
ATOM     65  C   UNL A   1      45.306  36.387  30.855  1.00  0.00     0.022 A 
BRANCH  63  66
ATOM     66  S   UNL A   1      45.096  37.315  28.282  1.00  0.00     0.127 S 
ATOM     67  O   UNL A   1      45.522  38.468  29.074  1.00  0.00    -0.237 OA
ATOM     68  O   UNL A   1      46.132  36.747  27.420  1.00  0.00    -0.237 OA
ATOM     69  O   UNL A   1      43.787  37.442  27.657  1.00  0.00    -0.744 OA
ENDBRANCH  63  66
ENDBRANCH  36  59
ENDBRANCH  10  11
ENDBRANCH   3   5
ENDBRANCH   2   3
ENDBRANCH   1   2
BRANCH   1  70
ATOM     70  C   UNL A   1      38.289  19.588  24.777  1.00  0.00     0.274 C 
BRANCH  70  71
ATOM     71  O   UNL A   1      36.928  20.008  25.031  1.00  0.00    -0.461 OA
BRANCH  71  72
ATOM     72  C   UNL A   1      36.615  21.294  24.696  1.00  0.00     0.328 C 
ATOM     73  O   UNL A   1      37.435  22.044  24.179  1.00  0.00    -0.250 OA
BRANCH  72  74
ATOM     74  C   UNL A   1      35.078  21.646  24.997  1.00  0.00     0.195 C 
ATOM     75  C   UNL A   1      34.956  23.068  24.333  1.00  0.00     0.046 C 
ATOM     76  N   UNL A   1      33.546  20.965  24.524  1.00  0.00    -0.328 N 
ATOM     77  C   UNL A   1      33.526  23.592  24.441  1.00  0.00     0.001 C 
ATOM     78  C   UNL A   1      32.726  22.382  24.921  1.00  0.00     0.128 C 
ATOM     79  C   UNL A   1      32.969  24.110  23.091  1.00  0.00     0.071 C 
ATOM     80  C   UNL A   1      33.390  24.728  25.492  1.00  0.00     0.071 C 
ATOM     81  C   UNL A   1      33.586  25.440  22.670  1.00  0.00     0.271 C 
ATOM     82  C   UNL A   1      33.944  26.073  25.022  1.00  0.00     0.271 C 
ATOM     83  N   UNL A   1      33.402  26.439  23.717  1.00  0.00    -0.267 N 
ATOM     84  H   UNL A   1      33.845  25.559  23.720  1.00  0.00     0.357 HD
BRANCH  76  85
ATOM     85  C   UNL A   1      32.927  19.152  23.969  1.00  0.00     0.226 C 
ATOM     86  O   UNL A   1      31.766  18.673  23.888  1.00  0.00    -0.275 OA
BRANCH  85  87
ATOM     87  C   UNL A   1      33.767  17.697  23.469  1.00  0.00     0.079 C 
ATOM     88  C   UNL A   1      34.969  17.335  24.369  1.00  0.00     0.014 C 
ATOM     89  C   UNL A   1      33.972  16.291  24.010  1.00  0.00     0.014 C 
ENDBRANCH  85  87
ENDBRANCH  76  85
BRANCH  83  90
ATOM     90  C   UNL A   1      32.903  27.727  23.538  1.00  0.00     0.344 C 
ATOM     91  O   UNL A   1      33.602  28.734  23.473  1.00  0.00    -0.226 OA
BRANCH  90  92
ATOM     92  C   UNL A   1      31.450  27.922  23.366  1.00  0.00     0.083 A 
ATOM     93  C   UNL A   1      30.943  28.988  22.614  1.00  0.00     0.018 A 
ATOM     94  C   UNL A   1      30.590  26.970  23.920  1.00  0.00     0.064 A 
ATOM     95  C   UNL A   1      29.561  29.127  22.464  1.00  0.00     0.005 A 
ATOM     96  C   UNL A   1      29.220  27.118  23.757  1.00  0.00     0.116 A 
ATOM     97  C   UNL A   1      28.697  28.192  23.041  1.00  0.00     0.046 A 
BRANCH  96  98
ATOM     98  O   UNL A   1      28.408  26.175  24.318  1.00  0.00    -0.508 OA
ATOM     99  H   UNL A   1      27.543  26.408  24.593  1.00  0.00     0.293 HD
ENDBRANCH  96  98
ENDBRANCH  90  92
ENDBRANCH  83  90
ENDBRANCH  72  74
ENDBRANCH  71  72
ENDBRANCH  70  71
ENDBRANCH   1  70
TORSDOF 19
ENDMDL
MODEL 3
REMARK VINA RESULT:     -12.8      5.402     10.065
REMARK SMILES O=C(OCCOC(=O)[C@H]1CC2(CC[NH+](C(=O)c3cccc(O)c3)CC2)CN1C(=O)C1CC1)c1ccc(-c2c3nc(c(-c4cccc(S(=O)(=O)[O-])c4F)c4ccc([nH]4)c(-c4cccc(S(=O)(=O)[O-])c4F)c4nc(c(-c5cccc(S(=O)(=O)[O-])c5F)c5ccc2[nH]5)C=C4)C=C3)cc1
REMARK SMILES IDX 4 1 3 2 2 3 1 4 33 5 34 6 95 7 35 8 94 9 36 10 37 11 38 12
REMARK SMILES IDX 88 13 39 14 93 15 87 16 89 17 40 18 92 19 86 20 85 21 41 23
REMARK SMILES IDX 73 24 53 25 72 26 54 27 57 28 71 29 90 30 55 31 56 32 70 34
REMARK SMILES IDX 91 35 58 36 42 37 43 38 51 39 44 40 46 41 52 42 45 43 47 44
REMARK SMILES IDX 48 45 49 46 50 47 74 48 75 49 83 50 76 51 78 52 84 53 77 54
REMARK SMILES IDX 79 55 80 56 81 57 82 58 59 59 60 60 68 61 61 62 63 63 69 64
REMARK SMILES IDX 62 65 64 66 65 67 66 68 67 69 5 70 6 71 7 72 8 73 9 74 10 75
REMARK SMILES IDX 27 76 11 77 26 78 12 79 25 80 13 81 24 82 14 83 28 85 29 86
REMARK SMILES IDX 30 87 31 88 32 89 15 90 16 91 17 92 18 93 23 94 19 95 21 96
REMARK SMILES IDX 20 97 22 98
REMARK H PARENT 89 22 57 33 14 84 22 99
REMARK Flexibility Score: inf
ROOT
ATOM      1  C   UNL A   1      39.702  19.701  25.762  1.00  0.00     0.275 C 
ENDROOT
BRANCH   1   2
ATOM      2  O   UNL A   1      40.407  20.019  26.966  1.00  0.00    -0.458 OA
BRANCH   2   3
ATOM      3  C   UNL A   1      41.645  20.549  27.065  1.00  0.00     0.338 C 
ATOM      4  O   UNL A   1      42.624  19.822  26.925  1.00  0.00    -0.246 OA
BRANCH   3   5
ATOM      5  C   UNL A   1      41.886  21.961  27.472  1.00  0.00     0.060 A 
ATOM      6  C   UNL A   1      42.479  22.588  29.094  1.00  0.00     0.016 A 
ATOM      7  C   UNL A   1      41.669  23.137  26.102  1.00  0.00     0.016 A 
ATOM      8  C   UNL A   1      42.901  24.357  29.319  1.00  0.00     0.010 A 
ATOM      9  C   UNL A   1      41.866  24.919  26.403  1.00  0.00     0.010 A 
ATOM     10  C   UNL A   1      42.495  25.539  28.007  1.00  0.00    -0.014 A 
BRANCH  10  11
ATOM     11  C   UNL A   1      42.688  26.999  28.234  1.00  0.00     0.031 A 
ATOM     12  C   UNL A   1      44.077  27.573  28.163  1.00  0.00     0.074 A 
ATOM     13  C   UNL A   1      41.636  27.776  28.578  1.00  0.00     0.049 A 
ATOM     14  N   UNL A   1      44.494  28.773  28.464  1.00  0.00    -0.248 NA
ATOM     15  C   UNL A   1      45.146  26.679  27.687  1.00  0.00     0.031 C 
ATOM     16  C   UNL A   1      40.236  27.348  28.661  1.00  0.00     0.029 A 
ATOM     17  N   UNL A   1      41.581  29.087  28.993  1.00  0.00    -0.354 N 
ATOM     18  C   UNL A   1      45.872  28.760  28.260  1.00  0.00     0.074 A 
ATOM     19  C   UNL A   1      46.225  27.425  27.845  1.00  0.00     0.031 C 
ATOM     20  C   UNL A   1      39.483  28.327  29.174  1.00  0.00     0.029 A 
ATOM     21  C   UNL A   1      40.338  29.464  29.460  1.00  0.00     0.049 A 
ATOM     22  H   UNL A   1      42.353  29.697  28.960  1.00  0.00     0.167 HD
ATOM     23  C   UNL A   1      46.762  29.772  28.391  1.00  0.00     0.034 A 
ATOM     24  C   UNL A   1      39.922  30.584  30.081  1.00  0.00     0.034 A 
ATOM     25  C   UNL A   1      46.382  31.088  28.817  1.00  0.00     0.049 A 
ATOM     26  C   UNL A   1      40.915  31.691  30.246  1.00  0.00     0.074 A 
ATOM     27  C   UNL A   1      47.169  32.213  28.970  1.00  0.00     0.029 A 
ATOM     28  N   UNL A   1      45.091  31.443  29.191  1.00  0.00    -0.354 N 
ATOM     29  N   UNL A   1      42.192  31.684  29.948  1.00  0.00    -0.248 NA
ATOM     30  C   UNL A   1      40.417  32.966  30.771  1.00  0.00     0.031 C 
ATOM     31  C   UNL A   1      46.365  33.230  29.495  1.00  0.00     0.029 A 
ATOM     32  C   UNL A   1      45.063  32.759  29.607  1.00  0.00     0.049 A 
ATOM     33  H   UNL A   1      44.311  30.842  29.164  1.00  0.00     0.167 HD
ATOM     34  C   UNL A   1      42.648  32.967  30.206  1.00  0.00     0.074 A 
ATOM     35  C   UNL A   1      41.506  33.722  30.688  1.00  0.00     0.031 C 
ATOM     36  C   UNL A   1      43.893  33.475  30.050  1.00  0.00     0.034 A 
BRANCH  23  37
ATOM     37  C   UNL A   1      48.212  29.457  28.105  1.00  0.00     0.023 A 
ATOM     38  C   UNL A   1      48.740  29.639  26.808  1.00  0.00     0.012 A 
ATOM     39  C   UNL A   1      49.037  28.914  29.109  1.00  0.00     0.148 A 
ATOM     40  C   UNL A   1      50.030  29.206  26.495  1.00  0.00     0.002 A 
ATOM     41  C   UNL A   1      50.339  28.532  28.803  1.00  0.00     0.091 A 
ATOM     42  F   UNL A   1      48.524  28.739  30.334  1.00  0.00    -0.205 F 
ATOM     43  C   UNL A   1      50.829  28.654  27.492  1.00  0.00     0.022 A 
BRANCH  41  44
ATOM     44  S   UNL A   1      51.468  27.865  30.029  1.00  0.00     0.127 S 
ATOM     45  O   UNL A   1      50.773  26.645  30.439  1.00  0.00    -0.237 OA
ATOM     46  O   UNL A   1      52.679  27.639  29.239  1.00  0.00    -0.237 OA
ATOM     47  O   UNL A   1      51.595  28.886  31.059  1.00  0.00    -0.744 OA
ENDBRANCH  41  44
ENDBRANCH  23  37
BRANCH  24  48
ATOM     48  C   UNL A   1      38.500  30.696  30.525  1.00  0.00     0.023 A 
ATOM     49  C   UNL A   1      38.117  30.229  31.796  1.00  0.00     0.012 A 
ATOM     50  C   UNL A   1      37.553  31.383  29.735  1.00  0.00     0.148 A 
ATOM     51  C   UNL A   1      36.816  30.432  32.267  1.00  0.00     0.002 A 
ATOM     52  C   UNL A   1      36.277  31.629  30.233  1.00  0.00     0.091 A 
ATOM     53  F   UNL A   1      37.937  31.824  28.529  1.00  0.00    -0.205 F 
ATOM     54  C   UNL A   1      35.903  31.142  31.494  1.00  0.00     0.022 A 
BRANCH  52  55
ATOM     55  S   UNL A   1      35.091  32.674  29.377  1.00  0.00     0.127 S 
ATOM     56  O   UNL A   1      34.754  31.852  28.218  1.00  0.00    -0.237 OA
ATOM     57  O   UNL A   1      34.029  32.801  30.375  1.00  0.00    -0.237 OA
ATOM     58  O   UNL A   1      35.799  33.915  29.096  1.00  0.00    -0.744 OA
ENDBRANCH  52  55
ENDBRANCH  24  48
BRANCH  36  59
ATOM     59  C   UNL A   1      44.083  34.931  30.351  1.00  0.00     0.023 A 
ATOM     60  C   UNL A   1      44.584  35.337  31.602  1.00  0.00     0.012 A 
ATOM     61  C   UNL A   1      43.893  35.878  29.327  1.00  0.00     0.148 A 
ATOM     62  C   UNL A   1      44.891  36.676  31.829  1.00  0.00     0.002 A 
ATOM     63  C   UNL A   1      44.258  37.197  29.542  1.00  0.00     0.091 A 
ATOM     64  F   UNL A   1      43.389  35.459  28.157  1.00  0.00    -0.205 F 
ATOM     65  C   UNL A   1      44.746  37.601  30.795  1.00  0.00     0.022 A 
BRANCH  63  66
ATOM     66  S   UNL A   1      44.226  38.421  28.230  1.00  0.00     0.127 S 
ATOM     67  O   UNL A   1      45.119  37.819  27.241  1.00  0.00    -0.237 OA
ATOM     68  O   UNL A   1      42.813  38.430  27.855  1.00  0.00    -0.237 OA
ATOM     69  O   UNL A   1      44.706  39.663  28.822  1.00  0.00    -0.744 OA
ENDBRANCH  63  66
ENDBRANCH  36  59
ENDBRANCH  10  11
ENDBRANCH   3   5
ENDBRANCH   2   3
ENDBRANCH   1   2
BRANCH   1  70
ATOM     70  C   UNL A   1      38.622  20.745  25.407  1.00  0.00     0.274 C 
BRANCH  70  71
ATOM     71  O   UNL A   1      37.332  20.172  25.092  1.00  0.00    -0.461 OA
BRANCH  71  72
ATOM     72  C   UNL A   1      36.381  21.032  24.626  1.00  0.00     0.328 C 
ATOM     73  O   UNL A   1      36.658  21.949  23.862  1.00  0.00    -0.250 OA
BRANCH  72  74
ATOM     74  C   UNL A   1      34.908  20.649  25.141  1.00  0.00     0.195 C 
ATOM     75  C   UNL A   1      34.144  22.007  24.910  1.00  0.00     0.046 C 
ATOM     76  N   UNL A   1      33.680  19.526  24.628  1.00  0.00    -0.328 N 
ATOM     77  C   UNL A   1      32.669  21.863  25.278  1.00  0.00     0.001 C 
ATOM     78  C   UNL A   1      32.482  20.359  25.469  1.00  0.00     0.128 C 
ATOM     79  C   UNL A   1      31.717  22.394  24.177  1.00  0.00     0.071 C 
ATOM     80  C   UNL A   1      32.320  22.582  26.611  1.00  0.00     0.071 C 
ATOM     81  C   UNL A   1      31.705  23.917  24.092  1.00  0.00     0.271 C 
ATOM     82  C   UNL A   1      32.235  24.103  26.488  1.00  0.00     0.271 C 
ATOM     83  N   UNL A   1      31.362  24.495  25.387  1.00  0.00    -0.267 N 
ATOM     84  H   UNL A   1      32.093  23.895  25.108  1.00  0.00     0.357 HD
BRANCH  76  85
ATOM     85  C   UNL A   1      33.688  17.791  23.645  1.00  0.00     0.226 C 
ATOM     86  O   UNL A   1      33.648  17.549  22.410  1.00  0.00    -0.275 OA
BRANCH  85  87
ATOM     87  C   UNL A   1      33.719  16.117  24.164  1.00  0.00     0.079 C 
ATOM     88  C   UNL A   1      34.652  15.858  25.368  1.00  0.00     0.014 C 
ATOM     89  C   UNL A   1      33.264  15.321  25.378  1.00  0.00     0.014 C 
ENDBRANCH  85  87
ENDBRANCH  76  85
BRANCH  83  90
ATOM     90  C   UNL A   1      30.396  25.471  25.614  1.00  0.00     0.344 C 
ATOM     91  O   UNL A   1      29.535  25.399  26.487  1.00  0.00    -0.226 OA
BRANCH  90  92
ATOM     92  C   UNL A   1      30.409  26.705  24.804  1.00  0.00     0.083 A 
ATOM     93  C   UNL A   1      29.405  26.970  23.865  1.00  0.00     0.018 A 
ATOM     94  C   UNL A   1      31.419  27.639  25.047  1.00  0.00     0.064 A 
ATOM     95  C   UNL A   1      29.447  28.158  23.130  1.00  0.00     0.005 A 
ATOM     96  C   UNL A   1      31.445  28.817  24.314  1.00  0.00     0.116 A 
ATOM     97  C   UNL A   1      30.473  29.082  23.351  1.00  0.00     0.046 A 
BRANCH  96  98
ATOM     98  O   UNL A   1      32.450  29.703  24.571  1.00  0.00    -0.508 OA
ATOM     99  H   UNL A   1      33.166  29.452  25.121  1.00  0.00     0.293 HD
ENDBRANCH  96  98
ENDBRANCH  90  92
ENDBRANCH  83  90
ENDBRANCH  72  74
ENDBRANCH  71  72
ENDBRANCH  70  71
ENDBRANCH   1  70
TORSDOF 19
ENDMDL
