MODEL 1
REMARK VINA RESULT:     -11.5      0.000      0.000
REMARK SMILES Cc1cc(C)c2c(=O)n(CCCC(=O)OCCOC(=O)c3ccc(-c4c5nc(c(-c6cccc(S(=O)(=O)[O-])c6F)c6ccc([nH]6)c(-c6cccc(S(=O)(=O)[O-])c6F)c6nc(c(-c7cccc(S(=O)(=O)[O-])c7F)c7ccc4[nH]7)C=C6)C=C5)cc3)sc2n1
REMARK SMILES IDX 16 1 15 2 13 3 14 4 12 5 11 6 10 7 9 8 1 9 2 10 3 11 86 12
REMARK SMILES IDX 4 13 85 14 5 15 6 16 84 17 7 18 8 19 17 20 18 21 19 22 20 23
REMARK SMILES IDX 21 24 22 25 83 26 23 27 82 28 24 29 25 30 26 31 76 32 27 33
REMARK SMILES IDX 81 34 75 35 77 36 28 37 80 38 74 39 73 40 29 42 61 43 41 44
REMARK SMILES IDX 60 45 42 46 45 47 59 48 78 49 43 50 44 51 58 53 79 54 46 55
REMARK SMILES IDX 30 56 31 57 39 58 32 59 34 60 40 61 33 62 35 63 36 64 37 65
REMARK SMILES IDX 38 66 62 67 63 68 71 69 64 70 66 71 72 72 65 73 67 74 68 75
REMARK SMILES IDX 69 76 70 77 47 78 48 79 56 80 49 81 51 82 57 83 50 84 52 85
REMARK SMILES IDX 53 86 54 87 55 88
REMARK H PARENT 77 41 45 52
REMARK Flexibility Score: inf
ROOT
ATOM      1  C   UNL A   1      36.340  20.666  25.011  1.00  0.00     0.274 C 
ENDROOT
BRANCH   1   2
ATOM      2  O   UNL A   1      36.601  22.064  24.798  1.00  0.00    -0.462 OA
BRANCH   2   3
ATOM      3  C   UNL A   1      36.070  22.671  23.712  1.00  0.00     0.305 C 
ATOM      4  O   UNL A   1      36.711  22.989  22.717  1.00  0.00    -0.252 OA
BRANCH   3   5
ATOM      5  C   UNL A   1      34.591  22.993  23.865  1.00  0.00     0.124 C 
BRANCH   5   6
ATOM      6  C   UNL A   1      34.126  24.339  24.445  1.00  0.00     0.035 C 
BRANCH   6   7
ATOM      7  C   UNL A   1      32.629  24.590  24.690  1.00  0.00     0.139 C 
BRANCH   7   8
ATOM      8  N   UNL A   1      32.132  25.852  24.163  1.00  0.00    -0.262 N 
ATOM      9  C   UNL A   1      28.409  30.016  21.796  1.00  0.00     0.067 C 
ATOM     10  C   UNL A   1      29.503  29.378  22.595  1.00  0.00     0.039 A 
ATOM     11  C   UNL A   1      30.058  30.022  23.711  1.00  0.00     0.027 A 
ATOM     12  N   UNL A   1      29.897  28.157  22.186  1.00  0.00    -0.241 NA
ATOM     13  C   UNL A   1      31.014  29.362  24.502  1.00  0.00    -0.033 A 
ATOM     14  C   UNL A   1      30.798  27.549  22.972  1.00  0.00     0.146 A 
ATOM     15  C   UNL A   1      31.653  30.027  25.678  1.00  0.00     0.045 C 
ATOM     16  C   UNL A   1      31.332  28.062  24.138  1.00  0.00     0.081 A 
ATOM     17  S   UNL A   1      31.429  25.956  22.607  1.00  0.00    -0.035 S 
ATOM     18  C   UNL A   1      32.126  27.047  24.866  1.00  0.00     0.270 A 
ATOM     19  O   UNL A   1      32.633  27.263  25.958  1.00  0.00    -0.268 OA
ENDBRANCH   7   8
ENDBRANCH   6   7
ENDBRANCH   5   6
ENDBRANCH   3   5
ENDBRANCH   2   3
ENDBRANCH   1   2
BRANCH   1  20
ATOM     20  C   UNL A   1      37.639  19.884  24.932  1.00  0.00     0.275 C 
BRANCH  20  21
ATOM     21  O   UNL A   1      38.714  20.686  25.407  1.00  0.00    -0.458 OA
BRANCH  21  22
ATOM     22  C   UNL A   1      39.835  19.990  25.696  1.00  0.00     0.338 C 
ATOM     23  O   UNL A   1      40.044  18.799  25.538  1.00  0.00    -0.246 OA
BRANCH  22  24
ATOM     24  C   UNL A   1      40.765  20.855  26.397  1.00  0.00     0.060 A 
ATOM     25  C   UNL A   1      40.792  20.808  27.795  1.00  0.00     0.016 A 
ATOM     26  C   UNL A   1      41.329  21.896  25.654  1.00  0.00     0.016 A 
ATOM     27  C   UNL A   1      41.263  21.912  28.467  1.00  0.00     0.010 A 
ATOM     28  C   UNL A   1      41.770  23.000  26.322  1.00  0.00     0.010 A 
ATOM     29  C   UNL A   1      41.664  23.018  27.713  1.00  0.00    -0.014 A 
BRANCH  29  30
ATOM     30  C   UNL A   1      42.080  24.216  28.400  1.00  0.00     0.031 A 
ATOM     31  C   UNL A   1      41.115  25.328  28.251  1.00  0.00     0.074 A 
ATOM     32  C   UNL A   1      43.133  24.194  29.238  1.00  0.00     0.049 A 
ATOM     33  N   UNL A   1      41.315  26.484  27.714  1.00  0.00    -0.248 NA
ATOM     34  C   UNL A   1      39.705  25.056  28.591  1.00  0.00     0.031 C 
ATOM     35  C   UNL A   1      43.916  23.027  29.662  1.00  0.00     0.029 A 
ATOM     36  N   UNL A   1      43.610  25.188  30.028  1.00  0.00    -0.354 N 
ATOM     37  C   UNL A   1      40.111  27.164  27.870  1.00  0.00     0.074 A 
ATOM     38  C   UNL A   1      39.115  26.182  28.200  1.00  0.00     0.031 C 
ATOM     39  C   UNL A   1      44.570  23.328  30.807  1.00  0.00     0.029 A 
ATOM     40  C   UNL A   1      44.352  24.730  31.114  1.00  0.00     0.049 A 
ATOM     41  H   UNL A   1      43.448  26.143  29.852  1.00  0.00     0.167 HD
ATOM     42  C   UNL A   1      40.074  28.515  28.002  1.00  0.00     0.034 A 
ATOM     43  C   UNL A   1      44.656  25.443  32.226  1.00  0.00     0.034 A 
ATOM     44  C   UNL A   1      41.295  29.130  27.565  1.00  0.00     0.049 A 
ATOM     45  C   UNL A   1      44.465  26.875  31.891  1.00  0.00     0.074 A 
ATOM     46  C   UNL A   1      41.991  29.164  26.373  1.00  0.00     0.029 A 
ATOM     47  N   UNL A   1      42.187  29.501  28.541  1.00  0.00    -0.354 N 
ATOM     48  N   UNL A   1      45.194  27.522  31.026  1.00  0.00    -0.248 NA
ATOM     49  C   UNL A   1      43.180  27.480  32.205  1.00  0.00     0.031 C 
ATOM     50  C   UNL A   1      43.364  29.108  26.747  1.00  0.00     0.029 A 
ATOM     51  C   UNL A   1      43.436  29.101  28.142  1.00  0.00     0.049 A 
ATOM     52  H   UNL A   1      41.969  29.971  29.378  1.00  0.00     0.167 HD
ATOM     53  C   UNL A   1      44.292  28.341  30.359  1.00  0.00     0.074 A 
ATOM     54  C   UNL A   1      43.100  28.360  31.204  1.00  0.00     0.031 C 
ATOM     55  C   UNL A   1      44.484  28.683  29.051  1.00  0.00     0.034 A 
BRANCH  42  56
ATOM     56  C   UNL A   1      39.062  29.235  28.852  1.00  0.00     0.023 A 
ATOM     57  C   UNL A   1      38.257  30.210  28.233  1.00  0.00     0.012 A 
ATOM     58  C   UNL A   1      39.021  29.165  30.265  1.00  0.00     0.148 A 
ATOM     59  C   UNL A   1      37.453  31.074  28.986  1.00  0.00     0.002 A 
ATOM     60  C   UNL A   1      38.146  29.951  31.000  1.00  0.00     0.091 A 
ATOM     61  F   UNL A   1      39.928  28.435  30.925  1.00  0.00    -0.205 F 
ATOM     62  C   UNL A   1      37.380  30.930  30.367  1.00  0.00     0.022 A 
BRANCH  60  63
ATOM     63  S   UNL A   1      37.953  29.738  32.773  1.00  0.00     0.127 S 
ATOM     64  O   UNL A   1      36.991  30.788  33.094  1.00  0.00    -0.237 OA
ATOM     65  O   UNL A   1      37.433  28.372  32.854  1.00  0.00    -0.237 OA
ATOM     66  O   UNL A   1      39.292  29.897  33.329  1.00  0.00    -0.744 OA
ENDBRANCH  60  63
ENDBRANCH  42  56
BRANCH  43  67
ATOM     67  C   UNL A   1      44.781  24.993  33.635  1.00  0.00     0.023 A 
ATOM     68  C   UNL A   1      43.611  24.795  34.396  1.00  0.00     0.012 A 
ATOM     69  C   UNL A   1      45.996  24.469  34.134  1.00  0.00     0.148 A 
ATOM     70  C   UNL A   1      43.638  24.060  35.586  1.00  0.00     0.002 A 
ATOM     71  C   UNL A   1      46.018  23.741  35.320  1.00  0.00     0.091 A 
ATOM     72  F   UNL A   1      47.107  24.601  33.399  1.00  0.00    -0.205 F 
ATOM     73  C   UNL A   1      44.838  23.522  36.042  1.00  0.00     0.022 A 
BRANCH  71  74
ATOM     74  S   UNL A   1      47.520  22.978  35.951  1.00  0.00     0.127 S 
ATOM     75  O   UNL A   1      48.370  24.143  36.197  1.00  0.00    -0.237 OA
ATOM     76  O   UNL A   1      47.034  22.310  37.155  1.00  0.00    -0.237 OA
ATOM     77  O   UNL A   1      47.997  22.100  34.890  1.00  0.00    -0.744 OA
ENDBRANCH  71  74
ENDBRANCH  43  67
BRANCH  55  78
ATOM     78  C   UNL A   1      45.817  28.352  28.416  1.00  0.00     0.023 A 
ATOM     79  C   UNL A   1      46.959  29.166  28.587  1.00  0.00     0.012 A 
ATOM     80  C   UNL A   1      45.970  27.096  27.807  1.00  0.00     0.148 A 
ATOM     81  C   UNL A   1      48.216  28.741  28.147  1.00  0.00     0.002 A 
ATOM     82  C   UNL A   1      47.230  26.655  27.420  1.00  0.00     0.091 A 
ATOM     83  F   UNL A   1      44.878  26.332  27.652  1.00  0.00    -0.205 F 
ATOM     84  C   UNL A   1      48.356  27.479  27.579  1.00  0.00     0.022 A 
BRANCH  82  85
ATOM     85  S   UNL A   1      47.497  24.984  26.820  1.00  0.00     0.127 S 
ATOM     86  O   UNL A   1      47.030  25.078  25.439  1.00  0.00    -0.237 OA
ATOM     87  O   UNL A   1      48.944  24.825  26.968  1.00  0.00    -0.237 OA
ATOM     88  O   UNL A   1      46.712  24.116  27.690  1.00  0.00    -0.744 OA
ENDBRANCH  82  85
ENDBRANCH  55  78
ENDBRANCH  29  30
ENDBRANCH  22  24
ENDBRANCH  21  22
ENDBRANCH  20  21
ENDBRANCH   1  20
TORSDOF 17
ENDMDL
MODEL 2
REMARK VINA RESULT:     -11.4      3.150      7.277
REMARK SMILES Cc1cc(C)c2c(=O)n(CCCC(=O)OCCOC(=O)c3ccc(-c4c5nc(c(-c6cccc(S(=O)(=O)[O-])c6F)c6ccc([nH]6)c(-c6cccc(S(=O)(=O)[O-])c6F)c6nc(c(-c7cccc(S(=O)(=O)[O-])c7F)c7ccc4[nH]7)C=C6)C=C5)cc3)sc2n1
REMARK SMILES IDX 16 1 15 2 13 3 14 4 12 5 11 6 10 7 9 8 1 9 2 10 3 11 86 12
REMARK SMILES IDX 4 13 85 14 5 15 6 16 84 17 7 18 8 19 17 20 18 21 19 22 20 23
REMARK SMILES IDX 21 24 22 25 83 26 23 27 82 28 24 29 25 30 26 31 76 32 27 33
REMARK SMILES IDX 81 34 75 35 77 36 28 37 80 38 74 39 73 40 29 42 61 43 41 44
REMARK SMILES IDX 60 45 42 46 45 47 59 48 78 49 43 50 44 51 58 53 79 54 46 55
REMARK SMILES IDX 30 56 31 57 39 58 32 59 34 60 40 61 33 62 35 63 36 64 37 65
REMARK SMILES IDX 38 66 62 67 63 68 71 69 64 70 66 71 72 72 65 73 67 74 68 75
REMARK SMILES IDX 69 76 70 77 47 78 48 79 56 80 49 81 51 82 57 83 50 84 52 85
REMARK SMILES IDX 53 86 54 87 55 88
REMARK H PARENT 77 41 45 52
REMARK Flexibility Score: inf
ROOT
ATOM      1  C   UNL A   1      32.800  30.016  25.958  1.00  0.00     0.274 C 
ENDROOT
BRANCH   1   2
ATOM      2  O   UNL A   1      31.641  29.257  26.344  1.00  0.00    -0.462 OA
BRANCH   2   3
ATOM      3  C   UNL A   1      31.814  28.064  26.957  1.00  0.00     0.305 C 
ATOM      4  O   UNL A   1      31.324  27.766  28.040  1.00  0.00    -0.252 OA
BRANCH   3   5
ATOM      5  C   UNL A   1      32.747  27.129  26.202  1.00  0.00     0.124 C 
BRANCH   5   6
ATOM      6  C   UNL A   1      32.200  25.964  25.362  1.00  0.00     0.035 C 
BRANCH   6   7
ATOM      7  C   UNL A   1      31.943  26.158  23.859  1.00  0.00     0.139 C 
BRANCH   7   8
ATOM      8  N   UNL A   1      31.059  27.268  23.533  1.00  0.00    -0.262 N 
ATOM      9  C   UNL A   1      28.159  31.560  20.376  1.00  0.00     0.067 C 
ATOM     10  C   UNL A   1      28.460  30.504  21.393  1.00  0.00     0.039 A 
ATOM     11  C   UNL A   1      27.432  29.840  22.079  1.00  0.00     0.027 A 
ATOM     12  N   UNL A   1      29.763  30.227  21.588  1.00  0.00    -0.241 NA
ATOM     13  C   UNL A   1      27.736  28.785  22.956  1.00  0.00    -0.033 A 
ATOM     14  C   UNL A   1      30.018  29.205  22.419  1.00  0.00     0.146 A 
ATOM     15  C   UNL A   1      26.671  28.077  23.730  1.00  0.00     0.045 C 
ATOM     16  C   UNL A   1      29.073  28.433  23.066  1.00  0.00     0.081 A 
ATOM     17  S   UNL A   1      31.651  28.694  22.794  1.00  0.00    -0.035 S 
ATOM     18  C   UNL A   1      29.687  27.262  23.729  1.00  0.00     0.270 A 
ATOM     19  O   UNL A   1      29.029  26.406  24.303  1.00  0.00    -0.268 OA
ENDBRANCH   7   8
ENDBRANCH   6   7
ENDBRANCH   5   6
ENDBRANCH   3   5
ENDBRANCH   2   3
ENDBRANCH   1   2
BRANCH   1  20
ATOM     20  C   UNL A   1      33.297  30.830  27.139  1.00  0.00     0.275 C 
BRANCH  20  21
ATOM     21  O   UNL A   1      34.629  30.448  27.461  1.00  0.00    -0.458 OA
BRANCH  21  22
ATOM     22  C   UNL A   1      35.366  31.435  28.014  1.00  0.00     0.338 C 
ATOM     23  O   UNL A   1      35.243  32.639  27.870  1.00  0.00    -0.246 OA
BRANCH  22  24
ATOM     24  C   UNL A   1      36.485  30.849  28.728  1.00  0.00     0.060 A 
ATOM     25  C   UNL A   1      37.550  31.681  29.092  1.00  0.00     0.016 A 
ATOM     26  C   UNL A   1      36.572  29.454  28.714  1.00  0.00     0.016 A 
ATOM     27  C   UNL A   1      38.780  31.098  29.299  1.00  0.00     0.010 A 
ATOM     28  C   UNL A   1      37.798  28.882  28.893  1.00  0.00     0.010 A 
ATOM     29  C   UNL A   1      38.892  29.718  29.112  1.00  0.00    -0.014 A 
BRANCH  29  30
ATOM     30  C   UNL A   1      40.190  29.102  29.240  1.00  0.00     0.031 A 
ATOM     31  C   UNL A   1      40.608  28.929  30.649  1.00  0.00     0.074 A 
ATOM     32  C   UNL A   1      40.807  28.575  28.165  1.00  0.00     0.049 A 
ATOM     33  N   UNL A   1      41.637  29.437  31.237  1.00  0.00    -0.248 NA
ATOM     34  C   UNL A   1      39.669  28.243  31.557  1.00  0.00     0.031 C 
ATOM     35  C   UNL A   1      40.274  28.438  26.804  1.00  0.00     0.029 A 
ATOM     36  N   UNL A   1      41.975  27.887  28.109  1.00  0.00    -0.354 N 
ATOM     37  C   UNL A   1      41.594  28.930  32.533  1.00  0.00     0.074 A 
ATOM     38  C   UNL A   1      40.273  28.401  32.732  1.00  0.00     0.031 C 
ATOM     39  C   UNL A   1      40.984  27.493  26.147  1.00  0.00     0.029 A 
ATOM     40  C   UNL A   1      42.084  27.064  26.991  1.00  0.00     0.049 A 
ATOM     41  H   UNL A   1      42.679  27.962  28.792  1.00  0.00     0.167 HD
ATOM     42  C   UNL A   1      42.729  28.720  33.249  1.00  0.00     0.034 A 
ATOM     43  C   UNL A   1      42.954  26.035  26.844  1.00  0.00     0.034 A 
ATOM     44  C   UNL A   1      43.848  29.431  32.699  1.00  0.00     0.049 A 
ATOM     45  C   UNL A   1      44.031  26.229  27.845  1.00  0.00     0.074 A 
ATOM     46  C   UNL A   1      44.126  30.761  32.456  1.00  0.00     0.029 A 
ATOM     47  N   UNL A   1      44.726  28.708  31.930  1.00  0.00    -0.354 N 
ATOM     48  N   UNL A   1      44.877  27.220  27.819  1.00  0.00    -0.248 NA
ATOM     49  C   UNL A   1      43.896  25.553  29.126  1.00  0.00     0.031 C 
ATOM     50  C   UNL A   1      44.838  30.768  31.222  1.00  0.00     0.029 A 
ATOM     51  C   UNL A   1      45.006  29.444  30.808  1.00  0.00     0.049 A 
ATOM     52  H   UNL A   1      45.089  27.818  32.144  1.00  0.00     0.167 HD
ATOM     53  C   UNL A   1      45.030  27.578  29.152  1.00  0.00     0.074 A 
ATOM     54  C   UNL A   1      44.500  26.448  29.912  1.00  0.00     0.031 C 
ATOM     55  C   UNL A   1      45.292  28.870  29.509  1.00  0.00     0.034 A 
BRANCH  42  56
ATOM     56  C   UNL A   1      42.888  27.594  34.235  1.00  0.00     0.023 A 
ATOM     57  C   UNL A   1      42.696  27.883  35.599  1.00  0.00     0.012 A 
ATOM     58  C   UNL A   1      43.436  26.330  33.912  1.00  0.00     0.148 A 
ATOM     59  C   UNL A   1      43.036  26.957  36.592  1.00  0.00     0.002 A 
ATOM     60  C   UNL A   1      43.675  25.378  34.892  1.00  0.00     0.091 A 
ATOM     61  F   UNL A   1      43.865  26.084  32.668  1.00  0.00    -0.205 F 
ATOM     62  C   UNL A   1      43.504  25.696  36.239  1.00  0.00     0.022 A 
BRANCH  60  63
ATOM     63  S   UNL A   1      44.194  23.710  34.475  1.00  0.00     0.127 S 
ATOM     64  O   UNL A   1      45.401  23.962  33.693  1.00  0.00    -0.237 OA
ATOM     65  O   UNL A   1      44.421  23.128  35.798  1.00  0.00    -0.237 OA
ATOM     66  O   UNL A   1      43.070  23.124  33.754  1.00  0.00    -0.744 OA
ENDBRANCH  60  63
ENDBRANCH  42  56
BRANCH  43  67
ATOM     67  C   UNL A   1      42.776  24.736  26.148  1.00  0.00     0.023 A 
ATOM     68  C   UNL A   1      43.796  24.274  25.291  1.00  0.00     0.012 A 
ATOM     69  C   UNL A   1      41.775  23.820  26.546  1.00  0.00     0.148 A 
ATOM     70  C   UNL A   1      43.847  22.936  24.885  1.00  0.00     0.002 A 
ATOM     71  C   UNL A   1      41.829  22.491  26.137  1.00  0.00     0.091 A 
ATOM     72  F   UNL A   1      40.829  24.227  27.401  1.00  0.00    -0.205 F 
ATOM     73  C   UNL A   1      42.872  22.041  25.318  1.00  0.00     0.022 A 
BRANCH  71  74
ATOM     74  S   UNL A   1      40.632  21.267  26.688  1.00  0.00     0.127 S 
ATOM     75  O   UNL A   1      40.730  21.382  28.143  1.00  0.00    -0.237 OA
ATOM     76  O   UNL A   1      39.391  21.782  26.115  1.00  0.00    -0.237 OA
ATOM     77  O   UNL A   1      41.092  19.991  26.155  1.00  0.00    -0.744 OA
ENDBRANCH  71  74
ENDBRANCH  43  67
BRANCH  55  78
ATOM     78  C   UNL A   1      45.652  29.853  28.416  1.00  0.00     0.023 A 
ATOM     79  C   UNL A   1      44.686  30.659  27.775  1.00  0.00     0.012 A 
ATOM     80  C   UNL A   1      47.012  30.109  28.175  1.00  0.00     0.148 A 
ATOM     81  C   UNL A   1      45.069  31.685  26.905  1.00  0.00     0.002 A 
ATOM     82  C   UNL A   1      47.389  31.164  27.352  1.00  0.00     0.091 A 
ATOM     83  F   UNL A   1      47.920  29.336  28.791  1.00  0.00    -0.205 F 
ATOM     84  C   UNL A   1      46.421  31.949  26.706  1.00  0.00     0.022 A 
BRANCH  82  85
ATOM     85  S   UNL A   1      49.109  31.646  27.174  1.00  0.00     0.127 S 
ATOM     86  O   UNL A   1      49.499  31.906  28.558  1.00  0.00    -0.237 OA
ATOM     87  O   UNL A   1      49.711  30.451  26.582  1.00  0.00    -0.237 OA
ATOM     88  O   UNL A   1      49.110  32.809  26.294  1.00  0.00    -0.744 OA
ENDBRANCH  82  85
ENDBRANCH  55  78
ENDBRANCH  29  30
ENDBRANCH  22  24
ENDBRANCH  21  22
ENDBRANCH  20  21
ENDBRANCH   1  20
TORSDOF 17
ENDMDL
MODEL 3
REMARK VINA RESULT:     -11.0      4.670     10.326
REMARK SMILES Cc1cc(C)c2c(=O)n(CCCC(=O)OCCOC(=O)c3ccc(-c4c5nc(c(-c6cccc(S(=O)(=O)[O-])c6F)c6ccc([nH]6)c(-c6cccc(S(=O)(=O)[O-])c6F)c6nc(c(-c7cccc(S(=O)(=O)[O-])c7F)c7ccc4[nH]7)C=C6)C=C5)cc3)sc2n1
REMARK SMILES IDX 16 1 15 2 13 3 14 4 12 5 11 6 10 7 9 8 1 9 2 10 3 11 86 12
REMARK SMILES IDX 4 13 85 14 5 15 6 16 84 17 7 18 8 19 17 20 18 21 19 22 20 23
REMARK SMILES IDX 21 24 22 25 83 26 23 27 82 28 24 29 25 30 26 31 76 32 27 33
REMARK SMILES IDX 81 34 75 35 77 36 28 37 80 38 74 39 73 40 29 42 61 43 41 44
REMARK SMILES IDX 60 45 42 46 45 47 59 48 78 49 43 50 44 51 58 53 79 54 46 55
REMARK SMILES IDX 30 56 31 57 39 58 32 59 34 60 40 61 33 62 35 63 36 64 37 65
REMARK SMILES IDX 38 66 62 67 63 68 71 69 64 70 66 71 72 72 65 73 67 74 68 75
REMARK SMILES IDX 69 76 70 77 47 78 48 79 56 80 49 81 51 82 57 83 50 84 52 85
REMARK SMILES IDX 53 86 54 87 55 88
REMARK H PARENT 77 41 45 52
REMARK Flexibility Score: inf
ROOT
ATOM      1  C   UNL A   1      31.693  30.007  25.867  1.00  0.00     0.274 C 
ENDROOT
BRANCH   1   2
ATOM      2  O   UNL A   1      32.903  29.910  25.098  1.00  0.00    -0.462 OA
BRANCH   2   3
ATOM      3  C   UNL A   1      33.089  28.831  24.303  1.00  0.00     0.305 C 
ATOM      4  O   UNL A   1      33.654  28.864  23.216  1.00  0.00    -0.252 OA
BRANCH   3   5
ATOM      5  C   UNL A   1      32.458  27.562  24.855  1.00  0.00     0.124 C 
BRANCH   5   6
ATOM      6  C   UNL A   1      33.322  26.366  25.286  1.00  0.00     0.035 C 
BRANCH   6   7
ATOM      7  C   UNL A   1      33.907  25.421  24.224  1.00  0.00     0.139 C 
BRANCH   7   8
ATOM      8  N   UNL A   1      33.828  24.007  24.559  1.00  0.00    -0.262 N 
ATOM      9  C   UNL A   1      32.407  18.116  24.293  1.00  0.00     0.067 C 
ATOM     10  C   UNL A   1      33.155  19.387  24.552  1.00  0.00     0.039 A 
ATOM     11  C   UNL A   1      34.546  19.387  24.731  1.00  0.00     0.027 A 
ATOM     12  N   UNL A   1      32.416  20.511  24.580  1.00  0.00    -0.241 NA
ATOM     13  C   UNL A   1      35.238  20.602  24.874  1.00  0.00    -0.033 A 
ATOM     14  C   UNL A   1      33.108  21.654  24.702  1.00  0.00     0.146 A 
ATOM     15  C   UNL A   1      36.715  20.642  25.102  1.00  0.00     0.045 C 
ATOM     16  C   UNL A   1      34.482  21.762  24.791  1.00  0.00     0.081 A 
ATOM     17  S   UNL A   1      32.322  23.218  24.754  1.00  0.00    -0.035 S 
ATOM     18  C   UNL A   1      34.924  23.171  24.696  1.00  0.00     0.270 A 
ATOM     19  O   UNL A   1      36.104  23.494  24.681  1.00  0.00    -0.268 OA
ENDBRANCH   7   8
ENDBRANCH   6   7
ENDBRANCH   5   6
ENDBRANCH   3   5
ENDBRANCH   2   3
ENDBRANCH   1   2
BRANCH   1  20
ATOM     20  C   UNL A   1      31.586  31.391  26.483  1.00  0.00     0.275 C 
BRANCH  20  21
ATOM     21  O   UNL A   1      32.705  31.630  27.328  1.00  0.00    -0.458 OA
BRANCH  21  22
ATOM     22  C   UNL A   1      32.792  32.900  27.780  1.00  0.00     0.338 C 
ATOM     23  O   UNL A   1      32.017  33.822  27.591  1.00  0.00    -0.246 OA
BRANCH  22  24
ATOM     24  C   UNL A   1      34.075  33.085  28.432  1.00  0.00     0.060 A 
ATOM     25  C   UNL A   1      35.093  33.734  27.723  1.00  0.00     0.016 A 
ATOM     26  C   UNL A   1      34.305  32.326  29.582  1.00  0.00     0.016 A 
ATOM     27  C   UNL A   1      36.394  33.484  28.095  1.00  0.00     0.010 A 
ATOM     28  C   UNL A   1      35.597  32.058  29.930  1.00  0.00     0.010 A 
ATOM     29  C   UNL A   1      36.618  32.583  29.140  1.00  0.00    -0.014 A 
BRANCH  29  30
ATOM     30  C   UNL A   1      37.976  32.242  29.487  1.00  0.00     0.031 A 
ATOM     31  C   UNL A   1      38.300  30.824  29.216  1.00  0.00     0.074 A 
ATOM     32  C   UNL A   1      38.860  33.203  29.817  1.00  0.00     0.049 A 
ATOM     33  N   UNL A   1      38.665  29.921  30.061  1.00  0.00    -0.248 NA
ATOM     34  C   UNL A   1      38.016  30.308  27.864  1.00  0.00     0.031 C 
ATOM     35  C   UNL A   1      38.659  34.657  29.779  1.00  0.00     0.029 A 
ATOM     36  N   UNL A   1      40.184  33.083  30.084  1.00  0.00    -0.354 N 
ATOM     37  C   UNL A   1      38.887  28.782  29.292  1.00  0.00     0.074 A 
ATOM     38  C   UNL A   1      38.267  29.010  28.017  1.00  0.00     0.031 C 
ATOM     39  C   UNL A   1      39.865  35.267  29.747  1.00  0.00     0.029 A 
ATOM     40  C   UNL A   1      40.901  34.260  29.893  1.00  0.00     0.049 A 
ATOM     41  H   UNL A   1      40.600  32.243  30.385  1.00  0.00     0.167 HD
ATOM     42  C   UNL A   1      39.809  27.852  29.654  1.00  0.00     0.034 A 
ATOM     43  C   UNL A   1      42.247  34.358  29.754  1.00  0.00     0.034 A 
ATOM     44  C   UNL A   1      40.183  27.977  31.035  1.00  0.00     0.049 A 
ATOM     45  C   UNL A   1      42.831  33.103  30.284  1.00  0.00     0.074 A 
ATOM     46  C   UNL A   1      39.500  27.915  32.232  1.00  0.00     0.029 A 
ATOM     47  N   UNL A   1      41.369  28.615  31.301  1.00  0.00    -0.354 N 
ATOM     48  N   UNL A   1      42.778  32.750  31.537  1.00  0.00    -0.248 NA
ATOM     49  C   UNL A   1      43.102  32.029  29.341  1.00  0.00     0.031 C 
ATOM     50  C   UNL A   1      40.102  28.913  33.051  1.00  0.00     0.029 A 
ATOM     51  C   UNL A   1      41.152  29.490  32.333  1.00  0.00     0.049 A 
ATOM     52  H   UNL A   1      42.223  28.470  30.834  1.00  0.00     0.167 HD
ATOM     53  C   UNL A   1      42.553  31.380  31.500  1.00  0.00     0.074 A 
ATOM     54  C   UNL A   1      42.880  30.978  30.134  1.00  0.00     0.031 C 
ATOM     55  C   UNL A   1      41.842  30.755  32.485  1.00  0.00     0.034 A 
BRANCH  42  56
ATOM     56  C   UNL A   1      40.620  27.063  28.662  1.00  0.00     0.023 A 
ATOM     57  C   UNL A   1      40.680  25.666  28.825  1.00  0.00     0.012 A 
ATOM     58  C   UNL A   1      41.506  27.643  27.723  1.00  0.00     0.148 A 
ATOM     59  C   UNL A   1      41.580  24.886  28.089  1.00  0.00     0.002 A 
ATOM     60  C   UNL A   1      42.321  26.857  26.922  1.00  0.00     0.091 A 
ATOM     61  F   UNL A   1      41.671  28.971  27.691  1.00  0.00    -0.205 F 
ATOM     62  C   UNL A   1      42.384  25.478  27.121  1.00  0.00     0.022 A 
BRANCH  60  63
ATOM     63  S   UNL A   1      43.309  27.569  25.602  1.00  0.00     0.127 S 
ATOM     64  O   UNL A   1      42.278  28.093  24.711  1.00  0.00    -0.237 OA
ATOM     65  O   UNL A   1      44.083  28.583  26.321  1.00  0.00    -0.237 OA
ATOM     66  O   UNL A   1      44.112  26.468  25.082  1.00  0.00    -0.744 OA
ENDBRANCH  60  63
ENDBRANCH  42  56
BRANCH  43  67
ATOM     67  C   UNL A   1      43.047  35.286  28.917  1.00  0.00     0.023 A 
ATOM     68  C   UNL A   1      43.092  35.083  27.522  1.00  0.00     0.012 A 
ATOM     69  C   UNL A   1      43.506  36.523  29.425  1.00  0.00     0.148 A 
ATOM     70  C   UNL A   1      43.530  36.094  26.659  1.00  0.00     0.002 A 
ATOM     71  C   UNL A   1      43.944  37.523  28.562  1.00  0.00     0.091 A 
ATOM     72  F   UNL A   1      43.422  36.753  30.741  1.00  0.00    -0.205 F 
ATOM     73  C   UNL A   1      43.945  37.318  27.177  1.00  0.00     0.022 A 
BRANCH  71  74
ATOM     74  S   UNL A   1      44.454  39.145  29.151  1.00  0.00     0.127 S 
ATOM     75  O   UNL A   1      44.779  39.832  27.901  1.00  0.00    -0.237 OA
ATOM     76  O   UNL A   1      43.241  39.619  29.812  1.00  0.00    -0.237 OA
ATOM     77  O   UNL A   1      45.598  38.911  30.022  1.00  0.00    -0.744 OA
ENDBRANCH  71  74
ENDBRANCH  43  67
BRANCH  55  78
ATOM     78  C   UNL A   1      41.515  31.542  33.736  1.00  0.00     0.023 A 
ATOM     79  C   UNL A   1      42.429  31.679  34.804  1.00  0.00     0.012 A 
ATOM     80  C   UNL A   1      40.347  32.321  33.744  1.00  0.00     0.148 A 
ATOM     81  C   UNL A   1      42.174  32.560  35.859  1.00  0.00     0.002 A 
ATOM     82  C   UNL A   1      40.124  33.235  34.767  1.00  0.00     0.091 A 
ATOM     83  F   UNL A   1      39.487  32.182  32.723  1.00  0.00    -0.205 F 
ATOM     84  C   UNL A   1      41.030  33.351  35.833  1.00  0.00     0.022 A 
BRANCH  82  85
ATOM     85  S   UNL A   1      38.746  34.385  34.714  1.00  0.00     0.127 S 
ATOM     86  O   UNL A   1      37.671  33.603  35.320  1.00  0.00    -0.237 OA
ATOM     87  O   UNL A   1      39.233  35.495  35.535  1.00  0.00    -0.237 OA
ATOM     88  O   UNL A   1      38.560  34.723  33.308  1.00  0.00    -0.744 OA
ENDBRANCH  82  85
ENDBRANCH  55  78
ENDBRANCH  29  30
ENDBRANCH  22  24
ENDBRANCH  21  22
ENDBRANCH  20  21
ENDBRANCH   1  20
TORSDOF 17
ENDMDL
