MODEL 1
REMARK VINA RESULT:     -12.6      0.000      0.000
REMARK SMILES CC[C@H](C)N1C(=O)c2ccccc2[C@@H](C(=O)OCCOC(=O)c2ccc(-c3c4nc(c(-c5cccc(S(=O)(=O)[O-])c5F)c5ccc([nH]5)c(-c5cccc(S(=O)(=O)[O-])c5F)c5nc(c(-c6cccc(S(=O)(=O)[O-])c6F)c6ccc3[nH]6)C=C5)C=C4)cc2)C12CCCCC2
REMARK SMILES IDX 19 1 18 2 17 3 15 4 16 5 14 6 5 7 6 8 86 9 7 10 8 11 87 12
REMARK SMILES IDX 91 13 9 14 13 15 88 16 90 17 10 18 12 19 89 20 11 21 3 22
REMARK SMILES IDX 4 23 2 24 1 25 20 26 21 27 22 28 23 29 24 30 85 31 25 32
REMARK SMILES IDX 84 33 26 34 27 35 28 36 78 37 29 38 83 39 77 40 79 41 30 42
REMARK SMILES IDX 82 43 76 44 75 45 31 47 63 48 43 49 62 50 44 51 47 52 61 53
REMARK SMILES IDX 80 54 45 55 46 56 60 58 81 59 48 60 32 61 33 62 41 63 34 64
REMARK SMILES IDX 36 65 42 66 35 67 37 68 38 69 39 70 40 71 64 72 65 73 73 74
REMARK SMILES IDX 66 75 68 76 74 77 67 78 69 79 70 80 71 81 72 82 49 83 50 84
REMARK SMILES IDX 58 85 51 86 53 87 59 88 52 89 54 90 55 91 56 92 57 93
REMARK H PARENT 79 46 47 57
REMARK Flexibility Score: inf
ROOT
ATOM      1  C   UNL A   1      31.941  30.253  26.814  1.00  0.00     0.275 C 
ENDROOT
BRANCH   1   2
ATOM      2  C   UNL A   1      31.805  28.963  27.632  1.00  0.00     0.274 C 
BRANCH   2   3
ATOM      3  O   UNL A   1      32.654  27.887  27.170  1.00  0.00    -0.462 OA
BRANCH   3   4
ATOM      4  C   UNL A   1      32.048  26.935  26.424  1.00  0.00     0.315 C 
ATOM      5  O   UNL A   1      30.858  26.657  26.548  1.00  0.00    -0.251 OA
BRANCH   4   6
ATOM      6  C   UNL A   1      32.986  26.086  25.541  1.00  0.00     0.156 C 
ATOM      7  N   UNL A   1      33.623  23.973  24.294  1.00  0.00    -0.329 N 
ATOM      8  C   UNL A   1      33.524  24.616  23.046  1.00  0.00     0.254 C 
ATOM      9  C   UNL A   1      32.722  24.512  25.425  1.00  0.00     0.061 C 
ATOM     10  O   UNL A   1      33.588  24.051  21.959  1.00  0.00    -0.269 OA
ATOM     11  C   UNL A   1      33.432  26.102  23.053  1.00  0.00     0.044 A 
ATOM     12  C   UNL A   1      31.265  24.172  24.988  1.00  0.00     0.030 C 
ATOM     13  C   UNL A   1      33.061  23.916  26.832  1.00  0.00     0.030 C 
ATOM     14  C   UNL A   1      33.695  26.795  21.858  1.00  0.00     0.014 A 
ATOM     15  C   UNL A   1      33.236  26.812  24.232  1.00  0.00    -0.019 A 
ATOM     16  C   UNL A   1      30.297  23.768  26.093  1.00  0.00     0.002 C 
ATOM     17  C   UNL A   1      32.225  22.790  27.443  1.00  0.00     0.002 C 
ATOM     18  C   UNL A   1      33.796  28.188  21.840  1.00  0.00     0.001 A 
ATOM     19  C   UNL A   1      33.383  28.219  24.205  1.00  0.00     0.005 A 
ATOM     20  C   UNL A   1      30.806  22.617  26.933  1.00  0.00     0.000 C 
ATOM     21  C   UNL A   1      33.651  28.900  23.020  1.00  0.00     0.000 A 
BRANCH   7  22
ATOM     22  C   UNL A   1      34.432  22.704  24.409  1.00  0.00     0.082 C 
ATOM     23  C   UNL A   1      33.692  21.443  23.954  1.00  0.00     0.031 C 
BRANCH  22  24
ATOM     24  C   UNL A   1      35.847  22.748  23.758  1.00  0.00     0.021 C 
ATOM     25  C   UNL A   1      36.913  23.477  24.573  1.00  0.00     0.006 C 
ENDBRANCH  22  24
ENDBRANCH   7  22
ENDBRANCH   4   6
ENDBRANCH   3   4
ENDBRANCH   2   3
ENDBRANCH   1   2
BRANCH   1  26
ATOM     26  O   UNL A   1      33.319  30.613  26.599  1.00  0.00    -0.458 OA
BRANCH  26  27
ATOM     27  C   UNL A   1      33.784  31.611  27.380  1.00  0.00     0.338 C 
ATOM     28  O   UNL A   1      33.230  32.681  27.605  1.00  0.00    -0.246 OA
BRANCH  27  29
ATOM     29  C   UNL A   1      35.055  31.234  28.010  1.00  0.00     0.060 A 
ATOM     30  C   UNL A   1      36.090  32.163  28.086  1.00  0.00     0.016 A 
ATOM     31  C   UNL A   1      35.183  29.985  28.626  1.00  0.00     0.016 A 
ATOM     32  C   UNL A   1      37.274  31.807  28.735  1.00  0.00     0.010 A 
ATOM     33  C   UNL A   1      36.343  29.643  29.303  1.00  0.00     0.010 A 
ATOM     34  C   UNL A   1      37.410  30.539  29.325  1.00  0.00    -0.014 A 
BRANCH  34  35
ATOM     35  C   UNL A   1      38.691  30.114  29.918  1.00  0.00     0.031 A 
ATOM     36  C   UNL A   1      39.077  30.616  31.278  1.00  0.00     0.074 A 
ATOM     37  C   UNL A   1      39.511  29.309  29.219  1.00  0.00     0.049 A 
ATOM     38  N   UNL A   1      40.067  30.235  32.038  1.00  0.00    -0.248 NA
ATOM     39  C   UNL A   1      38.256  31.696  31.857  1.00  0.00     0.031 C 
ATOM     40  C   UNL A   1      39.289  28.867  27.842  1.00  0.00     0.029 A 
ATOM     41  N   UNL A   1      40.695  28.721  29.577  1.00  0.00    -0.354 N 
ATOM     42  C   UNL A   1      39.987  31.020  33.181  1.00  0.00     0.074 A 
ATOM     43  C   UNL A   1      38.884  31.935  32.999  1.00  0.00     0.031 C 
ATOM     44  C   UNL A   1      40.289  28.045  27.482  1.00  0.00     0.029 A 
ATOM     45  C   UNL A   1      41.209  27.894  28.608  1.00  0.00     0.049 A 
ATOM     46  H   UNL A   1      41.136  28.875  30.443  1.00  0.00     0.167 HD
ATOM     47  C   UNL A   1      40.738  30.946  34.301  1.00  0.00     0.034 A 
ATOM     48  C   UNL A   1      42.273  27.070  28.648  1.00  0.00     0.034 A 
ATOM     49  C   UNL A   1      41.797  29.997  34.485  1.00  0.00     0.049 A 
ATOM     50  C   UNL A   1      43.046  26.946  29.932  1.00  0.00     0.074 A 
ATOM     51  C   UNL A   1      42.551  29.757  35.619  1.00  0.00     0.029 A 
ATOM     52  N   UNL A   1      42.252  29.131  33.504  1.00  0.00    -0.354 N 
ATOM     53  N   UNL A   1      42.838  27.550  31.077  1.00  0.00    -0.248 NA
ATOM     54  C   UNL A   1      44.170  25.999  29.946  1.00  0.00     0.031 C 
ATOM     55  C   UNL A   1      43.466  28.743  35.321  1.00  0.00     0.029 A 
ATOM     56  C   UNL A   1      43.280  28.354  34.003  1.00  0.00     0.049 A 
ATOM     57  H   UNL A   1      41.896  29.077  32.587  1.00  0.00     0.167 HD
ATOM     58  C   UNL A   1      43.786  27.041  31.955  1.00  0.00     0.074 A 
ATOM     59  C   UNL A   1      44.563  26.068  31.213  1.00  0.00     0.031 C 
ATOM     60  C   UNL A   1      44.003  27.360  33.254  1.00  0.00     0.034 A 
BRANCH  47  61
ATOM     61  C   UNL A   1      40.375  31.842  35.451  1.00  0.00     0.023 A 
ATOM     62  C   UNL A   1      41.116  33.024  35.648  1.00  0.00     0.012 A 
ATOM     63  C   UNL A   1      39.271  31.564  36.277  1.00  0.00     0.148 A 
ATOM     64  C   UNL A   1      40.771  33.916  36.661  1.00  0.00     0.002 A 
ATOM     65  C   UNL A   1      38.917  32.472  37.269  1.00  0.00     0.091 A 
ATOM     66  F   UNL A   1      38.593  30.426  36.079  1.00  0.00    -0.205 F 
ATOM     67  C   UNL A   1      39.667  33.645  37.465  1.00  0.00     0.022 A 
BRANCH  65  68
ATOM     68  S   UNL A   1      37.488  32.247  38.333  1.00  0.00     0.127 S 
ATOM     69  O   UNL A   1      37.966  32.816  39.593  1.00  0.00    -0.237 OA
ATOM     70  O   UNL A   1      36.470  33.047  37.651  1.00  0.00    -0.237 OA
ATOM     71  O   UNL A   1      37.226  30.815  38.364  1.00  0.00    -0.744 OA
ENDBRANCH  65  68
ENDBRANCH  47  61
BRANCH  48  72
ATOM     72  C   UNL A   1      42.561  26.197  27.479  1.00  0.00     0.023 A 
ATOM     73  C   UNL A   1      43.389  26.688  26.452  1.00  0.00     0.012 A 
ATOM     74  C   UNL A   1      42.093  24.871  27.416  1.00  0.00     0.148 A 
ATOM     75  C   UNL A   1      43.740  25.876  25.374  1.00  0.00     0.002 A 
ATOM     76  C   UNL A   1      42.474  24.056  26.356  1.00  0.00     0.091 A 
ATOM     77  F   UNL A   1      41.305  24.431  28.407  1.00  0.00    -0.205 F 
ATOM     78  C   UNL A   1      43.291  24.559  25.330  1.00  0.00     0.022 A 
BRANCH  76  79
ATOM     79  S   UNL A   1      42.028  22.319  26.258  1.00  0.00     0.127 S 
ATOM     80  O   UNL A   1      42.714  21.903  25.037  1.00  0.00    -0.237 OA
ATOM     81  O   UNL A   1      42.601  21.792  27.497  1.00  0.00    -0.237 OA
ATOM     82  O   UNL A   1      40.573  22.287  26.202  1.00  0.00    -0.744 OA
ENDBRANCH  76  79
ENDBRANCH  48  72
BRANCH  60  83
ATOM     83  C   UNL A   1      45.123  26.665  33.975  1.00  0.00     0.023 A 
ATOM     84  C   UNL A   1      46.416  27.221  33.921  1.00  0.00     0.012 A 
ATOM     85  C   UNL A   1      44.866  25.568  34.818  1.00  0.00     0.148 A 
ATOM     86  C   UNL A   1      47.442  26.690  34.700  1.00  0.00     0.002 A 
ATOM     87  C   UNL A   1      45.886  25.065  35.615  1.00  0.00     0.091 A 
ATOM     88  F   UNL A   1      43.626  25.056  34.841  1.00  0.00    -0.205 F 
ATOM     89  C   UNL A   1      47.174  25.623  35.555  1.00  0.00     0.022 A 
BRANCH  87  90
ATOM     90  S   UNL A   1      45.621  23.750  36.809  1.00  0.00     0.127 S 
ATOM     91  O   UNL A   1      46.976  23.528  37.313  1.00  0.00    -0.237 OA
ATOM     92  O   UNL A   1      44.709  24.379  37.765  1.00  0.00    -0.237 OA
ATOM     93  O   UNL A   1      45.045  22.638  36.064  1.00  0.00    -0.744 OA
ENDBRANCH  87  90
ENDBRANCH  60  83
ENDBRANCH  34  35
ENDBRANCH  27  29
ENDBRANCH  26  27
ENDBRANCH   1  26
TORSDOF 16
ENDMDL
MODEL 2
REMARK VINA RESULT:     -12.4      4.922     10.090
REMARK SMILES CC[C@H](C)N1C(=O)c2ccccc2[C@@H](C(=O)OCCOC(=O)c2ccc(-c3c4nc(c(-c5cccc(S(=O)(=O)[O-])c5F)c5ccc([nH]5)c(-c5cccc(S(=O)(=O)[O-])c5F)c5nc(c(-c6cccc(S(=O)(=O)[O-])c6F)c6ccc3[nH]6)C=C5)C=C4)cc2)C12CCCCC2
REMARK SMILES IDX 19 1 18 2 17 3 15 4 16 5 14 6 5 7 6 8 86 9 7 10 8 11 87 12
REMARK SMILES IDX 91 13 9 14 13 15 88 16 90 17 10 18 12 19 89 20 11 21 3 22
REMARK SMILES IDX 4 23 2 24 1 25 20 26 21 27 22 28 23 29 24 30 85 31 25 32
REMARK SMILES IDX 84 33 26 34 27 35 28 36 78 37 29 38 83 39 77 40 79 41 30 42
REMARK SMILES IDX 82 43 76 44 75 45 31 47 63 48 43 49 62 50 44 51 47 52 61 53
REMARK SMILES IDX 80 54 45 55 46 56 60 58 81 59 48 60 32 61 33 62 41 63 34 64
REMARK SMILES IDX 36 65 42 66 35 67 37 68 38 69 39 70 40 71 64 72 65 73 73 74
REMARK SMILES IDX 66 75 68 76 74 77 67 78 69 79 70 80 71 81 72 82 49 83 50 84
REMARK SMILES IDX 58 85 51 86 53 87 59 88 52 89 54 90 55 91 56 92 57 93
REMARK H PARENT 79 46 47 57
REMARK Flexibility Score: inf
ROOT
ATOM      1  C   UNL A   1      37.284  21.418  24.579  1.00  0.00     0.275 C 
ENDROOT
BRANCH   1   2
ATOM      2  C   UNL A   1      37.102  22.561  23.571  1.00  0.00     0.274 C 
BRANCH   2   3
ATOM      3  O   UNL A   1      36.375  23.693  24.099  1.00  0.00    -0.462 OA
BRANCH   3   4
ATOM      4  C   UNL A   1      35.054  23.734  23.810  1.00  0.00     0.315 C 
ATOM      5  O   UNL A   1      34.588  23.249  22.782  1.00  0.00    -0.251 OA
BRANCH   4   6
ATOM      6  C   UNL A   1      34.194  24.597  24.756  1.00  0.00     0.156 C 
ATOM      7  N   UNL A   1      32.252  26.143  25.271  1.00  0.00    -0.329 N 
ATOM      8  C   UNL A   1      31.622  25.172  26.072  1.00  0.00     0.254 C 
ATOM      9  C   UNL A   1      33.141  25.623  24.122  1.00  0.00     0.061 C 
ATOM     10  O   UNL A   1      30.490  25.272  26.535  1.00  0.00    -0.269 OA
ATOM     11  C   UNL A   1      32.429  23.983  26.459  1.00  0.00     0.044 A 
ATOM     12  C   UNL A   1      32.161  24.945  23.117  1.00  0.00     0.030 C 
ATOM     13  C   UNL A   1      33.995  26.742  23.437  1.00  0.00     0.030 C 
ATOM     14  C   UNL A   1      31.980  23.189  27.529  1.00  0.00     0.014 A 
ATOM     15  C   UNL A   1      33.672  23.731  25.887  1.00  0.00    -0.019 A 
ATOM     16  C   UNL A   1      32.484  25.104  21.636  1.00  0.00     0.002 C 
ATOM     17  C   UNL A   1      33.575  27.360  22.102  1.00  0.00     0.002 C 
ATOM     18  C   UNL A   1      32.777  22.167  28.051  1.00  0.00     0.001 A 
ATOM     19  C   UNL A   1      34.483  22.721  26.455  1.00  0.00     0.005 A 
ATOM     20  C   UNL A   1      32.644  26.550  21.219  1.00  0.00     0.000 C 
ATOM     21  C   UNL A   1      34.037  21.942  27.520  1.00  0.00     0.000 A 
BRANCH   7  22
ATOM     22  C   UNL A   1      31.882  27.597  25.443  1.00  0.00     0.082 C 
ATOM     23  C   UNL A   1      30.661  28.035  24.632  1.00  0.00     0.031 C 
BRANCH  22  24
ATOM     24  C   UNL A   1      31.737  28.082  26.917  1.00  0.00     0.021 C 
ATOM     25  C   UNL A   1      32.060  29.557  27.148  1.00  0.00     0.006 C 
ENDBRANCH  22  24
ENDBRANCH   7  22
ENDBRANCH   4   6
ENDBRANCH   3   4
ENDBRANCH   2   3
ENDBRANCH   1   2
BRANCH   1  26
ATOM     26  O   UNL A   1      37.697  21.901  25.872  1.00  0.00    -0.458 OA
BRANCH  26  27
ATOM     27  C   UNL A   1      38.994  21.690  26.180  1.00  0.00     0.338 C 
ATOM     28  O   UNL A   1      39.621  20.647  26.030  1.00  0.00    -0.246 OA
BRANCH  27  29
ATOM     29  C   UNL A   1      39.620  22.920  26.682  1.00  0.00     0.060 A 
ATOM     30  C   UNL A   1      40.617  22.841  27.652  1.00  0.00     0.016 A 
ATOM     31  C   UNL A   1      39.290  24.152  26.109  1.00  0.00     0.016 A 
ATOM     32  C   UNL A   1      41.239  24.015  28.080  1.00  0.00     0.010 A 
ATOM     33  C   UNL A   1      39.932  25.314  26.506  1.00  0.00     0.010 A 
ATOM     34  C   UNL A   1      40.883  25.255  27.524  1.00  0.00    -0.014 A 
BRANCH  34  35
ATOM     35  C   UNL A   1      41.454  26.510  28.044  1.00  0.00     0.031 A 
ATOM     36  C   UNL A   1      42.897  26.829  27.780  1.00  0.00     0.074 A 
ATOM     37  C   UNL A   1      40.687  27.337  28.775  1.00  0.00     0.049 A 
ATOM     38  N   UNL A   1      43.541  27.942  28.001  1.00  0.00    -0.248 NA
ATOM     39  C   UNL A   1      43.730  25.756  27.206  1.00  0.00     0.031 C 
ATOM     40  C   UNL A   1      39.312  27.063  29.195  1.00  0.00     0.029 A 
ATOM     41  N   UNL A   1      40.957  28.576  29.291  1.00  0.00    -0.354 N 
ATOM     42  C   UNL A   1      44.847  27.708  27.592  1.00  0.00     0.074 A 
ATOM     43  C   UNL A   1      44.922  26.333  27.155  1.00  0.00     0.031 C 
ATOM     44  C   UNL A   1      38.845  28.122  29.877  1.00  0.00     0.029 A 
ATOM     45  C   UNL A   1      39.882  29.151  29.925  1.00  0.00     0.049 A 
ATOM     46  H   UNL A   1      41.836  29.014  29.216  1.00  0.00     0.167 HD
ATOM     47  C   UNL A   1      45.877  28.580  27.540  1.00  0.00     0.034 A 
ATOM     48  C   UNL A   1      39.739  30.387  30.440  1.00  0.00     0.034 A 
ATOM     49  C   UNL A   1      45.771  29.956  27.930  1.00  0.00     0.049 A 
ATOM     50  C   UNL A   1      40.872  31.366  30.299  1.00  0.00     0.074 A 
ATOM     51  C   UNL A   1      46.717  30.958  27.816  1.00  0.00     0.029 A 
ATOM     52  N   UNL A   1      44.648  30.521  28.512  1.00  0.00    -0.354 N 
ATOM     53  N   UNL A   1      42.041  31.194  29.729  1.00  0.00    -0.248 NA
ATOM     54  C   UNL A   1      40.656  32.719  30.831  1.00  0.00     0.031 C 
ATOM     55  C   UNL A   1      46.163  32.133  28.333  1.00  0.00     0.029 A 
ATOM     56  C   UNL A   1      44.875  31.860  28.767  1.00  0.00     0.049 A 
ATOM     57  H   UNL A   1      43.813  30.041  28.714  1.00  0.00     0.167 HD
ATOM     58  C   UNL A   1      42.690  32.419  29.811  1.00  0.00     0.074 A 
ATOM     59  C   UNL A   1      41.780  33.331  30.474  1.00  0.00     0.031 C 
ATOM     60  C   UNL A   1      43.932  32.755  29.386  1.00  0.00     0.034 A 
BRANCH  47  61
ATOM     61  C   UNL A   1      47.172  28.104  26.948  1.00  0.00     0.023 A 
ATOM     62  C   UNL A   1      48.217  27.732  27.817  1.00  0.00     0.012 A 
ATOM     63  C   UNL A   1      47.332  27.949  25.559  1.00  0.00     0.148 A 
ATOM     64  C   UNL A   1      49.412  27.222  27.312  1.00  0.00     0.002 A 
ATOM     65  C   UNL A   1      48.516  27.415  25.064  1.00  0.00     0.091 A 
ATOM     66  F   UNL A   1      46.329  28.325  24.754  1.00  0.00    -0.205 F 
ATOM     67  C   UNL A   1      49.557  27.055  25.938  1.00  0.00     0.022 A 
BRANCH  65  68
ATOM     68  S   UNL A   1      48.796  27.114  23.316  1.00  0.00     0.127 S 
ATOM     69  O   UNL A   1      50.252  26.984  23.268  1.00  0.00    -0.237 OA
ATOM     70  O   UNL A   1      48.065  25.864  23.101  1.00  0.00    -0.237 OA
ATOM     71  O   UNL A   1      48.257  28.269  22.614  1.00  0.00    -0.744 OA
ENDBRANCH  65  68
ENDBRANCH  47  61
BRANCH  48  72
ATOM     72  C   UNL A   1      38.421  30.797  30.992  1.00  0.00     0.023 A 
ATOM     73  C   UNL A   1      38.178  30.627  32.368  1.00  0.00     0.012 A 
ATOM     74  C   UNL A   1      37.448  31.421  30.190  1.00  0.00     0.148 A 
ATOM     75  C   UNL A   1      36.982  31.064  32.938  1.00  0.00     0.002 A 
ATOM     76  C   UNL A   1      36.271  31.884  30.769  1.00  0.00     0.091 A 
ATOM     77  F   UNL A   1      37.704  31.568  28.882  1.00  0.00    -0.205 F 
ATOM     78  C   UNL A   1      36.034  31.699  32.141  1.00  0.00     0.022 A 
BRANCH  76  79
ATOM     79  S   UNL A   1      35.031  32.801  29.849  1.00  0.00     0.127 S 
ATOM     80  O   UNL A   1      34.092  33.172  30.904  1.00  0.00    -0.237 OA
ATOM     81  O   UNL A   1      35.818  33.909  29.307  1.00  0.00    -0.237 OA
ATOM     82  O   UNL A   1      34.518  31.876  28.848  1.00  0.00    -0.744 OA
ENDBRANCH  76  79
ENDBRANCH  48  72
BRANCH  60  83
ATOM     83  C   UNL A   1      44.402  34.162  29.621  1.00  0.00     0.023 A 
ATOM     84  C   UNL A   1      45.061  34.468  30.827  1.00  0.00     0.012 A 
ATOM     85  C   UNL A   1      44.330  35.126  28.598  1.00  0.00     0.148 A 
ATOM     86  C   UNL A   1      45.643  35.720  31.012  1.00  0.00     0.002 A 
ATOM     87  C   UNL A   1      44.941  36.360  28.777  1.00  0.00     0.091 A 
ATOM     88  F   UNL A   1      43.688  34.807  27.464  1.00  0.00    -0.205 F 
ATOM     89  C   UNL A   1      45.595  36.659  29.983  1.00  0.00     0.022 A 
BRANCH  87  90
ATOM     90  S   UNL A   1      45.005  37.604  27.483  1.00  0.00     0.127 S 
ATOM     91  O   UNL A   1      45.676  38.709  28.166  1.00  0.00    -0.237 OA
ATOM     92  O   UNL A   1      45.811  36.941  26.456  1.00  0.00    -0.237 OA
ATOM     93  O   UNL A   1      43.624  37.859  27.098  1.00  0.00    -0.744 OA
ENDBRANCH  87  90
ENDBRANCH  60  83
ENDBRANCH  34  35
ENDBRANCH  27  29
ENDBRANCH  26  27
ENDBRANCH   1  26
TORSDOF 16
ENDMDL
MODEL 3
REMARK VINA RESULT:     -12.1      1.665      2.633
REMARK SMILES CC[C@H](C)N1C(=O)c2ccccc2[C@@H](C(=O)OCCOC(=O)c2ccc(-c3c4nc(c(-c5cccc(S(=O)(=O)[O-])c5F)c5ccc([nH]5)c(-c5cccc(S(=O)(=O)[O-])c5F)c5nc(c(-c6cccc(S(=O)(=O)[O-])c6F)c6ccc3[nH]6)C=C5)C=C4)cc2)C12CCCCC2
REMARK SMILES IDX 19 1 18 2 17 3 15 4 16 5 14 6 5 7 6 8 86 9 7 10 8 11 87 12
REMARK SMILES IDX 91 13 9 14 13 15 88 16 90 17 10 18 12 19 89 20 11 21 3 22
REMARK SMILES IDX 4 23 2 24 1 25 20 26 21 27 22 28 23 29 24 30 85 31 25 32
REMARK SMILES IDX 84 33 26 34 27 35 28 36 78 37 29 38 83 39 77 40 79 41 30 42
REMARK SMILES IDX 82 43 76 44 75 45 31 47 63 48 43 49 62 50 44 51 47 52 61 53
REMARK SMILES IDX 80 54 45 55 46 56 60 58 81 59 48 60 32 61 33 62 41 63 34 64
REMARK SMILES IDX 36 65 42 66 35 67 37 68 38 69 39 70 40 71 64 72 65 73 73 74
REMARK SMILES IDX 66 75 68 76 74 77 67 78 69 79 70 80 71 81 72 82 49 83 50 84
REMARK SMILES IDX 58 85 51 86 53 87 59 88 52 89 54 90 55 91 56 92 57 93
REMARK H PARENT 79 46 47 57
REMARK Flexibility Score: inf
ROOT
ATOM      1  C   UNL A   1      32.898  29.108  25.133  1.00  0.00     0.275 C 
ENDROOT
BRANCH   1   2
ATOM      2  C   UNL A   1      33.429  28.604  23.785  1.00  0.00     0.274 C 
BRANCH   2   3
ATOM      3  O   UNL A   1      33.957  27.259  23.832  1.00  0.00    -0.462 OA
BRANCH   3   4
ATOM      4  C   UNL A   1      33.660  26.470  22.774  1.00  0.00     0.315 C 
ATOM      5  O   UNL A   1      33.977  26.761  21.624  1.00  0.00    -0.251 OA
BRANCH   4   6
ATOM      6  C   UNL A   1      32.731  25.276  23.076  1.00  0.00     0.156 C 
ATOM      7  N   UNL A   1      32.113  23.141  24.294  1.00  0.00    -0.329 N 
ATOM      8  C   UNL A   1      31.029  23.761  24.942  1.00  0.00     0.254 C 
ATOM      9  C   UNL A   1      33.307  24.044  23.921  1.00  0.00     0.061 C 
ATOM     10  O   UNL A   1      30.362  23.251  25.837  1.00  0.00    -0.269 OA
ATOM     11  C   UNL A   1      30.607  25.095  24.434  1.00  0.00     0.044 A 
ATOM     12  C   UNL A   1      33.934  24.481  25.280  1.00  0.00     0.030 C 
ATOM     13  C   UNL A   1      34.356  23.343  22.995  1.00  0.00     0.030 C 
ATOM     14  C   UNL A   1      29.336  25.577  24.794  1.00  0.00     0.014 A 
ATOM     15  C   UNL A   1      31.373  25.795  23.509  1.00  0.00    -0.019 A 
ATOM     16  C   UNL A   1      35.452  24.601  25.324  1.00  0.00     0.002 C 
ATOM     17  C   UNL A   1      35.662  22.778  23.555  1.00  0.00     0.002 C 
ATOM     18  C   UNL A   1      28.813  26.735  24.213  1.00  0.00     0.001 A 
ATOM     19  C   UNL A   1      30.812  26.942  22.899  1.00  0.00     0.005 A 
ATOM     20  C   UNL A   1      36.158  23.340  24.875  1.00  0.00     0.000 C 
ATOM     21  C   UNL A   1      29.550  27.412  23.254  1.00  0.00     0.000 A 
BRANCH   7  22
ATOM     22  C   UNL A   1      32.142  21.636  24.178  1.00  0.00     0.082 C 
ATOM     23  C   UNL A   1      32.157  21.117  22.737  1.00  0.00     0.031 C 
BRANCH  22  24
ATOM     24  C   UNL A   1      33.249  20.919  25.007  1.00  0.00     0.021 C 
ATOM     25  C   UNL A   1      33.516  19.467  24.614  1.00  0.00     0.006 C 
ENDBRANCH  22  24
ENDBRANCH   7  22
ENDBRANCH   4   6
ENDBRANCH   3   4
ENDBRANCH   2   3
ENDBRANCH   1   2
BRANCH   1  26
ATOM     26  O   UNL A   1      33.313  30.461  25.405  1.00  0.00    -0.458 OA
BRANCH  26  27
ATOM     27  C   UNL A   1      33.215  30.846  26.695  1.00  0.00     0.338 C 
ATOM     28  O   UNL A   1      32.215  31.284  27.252  1.00  0.00    -0.246 OA
BRANCH  27  29
ATOM     29  C   UNL A   1      34.478  30.618  27.407  1.00  0.00     0.060 A 
ATOM     30  C   UNL A   1      35.358  31.679  27.610  1.00  0.00     0.016 A 
ATOM     31  C   UNL A   1      34.741  29.366  27.972  1.00  0.00     0.016 A 
ATOM     32  C   UNL A   1      36.530  31.458  28.335  1.00  0.00     0.010 A 
ATOM     33  C   UNL A   1      35.886  29.154  28.724  1.00  0.00     0.010 A 
ATOM     34  C   UNL A   1      36.806  30.190  28.875  1.00  0.00    -0.014 A 
BRANCH  34  35
ATOM     35  C   UNL A   1      38.089  29.918  29.548  1.00  0.00     0.031 A 
ATOM     36  C   UNL A   1      38.347  30.500  30.907  1.00  0.00     0.074 A 
ATOM     37  C   UNL A   1      39.023  29.179  28.924  1.00  0.00     0.049 A 
ATOM     38  N   UNL A   1      39.326  30.247  31.731  1.00  0.00    -0.248 NA
ATOM     39  C   UNL A   1      37.390  31.508  31.401  1.00  0.00     0.031 C 
ATOM     40  C   UNL A   1      38.923  28.672  27.554  1.00  0.00     0.029 A 
ATOM     41  N   UNL A   1      40.238  28.727  29.364  1.00  0.00    -0.354 N 
ATOM     42  C   UNL A   1      39.104  31.056  32.838  1.00  0.00     0.074 A 
ATOM     43  C   UNL A   1      37.927  31.847  32.565  1.00  0.00     0.031 C 
ATOM     44  C   UNL A   1      40.019  27.946  27.278  1.00  0.00     0.029 A 
ATOM     45  C   UNL A   1      40.885  27.926  28.455  1.00  0.00     0.049 A 
ATOM     46  H   UNL A   1      40.613  28.953  30.246  1.00  0.00     0.167 HD
ATOM     47  C   UNL A   1      39.796  31.096  33.997  1.00  0.00     0.034 A 
ATOM     48  C   UNL A   1      42.023  27.217  28.581  1.00  0.00     0.034 A 
ATOM     49  C   UNL A   1      40.933  30.266  34.271  1.00  0.00     0.049 A 
ATOM     50  C   UNL A   1      42.732  27.214  29.907  1.00  0.00     0.074 A 
ATOM     51  C   UNL A   1      41.643  30.142  35.451  1.00  0.00     0.029 A 
ATOM     52  N   UNL A   1      41.527  29.421  33.348  1.00  0.00    -0.354 N 
ATOM     53  N   UNL A   1      42.402  27.830  31.016  1.00  0.00    -0.248 NA
ATOM     54  C   UNL A   1      43.943  26.388  30.015  1.00  0.00     0.031 C 
ATOM     55  C   UNL A   1      42.671  29.217  35.239  1.00  0.00     0.029 A 
ATOM     56  C   UNL A   1      42.598  28.769  33.929  1.00  0.00     0.049 A 
ATOM     57  H   UNL A   1      41.229  29.301  32.417  1.00  0.00     0.167 HD
ATOM     58  C   UNL A   1      43.346  27.450  31.960  1.00  0.00     0.074 A 
ATOM     59  C   UNL A   1      44.257  26.538  31.297  1.00  0.00     0.031 C 
ATOM     60  C   UNL A   1      43.458  27.831  33.257  1.00  0.00     0.034 A 
BRANCH  47  61
ATOM     61  C   UNL A   1      39.281  31.986  35.092  1.00  0.00     0.023 A 
ATOM     62  C   UNL A   1      38.300  31.480  35.969  1.00  0.00     0.012 A 
ATOM     63  C   UNL A   1      39.811  33.271  35.304  1.00  0.00     0.148 A 
ATOM     64  C   UNL A   1      37.842  32.248  37.037  1.00  0.00     0.002 A 
ATOM     65  C   UNL A   1      39.368  34.021  36.389  1.00  0.00     0.091 A 
ATOM     66  F   UNL A   1      40.731  33.734  34.447  1.00  0.00    -0.205 F 
ATOM     67  C   UNL A   1      38.382  33.513  37.252  1.00  0.00     0.022 A 
BRANCH  65  68
ATOM     68  S   UNL A   1      40.026  35.643  36.787  1.00  0.00     0.127 S 
ATOM     69  O   UNL A   1      39.650  36.413  35.602  1.00  0.00    -0.237 OA
ATOM     70  O   UNL A   1      39.280  35.986  37.999  1.00  0.00    -0.237 OA
ATOM     71  O   UNL A   1      41.458  35.465  36.978  1.00  0.00    -0.744 OA
ENDBRANCH  65  68
ENDBRANCH  47  61
BRANCH  48  72
ATOM     72  C   UNL A   1      42.462  26.341  27.462  1.00  0.00     0.023 A 
ATOM     73  C   UNL A   1      43.376  26.849  26.520  1.00  0.00     0.012 A 
ATOM     74  C   UNL A   1      42.048  24.999  27.371  1.00  0.00     0.148 A 
ATOM     75  C   UNL A   1      43.867  26.037  25.497  1.00  0.00     0.002 A 
ATOM     76  C   UNL A   1      42.566  24.185  26.369  1.00  0.00     0.091 A 
ATOM     77  F   UNL A   1      41.175  24.543  28.281  1.00  0.00    -0.205 F 
ATOM     78  C   UNL A   1      43.468  24.705  25.427  1.00  0.00     0.022 A 
BRANCH  76  79
ATOM     79  S   UNL A   1      42.191  22.432  26.252  1.00  0.00     0.127 S 
ATOM     80  O   UNL A   1      40.735  22.447  26.129  1.00  0.00    -0.237 OA
ATOM     81  O   UNL A   1      42.909  22.053  25.035  1.00  0.00    -0.237 OA
ATOM     82  O   UNL A   1      42.712  21.834  27.473  1.00  0.00    -0.744 OA
ENDBRANCH  76  79
ENDBRANCH  48  72
BRANCH  60  83
ATOM     83  C   UNL A   1      44.600  27.278  34.060  1.00  0.00     0.023 A 
ATOM     84  C   UNL A   1      45.819  27.983  34.086  1.00  0.00     0.012 A 
ATOM     85  C   UNL A   1      44.418  26.162  34.898  1.00  0.00     0.148 A 
ATOM     86  C   UNL A   1      46.845  27.582  34.938  1.00  0.00     0.002 A 
ATOM     87  C   UNL A   1      45.434  25.789  35.769  1.00  0.00     0.091 A 
ATOM     88  F   UNL A   1      43.249  25.507  34.845  1.00  0.00    -0.205 F 
ATOM     89  C   UNL A   1      46.647  26.495  35.788  1.00  0.00     0.022 A 
BRANCH  87  90
ATOM     90  S   UNL A   1      45.245  24.458  36.960  1.00  0.00     0.127 S 
ATOM     91  O   UNL A   1      45.020  23.307  36.086  1.00  0.00    -0.237 OA
ATOM     92  O   UNL A   1      46.540  24.464  37.640  1.00  0.00    -0.237 OA
ATOM     93  O   UNL A   1      44.116  24.827  37.803  1.00  0.00    -0.744 OA
ENDBRANCH  87  90
ENDBRANCH  60  83
ENDBRANCH  34  35
ENDBRANCH  27  29
ENDBRANCH  26  27
ENDBRANCH   1  26
TORSDOF 16
ENDMDL
