MODEL 1
REMARK VINA RESULT:     -11.8      0.000      0.000
REMARK SMILES COc1ncccc1C[C@H](C(=O)OCCOC(=O)c1ccc(-c2c3nc(c(-c4cccc(S(=O)(=O)[O-])c4F)c4ccc([nH]4)c(-c4cccc(S(=O)(=O)[O-])c4F)c4nc(c(-c5cccc(S(=O)(=O)[O-])c5F)c5ccc2[nH]5)C=C4)C=C3)cc1)c1ccc(F)cc1
REMARK SMILES IDX 14 1 13 2 11 3 12 4 10 5 9 6 8 7 3 8 4 9 5 10 7 11 6 12 2 13
REMARK SMILES IDX 1 14 82 15 83 16 88 17 84 18 87 19 85 20 86 21 15 22 16 23
REMARK SMILES IDX 17 24 18 25 19 26 20 27 81 28 21 29 80 30 22 31 23 32 24 33
REMARK SMILES IDX 74 34 25 35 79 36 73 37 75 38 26 39 78 40 72 41 71 42 27 44
REMARK SMILES IDX 59 45 39 46 58 47 40 48 43 49 57 50 76 51 41 52 42 53 56 55
REMARK SMILES IDX 77 56 44 57 28 58 29 59 37 60 30 61 32 62 38 63 31 64 33 65
REMARK SMILES IDX 34 66 35 67 36 68 60 69 61 70 69 71 62 72 64 73 70 74 63 75
REMARK SMILES IDX 65 76 66 77 67 78 68 79 45 80 46 81 54 82 47 83 49 84 55 85
REMARK SMILES IDX 48 86 50 87 51 88 52 89 53 90
REMARK H PARENT 75 43 43 54
REMARK Flexibility Score: inf
ROOT
ATOM      1  C   UNL A   1      35.208  22.763  25.201  1.00  0.00     0.274 C 
ENDROOT
BRANCH   1   2
ATOM      2  O   UNL A   1      35.247  22.634  23.762  1.00  0.00    -0.462 OA
BRANCH   2   3
ATOM      3  C   UNL A   1      34.023  22.650  23.163  1.00  0.00     0.313 C 
ATOM      4  O   UNL A   1      33.798  23.193  22.087  1.00  0.00    -0.252 OA
BRANCH   3   5
ATOM      5  C   UNL A   1      32.946  21.957  24.005  1.00  0.00     0.134 C 
BRANCH   5   6
ATOM      6  C   UNL A   1      31.625  22.620  23.510  1.00  0.00     0.061 C 
BRANCH   6   7
ATOM      7  C   UNL A   1      31.034  23.730  24.334  1.00  0.00     0.015 A 
ATOM      8  C   UNL A   1      30.744  23.671  25.703  1.00  0.00     0.216 A 
ATOM      9  N   UNL A   1      30.255  24.733  26.383  1.00  0.00    -0.222 NA
ATOM     10  C   UNL A   1      30.019  25.877  25.710  1.00  0.00     0.115 A 
ATOM     11  C   UNL A   1      30.776  24.945  23.672  1.00  0.00     0.011 A 
ATOM     12  C   UNL A   1      30.264  26.034  24.363  1.00  0.00     0.021 A 
BRANCH   8  13
ATOM     13  O   UNL A   1      31.112  22.669  26.548  1.00  0.00    -0.481 OA
ATOM     14  C   UNL A   1      32.247  22.877  27.372  1.00  0.00     0.280 C 
ENDBRANCH   8  13
ENDBRANCH   6   7
ENDBRANCH   5   6
BRANCH   5  15
ATOM     15  C   UNL A   1      32.933  20.431  23.899  1.00  0.00    -0.033 A 
ATOM     16  C   UNL A   1      33.641  19.610  24.784  1.00  0.00     0.007 A 
ATOM     17  C   UNL A   1      32.239  19.794  22.855  1.00  0.00     0.007 A 
ATOM     18  C   UNL A   1      33.786  18.239  24.552  1.00  0.00     0.039 A 
ATOM     19  C   UNL A   1      32.397  18.426  22.604  1.00  0.00     0.039 A 
ATOM     20  C   UNL A   1      33.193  17.665  23.443  1.00  0.00     0.123 A 
ATOM     21  F   UNL A   1      33.380  16.363  23.187  1.00  0.00    -0.207 F 
ENDBRANCH   5  15
ENDBRANCH   3   5
ENDBRANCH   2   3
ENDBRANCH   1   2
BRANCH   1  22
ATOM     22  C   UNL A   1      36.152  21.770  25.883  1.00  0.00     0.275 C 
BRANCH  22  23
ATOM     23  O   UNL A   1      37.251  21.460  25.013  1.00  0.00    -0.458 OA
BRANCH  23  24
ATOM     24  C   UNL A   1      38.422  21.187  25.642  1.00  0.00     0.338 C 
ATOM     25  O   UNL A   1      39.000  20.113  25.616  1.00  0.00    -0.246 OA
BRANCH  24  26
ATOM     26  C   UNL A   1      38.986  22.416  26.276  1.00  0.00     0.060 A 
ATOM     27  C   UNL A   1      38.575  23.704  25.916  1.00  0.00     0.016 A 
ATOM     28  C   UNL A   1      40.048  22.271  27.174  1.00  0.00     0.016 A 
ATOM     29  C   UNL A   1      39.300  24.823  26.342  1.00  0.00     0.010 A 
ATOM     30  C   UNL A   1      40.707  23.399  27.678  1.00  0.00     0.010 A 
ATOM     31  C   UNL A   1      40.374  24.690  27.235  1.00  0.00    -0.014 A 
BRANCH  31  32
ATOM     32  C   UNL A   1      41.164  25.869  27.704  1.00  0.00     0.031 A 
ATOM     33  C   UNL A   1      40.511  26.952  28.531  1.00  0.00     0.074 A 
ATOM     34  C   UNL A   1      42.460  26.009  27.356  1.00  0.00     0.049 A 
ATOM     35  N   UNL A   1      40.956  28.144  28.838  1.00  0.00    -0.248 NA
ATOM     36  C   UNL A   1      39.177  26.658  29.075  1.00  0.00     0.031 C 
ATOM     37  C   UNL A   1      43.242  25.042  26.588  1.00  0.00     0.029 A 
ATOM     38  N   UNL A   1      43.341  27.040  27.585  1.00  0.00    -0.354 N 
ATOM     39  C   UNL A   1      39.937  28.762  29.556  1.00  0.00     0.074 A 
ATOM     40  C   UNL A   1      38.850  27.811  29.644  1.00  0.00     0.031 C 
ATOM     41  C   UNL A   1      44.487  25.514  26.419  1.00  0.00     0.029 A 
ATOM     42  C   UNL A   1      44.566  26.857  26.985  1.00  0.00     0.049 A 
ATOM     43  H   UNL A   1      43.117  27.832  28.126  1.00  0.00     0.167 HD
ATOM     44  C   UNL A   1      39.905  30.003  30.102  1.00  0.00     0.034 A 
ATOM     45  C   UNL A   1      45.620  27.687  26.851  1.00  0.00     0.034 A 
ATOM     46  C   UNL A   1      41.002  30.935  30.069  1.00  0.00     0.049 A 
ATOM     47  C   UNL A   1      45.547  29.074  27.421  1.00  0.00     0.074 A 
ATOM     48  C   UNL A   1      41.070  32.204  30.618  1.00  0.00     0.029 A 
ATOM     49  N   UNL A   1      42.226  30.696  29.465  1.00  0.00    -0.354 N 
ATOM     50  N   UNL A   1      44.585  29.632  28.114  1.00  0.00    -0.248 NA
ATOM     51  C   UNL A   1      46.709  29.945  27.195  1.00  0.00     0.031 C 
ATOM     52  C   UNL A   1      42.332  32.740  30.333  1.00  0.00     0.029 A 
ATOM     53  C   UNL A   1      43.055  31.796  29.621  1.00  0.00     0.049 A 
ATOM     54  H   UNL A   1      42.471  29.868  28.993  1.00  0.00     0.167 HD
ATOM     55  C   UNL A   1      45.034  30.910  28.427  1.00  0.00     0.074 A 
ATOM     56  C   UNL A   1      46.363  31.036  27.866  1.00  0.00     0.031 C 
ATOM     57  C   UNL A   1      44.394  31.897  29.102  1.00  0.00     0.034 A 
BRANCH  44  58
ATOM     58  C   UNL A   1      38.645  30.423  30.814  1.00  0.00     0.023 A 
ATOM     59  C   UNL A   1      38.493  30.149  32.187  1.00  0.00     0.012 A 
ATOM     60  C   UNL A   1      37.638  31.145  30.139  1.00  0.00     0.148 A 
ATOM     61  C   UNL A   1      37.350  30.562  32.872  1.00  0.00     0.002 A 
ATOM     62  C   UNL A   1      36.519  31.586  30.838  1.00  0.00     0.091 A 
ATOM     63  F   UNL A   1      37.784  31.374  28.826  1.00  0.00    -0.205 F 
ATOM     64  C   UNL A   1      36.370  31.289  32.201  1.00  0.00     0.022 A 
BRANCH  62  65
ATOM     65  S   UNL A   1      35.246  32.592  30.065  1.00  0.00     0.127 S 
ATOM     66  O   UNL A   1      34.733  31.686  29.039  1.00  0.00    -0.237 OA
ATOM     67  O   UNL A   1      34.324  32.840  31.175  1.00  0.00    -0.237 OA
ATOM     68  O   UNL A   1      35.928  33.782  29.575  1.00  0.00    -0.744 OA
ENDBRANCH  62  65
ENDBRANCH  44  58
BRANCH  45  69
ATOM     69  C   UNL A   1      46.845  27.206  26.151  1.00  0.00     0.023 A 
ATOM     70  C   UNL A   1      47.029  27.520  24.792  1.00  0.00     0.012 A 
ATOM     71  C   UNL A   1      47.859  26.509  26.838  1.00  0.00     0.148 A 
ATOM     72  C   UNL A   1      48.198  27.147  24.128  1.00  0.00     0.002 A 
ATOM     73  C   UNL A   1      49.049  26.201  26.190  1.00  0.00     0.091 A 
ATOM     74  F   UNL A   1      47.652  26.188  28.123  1.00  0.00    -0.205 F 
ATOM     75  C   UNL A   1      49.215  26.506  24.830  1.00  0.00     0.022 A 
BRANCH  73  76
ATOM     76  S   UNL A   1      50.467  25.535  27.070  1.00  0.00     0.127 S 
ATOM     77  O   UNL A   1      49.922  24.299  27.625  1.00  0.00    -0.237 OA
ATOM     78  O   UNL A   1      51.439  25.351  25.990  1.00  0.00    -0.237 OA
ATOM     79  O   UNL A   1      50.840  26.560  28.035  1.00  0.00    -0.744 OA
ENDBRANCH  73  76
ENDBRANCH  45  69
BRANCH  57  80
ATOM     80  C   UNL A   1      45.131  33.195  29.296  1.00  0.00     0.023 A 
ATOM     81  C   UNL A   1      45.918  33.384  30.449  1.00  0.00     0.012 A 
ATOM     82  C   UNL A   1      45.082  34.209  28.318  1.00  0.00     0.148 A 
ATOM     83  C   UNL A   1      46.622  34.572  30.641  1.00  0.00     0.002 A 
ATOM     84  C   UNL A   1      45.818  35.375  28.498  1.00  0.00     0.091 A 
ATOM     85  F   UNL A   1      44.309  34.021  27.239  1.00  0.00    -0.205 F 
ATOM     86  C   UNL A   1      46.580  35.563  29.662  1.00  0.00     0.022 A 
BRANCH  84  87
ATOM     87  S   UNL A   1      45.881  36.663  27.247  1.00  0.00     0.127 S 
ATOM     88  O   UNL A   1      46.830  37.606  27.838  1.00  0.00    -0.237 OA
ATOM     89  O   UNL A   1      46.387  35.944  26.077  1.00  0.00    -0.237 OA
ATOM     90  O   UNL A   1      44.514  37.146  27.108  1.00  0.00    -0.744 OA
ENDBRANCH  84  87
ENDBRANCH  57  80
ENDBRANCH  31  32
ENDBRANCH  24  26
ENDBRANCH  23  24
ENDBRANCH  22  23
ENDBRANCH   1  22
TORSDOF 18
ENDMDL
MODEL 2
REMARK VINA RESULT:     -11.8      2.068      2.695
REMARK SMILES COc1ncccc1C[C@H](C(=O)OCCOC(=O)c1ccc(-c2c3nc(c(-c4cccc(S(=O)(=O)[O-])c4F)c4ccc([nH]4)c(-c4cccc(S(=O)(=O)[O-])c4F)c4nc(c(-c5cccc(S(=O)(=O)[O-])c5F)c5ccc2[nH]5)C=C4)C=C3)cc1)c1ccc(F)cc1
REMARK SMILES IDX 14 1 13 2 11 3 12 4 10 5 9 6 8 7 3 8 4 9 5 10 7 11 6 12 2 13
REMARK SMILES IDX 1 14 82 15 83 16 88 17 84 18 87 19 85 20 86 21 15 22 16 23
REMARK SMILES IDX 17 24 18 25 19 26 20 27 81 28 21 29 80 30 22 31 23 32 24 33
REMARK SMILES IDX 74 34 25 35 79 36 73 37 75 38 26 39 78 40 72 41 71 42 27 44
REMARK SMILES IDX 59 45 39 46 58 47 40 48 43 49 57 50 76 51 41 52 42 53 56 55
REMARK SMILES IDX 77 56 44 57 28 58 29 59 37 60 30 61 32 62 38 63 31 64 33 65
REMARK SMILES IDX 34 66 35 67 36 68 60 69 61 70 69 71 62 72 64 73 70 74 63 75
REMARK SMILES IDX 65 76 66 77 67 78 68 79 45 80 46 81 54 82 47 83 49 84 55 85
REMARK SMILES IDX 48 86 50 87 51 88 52 89 53 90
REMARK H PARENT 75 43 43 54
REMARK Flexibility Score: inf
ROOT
ATOM      1  C   UNL A   1      35.315  21.491  24.592  1.00  0.00     0.274 C 
ENDROOT
BRANCH   1   2
ATOM      2  O   UNL A   1      35.717  22.691  23.894  1.00  0.00    -0.462 OA
BRANCH   2   3
ATOM      3  C   UNL A   1      34.682  23.477  23.484  1.00  0.00     0.313 C 
ATOM      4  O   UNL A   1      34.218  23.456  22.349  1.00  0.00    -0.252 OA
BRANCH   3   5
ATOM      5  C   UNL A   1      34.191  24.426  24.583  1.00  0.00     0.134 C 
BRANCH   5   6
ATOM      6  C   UNL A   1      34.062  25.791  23.844  1.00  0.00     0.061 C 
BRANCH   6   7
ATOM      7  C   UNL A   1      33.346  26.914  24.543  1.00  0.00     0.015 A 
ATOM      8  C   UNL A   1      32.217  27.591  24.065  1.00  0.00     0.216 A 
ATOM      9  N   UNL A   1      31.602  28.562  24.779  1.00  0.00    -0.222 NA
ATOM     10  C   UNL A   1      32.112  28.900  25.980  1.00  0.00     0.115 A 
ATOM     11  C   UNL A   1      33.843  27.297  25.803  1.00  0.00     0.011 A 
ATOM     12  C   UNL A   1      33.222  28.300  26.534  1.00  0.00     0.021 A 
BRANCH   8  13
ATOM     13  O   UNL A   1      31.476  27.229  22.981  1.00  0.00    -0.481 OA
ATOM     14  C   UNL A   1      30.362  28.035  22.637  1.00  0.00     0.280 C 
ENDBRANCH   8  13
ENDBRANCH   6   7
ENDBRANCH   5   6
BRANCH   5  15
ATOM     15  C   UNL A   1      32.899  23.990  25.276  1.00  0.00    -0.033 A 
ATOM     16  C   UNL A   1      32.840  23.706  26.645  1.00  0.00     0.007 A 
ATOM     17  C   UNL A   1      31.719  23.802  24.535  1.00  0.00     0.007 A 
ATOM     18  C   UNL A   1      31.712  23.115  27.222  1.00  0.00     0.039 A 
ATOM     19  C   UNL A   1      30.594  23.191  25.099  1.00  0.00     0.039 A 
ATOM     20  C   UNL A   1      30.611  22.827  26.434  1.00  0.00     0.123 A 
ATOM     21  F   UNL A   1      29.553  22.207  26.972  1.00  0.00    -0.207 F 
ENDBRANCH   5  15
ENDBRANCH   3   5
ENDBRANCH   2   3
ENDBRANCH   1   2
BRANCH   1  22
ATOM     22  C   UNL A   1      36.522  20.700  25.098  1.00  0.00     0.275 C 
BRANCH  22  23
ATOM     23  O   UNL A   1      37.726  21.456  24.892  1.00  0.00    -0.458 OA
BRANCH  23  24
ATOM     24  C   UNL A   1      38.737  21.169  25.750  1.00  0.00     0.338 C 
ATOM     25  O   UNL A   1      39.234  20.066  25.907  1.00  0.00    -0.246 OA
BRANCH  24  26
ATOM     26  C   UNL A   1      39.259  22.411  26.394  1.00  0.00     0.060 A 
ATOM     27  C   UNL A   1      38.737  23.680  26.114  1.00  0.00     0.016 A 
ATOM     28  C   UNL A   1      40.388  22.311  27.211  1.00  0.00     0.016 A 
ATOM     29  C   UNL A   1      39.412  24.831  26.535  1.00  0.00     0.010 A 
ATOM     30  C   UNL A   1      41.003  23.464  27.715  1.00  0.00     0.010 A 
ATOM     31  C   UNL A   1      40.552  24.742  27.347  1.00  0.00    -0.014 A 
BRANCH  31  32
ATOM     32  C   UNL A   1      41.291  25.957  27.810  1.00  0.00     0.031 A 
ATOM     33  C   UNL A   1      40.588  27.022  28.619  1.00  0.00     0.074 A 
ATOM     34  C   UNL A   1      42.583  26.146  27.471  1.00  0.00     0.049 A 
ATOM     35  N   UNL A   1      40.983  28.235  28.917  1.00  0.00    -0.248 NA
ATOM     36  C   UNL A   1      39.262  26.682  29.156  1.00  0.00     0.031 C 
ATOM     37  C   UNL A   1      43.410  25.202  26.720  1.00  0.00     0.029 A 
ATOM     38  N   UNL A   1      43.420  27.213  27.695  1.00  0.00    -0.354 N 
ATOM     39  C   UNL A   1      39.934  28.819  29.620  1.00  0.00     0.074 A 
ATOM     40  C   UNL A   1      38.885  27.826  29.710  1.00  0.00     0.031 C 
ATOM     41  C   UNL A   1      44.635  25.722  26.555  1.00  0.00     0.029 A 
ATOM     42  C   UNL A   1      44.656  27.073  27.107  1.00  0.00     0.049 A 
ATOM     43  H   UNL A   1      43.161  28.001  28.225  1.00  0.00     0.167 HD
ATOM     44  C   UNL A   1      39.848  30.064  30.151  1.00  0.00     0.034 A 
ATOM     45  C   UNL A   1      45.677  27.942  26.972  1.00  0.00     0.034 A 
ATOM     46  C   UNL A   1      40.907  31.038  30.117  1.00  0.00     0.049 A 
ATOM     47  C   UNL A   1      45.544  29.332  27.527  1.00  0.00     0.074 A 
ATOM     48  C   UNL A   1      40.919  32.315  30.652  1.00  0.00     0.029 A 
ATOM     49  N   UNL A   1      42.144  30.842  29.525  1.00  0.00    -0.354 N 
ATOM     50  N   UNL A   1      44.555  29.859  28.205  1.00  0.00    -0.248 NA
ATOM     51  C   UNL A   1      46.673  30.246  27.300  1.00  0.00     0.031 C 
ATOM     52  C   UNL A   1      42.162  32.897  30.371  1.00  0.00     0.029 A 
ATOM     53  C   UNL A   1      42.927  31.976  29.675  1.00  0.00     0.049 A 
ATOM     54  H   UNL A   1      42.426  30.019  29.065  1.00  0.00     0.167 HD
ATOM     55  C   UNL A   1      44.950  31.157  28.507  1.00  0.00     0.074 A 
ATOM     56  C   UNL A   1      46.278  31.330  27.955  1.00  0.00     0.031 C 
ATOM     57  C   UNL A   1      44.266  32.124  29.167  1.00  0.00     0.034 A 
BRANCH  44  58
ATOM     58  C   UNL A   1      38.565  30.441  30.848  1.00  0.00     0.023 A 
ATOM     59  C   UNL A   1      38.377  30.095  32.201  1.00  0.00     0.012 A 
ATOM     60  C   UNL A   1      37.574  31.192  30.184  1.00  0.00     0.148 A 
ATOM     61  C   UNL A   1      37.213  30.467  32.874  1.00  0.00     0.002 A 
ATOM     62  C   UNL A   1      36.433  31.592  30.873  1.00  0.00     0.091 A 
ATOM     63  F   UNL A   1      37.755  31.490  28.889  1.00  0.00    -0.205 F 
ATOM     64  C   UNL A   1      36.248  31.223  32.214  1.00  0.00     0.022 A 
BRANCH  62  65
ATOM     65  S   UNL A   1      35.176  32.631  30.118  1.00  0.00     0.127 S 
ATOM     66  O   UNL A   1      34.678  31.766  29.050  1.00  0.00    -0.237 OA
ATOM     67  O   UNL A   1      34.236  32.839  31.220  1.00  0.00    -0.237 OA
ATOM     68  O   UNL A   1      35.870  33.836  29.685  1.00  0.00    -0.744 OA
ENDBRANCH  62  65
ENDBRANCH  44  58
BRANCH  45  69
ATOM     69  C   UNL A   1      46.927  27.503  26.288  1.00  0.00     0.023 A 
ATOM     70  C   UNL A   1      47.827  26.665  26.971  1.00  0.00     0.012 A 
ATOM     71  C   UNL A   1      47.191  27.846  24.947  1.00  0.00     0.148 A 
ATOM     72  C   UNL A   1      48.968  26.177  26.334  1.00  0.00     0.002 A 
ATOM     73  C   UNL A   1      48.292  27.303  24.297  1.00  0.00     0.091 A 
ATOM     74  F   UNL A   1      46.340  28.673  24.323  1.00  0.00    -0.205 F 
ATOM     75  C   UNL A   1      49.191  26.480  24.993  1.00  0.00     0.022 A 
BRANCH  73  76
ATOM     76  S   UNL A   1      48.549  27.504  22.531  1.00  0.00     0.127 S 
ATOM     77  O   UNL A   1      48.616  26.118  22.076  1.00  0.00    -0.237 OA
ATOM     78  O   UNL A   1      47.343  28.229  22.125  1.00  0.00    -0.237 OA
ATOM     79  O   UNL A   1      49.777  28.279  22.404  1.00  0.00    -0.744 OA
ENDBRANCH  73  76
ENDBRANCH  45  69
BRANCH  57  80
ATOM     80  C   UNL A   1      44.948  33.453  29.352  1.00  0.00     0.023 A 
ATOM     81  C   UNL A   1      45.678  33.703  30.531  1.00  0.00     0.012 A 
ATOM     82  C   UNL A   1      44.908  34.435  28.342  1.00  0.00     0.148 A 
ATOM     83  C   UNL A   1      46.331  34.920  30.716  1.00  0.00     0.002 A 
ATOM     84  C   UNL A   1      45.595  35.632  28.517  1.00  0.00     0.091 A 
ATOM     85  F   UNL A   1      44.190  34.189  27.237  1.00  0.00    -0.205 F 
ATOM     86  C   UNL A   1      46.298  35.880  29.706  1.00  0.00     0.022 A 
BRANCH  84  87
ATOM     87  S   UNL A   1      45.669  36.884  27.231  1.00  0.00     0.127 S 
ATOM     88  O   UNL A   1      46.546  37.884  27.839  1.00  0.00    -0.237 OA
ATOM     89  O   UNL A   1      46.263  36.154  26.111  1.00  0.00    -0.237 OA
ATOM     90  O   UNL A   1      44.292  37.304  27.009  1.00  0.00    -0.744 OA
ENDBRANCH  84  87
ENDBRANCH  57  80
ENDBRANCH  31  32
ENDBRANCH  24  26
ENDBRANCH  23  24
ENDBRANCH  22  23
ENDBRANCH   1  22
TORSDOF 18
ENDMDL
MODEL 3
REMARK VINA RESULT:     -11.6      1.527      2.027
REMARK SMILES COc1ncccc1C[C@H](C(=O)OCCOC(=O)c1ccc(-c2c3nc(c(-c4cccc(S(=O)(=O)[O-])c4F)c4ccc([nH]4)c(-c4cccc(S(=O)(=O)[O-])c4F)c4nc(c(-c5cccc(S(=O)(=O)[O-])c5F)c5ccc2[nH]5)C=C4)C=C3)cc1)c1ccc(F)cc1
REMARK SMILES IDX 14 1 13 2 11 3 12 4 10 5 9 6 8 7 3 8 4 9 5 10 7 11 6 12 2 13
REMARK SMILES IDX 1 14 82 15 83 16 88 17 84 18 87 19 85 20 86 21 15 22 16 23
REMARK SMILES IDX 17 24 18 25 19 26 20 27 81 28 21 29 80 30 22 31 23 32 24 33
REMARK SMILES IDX 74 34 25 35 79 36 73 37 75 38 26 39 78 40 72 41 71 42 27 44
REMARK SMILES IDX 59 45 39 46 58 47 40 48 43 49 57 50 76 51 41 52 42 53 56 55
REMARK SMILES IDX 77 56 44 57 28 58 29 59 37 60 30 61 32 62 38 63 31 64 33 65
REMARK SMILES IDX 34 66 35 67 36 68 60 69 61 70 69 71 62 72 64 73 70 74 63 75
REMARK SMILES IDX 65 76 66 77 67 78 68 79 45 80 46 81 54 82 47 83 49 84 55 85
REMARK SMILES IDX 48 86 50 87 51 88 52 89 53 90
REMARK H PARENT 75 43 43 54
REMARK Flexibility Score: inf
ROOT
ATOM      1  C   UNL A   1      36.186  22.359  25.608  1.00  0.00     0.274 C 
ENDROOT
BRANCH   1   2
ATOM      2  O   UNL A   1      34.894  22.107  25.009  1.00  0.00    -0.462 OA
BRANCH   2   3
ATOM      3  C   UNL A   1      33.958  21.624  25.874  1.00  0.00     0.313 C 
ATOM      4  O   UNL A   1      34.030  21.744  27.092  1.00  0.00    -0.252 OA
BRANCH   3   5
ATOM      5  C   UNL A   1      32.829  20.872  25.161  1.00  0.00     0.134 C 
BRANCH   5   6
ATOM      6  C   UNL A   1      32.204  21.958  24.237  1.00  0.00     0.061 C 
BRANCH   6   7
ATOM      7  C   UNL A   1      31.786  23.264  24.855  1.00  0.00     0.015 A 
ATOM      8  C   UNL A   1      32.316  24.524  24.550  1.00  0.00     0.216 A 
ATOM      9  N   UNL A   1      31.850  25.659  25.121  1.00  0.00    -0.222 NA
ATOM     10  C   UNL A   1      30.859  25.565  26.029  1.00  0.00     0.115 A 
ATOM     11  C   UNL A   1      30.750  23.213  25.807  1.00  0.00     0.011 A 
ATOM     12  C   UNL A   1      30.276  24.374  26.402  1.00  0.00     0.021 A 
BRANCH   8  13
ATOM     13  O   UNL A   1      33.165  24.798  23.522  1.00  0.00    -0.481 OA
ATOM     14  C   UNL A   1      32.618  24.911  22.219  1.00  0.00     0.280 C 
ENDBRANCH   8  13
ENDBRANCH   6   7
ENDBRANCH   5   6
BRANCH   5  15
ATOM     15  C   UNL A   1      33.272  19.617  24.406  1.00  0.00    -0.033 A 
ATOM     16  C   UNL A   1      32.509  19.049  23.379  1.00  0.00     0.007 A 
ATOM     17  C   UNL A   1      34.457  18.950  24.763  1.00  0.00     0.007 A 
ATOM     18  C   UNL A   1      32.822  17.797  22.842  1.00  0.00     0.039 A 
ATOM     19  C   UNL A   1      34.766  17.687  24.246  1.00  0.00     0.039 A 
ATOM     20  C   UNL A   1      33.928  17.109  23.307  1.00  0.00     0.123 A 
ATOM     21  F   UNL A   1      34.195  15.884  22.837  1.00  0.00    -0.207 F 
ENDBRANCH   5  15
ENDBRANCH   3   5
ENDBRANCH   2   3
ENDBRANCH   1   2
BRANCH   1  22
ATOM     22  C   UNL A   1      37.162  21.210  25.350  1.00  0.00     0.275 C 
BRANCH  22  23
ATOM     23  O   UNL A   1      38.492  21.723  25.181  1.00  0.00    -0.458 OA
BRANCH  23  24
ATOM     24  C   UNL A   1      39.324  21.520  26.233  1.00  0.00     0.338 C 
ATOM     25  O   UNL A   1      39.760  20.437  26.585  1.00  0.00    -0.246 OA
BRANCH  24  26
ATOM     26  C   UNL A   1      39.745  22.819  26.838  1.00  0.00     0.060 A 
ATOM     27  C   UNL A   1      39.227  24.049  26.416  1.00  0.00     0.016 A 
ATOM     28  C   UNL A   1      40.783  22.808  27.775  1.00  0.00     0.016 A 
ATOM     29  C   UNL A   1      39.826  25.246  26.823  1.00  0.00     0.010 A 
ATOM     30  C   UNL A   1      41.313  24.011  28.257  1.00  0.00     0.010 A 
ATOM     31  C   UNL A   1      40.875  25.248  27.755  1.00  0.00    -0.014 A 
BRANCH  31  32
ATOM     32  C   UNL A   1      41.532  26.513  28.205  1.00  0.00     0.031 A 
ATOM     33  C   UNL A   1      40.737  27.577  28.925  1.00  0.00     0.074 A 
ATOM     34  C   UNL A   1      42.833  26.746  27.933  1.00  0.00     0.049 A 
ATOM     35  N   UNL A   1      41.061  28.818  29.191  1.00  0.00    -0.248 NA
ATOM     36  C   UNL A   1      39.397  27.199  29.399  1.00  0.00     0.031 C 
ATOM     37  C   UNL A   1      43.742  25.810  27.273  1.00  0.00     0.029 A 
ATOM     38  N   UNL A   1      43.608  27.859  28.157  1.00  0.00    -0.354 N 
ATOM     39  C   UNL A   1      39.948  29.383  29.806  1.00  0.00     0.074 A 
ATOM     40  C   UNL A   1      38.940  28.348  29.879  1.00  0.00     0.031 C 
ATOM     41  C   UNL A   1      44.952  26.378  27.156  1.00  0.00     0.029 A 
ATOM     42  C   UNL A   1      44.882  27.751  27.648  1.00  0.00     0.049 A 
ATOM     43  H   UNL A   1      43.284  28.655  28.637  1.00  0.00     0.167 HD
ATOM     44  C   UNL A   1      39.777  30.643  30.276  1.00  0.00     0.034 A 
ATOM     45  C   UNL A   1      45.871  28.660  27.534  1.00  0.00     0.034 A 
ATOM     46  C   UNL A   1      40.793  31.662  30.260  1.00  0.00     0.049 A 
ATOM     47  C   UNL A   1      45.646  30.063  28.018  1.00  0.00     0.074 A 
ATOM     48  C   UNL A   1      40.719  32.960  30.738  1.00  0.00     0.029 A 
ATOM     49  N   UNL A   1      42.071  31.499  29.749  1.00  0.00    -0.354 N 
ATOM     50  N   UNL A   1      44.596  30.572  28.614  1.00  0.00    -0.248 NA
ATOM     51  C   UNL A   1      46.745  31.018  27.816  1.00  0.00     0.031 C 
ATOM     52  C   UNL A   1      41.950  33.586  30.504  1.00  0.00     0.029 A 
ATOM     53  C   UNL A   1      42.794  32.672  29.894  1.00  0.00     0.049 A 
ATOM     54  H   UNL A   1      42.415  30.671  29.343  1.00  0.00     0.167 HD
ATOM     55  C   UNL A   1      44.916  31.898  28.881  1.00  0.00     0.074 A 
ATOM     56  C   UNL A   1      46.266  32.109  28.399  1.00  0.00     0.031 C 
ATOM     57  C   UNL A   1      44.153  32.860  29.457  1.00  0.00     0.034 A 
BRANCH  44  58
ATOM     58  C   UNL A   1      38.441  30.990  30.881  1.00  0.00     0.023 A 
ATOM     59  C   UNL A   1      38.193  30.707  32.239  1.00  0.00     0.012 A 
ATOM     60  C   UNL A   1      37.453  31.653  30.124  1.00  0.00     0.148 A 
ATOM     61  C   UNL A   1      36.976  31.053  32.826  1.00  0.00     0.002 A 
ATOM     62  C   UNL A   1      36.258  32.029  30.727  1.00  0.00     0.091 A 
ATOM     63  F   UNL A   1      37.692  31.891  28.826  1.00  0.00    -0.205 F 
ATOM     64  C   UNL A   1      36.015  31.723  32.075  1.00  0.00     0.022 A 
BRANCH  62  65
ATOM     65  S   UNL A   1      34.996  32.961  29.849  1.00  0.00     0.127 S 
ATOM     66  O   UNL A   1      34.463  31.952  28.936  1.00  0.00    -0.237 OA
ATOM     67  O   UNL A   1      34.085  33.350  30.926  1.00  0.00    -0.237 OA
ATOM     68  O   UNL A   1      35.694  34.076  29.223  1.00  0.00    -0.744 OA
ENDBRANCH  62  65
ENDBRANCH  44  58
BRANCH  45  69
ATOM     69  C   UNL A   1      47.176  28.250  26.942  1.00  0.00     0.023 A 
ATOM     70  C   UNL A   1      48.246  27.924  27.796  1.00  0.00     0.012 A 
ATOM     71  C   UNL A   1      47.341  28.108  25.550  1.00  0.00     0.148 A 
ATOM     72  C   UNL A   1      49.457  27.467  27.276  1.00  0.00     0.002 A 
ATOM     73  C   UNL A   1      48.525  27.588  25.042  1.00  0.00     0.091 A 
ATOM     74  F   UNL A   1      46.323  28.456  24.750  1.00  0.00    -0.205 F 
ATOM     75  C   UNL A   1      49.591  27.281  25.902  1.00  0.00     0.022 A 
BRANCH  73  76
ATOM     76  S   UNL A   1      48.709  27.157  23.308  1.00  0.00     0.127 S 
ATOM     77  O   UNL A   1      48.054  28.283  22.647  1.00  0.00    -0.237 OA
ATOM     78  O   UNL A   1      50.164  27.113  23.155  1.00  0.00    -0.237 OA
ATOM     79  O   UNL A   1      48.057  25.863  23.160  1.00  0.00    -0.744 OA
ENDBRANCH  73  76
ENDBRANCH  45  69
BRANCH  57  80
ATOM     80  C   UNL A   1      44.765  34.225  29.623  1.00  0.00     0.023 A 
ATOM     81  C   UNL A   1      45.482  34.529  30.797  1.00  0.00     0.012 A 
ATOM     82  C   UNL A   1      44.673  35.190  28.599  1.00  0.00     0.148 A 
ATOM     83  C   UNL A   1      46.071  35.782  30.963  1.00  0.00     0.002 A 
ATOM     84  C   UNL A   1      45.297  36.423  28.756  1.00  0.00     0.091 A 
ATOM     85  F   UNL A   1      43.967  34.891  27.499  1.00  0.00    -0.205 F 
ATOM     86  C   UNL A   1      45.987  36.724  29.941  1.00  0.00     0.022 A 
BRANCH  84  87
ATOM     87  S   UNL A   1      45.303  37.659  27.453  1.00  0.00     0.127 S 
ATOM     88  O   UNL A   1      45.885  38.812  28.139  1.00  0.00    -0.237 OA
ATOM     89  O   UNL A   1      46.171  37.051  26.443  1.00  0.00    -0.237 OA
ATOM     90  O   UNL A   1      43.914  37.804  27.039  1.00  0.00    -0.744 OA
ENDBRANCH  84  87
ENDBRANCH  57  80
ENDBRANCH  31  32
ENDBRANCH  24  26
ENDBRANCH  23  24
ENDBRANCH  22  23
ENDBRANCH   1  22
TORSDOF 18
ENDMDL
