MODEL 1
REMARK VINA RESULT:     -11.1      0.000      0.000
REMARK SMILES Cc1ccc([C@H](C)[N@@H+](CC(=O)OCCOC(=O)c2ccc(-c3c4nc(c(-c5cccc(S(=O)(=O)[O-])c5F)c5ccc([nH]5)c(-c5cccc(S(=O)(=O)[O-])c5F)c5nc(c(-c6cccc(S(=O)(=O)[O-])c6F)c6ccc3[nH]6)C=C5)C=C4)cc2)CC(F)(F)F)cc1
REMARK SMILES IDX 13 1 12 2 10 3 11 4 9 5 8 6 6 8 7 9 5 10 1 11 2 12 3 13
REMARK SMILES IDX 87 14 4 15 86 16 81 17 82 18 83 19 84 20 85 21 14 22 15 23
REMARK SMILES IDX 16 24 17 25 18 26 19 27 80 28 20 29 79 30 21 31 22 32 23 33
REMARK SMILES IDX 73 34 24 35 78 36 72 37 74 38 25 39 77 40 71 41 70 42 26 44
REMARK SMILES IDX 58 45 38 46 57 47 39 48 42 49 56 50 75 51 40 52 41 53 55 55
REMARK SMILES IDX 76 56 43 57 27 58 28 59 36 60 29 61 31 62 37 63 30 64 32 65
REMARK SMILES IDX 33 66 34 67 35 68 59 69 60 70 68 71 61 72 63 73 69 74 62 75
REMARK SMILES IDX 64 76 65 77 66 78 67 79 44 80 45 81 53 82 46 83 48 84 54 85
REMARK SMILES IDX 47 86 49 87 50 88 51 89 52 90
REMARK H PARENT 8 7 74 43 42 54
REMARK Flexibility Score: inf
ROOT
ATOM      1  C   UNL A   1      37.017  22.928  24.369  1.00  0.00     0.274 C 
ENDROOT
BRANCH   1   2
ATOM      2  O   UNL A   1      35.899  23.512  23.663  1.00  0.00    -0.458 OA
BRANCH   2   3
ATOM      3  C   UNL A   1      34.677  23.274  24.158  1.00  0.00     0.361 C 
ATOM      4  O   UNL A   1      34.115  22.195  24.005  1.00  0.00    -0.245 OA
BRANCH   3   5
ATOM      5  C   UNL A   1      34.019  24.419  24.901  1.00  0.00     0.387 C 
BRANCH   5   6
ATOM      6  N   UNL A   1      32.944  24.997  24.061  1.00  0.00    -0.312 N 
ATOM      7  H   UNL A   1      32.727  24.399  23.264  1.00  0.00     0.349 HD
BRANCH   6   8
ATOM      8  C   UNL A   1      33.393  26.155  23.262  1.00  0.00     0.212 C 
ATOM      9  C   UNL A   1      33.039  26.072  21.781  1.00  0.00     0.081 C 
BRANCH   8  10
ATOM     10  C   UNL A   1      33.136  27.530  23.901  1.00  0.00     0.009 A 
ATOM     11  C   UNL A   1      31.819  30.625  26.635  1.00  0.00     0.044 C 
ATOM     12  C   UNL A   1      32.344  29.648  25.620  1.00  0.00    -0.051 A 
ATOM     13  C   UNL A   1      33.565  28.998  25.819  1.00  0.00     0.004 A 
ATOM     14  C   UNL A   1      31.581  29.311  24.495  1.00  0.00     0.004 A 
ATOM     15  C   UNL A   1      33.957  27.955  24.970  1.00  0.00     0.010 A 
ATOM     16  C   UNL A   1      31.980  28.275  23.635  1.00  0.00     0.010 A 
ENDBRANCH   8  10
ENDBRANCH   6   8
BRANCH   6  17
ATOM     17  C   UNL A   1      31.569  24.880  24.651  1.00  0.00     0.380 C 
BRANCH  17  18
ATOM     18  C   UNL A   1      31.037  25.156  26.104  1.00  0.00     0.438 C 
ATOM     19  F   UNL A   1      31.726  24.472  27.046  1.00  0.00    -0.165 F 
ATOM     20  F   UNL A   1      31.245  26.474  26.392  1.00  0.00    -0.165 F 
ATOM     21  F   UNL A   1      29.734  24.947  26.342  1.00  0.00    -0.165 F 
ENDBRANCH  17  18
ENDBRANCH   6  17
ENDBRANCH   5   6
ENDBRANCH   3   5
ENDBRANCH   2   3
ENDBRANCH   1   2
BRANCH   1  22
ATOM     22  C   UNL A   1      37.602  23.535  25.696  1.00  0.00     0.275 C 
BRANCH  22  23
ATOM     23  O   UNL A   1      38.692  23.005  26.585  1.00  0.00    -0.458 OA
BRANCH  23  24
ATOM     24  C   UNL A   1      39.874  23.453  27.132  1.00  0.00     0.338 C 
ATOM     25  O   UNL A   1      40.727  22.687  27.556  1.00  0.00    -0.246 OA
BRANCH  24  26
ATOM     26  C   UNL A   1      40.008  24.909  27.298  1.00  0.00     0.060 A 
ATOM     27  C   UNL A   1      40.434  25.889  26.388  1.00  0.00     0.016 A 
ATOM     28  C   UNL A   1      39.602  25.316  28.524  1.00  0.00     0.016 A 
ATOM     29  C   UNL A   1      40.382  27.250  26.775  1.00  0.00     0.010 A 
ATOM     30  C   UNL A   1      39.057  26.555  28.616  1.00  0.00     0.010 A 
ATOM     31  C   UNL A   1      39.701  27.562  27.943  1.00  0.00    -0.014 A 
BRANCH  31  32
ATOM     32  C   UNL A   1      39.719  28.720  28.836  1.00  0.00     0.031 A 
ATOM     33  C   UNL A   1      38.708  29.764  28.724  1.00  0.00     0.074 A 
ATOM     34  C   UNL A   1      40.440  28.487  29.975  1.00  0.00     0.049 A 
ATOM     35  N   UNL A   1      38.966  31.010  28.895  1.00  0.00    -0.248 NA
ATOM     36  C   UNL A   1      37.304  29.489  28.418  1.00  0.00     0.031 C 
ATOM     37  C   UNL A   1      40.343  28.973  31.341  1.00  0.00     0.029 A 
ATOM     38  N   UNL A   1      41.419  27.497  30.104  1.00  0.00    -0.354 N 
ATOM     39  C   UNL A   1      37.747  31.617  29.104  1.00  0.00     0.074 A 
ATOM     40  C   UNL A   1      36.755  30.701  28.580  1.00  0.00     0.031 C 
ATOM     41  C   UNL A   1      41.385  28.476  32.057  1.00  0.00     0.029 A 
ATOM     42  C   UNL A   1      42.267  27.737  31.155  1.00  0.00     0.049 A 
ATOM     43  H   UNL A   1      41.491  26.716  29.509  1.00  0.00     0.167 HD
ATOM     44  C   UNL A   1      37.657  32.627  30.015  1.00  0.00     0.034 A 
ATOM     45  C   UNL A   1      43.562  27.938  30.774  1.00  0.00     0.034 A 
ATOM     46  C   UNL A   1      38.889  32.649  30.838  1.00  0.00     0.049 A 
ATOM     47  C   UNL A   1      43.850  29.416  30.868  1.00  0.00     0.074 A 
ATOM     48  C   UNL A   1      39.144  32.156  32.109  1.00  0.00     0.029 A 
ATOM     49  N   UNL A   1      40.133  32.896  30.267  1.00  0.00    -0.354 N 
ATOM     50  N   UNL A   1      42.979  30.310  31.251  1.00  0.00    -0.248 NA
ATOM     51  C   UNL A   1      45.115  30.007  30.454  1.00  0.00     0.031 C 
ATOM     52  C   UNL A   1      40.553  32.043  32.266  1.00  0.00     0.029 A 
ATOM     53  C   UNL A   1      41.165  32.468  31.100  1.00  0.00     0.049 A 
ATOM     54  H   UNL A   1      40.268  33.320  29.388  1.00  0.00     0.167 HD
ATOM     55  C   UNL A   1      43.404  31.531  30.828  1.00  0.00     0.074 A 
ATOM     56  C   UNL A   1      44.804  31.311  30.493  1.00  0.00     0.031 C 
ATOM     57  C   UNL A   1      42.556  32.589  30.656  1.00  0.00     0.034 A 
BRANCH  44  58
ATOM     58  C   UNL A   1      36.388  33.344  30.458  1.00  0.00     0.023 A 
ATOM     59  C   UNL A   1      36.104  33.328  31.845  1.00  0.00     0.012 A 
ATOM     60  C   UNL A   1      35.492  34.092  29.653  1.00  0.00     0.148 A 
ATOM     61  C   UNL A   1      34.982  33.944  32.402  1.00  0.00     0.002 A 
ATOM     62  C   UNL A   1      34.347  34.687  30.207  1.00  0.00     0.091 A 
ATOM     63  F   UNL A   1      35.771  34.286  28.358  1.00  0.00    -0.205 F 
ATOM     64  C   UNL A   1      34.092  34.610  31.580  1.00  0.00     0.022 A 
BRANCH  62  65
ATOM     65  S   UNL A   1      33.111  35.566  29.231  1.00  0.00     0.127 S 
ATOM     66  O   UNL A   1      33.932  36.524  28.486  1.00  0.00    -0.237 OA
ATOM     67  O   UNL A   1      32.537  34.499  28.414  1.00  0.00    -0.237 OA
ATOM     68  O   UNL A   1      32.200  36.181  30.189  1.00  0.00    -0.744 OA
ENDBRANCH  62  65
ENDBRANCH  44  58
BRANCH  45  69
ATOM     69  C   UNL A   1      43.942  27.079  29.555  1.00  0.00     0.023 A 
ATOM     70  C   UNL A   1      43.846  25.663  29.659  1.00  0.00     0.012 A 
ATOM     71  C   UNL A   1      44.003  27.623  28.252  1.00  0.00     0.148 A 
ATOM     72  C   UNL A   1      43.724  24.846  28.522  1.00  0.00     0.002 A 
ATOM     73  C   UNL A   1      43.876  26.804  27.124  1.00  0.00     0.091 A 
ATOM     74  F   UNL A   1      44.131  28.947  28.102  1.00  0.00    -0.205 F 
ATOM     75  C   UNL A   1      43.718  25.419  27.253  1.00  0.00     0.022 A 
BRANCH  73  76
ATOM     76  S   UNL A   1      43.788  27.548  25.484  1.00  0.00     0.127 S 
ATOM     77  O   UNL A   1      45.190  27.797  25.147  1.00  0.00    -0.237 OA
ATOM     78  O   UNL A   1      43.157  26.528  24.657  1.00  0.00    -0.237 OA
ATOM     79  O   UNL A   1      43.003  28.751  25.743  1.00  0.00    -0.744 OA
ENDBRANCH  73  76
ENDBRANCH  45  69
BRANCH  57  80
ATOM     80  C   UNL A   1      43.020  33.873  30.035  1.00  0.00     0.023 A 
ATOM     81  C   UNL A   1      43.118  35.070  30.768  1.00  0.00     0.012 A 
ATOM     82  C   UNL A   1      43.445  33.892  28.689  1.00  0.00     0.148 A 
ATOM     83  C   UNL A   1      43.455  36.273  30.149  1.00  0.00     0.002 A 
ATOM     84  C   UNL A   1      43.916  35.063  28.118  1.00  0.00     0.091 A 
ATOM     85  F   UNL A   1      43.368  32.776  27.949  1.00  0.00    -0.205 F 
ATOM     86  C   UNL A   1      43.863  36.268  28.822  1.00  0.00     0.022 A 
BRANCH  84  87
ATOM     87  S   UNL A   1      44.716  35.035  26.515  1.00  0.00     0.127 S 
ATOM     88  O   UNL A   1      45.667  33.937  26.670  1.00  0.00    -0.237 OA
ATOM     89  O   UNL A   1      43.600  34.756  25.610  1.00  0.00    -0.237 OA
ATOM     90  O   UNL A   1      45.293  36.364  26.355  1.00  0.00    -0.744 OA
ENDBRANCH  84  87
ENDBRANCH  57  80
ENDBRANCH  31  32
ENDBRANCH  24  26
ENDBRANCH  23  24
ENDBRANCH  22  23
ENDBRANCH   1  22
TORSDOF 19
ENDMDL
MODEL 2
REMARK VINA RESULT:     -11.1      4.108      9.401
REMARK SMILES Cc1ccc([C@H](C)[N@@H+](CC(=O)OCCOC(=O)c2ccc(-c3c4nc(c(-c5cccc(S(=O)(=O)[O-])c5F)c5ccc([nH]5)c(-c5cccc(S(=O)(=O)[O-])c5F)c5nc(c(-c6cccc(S(=O)(=O)[O-])c6F)c6ccc3[nH]6)C=C5)C=C4)cc2)CC(F)(F)F)cc1
REMARK SMILES IDX 13 1 12 2 10 3 11 4 9 5 8 6 6 8 7 9 5 10 1 11 2 12 3 13
REMARK SMILES IDX 87 14 4 15 86 16 81 17 82 18 83 19 84 20 85 21 14 22 15 23
REMARK SMILES IDX 16 24 17 25 18 26 19 27 80 28 20 29 79 30 21 31 22 32 23 33
REMARK SMILES IDX 73 34 24 35 78 36 72 37 74 38 25 39 77 40 71 41 70 42 26 44
REMARK SMILES IDX 58 45 38 46 57 47 39 48 42 49 56 50 75 51 40 52 41 53 55 55
REMARK SMILES IDX 76 56 43 57 27 58 28 59 36 60 29 61 31 62 37 63 30 64 32 65
REMARK SMILES IDX 33 66 34 67 35 68 59 69 60 70 68 71 61 72 63 73 69 74 62 75
REMARK SMILES IDX 64 76 65 77 66 78 67 79 44 80 45 81 53 82 46 83 48 84 54 85
REMARK SMILES IDX 47 86 49 87 50 88 51 89 52 90
REMARK H PARENT 8 7 74 43 42 54
REMARK Flexibility Score: inf
ROOT
ATOM      1  C   UNL A   1      33.115  28.581  26.509  1.00  0.00     0.274 C 
ENDROOT
BRANCH   1   2
ATOM      2  O   UNL A   1      33.034  28.055  25.166  1.00  0.00    -0.458 OA
BRANCH   2   3
ATOM      3  C   UNL A   1      33.040  26.722  25.034  1.00  0.00     0.361 C 
ATOM      4  O   UNL A   1      33.685  25.999  25.784  1.00  0.00    -0.245 OA
BRANCH   3   5
ATOM      5  C   UNL A   1      32.219  26.157  23.892  1.00  0.00     0.387 C 
BRANCH   5   6
ATOM      6  N   UNL A   1      31.938  24.725  24.148  1.00  0.00    -0.312 N 
ATOM      7  H   UNL A   1      32.651  24.303  24.742  1.00  0.00     0.349 HD
BRANCH   6   8
ATOM      8  C   UNL A   1      32.192  23.866  22.975  1.00  0.00     0.212 C 
ATOM      9  C   UNL A   1      32.897  24.572  21.821  1.00  0.00     0.081 C 
BRANCH   8  10
ATOM     10  C   UNL A   1      32.741  22.467  23.295  1.00  0.00     0.009 A 
ATOM     11  C   UNL A   1      33.245  18.537  25.054  1.00  0.00     0.044 C 
ATOM     12  C   UNL A   1      33.167  19.867  24.355  1.00  0.00    -0.051 A 
ATOM     13  C   UNL A   1      32.309  20.052  23.268  1.00  0.00     0.004 A 
ATOM     14  C   UNL A   1      33.894  20.965  24.831  1.00  0.00     0.004 A 
ATOM     15  C   UNL A   1      32.101  21.334  22.743  1.00  0.00     0.010 A 
ATOM     16  C   UNL A   1      33.697  22.248  24.296  1.00  0.00     0.010 A 
ENDBRANCH   8  10
ENDBRANCH   6   8
BRANCH   6  17
ATOM     17  C   UNL A   1      30.830  24.480  25.131  1.00  0.00     0.380 C 
BRANCH  17  18
ATOM     18  C   UNL A   1      30.673  23.411  26.272  1.00  0.00     0.438 C 
ATOM     19  F   UNL A   1      30.612  22.148  25.793  1.00  0.00    -0.165 F 
ATOM     20  F   UNL A   1      31.795  23.449  27.049  1.00  0.00    -0.165 F 
ATOM     21  F   UNL A   1      29.651  23.557  27.127  1.00  0.00    -0.165 F 
ENDBRANCH  17  18
ENDBRANCH   6  17
ENDBRANCH   5   6
ENDBRANCH   3   5
ENDBRANCH   2   3
ENDBRANCH   1   2
BRANCH   1  22
ATOM     22  C   UNL A   1      34.470  29.005  27.182  1.00  0.00     0.275 C 
BRANCH  22  23
ATOM     23  O   UNL A   1      35.089  30.370  27.300  1.00  0.00    -0.458 OA
BRANCH  23  24
ATOM     24  C   UNL A   1      36.097  30.978  28.015  1.00  0.00     0.338 C 
ATOM     25  O   UNL A   1      36.188  32.193  28.106  1.00  0.00    -0.246 OA
BRANCH  24  26
ATOM     26  C   UNL A   1      37.137  30.093  28.563  1.00  0.00     0.060 A 
ATOM     27  C   UNL A   1      37.214  29.450  29.808  1.00  0.00     0.016 A 
ATOM     28  C   UNL A   1      38.126  29.863  27.668  1.00  0.00     0.016 A 
ATOM     29  C   UNL A   1      38.292  28.565  30.055  1.00  0.00     0.010 A 
ATOM     30  C   UNL A   1      38.748  28.659  27.728  1.00  0.00     0.010 A 
ATOM     31  C   UNL A   1      39.088  28.204  28.977  1.00  0.00    -0.014 A 
BRANCH  31  32
ATOM     32  C   UNL A   1      40.434  27.643  28.868  1.00  0.00     0.031 A 
ATOM     33  C   UNL A   1      40.632  26.240  28.526  1.00  0.00     0.074 A 
ATOM     34  C   UNL A   1      41.386  28.607  28.677  1.00  0.00     0.049 A 
ATOM     35  N   UNL A   1      41.561  25.518  29.040  1.00  0.00    -0.248 NA
ATOM     36  C   UNL A   1      39.797  25.527  27.558  1.00  0.00     0.031 C 
ATOM     37  C   UNL A   1      42.664  28.632  27.986  1.00  0.00     0.029 A 
ATOM     38  N   UNL A   1      41.223  29.956  29.004  1.00  0.00    -0.354 N 
ATOM     39  C   UNL A   1      41.681  24.423  28.211  1.00  0.00     0.074 A 
ATOM     40  C   UNL A   1      40.445  24.356  27.462  1.00  0.00     0.031 C 
ATOM     41  C   UNL A   1      43.247  29.842  28.188  1.00  0.00     0.029 A 
ATOM     42  C   UNL A   1      42.421  30.613  29.116  1.00  0.00     0.049 A 
ATOM     43  H   UNL A   1      40.347  30.387  29.136  1.00  0.00     0.167 HD
ATOM     44  C   UNL A   1      42.921  23.914  27.961  1.00  0.00     0.034 A 
ATOM     45  C   UNL A   1      42.661  31.095  30.371  1.00  0.00     0.034 A 
ATOM     46  C   UNL A   1      43.944  24.884  28.419  1.00  0.00     0.049 A 
ATOM     47  C   UNL A   1      43.676  30.192  31.028  1.00  0.00     0.074 A 
ATOM     48  C   UNL A   1      44.697  25.813  27.717  1.00  0.00     0.029 A 
ATOM     49  N   UNL A   1      44.052  25.239  29.760  1.00  0.00    -0.354 N 
ATOM     50  N   UNL A   1      44.204  29.144  30.458  1.00  0.00    -0.248 NA
ATOM     51  C   UNL A   1      44.107  30.356  32.410  1.00  0.00     0.031 C 
ATOM     52  C   UNL A   1      45.198  26.769  28.643  1.00  0.00     0.029 A 
ATOM     53  C   UNL A   1      44.759  26.431  29.911  1.00  0.00     0.049 A 
ATOM     54  H   UNL A   1      43.679  24.716  30.506  1.00  0.00     0.167 HD
ATOM     55  C   UNL A   1      44.724  28.345  31.427  1.00  0.00     0.074 A 
ATOM     56  C   UNL A   1      44.790  29.216  32.593  1.00  0.00     0.031 C 
ATOM     57  C   UNL A   1      44.937  27.007  31.246  1.00  0.00     0.034 A 
BRANCH  44  58
ATOM     58  C   UNL A   1      43.266  22.785  26.999  1.00  0.00     0.023 A 
ATOM     59  C   UNL A   1      44.193  23.090  25.973  1.00  0.00     0.012 A 
ATOM     60  C   UNL A   1      42.825  21.439  27.054  1.00  0.00     0.148 A 
ATOM     61  C   UNL A   1      44.609  22.159  25.019  1.00  0.00     0.002 A 
ATOM     62  C   UNL A   1      43.219  20.509  26.078  1.00  0.00     0.091 A 
ATOM     63  F   UNL A   1      42.071  21.031  28.081  1.00  0.00    -0.205 F 
ATOM     64  C   UNL A   1      44.109  20.870  25.060  1.00  0.00     0.022 A 
BRANCH  62  65
ATOM     65  S   UNL A   1      42.620  18.809  26.023  1.00  0.00     0.127 S 
ATOM     66  O   UNL A   1      43.505  18.204  25.025  1.00  0.00    -0.237 OA
ATOM     67  O   UNL A   1      42.850  18.349  27.391  1.00  0.00    -0.237 OA
ATOM     68  O   UNL A   1      41.223  18.884  25.613  1.00  0.00    -0.744 OA
ENDBRANCH  62  65
ENDBRANCH  44  58
BRANCH  45  69
ATOM     69  C   UNL A   1      41.369  31.560  31.065  1.00  0.00     0.023 A 
ATOM     70  C   UNL A   1      40.572  32.554  30.431  1.00  0.00     0.012 A 
ATOM     71  C   UNL A   1      40.749  30.791  32.076  1.00  0.00     0.148 A 
ATOM     72  C   UNL A   1      39.206  32.705  30.729  1.00  0.00     0.002 A 
ATOM     73  C   UNL A   1      39.388  30.944  32.364  1.00  0.00     0.091 A 
ATOM     74  F   UNL A   1      41.468  29.867  32.727  1.00  0.00    -0.205 F 
ATOM     75  C   UNL A   1      38.609  31.885  31.682  1.00  0.00     0.022 A 
BRANCH  73  76
ATOM     76  S   UNL A   1      38.593  29.830  33.539  1.00  0.00     0.127 S 
ATOM     77  O   UNL A   1      38.901  28.501  33.010  1.00  0.00    -0.237 OA
ATOM     78  O   UNL A   1      39.241  30.122  34.810  1.00  0.00    -0.237 OA
ATOM     79  O   UNL A   1      37.192  30.221  33.420  1.00  0.00    -0.744 OA
ENDBRANCH  73  76
ENDBRANCH  45  69
BRANCH  57  80
ATOM     80  C   UNL A   1      45.357  26.119  32.380  1.00  0.00     0.023 A 
ATOM     81  C   UNL A   1      46.690  25.702  32.553  1.00  0.00     0.012 A 
ATOM     82  C   UNL A   1      44.417  25.733  33.359  1.00  0.00     0.148 A 
ATOM     83  C   UNL A   1      47.041  24.798  33.554  1.00  0.00     0.002 A 
ATOM     84  C   UNL A   1      44.804  24.948  34.433  1.00  0.00     0.091 A 
ATOM     85  F   UNL A   1      43.134  26.104  33.235  1.00  0.00    -0.205 F 
ATOM     86  C   UNL A   1      46.097  24.426  34.502  1.00  0.00     0.022 A 
BRANCH  84  87
ATOM     87  S   UNL A   1      43.695  24.691  35.818  1.00  0.00     0.127 S 
ATOM     88  O   UNL A   1      43.215  26.046  36.077  1.00  0.00    -0.237 OA
ATOM     89  O   UNL A   1      42.694  23.784  35.255  1.00  0.00    -0.237 OA
ATOM     90  O   UNL A   1      44.521  24.093  36.860  1.00  0.00    -0.744 OA
ENDBRANCH  84  87
ENDBRANCH  57  80
ENDBRANCH  31  32
ENDBRANCH  24  26
ENDBRANCH  23  24
ENDBRANCH  22  23
ENDBRANCH   1  22
TORSDOF 19
ENDMDL
MODEL 3
REMARK VINA RESULT:     -11.0      4.438      9.706
REMARK SMILES Cc1ccc([C@H](C)[N@@H+](CC(=O)OCCOC(=O)c2ccc(-c3c4nc(c(-c5cccc(S(=O)(=O)[O-])c5F)c5ccc([nH]5)c(-c5cccc(S(=O)(=O)[O-])c5F)c5nc(c(-c6cccc(S(=O)(=O)[O-])c6F)c6ccc3[nH]6)C=C5)C=C4)cc2)CC(F)(F)F)cc1
REMARK SMILES IDX 13 1 12 2 10 3 11 4 9 5 8 6 6 8 7 9 5 10 1 11 2 12 3 13
REMARK SMILES IDX 87 14 4 15 86 16 81 17 82 18 83 19 84 20 85 21 14 22 15 23
REMARK SMILES IDX 16 24 17 25 18 26 19 27 80 28 20 29 79 30 21 31 22 32 23 33
REMARK SMILES IDX 73 34 24 35 78 36 72 37 74 38 25 39 77 40 71 41 70 42 26 44
REMARK SMILES IDX 58 45 38 46 57 47 39 48 42 49 56 50 75 51 40 52 41 53 55 55
REMARK SMILES IDX 76 56 43 57 27 58 28 59 36 60 29 61 31 62 37 63 30 64 32 65
REMARK SMILES IDX 33 66 34 67 35 68 59 69 60 70 68 71 61 72 63 73 69 74 62 75
REMARK SMILES IDX 64 76 65 77 66 78 67 79 44 80 45 81 53 82 46 83 48 84 54 85
REMARK SMILES IDX 47 86 49 87 50 88 51 89 52 90
REMARK H PARENT 8 7 74 43 42 54
REMARK Flexibility Score: inf
ROOT
ATOM      1  C   UNL A   1      33.049  29.439  26.877  1.00  0.00     0.274 C 
ENDROOT
BRANCH   1   2
ATOM      2  O   UNL A   1      32.283  28.459  26.142  1.00  0.00    -0.458 OA
BRANCH   2   3
ATOM      3  C   UNL A   1      31.644  27.526  26.859  1.00  0.00     0.361 C 
ATOM      4  O   UNL A   1      31.003  27.808  27.865  1.00  0.00    -0.245 OA
BRANCH   3   5
ATOM      5  C   UNL A   1      31.774  26.098  26.370  1.00  0.00     0.387 C 
BRANCH   5   6
ATOM      6  N   UNL A   1      32.329  26.096  24.996  1.00  0.00    -0.312 N 
ATOM      7  H   UNL A   1      32.370  27.038  24.607  1.00  0.00     0.349 HD
BRANCH   6   8
ATOM      8  C   UNL A   1      31.390  25.558  23.993  1.00  0.00     0.212 C 
ATOM      9  C   UNL A   1      30.775  24.213  24.366  1.00  0.00     0.081 C 
BRANCH   8  10
ATOM     10  C   UNL A   1      30.392  26.576  23.418  1.00  0.00     0.009 A 
ATOM     11  C   UNL A   1      27.871  30.073  22.960  1.00  0.00     0.044 C 
ATOM     12  C   UNL A   1      28.715  28.828  22.991  1.00  0.00    -0.051 A 
ATOM     13  C   UNL A   1      30.057  28.866  22.604  1.00  0.00     0.004 A 
ATOM     14  C   UNL A   1      28.192  27.625  23.483  1.00  0.00     0.004 A 
ATOM     15  C   UNL A   1      30.884  27.754  22.812  1.00  0.00     0.010 A 
ATOM     16  C   UNL A   1      29.017  26.506  23.679  1.00  0.00     0.010 A 
ENDBRANCH   8  10
ENDBRANCH   6   8
BRANCH   6  17
ATOM     17  C   UNL A   1      33.816  25.897  24.932  1.00  0.00     0.380 C 
BRANCH  17  18
ATOM     18  C   UNL A   1      34.689  24.591  24.958  1.00  0.00     0.438 C 
ATOM     19  F   UNL A   1      34.020  23.530  25.464  1.00  0.00    -0.165 F 
ATOM     20  F   UNL A   1      34.986  24.250  23.669  1.00  0.00    -0.165 F 
ATOM     21  F   UNL A   1      35.873  24.645  25.586  1.00  0.00    -0.165 F 
ENDBRANCH  17  18
ENDBRANCH   6  17
ENDBRANCH   5   6
ENDBRANCH   3   5
ENDBRANCH   2   3
ENDBRANCH   1   2
BRANCH   1  22
ATOM     22  C   UNL A   1      34.531  29.194  27.341  1.00  0.00     0.275 C 
BRANCH  22  23
ATOM     23  O   UNL A   1      35.721  30.108  27.249  1.00  0.00    -0.458 OA
BRANCH  23  24
ATOM     24  C   UNL A   1      36.695  30.606  28.086  1.00  0.00     0.338 C 
ATOM     25  O   UNL A   1      36.816  31.803  28.303  1.00  0.00    -0.246 OA
BRANCH  24  26
ATOM     26  C   UNL A   1      37.667  29.635  28.611  1.00  0.00     0.060 A 
ATOM     27  C   UNL A   1      37.579  28.770  29.713  1.00  0.00     0.016 A 
ATOM     28  C   UNL A   1      38.785  29.577  27.847  1.00  0.00     0.016 A 
ATOM     29  C   UNL A   1      38.634  27.856  29.950  1.00  0.00     0.010 A 
ATOM     30  C   UNL A   1      39.425  28.384  27.777  1.00  0.00     0.010 A 
ATOM     31  C   UNL A   1      39.591  27.704  28.957  1.00  0.00    -0.014 A 
BRANCH  31  32
ATOM     32  C   UNL A   1      40.954  27.174  28.948  1.00  0.00     0.031 A 
ATOM     33  C   UNL A   1      41.254  25.899  28.309  1.00  0.00     0.074 A 
ATOM     34  C   UNL A   1      41.891  28.145  29.173  1.00  0.00     0.049 A 
ATOM     35  N   UNL A   1      42.106  25.062  28.782  1.00  0.00    -0.248 NA
ATOM     36  C   UNL A   1      40.624  25.460  27.064  1.00  0.00     0.031 C 
ATOM     37  C   UNL A   1      43.267  28.330  28.744  1.00  0.00     0.029 A 
ATOM     38  N   UNL A   1      41.628  29.372  29.790  1.00  0.00    -0.354 N 
ATOM     39  C   UNL A   1      42.404  24.208  27.742  1.00  0.00     0.074 A 
ATOM     40  C   UNL A   1      41.317  24.344  26.795  1.00  0.00     0.031 C 
ATOM     41  C   UNL A   1      43.765  29.444  29.339  1.00  0.00     0.029 A 
ATOM     42  C   UNL A   1      42.766  29.967  30.271  1.00  0.00     0.049 A 
ATOM     43  H   UNL A   1      40.729  29.764  29.871  1.00  0.00     0.167 HD
ATOM     44  C   UNL A   1      43.685  23.766  27.594  1.00  0.00     0.034 A 
ATOM     45  C   UNL A   1      42.770  30.117  31.628  1.00  0.00     0.034 A 
ATOM     46  C   UNL A   1      44.580  24.579  28.450  1.00  0.00     0.049 A 
ATOM     47  C   UNL A   1      43.687  29.068  32.207  1.00  0.00     0.074 A 
ATOM     48  C   UNL A   1      45.411  25.647  28.144  1.00  0.00     0.029 A 
ATOM     49  N   UNL A   1      44.444  24.586  29.835  1.00  0.00    -0.354 N 
ATOM     50  N   UNL A   1      44.340  28.190  31.496  1.00  0.00    -0.248 NA
ATOM     51  C   UNL A   1      43.868  28.875  33.640  1.00  0.00     0.031 C 
ATOM     52  C   UNL A   1      45.712  26.336  29.351  1.00  0.00     0.029 A 
ATOM     53  C   UNL A   1      45.073  25.695  30.399  1.00  0.00     0.049 A 
ATOM     54  H   UNL A   1      43.965  23.897  30.350  1.00  0.00     0.167 HD
ATOM     55  C   UNL A   1      44.713  27.168  32.312  1.00  0.00     0.074 A 
ATOM     56  C   UNL A   1      44.548  27.719  33.651  1.00  0.00     0.031 C 
ATOM     57  C   UNL A   1      44.999  25.916  31.845  1.00  0.00     0.034 A 
BRANCH  44  58
ATOM     58  C   UNL A   1      44.228  22.910  26.457  1.00  0.00     0.023 A 
ATOM     59  C   UNL A   1      45.190  23.516  25.613  1.00  0.00     0.012 A 
ATOM     60  C   UNL A   1      43.940  21.549  26.188  1.00  0.00     0.148 A 
ATOM     61  C   UNL A   1      45.780  22.858  24.533  1.00  0.00     0.002 A 
ATOM     62  C   UNL A   1      44.511  20.894  25.084  1.00  0.00     0.091 A 
ATOM     63  F   UNL A   1      43.161  20.858  27.028  1.00  0.00    -0.205 F 
ATOM     64  C   UNL A   1      45.428  21.550  24.256  1.00  0.00     0.022 A 
BRANCH  62  65
ATOM     65  S   UNL A   1      44.115  19.198  24.618  1.00  0.00     0.127 S 
ATOM     66  O   UNL A   1      42.687  19.116  24.938  1.00  0.00    -0.237 OA
ATOM     67  O   UNL A   1      44.415  19.185  23.188  1.00  0.00    -0.237 OA
ATOM     68  O   UNL A   1      44.960  18.342  25.443  1.00  0.00    -0.744 OA
ENDBRANCH  62  65
ENDBRANCH  44  58
BRANCH  45  69
ATOM     69  C   UNL A   1      41.362  30.406  32.178  1.00  0.00     0.023 A 
ATOM     70  C   UNL A   1      40.700  29.393  32.927  1.00  0.00     0.012 A 
ATOM     71  C   UNL A   1      40.872  31.725  32.310  1.00  0.00     0.148 A 
ATOM     72  C   UNL A   1      39.664  29.699  33.827  1.00  0.00     0.002 A 
ATOM     73  C   UNL A   1      39.843  32.023  33.212  1.00  0.00     0.091 A 
ATOM     74  F   UNL A   1      41.439  32.707  31.598  1.00  0.00    -0.205 F 
ATOM     75  C   UNL A   1      39.249  31.019  33.985  1.00  0.00     0.022 A 
BRANCH  73  76
ATOM     76  S   UNL A   1      39.358  33.739  33.478  1.00  0.00     0.127 S 
ATOM     77  O   UNL A   1      40.589  34.370  33.956  1.00  0.00    -0.237 OA
ATOM     78  O   UNL A   1      38.932  34.203  32.165  1.00  0.00    -0.237 OA
ATOM     79  O   UNL A   1      38.314  33.602  34.489  1.00  0.00    -0.744 OA
ENDBRANCH  73  76
ENDBRANCH  45  69
BRANCH  57  80
ATOM     80  C   UNL A   1      45.248  24.768  32.778  1.00  0.00     0.023 A 
ATOM     81  C   UNL A   1      44.330  23.712  32.931  1.00  0.00     0.012 A 
ATOM     82  C   UNL A   1      46.467  24.685  33.483  1.00  0.00     0.148 A 
ATOM     83  C   UNL A   1      44.534  22.708  33.875  1.00  0.00     0.002 A 
ATOM     84  C   UNL A   1      46.724  23.607  34.315  1.00  0.00     0.091 A 
ATOM     85  F   UNL A   1      47.372  25.669  33.371  1.00  0.00    -0.205 F 
ATOM     86  C   UNL A   1      45.738  22.651  34.564  1.00  0.00     0.022 A 
BRANCH  84  87
ATOM     87  S   UNL A   1      48.365  23.349  34.988  1.00  0.00     0.127 S 
ATOM     88  O   UNL A   1      49.203  23.463  33.797  1.00  0.00    -0.237 OA
ATOM     89  O   UNL A   1      48.495  24.458  35.936  1.00  0.00    -0.237 OA
ATOM     90  O   UNL A   1      48.317  22.034  35.614  1.00  0.00    -0.744 OA
ENDBRANCH  84  87
ENDBRANCH  57  80
ENDBRANCH  31  32
ENDBRANCH  24  26
ENDBRANCH  23  24
ENDBRANCH  22  23
ENDBRANCH   1  22
TORSDOF 19
ENDMDL
