MODEL 1
REMARK VINA RESULT:     -11.0      0.000      0.000
REMARK SMILES CC(C)[C@H](NC(=O)OCc1ccccc1)C(=O)NCC(=O)OCCOC(=O)c1ccc(-c2c3nc(c(-c4cccc(S(=O)(=O)[O-])c4F)c4ccc([nH]4)c(-c4cccc(S(=O)(=O)[O-])c4F)c4nc(c(-c5cccc(S(=O)(=O)[O-])c5F)c5ccc2[nH]5)C=C4)C=C3)cc1
REMARK SMILES IDX 22 1 20 2 21 3 19 4 18 5 16 6 17 7 4 9 2 10 1 11 3 12 5 13
REMARK SMILES IDX 6 14 7 16 8 17 9 18 10 19 11 20 15 21 12 22 14 23 13 24
REMARK SMILES IDX 23 25 24 26 25 27 26 28 27 29 28 30 29 31 90 32 30 33 89 34
REMARK SMILES IDX 31 35 32 36 33 37 83 38 34 39 88 40 82 41 84 42 35 43 87 44
REMARK SMILES IDX 81 45 80 46 36 48 68 49 48 50 67 51 49 52 52 53 66 54 85 55
REMARK SMILES IDX 50 56 51 57 65 59 86 60 53 61 37 62 38 63 46 64 39 65 41 66
REMARK SMILES IDX 47 67 40 68 42 69 43 70 44 71 45 72 69 73 70 74 78 75 71 76
REMARK SMILES IDX 73 77 79 78 72 79 74 80 75 81 76 82 77 83 54 84 55 85 63 86
REMARK SMILES IDX 56 87 58 88 64 89 57 90 59 91 60 92 61 93 62 94
REMARK H PARENT 18 8 5 15 84 47 52 58
REMARK Flexibility Score: inf
ROOT
ATOM      1  O   UNL A   1      34.688  22.469  25.260  1.00  0.00    -0.461 OA
ENDROOT
BRANCH   1   2
ATOM      2  C   UNL A   1      35.146  23.634  24.736  1.00  0.00     0.325 C 
ATOM      3  O   UNL A   1      35.940  23.724  23.805  1.00  0.00    -0.250 OA
BRANCH   2   4
ATOM      4  C   UNL A   1      34.524  24.859  25.388  1.00  0.00     0.238 C 
BRANCH   4   5
ATOM      5  N   UNL A   1      33.346  24.700  26.233  1.00  0.00    -0.343 N 
ATOM      6  C   UNL A   1      32.266  25.545  26.320  1.00  0.00     0.243 C 
ATOM      7  O   UNL A   1      31.166  25.087  26.628  1.00  0.00    -0.273 OA
ATOM      8  H   UNL A   1      33.322  23.899  26.805  1.00  0.00     0.164 HD
BRANCH   6   9
ATOM      9  C   UNL A   1      32.451  27.035  25.957  1.00  0.00     0.177 C 
BRANCH   9  10
ATOM     10  C   UNL A   1      32.852  27.973  27.140  1.00  0.00     0.015 C 
ATOM     11  C   UNL A   1      34.089  28.866  26.953  1.00  0.00     0.010 C 
ATOM     12  C   UNL A   1      31.674  28.883  27.506  1.00  0.00     0.010 C 
ENDBRANCH   9  10
BRANCH   9  13
ATOM     13  N   UNL A   1      31.208  27.429  25.290  1.00  0.00    -0.309 N 
ATOM     14  C   UNL A   1      30.987  27.804  24.012  1.00  0.00     0.408 C 
ATOM     15  H   UNL A   1      30.407  27.416  25.863  1.00  0.00     0.167 HD
ATOM     16  O   UNL A   1      29.924  28.297  23.690  1.00  0.00    -0.225 OA
BRANCH  14  17
ATOM     17  O   UNL A   1      32.007  27.477  23.187  1.00  0.00    -0.445 OA
BRANCH  17  18
ATOM     18  C   UNL A   1      31.610  26.670  22.075  1.00  0.00     0.270 C 
BRANCH  18  19
ATOM     19  C   UNL A   1      31.791  25.175  22.273  1.00  0.00    -0.011 A 
ATOM     20  C   UNL A   1      30.910  24.503  23.132  1.00  0.00     0.007 A 
ATOM     21  C   UNL A   1      32.861  24.448  21.726  1.00  0.00     0.007 A 
ATOM     22  C   UNL A   1      31.094  23.151  23.434  1.00  0.00     0.000 A 
ATOM     23  C   UNL A   1      33.052  23.099  22.036  1.00  0.00     0.000 A 
ATOM     24  C   UNL A   1      32.169  22.452  22.891  1.00  0.00     0.000 A 
ENDBRANCH  18  19
ENDBRANCH  17  18
ENDBRANCH  14  17
ENDBRANCH   9  13
ENDBRANCH   6   9
ENDBRANCH   4   5
ENDBRANCH   2   4
ENDBRANCH   1   2
BRANCH   1  25
ATOM     25  C   UNL A   1      35.618  21.789  26.122  1.00  0.00     0.274 C 
BRANCH  25  26
ATOM     26  C   UNL A   1      36.476  20.802  25.321  1.00  0.00     0.275 C 
BRANCH  26  27
ATOM     27  O   UNL A   1      37.758  21.348  24.943  1.00  0.00    -0.458 OA
BRANCH  27  28
ATOM     28  C   UNL A   1      38.788  21.024  25.759  1.00  0.00     0.338 C 
ATOM     29  O   UNL A   1      39.292  19.920  25.901  1.00  0.00    -0.246 OA
BRANCH  28  30
ATOM     30  C   UNL A   1      39.357  22.223  26.396  1.00  0.00     0.060 A 
ATOM     31  C   UNL A   1      38.867  23.469  26.009  1.00  0.00     0.016 A 
ATOM     32  C   UNL A   1      40.465  22.141  27.234  1.00  0.00     0.016 A 
ATOM     33  C   UNL A   1      39.534  24.634  26.354  1.00  0.00     0.010 A 
ATOM     34  C   UNL A   1      41.088  23.322  27.658  1.00  0.00     0.010 A 
ATOM     35  C   UNL A   1      40.648  24.575  27.193  1.00  0.00    -0.014 A 
BRANCH  35  36
ATOM     36  C   UNL A   1      41.338  25.837  27.559  1.00  0.00     0.031 A 
ATOM     37  C   UNL A   1      40.627  26.878  28.378  1.00  0.00     0.074 A 
ATOM     38  C   UNL A   1      42.618  26.027  27.178  1.00  0.00     0.049 A 
ATOM     39  N   UNL A   1      41.030  28.074  28.717  1.00  0.00    -0.248 NA
ATOM     40  C   UNL A   1      39.287  26.531  28.880  1.00  0.00     0.031 C 
ATOM     41  C   UNL A   1      43.423  25.073  26.409  1.00  0.00     0.029 A 
ATOM     42  N   UNL A   1      43.465  27.085  27.381  1.00  0.00    -0.354 N 
ATOM     43  C   UNL A   1      39.977  28.644  29.423  1.00  0.00     0.074 A 
ATOM     44  C   UNL A   1      38.915  27.662  29.464  1.00  0.00     0.031 C 
ATOM     45  C   UNL A   1      44.647  25.586  26.213  1.00  0.00     0.029 A 
ATOM     46  C   UNL A   1      44.694  26.928  26.781  1.00  0.00     0.049 A 
ATOM     47  H   UNL A   1      43.220  27.882  27.905  1.00  0.00     0.167 HD
ATOM     48  C   UNL A   1      39.909  29.868  29.997  1.00  0.00     0.034 A 
ATOM     49  C   UNL A   1      45.729  27.781  26.670  1.00  0.00     0.034 A 
ATOM     50  C   UNL A   1      40.988  30.820  29.991  1.00  0.00     0.049 A 
ATOM     51  C   UNL A   1      45.612  29.143  27.295  1.00  0.00     0.074 A 
ATOM     52  C   UNL A   1      41.024  32.084  30.556  1.00  0.00     0.029 A 
ATOM     53  N   UNL A   1      42.224  30.612  29.399  1.00  0.00    -0.354 N 
ATOM     54  N   UNL A   1      44.630  29.644  28.002  1.00  0.00    -0.248 NA
ATOM     55  C   UNL A   1      46.756  30.049  27.124  1.00  0.00     0.031 C 
ATOM     56  C   UNL A   1      42.279  32.643  30.293  1.00  0.00     0.029 A 
ATOM     57  C   UNL A   1      43.032  31.721  29.584  1.00  0.00     0.049 A 
ATOM     58  H   UNL A   1      42.489  29.795  28.917  1.00  0.00     0.167 HD
ATOM     59  C   UNL A   1      45.048  30.911  28.389  1.00  0.00     0.074 A 
ATOM     60  C   UNL A   1      46.385  31.088  27.859  1.00  0.00     0.031 C 
ATOM     61  C   UNL A   1      44.381  31.852  29.101  1.00  0.00     0.034 A 
BRANCH  48  62
ATOM     62  C   UNL A   1      38.633  30.242  30.704  1.00  0.00     0.023 A 
ATOM     63  C   UNL A   1      38.435  29.845  32.041  1.00  0.00     0.012 A 
ATOM     64  C   UNL A   1      37.659  31.038  30.068  1.00  0.00     0.148 A 
ATOM     65  C   UNL A   1      37.276  30.211  32.727  1.00  0.00     0.002 A 
ATOM     66  C   UNL A   1      36.527  31.433  30.771  1.00  0.00     0.091 A 
ATOM     67  F   UNL A   1      37.856  31.388  28.789  1.00  0.00    -0.205 F 
ATOM     68  C   UNL A   1      36.329  31.012  32.096  1.00  0.00     0.022 A 
BRANCH  66  69
ATOM     69  S   UNL A   1      35.283  32.526  30.072  1.00  0.00     0.127 S 
ATOM     70  O   UNL A   1      34.756  31.710  28.978  1.00  0.00    -0.237 OA
ATOM     71  O   UNL A   1      34.363  32.705  31.196  1.00  0.00    -0.237 OA
ATOM     72  O   UNL A   1      35.989  33.732  29.664  1.00  0.00    -0.744 OA
ENDBRANCH  66  69
ENDBRANCH  48  62
BRANCH  49  73
ATOM     73  C   UNL A   1      46.969  27.369  25.953  1.00  0.00     0.023 A 
ATOM     74  C   UNL A   1      47.942  26.611  26.632  1.00  0.00     0.012 A 
ATOM     75  C   UNL A   1      47.186  27.710  24.603  1.00  0.00     0.148 A 
ATOM     76  C   UNL A   1      49.122  26.231  25.993  1.00  0.00     0.002 A 
ATOM     77  C   UNL A   1      48.337  27.278  23.955  1.00  0.00     0.091 A 
ATOM     78  F   UNL A   1      46.261  28.450  23.976  1.00  0.00    -0.205 F 
ATOM     79  C   UNL A   1      49.316  26.554  24.652  1.00  0.00     0.022 A 
BRANCH  77  80
ATOM     80  S   UNL A   1      48.596  27.537  22.196  1.00  0.00     0.127 S 
ATOM     81  O   UNL A   1      48.706  26.166  21.705  1.00  0.00    -0.237 OA
ATOM     82  O   UNL A   1      47.369  28.235  21.806  1.00  0.00    -0.237 OA
ATOM     83  O   UNL A   1      49.801  28.350  22.097  1.00  0.00    -0.744 OA
ENDBRANCH  77  80
ENDBRANCH  49  73
BRANCH  61  84
ATOM     84  C   UNL A   1      45.104  33.142  29.388  1.00  0.00     0.023 A 
ATOM     85  C   UNL A   1      45.884  33.261  30.556  1.00  0.00     0.012 A 
ATOM     86  C   UNL A   1      45.057  34.210  28.472  1.00  0.00     0.148 A 
ATOM     87  C   UNL A   1      46.577  34.440  30.824  1.00  0.00     0.002 A 
ATOM     88  C   UNL A   1      45.790  35.363  28.723  1.00  0.00     0.091 A 
ATOM     89  F   UNL A   1      44.291  34.084  27.378  1.00  0.00    -0.205 F 
ATOM     90  C   UNL A   1      46.540  35.485  29.904  1.00  0.00     0.022 A 
BRANCH  88  91
ATOM     91  S   UNL A   1      45.876  36.720  27.550  1.00  0.00     0.127 S 
ATOM     92  O   UNL A   1      44.509  37.237  27.590  1.00  0.00    -0.237 OA
ATOM     93  O   UNL A   1      46.878  37.595  28.158  1.00  0.00    -0.237 OA
ATOM     94  O   UNL A   1      46.284  36.127  26.282  1.00  0.00    -0.744 OA
ENDBRANCH  88  91
ENDBRANCH  61  84
ENDBRANCH  35  36
ENDBRANCH  28  30
ENDBRANCH  27  28
ENDBRANCH  26  27
ENDBRANCH  25  26
ENDBRANCH   1  25
TORSDOF 21
ENDMDL
MODEL 2
REMARK VINA RESULT:     -10.5      5.140      9.917
REMARK SMILES CC(C)[C@H](NC(=O)OCc1ccccc1)C(=O)NCC(=O)OCCOC(=O)c1ccc(-c2c3nc(c(-c4cccc(S(=O)(=O)[O-])c4F)c4ccc([nH]4)c(-c4cccc(S(=O)(=O)[O-])c4F)c4nc(c(-c5cccc(S(=O)(=O)[O-])c5F)c5ccc2[nH]5)C=C4)C=C3)cc1
REMARK SMILES IDX 22 1 20 2 21 3 19 4 18 5 16 6 17 7 4 9 2 10 1 11 3 12 5 13
REMARK SMILES IDX 6 14 7 16 8 17 9 18 10 19 11 20 15 21 12 22 14 23 13 24
REMARK SMILES IDX 23 25 24 26 25 27 26 28 27 29 28 30 29 31 90 32 30 33 89 34
REMARK SMILES IDX 31 35 32 36 33 37 83 38 34 39 88 40 82 41 84 42 35 43 87 44
REMARK SMILES IDX 81 45 80 46 36 48 68 49 48 50 67 51 49 52 52 53 66 54 85 55
REMARK SMILES IDX 50 56 51 57 65 59 86 60 53 61 37 62 38 63 46 64 39 65 41 66
REMARK SMILES IDX 47 67 40 68 42 69 43 70 44 71 45 72 69 73 70 74 78 75 71 76
REMARK SMILES IDX 73 77 79 78 72 79 74 80 75 81 76 82 77 83 54 84 55 85 63 86
REMARK SMILES IDX 56 87 58 88 64 89 57 90 59 91 60 92 61 93 62 94
REMARK H PARENT 18 8 5 15 84 47 52 58
REMARK Flexibility Score: inf
ROOT
ATOM      1  O   UNL A   1      32.309  28.321  25.633  1.00  0.00    -0.461 OA
ENDROOT
BRANCH   1   2
ATOM      2  C   UNL A   1      33.358  27.923  24.868  1.00  0.00     0.325 C 
ATOM      3  O   UNL A   1      33.759  28.505  23.866  1.00  0.00    -0.250 OA
BRANCH   2   4
ATOM      4  C   UNL A   1      34.048  26.683  25.413  1.00  0.00     0.238 C 
BRANCH   4   5
ATOM      5  N   UNL A   1      33.244  25.603  25.972  1.00  0.00    -0.343 N 
ATOM      6  C   UNL A   1      33.465  24.253  25.848  1.00  0.00     0.243 C 
ATOM      7  O   UNL A   1      33.076  23.493  26.736  1.00  0.00    -0.273 OA
ATOM      8  H   UNL A   1      32.455  25.870  26.498  1.00  0.00     0.164 HD
BRANCH   6   9
ATOM      9  C   UNL A   1      34.260  23.734  24.629  1.00  0.00     0.177 C 
BRANCH   9  10
ATOM     10  C   UNL A   1      35.811  23.886  24.722  1.00  0.00     0.015 C 
ATOM     11  C   UNL A   1      36.469  23.648  26.090  1.00  0.00     0.010 C 
ATOM     12  C   UNL A   1      36.489  22.951  23.712  1.00  0.00     0.010 C 
ENDBRANCH   9  10
BRANCH   9  13
ATOM     13  N   UNL A   1      33.671  24.407  23.469  1.00  0.00    -0.309 N 
ATOM     14  C   UNL A   1      33.299  23.908  22.270  1.00  0.00     0.408 C 
ATOM     15  H   UNL A   1      33.523  25.374  23.580  1.00  0.00     0.167 HD
ATOM     16  O   UNL A   1      33.022  24.655  21.352  1.00  0.00    -0.225 OA
BRANCH  14  17
ATOM     17  O   UNL A   1      33.186  22.561  22.277  1.00  0.00    -0.445 OA
BRANCH  17  18
ATOM     18  C   UNL A   1      32.130  22.076  23.112  1.00  0.00     0.270 C 
BRANCH  18  19
ATOM     19  C   UNL A   1      32.293  20.641  23.579  1.00  0.00    -0.011 A 
ATOM     20  C   UNL A   1      32.634  20.407  24.919  1.00  0.00     0.007 A 
ATOM     21  C   UNL A   1      32.225  19.536  22.714  1.00  0.00     0.007 A 
ATOM     22  C   UNL A   1      32.899  19.114  25.377  1.00  0.00     0.000 A 
ATOM     23  C   UNL A   1      32.501  18.244  23.168  1.00  0.00     0.000 A 
ATOM     24  C   UNL A   1      32.840  18.034  24.500  1.00  0.00     0.000 A 
ENDBRANCH  18  19
ENDBRANCH  17  18
ENDBRANCH  14  17
ENDBRANCH   9  13
ENDBRANCH   6   9
ENDBRANCH   4   5
ENDBRANCH   2   4
ENDBRANCH   1   2
BRANCH   1  25
ATOM     25  C   UNL A   1      31.416  29.252  24.995  1.00  0.00     0.274 C 
BRANCH  25  26
ATOM     26  C   UNL A   1      31.475  30.620  25.687  1.00  0.00     0.275 C 
BRANCH  26  27
ATOM     27  O   UNL A   1      32.214  30.592  26.926  1.00  0.00    -0.458 OA
BRANCH  27  28
ATOM     28  C   UNL A   1      32.919  31.713  27.205  1.00  0.00     0.338 C 
ATOM     29  O   UNL A   1      32.507  32.864  27.175  1.00  0.00    -0.246 OA
BRANCH  28  30
ATOM     30  C   UNL A   1      34.266  31.385  27.699  1.00  0.00     0.060 A 
ATOM     31  C   UNL A   1      34.545  30.056  28.014  1.00  0.00     0.016 A 
ATOM     32  C   UNL A   1      35.186  32.382  28.008  1.00  0.00     0.016 A 
ATOM     33  C   UNL A   1      35.680  29.720  28.735  1.00  0.00     0.010 A 
ATOM     34  C   UNL A   1      36.378  32.032  28.657  1.00  0.00     0.010 A 
ATOM     35  C   UNL A   1      36.618  30.703  29.055  1.00  0.00    -0.014 A 
BRANCH  35  36
ATOM     36  C   UNL A   1      37.831  30.317  29.816  1.00  0.00     0.031 A 
ATOM     37  C   UNL A   1      38.851  29.401  29.200  1.00  0.00     0.074 A 
ATOM     38  C   UNL A   1      38.027  30.821  31.052  1.00  0.00     0.049 A 
ATOM     39  N   UNL A   1      39.922  28.880  29.738  1.00  0.00    -0.248 NA
ATOM     40  C   UNL A   1      38.637  29.015  27.794  1.00  0.00     0.031 C 
ATOM     41  C   UNL A   1      37.125  31.747  31.742  1.00  0.00     0.029 A 
ATOM     42  N   UNL A   1      39.046  30.624  31.949  1.00  0.00    -0.354 N 
ATOM     43  C   UNL A   1      40.481  28.065  28.762  1.00  0.00     0.074 A 
ATOM     44  C   UNL A   1      39.630  28.158  27.594  1.00  0.00     0.031 C 
ATOM     45  C   UNL A   1      37.632  32.042  32.949  1.00  0.00     0.029 A 
ATOM     46  C   UNL A   1      38.858  31.279  33.145  1.00  0.00     0.049 A 
ATOM     47  H   UNL A   1      39.835  30.068  31.757  1.00  0.00     0.167 HD
ATOM     48  C   UNL A   1      41.609  27.320  28.827  1.00  0.00     0.034 A 
ATOM     49  C   UNL A   1      39.573  31.240  34.285  1.00  0.00     0.034 A 
ATOM     50  C   UNL A   1      42.475  27.270  29.975  1.00  0.00     0.049 A 
ATOM     51  C   UNL A   1      40.806  30.382  34.335  1.00  0.00     0.074 A 
ATOM     52  C   UNL A   1      43.649  26.556  30.139  1.00  0.00     0.029 A 
ATOM     53  N   UNL A   1      42.266  27.969  31.155  1.00  0.00    -0.354 N 
ATOM     54  N   UNL A   1      41.347  29.659  33.385  1.00  0.00    -0.248 NA
ATOM     55  C   UNL A   1      41.539  30.351  35.608  1.00  0.00     0.031 C 
ATOM     56  C   UNL A   1      44.143  26.814  31.421  1.00  0.00     0.029 A 
ATOM     57  C   UNL A   1      43.289  27.706  32.050  1.00  0.00     0.049 A 
ATOM     58  H   UNL A   1      41.503  28.566  31.330  1.00  0.00     0.167 HD
ATOM     59  C   UNL A   1      42.500  29.113  33.934  1.00  0.00     0.074 A 
ATOM     60  C   UNL A   1      42.593  29.611  35.291  1.00  0.00     0.031 C 
ATOM     61  C   UNL A   1      43.393  28.260  33.374  1.00  0.00     0.034 A 
BRANCH  48  62
ATOM     62  C   UNL A   1      41.991  26.514  27.614  1.00  0.00     0.023 A 
ATOM     63  C   UNL A   1      42.664  27.139  26.545  1.00  0.00     0.012 A 
ATOM     64  C   UNL A   1      41.737  25.129  27.555  1.00  0.00     0.148 A 
ATOM     65  C   UNL A   1      43.059  26.404  25.427  1.00  0.00     0.002 A 
ATOM     66  C   UNL A   1      42.170  24.396  26.456  1.00  0.00     0.091 A 
ATOM     67  F   UNL A   1      41.077  24.557  28.572  1.00  0.00    -0.205 F 
ATOM     68  C   UNL A   1      42.820  25.033  25.387  1.00  0.00     0.022 A 
BRANCH  66  69
ATOM     69  S   UNL A   1      41.977  22.613  26.343  1.00  0.00     0.127 S 
ATOM     70  O   UNL A   1      40.522  22.476  26.302  1.00  0.00    -0.237 OA
ATOM     71  O   UNL A   1      42.653  22.309  25.081  1.00  0.00    -0.237 OA
ATOM     72  O   UNL A   1      42.621  22.061  27.526  1.00  0.00    -0.744 OA
ENDBRANCH  66  69
ENDBRANCH  48  62
BRANCH  49  73
ATOM     73  C   UNL A   1      39.152  32.049  35.464  1.00  0.00     0.023 A 
ATOM     74  C   UNL A   1      38.242  31.502  36.389  1.00  0.00     0.012 A 
ATOM     75  C   UNL A   1      39.655  33.347  35.683  1.00  0.00     0.148 A 
ATOM     76  C   UNL A   1      37.812  32.245  37.489  1.00  0.00     0.002 A 
ATOM     77  C   UNL A   1      39.269  34.058  36.813  1.00  0.00     0.091 A 
ATOM     78  F   UNL A   1      40.504  33.862  34.784  1.00  0.00    -0.205 F 
ATOM     79  C   UNL A   1      38.334  33.517  37.708  1.00  0.00     0.022 A 
BRANCH  77  80
ATOM     80  S   UNL A   1      39.998  35.645  37.236  1.00  0.00     0.127 S 
ATOM     81  O   UNL A   1      39.655  36.452  36.068  1.00  0.00    -0.237 OA
ATOM     82  O   UNL A   1      39.277  35.996  38.462  1.00  0.00    -0.237 OA
ATOM     83  O   UNL A   1      41.417  35.378  37.435  1.00  0.00    -0.744 OA
ENDBRANCH  77  80
ENDBRANCH  49  73
BRANCH  61  84
ATOM     84  C   UNL A   1      44.573  27.847  34.214  1.00  0.00     0.023 A 
ATOM     85  C   UNL A   1      45.742  28.634  34.212  1.00  0.00     0.012 A 
ATOM     86  C   UNL A   1      44.500  26.715  35.046  1.00  0.00     0.148 A 
ATOM     87  C   UNL A   1      46.834  28.278  35.001  1.00  0.00     0.002 A 
ATOM     88  C   UNL A   1      45.575  26.394  35.867  1.00  0.00     0.091 A 
ATOM     89  F   UNL A   1      43.387  25.968  35.016  1.00  0.00    -0.205 F 
ATOM     90  C   UNL A   1      46.747  27.166  35.836  1.00  0.00     0.022 A 
BRANCH  88  91
ATOM     91  S   UNL A   1      45.513  25.037  37.042  1.00  0.00     0.127 S 
ATOM     92  O   UNL A   1      45.266  23.894  36.164  1.00  0.00    -0.237 OA
ATOM     93  O   UNL A   1      46.852  25.075  37.631  1.00  0.00    -0.237 OA
ATOM     94  O   UNL A   1      44.437  25.360  37.969  1.00  0.00    -0.744 OA
ENDBRANCH  88  91
ENDBRANCH  61  84
ENDBRANCH  35  36
ENDBRANCH  28  30
ENDBRANCH  27  28
ENDBRANCH  26  27
ENDBRANCH  25  26
ENDBRANCH   1  25
TORSDOF 21
ENDMDL
MODEL 3
REMARK VINA RESULT:     -10.3      1.883      7.972
REMARK SMILES CC(C)[C@H](NC(=O)OCc1ccccc1)C(=O)NCC(=O)OCCOC(=O)c1ccc(-c2c3nc(c(-c4cccc(S(=O)(=O)[O-])c4F)c4ccc([nH]4)c(-c4cccc(S(=O)(=O)[O-])c4F)c4nc(c(-c5cccc(S(=O)(=O)[O-])c5F)c5ccc2[nH]5)C=C4)C=C3)cc1
REMARK SMILES IDX 22 1 20 2 21 3 19 4 18 5 16 6 17 7 4 9 2 10 1 11 3 12 5 13
REMARK SMILES IDX 6 14 7 16 8 17 9 18 10 19 11 20 15 21 12 22 14 23 13 24
REMARK SMILES IDX 23 25 24 26 25 27 26 28 27 29 28 30 29 31 90 32 30 33 89 34
REMARK SMILES IDX 31 35 32 36 33 37 83 38 34 39 88 40 82 41 84 42 35 43 87 44
REMARK SMILES IDX 81 45 80 46 36 48 68 49 48 50 67 51 49 52 52 53 66 54 85 55
REMARK SMILES IDX 50 56 51 57 65 59 86 60 53 61 37 62 38 63 46 64 39 65 41 66
REMARK SMILES IDX 47 67 40 68 42 69 43 70 44 71 45 72 69 73 70 74 78 75 71 76
REMARK SMILES IDX 73 77 79 78 72 79 74 80 75 81 76 82 77 83 54 84 55 85 63 86
REMARK SMILES IDX 56 87 58 88 64 89 57 90 59 91 60 92 61 93 62 94
REMARK H PARENT 18 8 5 15 84 47 52 58
REMARK Flexibility Score: inf
ROOT
ATOM      1  O   UNL A   1      35.020  21.644  24.165  1.00  0.00    -0.461 OA
ENDROOT
BRANCH   1   2
ATOM      2  C   UNL A   1      35.070  22.750  23.380  1.00  0.00     0.325 C 
ATOM      3  O   UNL A   1      35.995  23.038  22.627  1.00  0.00    -0.250 OA
BRANCH   2   4
ATOM      4  C   UNL A   1      33.814  23.601  23.479  1.00  0.00     0.238 C 
BRANCH   4   5
ATOM      5  N   UNL A   1      32.758  23.215  24.407  1.00  0.00    -0.343 N 
ATOM      6  C   UNL A   1      31.546  23.835  24.590  1.00  0.00     0.243 C 
ATOM      7  O   UNL A   1      30.581  23.172  24.971  1.00  0.00    -0.273 OA
ATOM      8  H   UNL A   1      32.932  22.422  24.964  1.00  0.00     0.164 HD
BRANCH   6   9
ATOM      9  C   UNL A   1      31.413  25.335  24.242  1.00  0.00     0.177 C 
BRANCH   9  10
ATOM     10  C   UNL A   1      32.037  26.324  25.277  1.00  0.00     0.015 C 
ATOM     11  C   UNL A   1      32.587  25.733  26.584  1.00  0.00     0.010 C 
ATOM     12  C   UNL A   1      33.167  27.124  24.617  1.00  0.00     0.010 C 
ENDBRANCH   9  10
BRANCH   9  13
ATOM     13  N   UNL A   1      29.983  25.552  24.008  1.00  0.00    -0.309 N 
ATOM     14  C   UNL A   1      29.291  26.702  23.864  1.00  0.00     0.408 C 
ATOM     15  H   UNL A   1      29.443  24.732  23.945  1.00  0.00     0.167 HD
ATOM     16  O   UNL A   1      28.075  26.695  23.886  1.00  0.00    -0.225 OA
BRANCH  14  17
ATOM     17  O   UNL A   1      30.087  27.763  23.606  1.00  0.00    -0.445 OA
BRANCH  17  18
ATOM     18  C   UNL A   1      29.815  28.396  22.352  1.00  0.00     0.270 C 
BRANCH  18  19
ATOM     19  C   UNL A   1      29.319  29.828  22.453  1.00  0.00    -0.011 A 
ATOM     20  C   UNL A   1      29.444  30.494  23.680  1.00  0.00     0.007 A 
ATOM     21  C   UNL A   1      28.642  30.484  21.411  1.00  0.00     0.007 A 
ATOM     22  C   UNL A   1      28.910  31.773  23.859  1.00  0.00     0.000 A 
ATOM     23  C   UNL A   1      28.098  31.758  21.594  1.00  0.00     0.000 A 
ATOM     24  C   UNL A   1      28.232  32.401  22.818  1.00  0.00     0.000 A 
ENDBRANCH  18  19
ENDBRANCH  17  18
ENDBRANCH  14  17
ENDBRANCH   9  13
ENDBRANCH   6   9
ENDBRANCH   4   5
ENDBRANCH   2   4
ENDBRANCH   1   2
BRANCH   1  25
ATOM     25  C   UNL A   1      35.837  21.706  25.348  1.00  0.00     0.274 C 
BRANCH  25  26
ATOM     26  C   UNL A   1      36.913  20.613  25.321  1.00  0.00     0.275 C 
BRANCH  26  27
ATOM     27  O   UNL A   1      38.230  21.128  25.033  1.00  0.00    -0.458 OA
BRANCH  27  28
ATOM     28  C   UNL A   1      39.160  20.906  25.991  1.00  0.00     0.338 C 
ATOM     29  O   UNL A   1      39.651  19.831  26.301  1.00  0.00    -0.246 OA
BRANCH  28  30
ATOM     30  C   UNL A   1      39.642  22.173  26.565  1.00  0.00     0.060 A 
ATOM     31  C   UNL A   1      39.054  23.359  26.129  1.00  0.00     0.016 A 
ATOM     32  C   UNL A   1      40.762  22.213  27.391  1.00  0.00     0.016 A 
ATOM     33  C   UNL A   1      39.635  24.586  26.411  1.00  0.00     0.010 A 
ATOM     34  C   UNL A   1      41.297  23.457  27.752  1.00  0.00     0.010 A 
ATOM     35  C   UNL A   1      40.758  24.651  27.237  1.00  0.00    -0.014 A 
BRANCH  35  36
ATOM     36  C   UNL A   1      41.353  25.976  27.536  1.00  0.00     0.031 A 
ATOM     37  C   UNL A   1      42.739  26.308  27.058  1.00  0.00     0.074 A 
ATOM     38  C   UNL A   1      40.629  26.891  28.213  1.00  0.00     0.049 A 
ATOM     39  N   UNL A   1      43.460  27.371  27.297  1.00  0.00    -0.248 NA
ATOM     40  C   UNL A   1      43.404  25.313  26.199  1.00  0.00     0.031 C 
ATOM     41  C   UNL A   1      39.260  26.697  28.699  1.00  0.00     0.029 A 
ATOM     42  N   UNL A   1      40.943  28.165  28.611  1.00  0.00    -0.354 N 
ATOM     43  C   UNL A   1      44.680  27.153  26.668  1.00  0.00     0.074 A 
ATOM     44  C   UNL A   1      44.603  25.854  26.035  1.00  0.00     0.031 C 
ATOM     45  C   UNL A   1      38.851  27.811  29.324  1.00  0.00     0.029 A 
ATOM     46  C   UNL A   1      39.946  28.773  29.340  1.00  0.00     0.049 A 
ATOM     47  H   UNL A   1      41.798  28.603  28.398  1.00  0.00     0.167 HD
ATOM     48  C   UNL A   1      45.759  27.969  26.611  1.00  0.00     0.034 A 
ATOM     49  C   UNL A   1      39.928  29.957  29.981  1.00  0.00     0.034 A 
ATOM     50  C   UNL A   1      45.809  29.280  27.203  1.00  0.00     0.049 A 
ATOM     51  C   UNL A   1      41.152  30.828  29.921  1.00  0.00     0.074 A 
ATOM     52  C   UNL A   1      46.850  30.191  27.191  1.00  0.00     0.029 A 
ATOM     53  N   UNL A   1      44.770  29.870  27.907  1.00  0.00    -0.354 N 
ATOM     54  N   UNL A   1      42.276  30.628  29.279  1.00  0.00    -0.248 NA
ATOM     55  C   UNL A   1      41.096  32.099  30.657  1.00  0.00     0.031 C 
ATOM     56  C   UNL A   1      46.445  31.327  27.899  1.00  0.00     0.029 A 
ATOM     57  C   UNL A   1      45.143  31.133  28.333  1.00  0.00     0.049 A 
ATOM     58  H   UNL A   1      43.895  29.453  28.078  1.00  0.00     0.167 HD
ATOM     59  C   UNL A   1      43.049  31.760  29.505  1.00  0.00     0.074 A 
ATOM     60  C   UNL A   1      42.252  32.652  30.322  1.00  0.00     0.031 C 
ATOM     61  C   UNL A   1      44.312  32.030  29.093  1.00  0.00     0.034 A 
BRANCH  48  62
ATOM     62  C   UNL A   1      46.969  27.482  25.860  1.00  0.00     0.023 A 
ATOM     63  C   UNL A   1      47.070  27.713  24.474  1.00  0.00     0.012 A 
ATOM     64  C   UNL A   1      48.033  26.849  26.534  1.00  0.00     0.148 A 
ATOM     65  C   UNL A   1      48.199  27.301  23.764  1.00  0.00     0.002 A 
ATOM     66  C   UNL A   1      49.173  26.479  25.828  1.00  0.00     0.091 A 
ATOM     67  F   UNL A   1      47.910  26.619  27.848  1.00  0.00    -0.205 F 
ATOM     68  C   UNL A   1      49.252  26.695  24.443  1.00  0.00     0.022 A 
BRANCH  66  69
ATOM     69  S   UNL A   1      50.614  25.758  26.622  1.00  0.00     0.127 S 
ATOM     70  O   UNL A   1      50.998  26.817  27.554  1.00  0.00    -0.237 OA
ATOM     71  O   UNL A   1      50.053  24.564  27.254  1.00  0.00    -0.237 OA
ATOM     72  O   UNL A   1      51.570  25.490  25.556  1.00  0.00    -0.744 OA
ENDBRANCH  66  69
ENDBRANCH  48  62
BRANCH  49  73
ATOM     73  C   UNL A   1      38.710  30.394  30.719  1.00  0.00     0.023 A 
ATOM     74  C   UNL A   1      38.591  30.105  32.092  1.00  0.00     0.012 A 
ATOM     75  C   UNL A   1      37.676  31.104  30.076  1.00  0.00     0.148 A 
ATOM     76  C   UNL A   1      37.451  30.482  32.802  1.00  0.00     0.002 A 
ATOM     77  C   UNL A   1      36.570  31.529  30.804  1.00  0.00     0.091 A 
ATOM     78  F   UNL A   1      37.793  31.354  28.765  1.00  0.00    -0.205 F 
ATOM     79  C   UNL A   1      36.446  31.203  32.163  1.00  0.00     0.022 A 
BRANCH  77  80
ATOM     80  S   UNL A   1      35.300  32.577  30.084  1.00  0.00     0.127 S 
ATOM     81  O   UNL A   1      34.399  32.774  31.216  1.00  0.00    -0.237 OA
ATOM     82  O   UNL A   1      36.067  33.762  29.693  1.00  0.00    -0.237 OA
ATOM     83  O   UNL A   1      34.763  31.818  28.962  1.00  0.00    -0.744 OA
ENDBRANCH  77  80
ENDBRANCH  49  73
BRANCH  61  84
ATOM     84  C   UNL A   1      44.895  33.363  29.480  1.00  0.00     0.023 A 
ATOM     85  C   UNL A   1      45.699  33.466  30.633  1.00  0.00     0.012 A 
ATOM     86  C   UNL A   1      44.694  34.497  28.670  1.00  0.00     0.148 A 
ATOM     87  C   UNL A   1      46.265  34.689  30.992  1.00  0.00     0.002 A 
ATOM     88  C   UNL A   1      45.302  35.700  29.008  1.00  0.00     0.091 A 
ATOM     89  F   UNL A   1      43.908  34.381  27.589  1.00  0.00    -0.205 F 
ATOM     90  C   UNL A   1      46.077  35.801  30.175  1.00  0.00     0.022 A 
BRANCH  88  91
ATOM     91  S   UNL A   1      45.191  37.157  27.964  1.00  0.00     0.127 S 
ATOM     92  O   UNL A   1      43.763  37.459  28.024  1.00  0.00    -0.237 OA
ATOM     93  O   UNL A   1      46.047  38.111  28.670  1.00  0.00    -0.237 OA
ATOM     94  O   UNL A   1      45.693  36.751  26.657  1.00  0.00    -0.744 OA
ENDBRANCH  88  91
ENDBRANCH  61  84
ENDBRANCH  35  36
ENDBRANCH  28  30
ENDBRANCH  27  28
ENDBRANCH  26  27
ENDBRANCH  25  26
ENDBRANCH   1  25
TORSDOF 21
ENDMDL
