MODEL 1
REMARK VINA RESULT:     -11.3      0.000      0.000
REMARK SMILES C[C@H]1[NH2+]CC[C@H]1C(=O)N1CC(C(=O)OCCOC(=O)c2ccc(-c3c4nc(c(-c5cccc(S(=O)(=O)[O-])c5F)c5ccc([nH]5)c(-c5cccc(S(=O)(=O)[O-])c5F)c5nc(c(-c6cccc(S(=O)(=O)[O-])c6F)c6ccc3[nH]6)C=C5)C=C4)cc2)C1
REMARK SMILES IDX 16 1 15 2 14 3 12 4 13 5 11 6 7 7 8 8 9 9 10 10 83 11 6 12
REMARK SMILES IDX 1 13 2 14 3 15 4 16 5 19 17 20 18 21 19 22 20 23 21 24 82 25
REMARK SMILES IDX 22 26 81 27 23 28 24 29 25 30 75 31 26 32 80 33 74 34 76 35
REMARK SMILES IDX 27 36 79 37 73 38 72 39 28 41 60 42 40 43 59 44 41 45 44 46
REMARK SMILES IDX 58 47 77 48 42 49 43 50 57 52 78 53 45 54 29 55 30 56 38 57
REMARK SMILES IDX 31 58 33 59 39 60 32 61 34 62 35 63 36 64 37 65 61 66 62 67
REMARK SMILES IDX 70 68 63 69 65 70 71 71 64 72 66 73 67 74 68 75 69 76 46 77
REMARK SMILES IDX 47 78 55 79 48 80 50 81 56 82 49 83 51 84 52 85 53 86 54 87
REMARK H PARENT 3 17 3 18 76 40 44 51
REMARK Flexibility Score: inf
ROOT
ATOM      1  C   UNL A   1      31.712  29.566  25.839  1.00  0.00     0.275 C 
ENDROOT
BRANCH   1   2
ATOM      2  C   UNL A   1      31.025  29.535  24.471  1.00  0.00     0.274 C 
BRANCH   2   3
ATOM      3  O   UNL A   1      31.883  28.911  23.496  1.00  0.00    -0.462 OA
BRANCH   3   4
ATOM      4  C   UNL A   1      31.321  27.982  22.666  1.00  0.00     0.312 C 
ATOM      5  O   UNL A   1      30.310  28.201  22.001  1.00  0.00    -0.252 OA
BRANCH   4   6
ATOM      6  C   UNL A   1      32.119  26.669  22.613  1.00  0.00     0.138 C 
ATOM      7  C   UNL A   1      34.241  24.435  23.368  1.00  0.00     0.231 C 
ATOM      8  O   UNL A   1      33.881  23.707  22.446  1.00  0.00    -0.274 OA
ATOM      9  N   UNL A   1      33.650  25.656  23.632  1.00  0.00    -0.340 N 
ATOM     10  C   UNL A   1      32.201  25.812  23.865  1.00  0.00     0.136 C 
ATOM     11  C   UNL A   1      33.641  26.732  22.625  1.00  0.00     0.136 C 
BRANCH   7  12
ATOM     12  C   UNL A   1      35.407  24.079  24.276  1.00  0.00     0.142 C 
ATOM     13  C   UNL A   1      33.784  23.109  26.073  1.00  0.00     0.076 C 
ATOM     14  C   UNL A   1      35.076  23.855  25.752  1.00  0.00     0.192 C 
ATOM     15  N   UNL A   1      36.233  23.095  26.270  1.00  0.00    -0.343 N 
ATOM     16  C   UNL A   1      36.880  22.405  25.154  1.00  0.00     0.261 C 
ATOM     17  H   UNL A   1      35.916  22.413  26.959  1.00  0.00     0.346 HD
ATOM     18  H   UNL A   1      36.896  23.731  26.714  1.00  0.00     0.346 HD
ATOM     19  C   UNL A   1      36.162  22.818  23.883  1.00  0.00     0.081 C 
ENDBRANCH   7  12
ENDBRANCH   4   6
ENDBRANCH   3   4
ENDBRANCH   2   3
ENDBRANCH   1   2
BRANCH   1  20
ATOM     20  O   UNL A   1      32.956  30.291  25.792  1.00  0.00    -0.458 OA
BRANCH  20  21
ATOM     21  C   UNL A   1      33.152  31.174  26.800  1.00  0.00     0.338 C 
ATOM     22  O   UNL A   1      32.359  32.000  27.218  1.00  0.00    -0.246 OA
BRANCH  21  23
ATOM     23  C   UNL A   1      34.451  30.918  27.441  1.00  0.00     0.060 A 
ATOM     24  C   UNL A   1      34.774  29.600  27.777  1.00  0.00     0.016 A 
ATOM     25  C   UNL A   1      35.310  31.965  27.774  1.00  0.00     0.016 A 
ATOM     26  C   UNL A   1      35.957  29.319  28.454  1.00  0.00     0.010 A 
ATOM     27  C   UNL A   1      36.496  31.684  28.457  1.00  0.00     0.010 A 
ATOM     28  C   UNL A   1      36.821  30.362  28.811  1.00  0.00    -0.014 A 
BRANCH  28  29
ATOM     29  C   UNL A   1      38.038  30.082  29.605  1.00  0.00     0.031 A 
ATOM     30  C   UNL A   1      39.073  29.138  29.062  1.00  0.00     0.074 A 
ATOM     31  C   UNL A   1      38.201  30.657  30.811  1.00  0.00     0.049 A 
ATOM     32  N   UNL A   1      40.138  28.656  29.646  1.00  0.00    -0.248 NA
ATOM     33  C   UNL A   1      38.882  28.675  27.677  1.00  0.00     0.031 C 
ATOM     34  C   UNL A   1      37.277  31.613  31.423  1.00  0.00     0.029 A 
ATOM     35  N   UNL A   1      39.191  30.501  31.748  1.00  0.00    -0.354 N 
ATOM     36  C   UNL A   1      40.728  27.807  28.716  1.00  0.00     0.074 A 
ATOM     37  C   UNL A   1      39.899  27.836  27.530  1.00  0.00     0.031 C 
ATOM     38  C   UNL A   1      37.731  31.940  32.644  1.00  0.00     0.029 A 
ATOM     39  C   UNL A   1      38.952  31.187  32.917  1.00  0.00     0.049 A 
ATOM     40  H   UNL A   1      39.995  29.952  31.599  1.00  0.00     0.167 HD
ATOM     41  C   UNL A   1      41.865  27.083  28.836  1.00  0.00     0.034 A 
ATOM     42  C   UNL A   1      39.626  31.180  34.084  1.00  0.00     0.034 A 
ATOM     43  C   UNL A   1      42.696  27.083  30.009  1.00  0.00     0.049 A 
ATOM     44  C   UNL A   1      40.868  30.335  34.201  1.00  0.00     0.074 A 
ATOM     45  C   UNL A   1      43.866  26.379  30.236  1.00  0.00     0.029 A 
ATOM     46  N   UNL A   1      42.451  27.830  31.151  1.00  0.00    -0.354 N 
ATOM     47  N   UNL A   1      41.442  29.581  33.294  1.00  0.00    -0.248 NA
ATOM     48  C   UNL A   1      41.568  30.356  35.494  1.00  0.00     0.031 C 
ATOM     49  C   UNL A   1      44.324  26.698  31.518  1.00  0.00     0.029 A 
ATOM     50  C   UNL A   1      43.449  27.612  32.083  1.00  0.00     0.049 A 
ATOM     51  H   UNL A   1      41.679  28.428  31.279  1.00  0.00     0.167 HD
ATOM     52  C   UNL A   1      42.593  29.076  33.892  1.00  0.00     0.074 A 
ATOM     53  C   UNL A   1      42.640  29.620  35.233  1.00  0.00     0.031 C 
ATOM     54  C   UNL A   1      43.517  28.226  33.383  1.00  0.00     0.034 A 
BRANCH  41  55
ATOM     55  C   UNL A   1      42.299  26.259  27.655  1.00  0.00     0.023 A 
ATOM     56  C   UNL A   1      43.177  26.821  26.705  1.00  0.00     0.012 A 
ATOM     57  C   UNL A   1      41.895  24.917  27.514  1.00  0.00     0.148 A 
ATOM     58  C   UNL A   1      43.626  26.069  25.621  1.00  0.00     0.002 A 
ATOM     59  C   UNL A   1      42.377  24.162  26.451  1.00  0.00     0.091 A 
ATOM     60  F   UNL A   1      41.044  24.408  28.415  1.00  0.00    -0.205 F 
ATOM     61  C   UNL A   1      43.235  24.738  25.499  1.00  0.00     0.022 A 
BRANCH  59  62
ATOM     62  S   UNL A   1      41.986  22.420  26.241  1.00  0.00     0.127 S 
ATOM     63  O   UNL A   1      42.696  22.106  25.001  1.00  0.00    -0.237 OA
ATOM     64  O   UNL A   1      42.570  21.826  27.445  1.00  0.00    -0.237 OA
ATOM     65  O   UNL A   1      40.534  22.340  26.166  1.00  0.00    -0.744 OA
ENDBRANCH  59  62
ENDBRANCH  41  55
BRANCH  42  66
ATOM     66  C   UNL A   1      39.164  32.019  35.225  1.00  0.00     0.023 A 
ATOM     67  C   UNL A   1      38.194  31.509  36.109  1.00  0.00     0.012 A 
ATOM     68  C   UNL A   1      39.677  33.312  35.444  1.00  0.00     0.148 A 
ATOM     69  C   UNL A   1      37.718  32.283  37.168  1.00  0.00     0.002 A 
ATOM     70  C   UNL A   1      39.238  34.058  36.533  1.00  0.00     0.091 A 
ATOM     71  F   UNL A   1      40.582  33.795  34.581  1.00  0.00    -0.205 F 
ATOM     72  C   UNL A   1      38.245  33.553  37.386  1.00  0.00     0.022 A 
BRANCH  70  73
ATOM     73  S   UNL A   1      39.962  35.648  36.950  1.00  0.00     0.127 S 
ATOM     74  O   UNL A   1      41.374  35.308  37.090  1.00  0.00    -0.237 OA
ATOM     75  O   UNL A   1      39.637  36.455  35.772  1.00  0.00    -0.237 OA
ATOM     76  O   UNL A   1      39.281  36.073  38.168  1.00  0.00    -0.744 OA
ENDBRANCH  70  73
ENDBRANCH  42  66
BRANCH  54  77
ATOM     77  C   UNL A   1      44.696  27.872  34.251  1.00  0.00     0.023 A 
ATOM     78  C   UNL A   1      45.849  28.680  34.228  1.00  0.00     0.012 A 
ATOM     79  C   UNL A   1      44.619  26.795  35.155  1.00  0.00     0.148 A 
ATOM     80  C   UNL A   1      46.920  28.407  35.077  1.00  0.00     0.002 A 
ATOM     81  C   UNL A   1      45.672  26.556  36.030  1.00  0.00     0.091 A 
ATOM     82  F   UNL A   1      43.519  26.028  35.147  1.00  0.00    -0.205 F 
ATOM     83  C   UNL A   1      46.826  27.354  35.987  1.00  0.00     0.022 A 
BRANCH  81  84
ATOM     84  S   UNL A   1      45.601  25.283  37.297  1.00  0.00     0.127 S 
ATOM     85  O   UNL A   1      45.100  24.138  36.540  1.00  0.00    -0.237 OA
ATOM     86  O   UNL A   1      47.002  25.178  37.708  1.00  0.00    -0.237 OA
ATOM     87  O   UNL A   1      44.706  25.791  38.327  1.00  0.00    -0.744 OA
ENDBRANCH  81  84
ENDBRANCH  54  77
ENDBRANCH  28  29
ENDBRANCH  21  23
ENDBRANCH  20  21
ENDBRANCH   1  20
TORSDOF 15
ENDMDL
MODEL 2
REMARK VINA RESULT:     -11.3      5.219     10.251
REMARK SMILES C[C@H]1[NH2+]CC[C@H]1C(=O)N1CC(C(=O)OCCOC(=O)c2ccc(-c3c4nc(c(-c5cccc(S(=O)(=O)[O-])c5F)c5ccc([nH]5)c(-c5cccc(S(=O)(=O)[O-])c5F)c5nc(c(-c6cccc(S(=O)(=O)[O-])c6F)c6ccc3[nH]6)C=C5)C=C4)cc2)C1
REMARK SMILES IDX 16 1 15 2 14 3 12 4 13 5 11 6 7 7 8 8 9 9 10 10 83 11 6 12
REMARK SMILES IDX 1 13 2 14 3 15 4 16 5 19 17 20 18 21 19 22 20 23 21 24 82 25
REMARK SMILES IDX 22 26 81 27 23 28 24 29 25 30 75 31 26 32 80 33 74 34 76 35
REMARK SMILES IDX 27 36 79 37 73 38 72 39 28 41 60 42 40 43 59 44 41 45 44 46
REMARK SMILES IDX 58 47 77 48 42 49 43 50 57 52 78 53 45 54 29 55 30 56 38 57
REMARK SMILES IDX 31 58 33 59 39 60 32 61 34 62 35 63 36 64 37 65 61 66 62 67
REMARK SMILES IDX 70 68 63 69 65 70 71 71 64 72 66 73 67 74 68 75 69 76 46 77
REMARK SMILES IDX 47 78 55 79 48 80 50 81 56 82 49 83 51 84 52 85 53 86 54 87
REMARK H PARENT 3 17 3 18 76 40 44 51
REMARK Flexibility Score: inf
ROOT
ATOM      1  C   UNL A   1      36.540  20.505  24.964  1.00  0.00     0.275 C 
ENDROOT
BRANCH   1   2
ATOM      2  C   UNL A   1      35.028  20.739  25.025  1.00  0.00     0.274 C 
BRANCH   2   3
ATOM      3  O   UNL A   1      34.746  22.146  25.154  1.00  0.00    -0.462 OA
BRANCH   3   4
ATOM      4  C   UNL A   1      33.447  22.509  25.376  1.00  0.00     0.312 C 
ATOM      5  O   UNL A   1      32.618  21.757  25.884  1.00  0.00    -0.252 OA
BRANCH   4   6
ATOM      6  C   UNL A   1      33.159  23.966  24.979  1.00  0.00     0.138 C 
ATOM      7  C   UNL A   1      32.494  27.055  25.249  1.00  0.00     0.231 C 
ATOM      8  O   UNL A   1      32.517  27.221  24.032  1.00  0.00    -0.274 OA
ATOM      9  N   UNL A   1      32.751  25.835  25.843  1.00  0.00    -0.340 N 
ATOM     10  C   UNL A   1      33.992  25.072  25.605  1.00  0.00     0.136 C 
ATOM     11  C   UNL A   1      31.923  24.653  25.545  1.00  0.00     0.136 C 
BRANCH   7  12
ATOM     12  C   UNL A   1      32.130  28.174  26.214  1.00  0.00     0.142 C 
ATOM     13  C   UNL A   1      34.649  28.696  26.645  1.00  0.00     0.076 C 
ATOM     14  C   UNL A   1      33.224  28.615  27.186  1.00  0.00     0.192 C 
ATOM     15  N   UNL A   1      32.786  29.952  27.640  1.00  0.00    -0.343 N 
ATOM     16  C   UNL A   1      31.894  30.521  26.629  1.00  0.00     0.261 C 
ATOM     17  H   UNL A   1      33.598  30.557  27.761  1.00  0.00     0.346 HD
ATOM     18  H   UNL A   1      32.295  29.873  28.530  1.00  0.00     0.346 HD
ATOM     19  C   UNL A   1      31.692  29.471  25.553  1.00  0.00     0.081 C 
ENDBRANCH   7  12
ENDBRANCH   4   6
ENDBRANCH   3   4
ENDBRANCH   2   3
ENDBRANCH   1   2
BRANCH   1  20
ATOM     20  O   UNL A   1      37.257  21.450  25.780  1.00  0.00    -0.458 OA
BRANCH  20  21
ATOM     21  C   UNL A   1      38.576  21.189  25.948  1.00  0.00     0.338 C 
ATOM     22  O   UNL A   1      39.171  20.177  25.623  1.00  0.00    -0.246 OA
BRANCH  21  23
ATOM     23  C   UNL A   1      39.255  22.380  26.480  1.00  0.00     0.060 A 
ATOM     24  C   UNL A   1      38.773  23.638  26.106  1.00  0.00     0.016 A 
ATOM     25  C   UNL A   1      40.395  22.265  27.276  1.00  0.00     0.016 A 
ATOM     26  C   UNL A   1      39.431  24.792  26.522  1.00  0.00     0.010 A 
ATOM     27  C   UNL A   1      41.056  23.424  27.691  1.00  0.00     0.010 A 
ATOM     28  C   UNL A   1      40.586  24.692  27.307  1.00  0.00    -0.014 A 
BRANCH  28  29
ATOM     29  C   UNL A   1      41.340  25.910  27.682  1.00  0.00     0.031 A 
ATOM     30  C   UNL A   1      40.658  26.982  28.484  1.00  0.00     0.074 A 
ATOM     31  C   UNL A   1      42.618  26.058  27.288  1.00  0.00     0.049 A 
ATOM     32  N   UNL A   1      41.088  28.174  28.803  1.00  0.00    -0.248 NA
ATOM     33  C   UNL A   1      39.313  26.669  28.995  1.00  0.00     0.031 C 
ATOM     34  C   UNL A   1      43.389  25.069  26.533  1.00  0.00     0.029 A 
ATOM     35  N   UNL A   1      43.485  27.109  27.447  1.00  0.00    -0.354 N 
ATOM     36  C   UNL A   1      40.057  28.768  29.521  1.00  0.00     0.074 A 
ATOM     37  C   UNL A   1      38.977  27.807  29.588  1.00  0.00     0.031 C 
ATOM     38  C   UNL A   1      44.608  25.571  26.273  1.00  0.00     0.029 A 
ATOM     39  C   UNL A   1      44.689  26.927  26.805  1.00  0.00     0.049 A 
ATOM     40  H   UNL A   1      43.269  27.915  27.970  1.00  0.00     0.167 HD
ATOM     41  C   UNL A   1      40.022  29.998  30.087  1.00  0.00     0.034 A 
ATOM     42  C   UNL A   1      45.723  27.776  26.640  1.00  0.00     0.034 A 
ATOM     43  C   UNL A   1      41.111  30.935  30.038  1.00  0.00     0.049 A 
ATOM     44  C   UNL A   1      45.641  29.151  27.248  1.00  0.00     0.074 A 
ATOM     45  C   UNL A   1      41.175  32.210  30.573  1.00  0.00     0.029 A 
ATOM     46  N   UNL A   1      42.331  30.696  29.426  1.00  0.00    -0.354 N 
ATOM     47  N   UNL A   1      44.682  29.678  27.971  1.00  0.00    -0.248 NA
ATOM     48  C   UNL A   1      46.791  30.042  27.039  1.00  0.00     0.031 C 
ATOM     49  C   UNL A   1      42.434  32.743  30.279  1.00  0.00     0.029 A 
ATOM     50  C   UNL A   1      43.159  31.794  29.576  1.00  0.00     0.049 A 
ATOM     51  H   UNL A   1      42.574  29.867  28.955  1.00  0.00     0.167 HD
ATOM     52  C   UNL A   1      45.133  30.942  28.340  1.00  0.00     0.074 A 
ATOM     53  C   UNL A   1      46.455  31.095  27.770  1.00  0.00     0.031 C 
ATOM     54  C   UNL A   1      44.502  31.895  29.068  1.00  0.00     0.034 A 
BRANCH  41  55
ATOM     55  C   UNL A   1      38.779  30.387  30.841  1.00  0.00     0.023 A 
ATOM     56  C   UNL A   1      38.695  30.117  32.222  1.00  0.00     0.012 A 
ATOM     57  C   UNL A   1      37.726  31.073  30.205  1.00  0.00     0.148 A 
ATOM     58  C   UNL A   1      37.573  30.500  32.954  1.00  0.00     0.002 A 
ATOM     59  C   UNL A   1      36.626  31.484  30.949  1.00  0.00     0.091 A 
ATOM     60  F   UNL A   1      37.815  31.301  28.887  1.00  0.00    -0.205 F 
ATOM     61  C   UNL A   1      36.544  31.192  32.321  1.00  0.00     0.022 A 
BRANCH  59  62
ATOM     62  S   UNL A   1      35.279  32.441  30.242  1.00  0.00     0.127 S 
ATOM     63  O   UNL A   1      34.404  32.619  31.400  1.00  0.00    -0.237 OA
ATOM     64  O   UNL A   1      35.962  33.658  29.801  1.00  0.00    -0.237 OA
ATOM     65  O   UNL A   1      34.730  31.627  29.166  1.00  0.00    -0.744 OA
ENDBRANCH  59  62
ENDBRANCH  41  55
BRANCH  42  66
ATOM     66  C   UNL A   1      46.938  27.344  25.893  1.00  0.00     0.023 A 
ATOM     67  C   UNL A   1      47.914  26.569  26.549  1.00  0.00     0.012 A 
ATOM     68  C   UNL A   1      47.134  27.689  24.541  1.00  0.00     0.148 A 
ATOM     69  C   UNL A   1      49.077  26.177  25.885  1.00  0.00     0.002 A 
ATOM     70  C   UNL A   1      48.270  27.249  23.870  1.00  0.00     0.091 A 
ATOM     71  F   UNL A   1      46.209  28.447  23.936  1.00  0.00    -0.205 F 
ATOM     72  C   UNL A   1      49.251  26.508  24.544  1.00  0.00     0.022 A 
BRANCH  70  73
ATOM     73  S   UNL A   1      48.502  27.529  22.110  1.00  0.00     0.127 S 
ATOM     74  O   UNL A   1      49.619  28.469  22.100  1.00  0.00    -0.237 OA
ATOM     75  O   UNL A   1      48.825  26.186  21.623  1.00  0.00    -0.237 OA
ATOM     76  O   UNL A   1      47.226  28.045  21.631  1.00  0.00    -0.744 OA
ENDBRANCH  70  73
ENDBRANCH  42  66
BRANCH  54  77
ATOM     77  C   UNL A   1      45.250  33.170  29.348  1.00  0.00     0.023 A 
ATOM     78  C   UNL A   1      46.029  33.283  30.517  1.00  0.00     0.012 A 
ATOM     79  C   UNL A   1      45.255  34.219  28.406  1.00  0.00     0.148 A 
ATOM     80  C   UNL A   1      46.784  34.430  30.754  1.00  0.00     0.002 A 
ATOM     81  C   UNL A   1      46.045  35.339  28.629  1.00  0.00     0.091 A 
ATOM     82  F   UNL A   1      44.492  34.097  27.310  1.00  0.00    -0.205 F 
ATOM     83  C   UNL A   1      46.803  35.451  29.806  1.00  0.00     0.022 A 
BRANCH  81  84
ATOM     84  S   UNL A   1      46.204  36.661  27.421  1.00  0.00     0.127 S 
ATOM     85  O   UNL A   1      47.208  37.517  28.049  1.00  0.00    -0.237 OA
ATOM     86  O   UNL A   1      46.669  35.942  26.235  1.00  0.00    -0.237 OA
ATOM     87  O   UNL A   1      44.877  37.246  27.290  1.00  0.00    -0.744 OA
ENDBRANCH  81  84
ENDBRANCH  54  77
ENDBRANCH  28  29
ENDBRANCH  21  23
ENDBRANCH  20  21
ENDBRANCH   1  20
TORSDOF 15
ENDMDL
MODEL 3
REMARK VINA RESULT:     -11.3      1.365      1.606
REMARK SMILES C[C@H]1[NH2+]CC[C@H]1C(=O)N1CC(C(=O)OCCOC(=O)c2ccc(-c3c4nc(c(-c5cccc(S(=O)(=O)[O-])c5F)c5ccc([nH]5)c(-c5cccc(S(=O)(=O)[O-])c5F)c5nc(c(-c6cccc(S(=O)(=O)[O-])c6F)c6ccc3[nH]6)C=C5)C=C4)cc2)C1
REMARK SMILES IDX 16 1 15 2 14 3 12 4 13 5 11 6 7 7 8 8 9 9 10 10 83 11 6 12
REMARK SMILES IDX 1 13 2 14 3 15 4 16 5 19 17 20 18 21 19 22 20 23 21 24 82 25
REMARK SMILES IDX 22 26 81 27 23 28 24 29 25 30 75 31 26 32 80 33 74 34 76 35
REMARK SMILES IDX 27 36 79 37 73 38 72 39 28 41 60 42 40 43 59 44 41 45 44 46
REMARK SMILES IDX 58 47 77 48 42 49 43 50 57 52 78 53 45 54 29 55 30 56 38 57
REMARK SMILES IDX 31 58 33 59 39 60 32 61 34 62 35 63 36 64 37 65 61 66 62 67
REMARK SMILES IDX 70 68 63 69 65 70 71 71 64 72 66 73 67 74 68 75 69 76 46 77
REMARK SMILES IDX 47 78 55 79 48 80 50 81 56 82 49 83 51 84 52 85 53 86 54 87
REMARK H PARENT 3 17 3 18 76 40 44 51
REMARK Flexibility Score: inf
ROOT
ATOM      1  C   UNL A   1      31.755  29.544  25.936  1.00  0.00     0.275 C 
ENDROOT
BRANCH   1   2
ATOM      2  C   UNL A   1      30.970  29.524  24.621  1.00  0.00     0.274 C 
BRANCH   2   3
ATOM      3  O   UNL A   1      31.812  29.071  23.543  1.00  0.00    -0.462 OA
BRANCH   3   4
ATOM      4  C   UNL A   1      31.331  28.069  22.747  1.00  0.00     0.312 C 
ATOM      5  O   UNL A   1      30.282  28.162  22.114  1.00  0.00    -0.252 OA
BRANCH   4   6
ATOM      6  C   UNL A   1      32.269  26.853  22.687  1.00  0.00     0.138 C 
ATOM      7  C   UNL A   1      34.307  24.607  23.618  1.00  0.00     0.231 C 
ATOM      8  O   UNL A   1      34.363  24.116  22.493  1.00  0.00    -0.274 OA
ATOM      9  N   UNL A   1      33.508  25.692  23.923  1.00  0.00    -0.340 N 
ATOM     10  C   UNL A   1      32.054  25.714  23.670  1.00  0.00     0.136 C 
ATOM     11  C   UNL A   1      33.683  26.984  23.236  1.00  0.00     0.136 C 
BRANCH   7  12
ATOM     12  C   UNL A   1      35.154  24.092  24.772  1.00  0.00     0.142 C 
ATOM     13  C   UNL A   1      33.430  22.197  25.264  1.00  0.00     0.076 C 
ATOM     14  C   UNL A   1      34.442  23.208  25.796  1.00  0.00     0.192 C 
ATOM     15  N   UNL A   1      35.540  22.500  26.487  1.00  0.00    -0.343 N 
ATOM     16  C   UNL A   1      36.707  22.469  25.604  1.00  0.00     0.261 C 
ATOM     17  H   UNL A   1      35.250  21.548  26.707  1.00  0.00     0.346 HD
ATOM     18  H   UNL A   1      35.774  22.984  27.354  1.00  0.00     0.346 HD
ATOM     19  C   UNL A   1      36.360  23.263  24.359  1.00  0.00     0.081 C 
ENDBRANCH   7  12
ENDBRANCH   4   6
ENDBRANCH   3   4
ENDBRANCH   2   3
ENDBRANCH   1   2
BRANCH   1  20
ATOM     20  O   UNL A   1      32.943  30.351  25.832  1.00  0.00    -0.458 OA
BRANCH  20  21
ATOM     21  C   UNL A   1      33.139  31.228  26.846  1.00  0.00     0.338 C 
ATOM     22  O   UNL A   1      32.349  32.057  27.262  1.00  0.00    -0.246 OA
BRANCH  21  23
ATOM     23  C   UNL A   1      34.433  30.960  27.493  1.00  0.00     0.060 A 
ATOM     24  C   UNL A   1      34.719  29.648  27.878  1.00  0.00     0.016 A 
ATOM     25  C   UNL A   1      35.321  31.996  27.785  1.00  0.00     0.016 A 
ATOM     26  C   UNL A   1      35.896  29.360  28.564  1.00  0.00     0.010 A 
ATOM     27  C   UNL A   1      36.501  31.707  28.475  1.00  0.00     0.010 A 
ATOM     28  C   UNL A   1      36.790  30.391  28.878  1.00  0.00    -0.014 A 
BRANCH  28  29
ATOM     29  C   UNL A   1      38.002  30.108  29.681  1.00  0.00     0.031 A 
ATOM     30  C   UNL A   1      39.045  29.174  29.137  1.00  0.00     0.074 A 
ATOM     31  C   UNL A   1      38.152  30.670  30.894  1.00  0.00     0.049 A 
ATOM     32  N   UNL A   1      40.107  28.689  29.724  1.00  0.00    -0.248 NA
ATOM     33  C   UNL A   1      38.868  28.724  27.745  1.00  0.00     0.031 C 
ATOM     34  C   UNL A   1      37.218  31.616  31.507  1.00  0.00     0.029 A 
ATOM     35  N   UNL A   1      39.134  30.508  31.838  1.00  0.00    -0.354 N 
ATOM     36  C   UNL A   1      40.708  27.853  28.791  1.00  0.00     0.074 A 
ATOM     37  C   UNL A   1      39.888  27.891  27.598  1.00  0.00     0.031 C 
ATOM     38  C   UNL A   1      37.661  31.932  32.736  1.00  0.00     0.029 A 
ATOM     39  C   UNL A   1      38.882  31.181  33.011  1.00  0.00     0.049 A 
ATOM     40  H   UNL A   1      39.941  29.964  31.690  1.00  0.00     0.167 HD
ATOM     41  C   UNL A   1      41.847  27.132  28.913  1.00  0.00     0.034 A 
ATOM     42  C   UNL A   1      39.546  31.165  34.184  1.00  0.00     0.034 A 
ATOM     43  C   UNL A   1      42.668  27.123  30.093  1.00  0.00     0.049 A 
ATOM     44  C   UNL A   1      40.790  30.323  34.303  1.00  0.00     0.074 A 
ATOM     45  C   UNL A   1      43.838  26.421  30.323  1.00  0.00     0.029 A 
ATOM     46  N   UNL A   1      42.409  27.857  31.240  1.00  0.00    -0.354 N 
ATOM     47  N   UNL A   1      41.376  29.581  33.394  1.00  0.00    -0.248 NA
ATOM     48  C   UNL A   1      41.479  30.334  35.602  1.00  0.00     0.031 C 
ATOM     49  C   UNL A   1      44.284  26.728  31.613  1.00  0.00     0.029 A 
ATOM     50  C   UNL A   1      43.401  27.633  32.179  1.00  0.00     0.049 A 
ATOM     51  H   UNL A   1      41.634  28.450  31.369  1.00  0.00     0.167 HD
ATOM     52  C   UNL A   1      42.523  29.075  33.996  1.00  0.00     0.074 A 
ATOM     53  C   UNL A   1      42.556  29.605  35.343  1.00  0.00     0.031 C 
ATOM     54  C   UNL A   1      43.455  28.234  33.486  1.00  0.00     0.034 A 
BRANCH  41  55
ATOM     55  C   UNL A   1      42.295  26.322  27.727  1.00  0.00     0.023 A 
ATOM     56  C   UNL A   1      43.166  26.903  26.783  1.00  0.00     0.012 A 
ATOM     57  C   UNL A   1      41.909  24.976  27.576  1.00  0.00     0.148 A 
ATOM     58  C   UNL A   1      43.628  26.164  25.695  1.00  0.00     0.002 A 
ATOM     59  C   UNL A   1      42.403  24.235  26.508  1.00  0.00     0.091 A 
ATOM     60  F   UNL A   1      41.063  24.449  28.472  1.00  0.00    -0.205 F 
ATOM     61  C   UNL A   1      43.255  24.829  25.563  1.00  0.00     0.022 A 
BRANCH  59  62
ATOM     62  S   UNL A   1      42.037  22.490  26.286  1.00  0.00     0.127 S 
ATOM     63  O   UNL A   1      40.574  22.497  26.251  1.00  0.00    -0.237 OA
ATOM     64  O   UNL A   1      42.676  22.201  25.002  1.00  0.00    -0.237 OA
ATOM     65  O   UNL A   1      42.629  21.807  27.428  1.00  0.00    -0.744 OA
ENDBRANCH  59  62
ENDBRANCH  41  55
BRANCH  42  66
ATOM     66  C   UNL A   1      39.071  31.990  35.330  1.00  0.00     0.023 A 
ATOM     67  C   UNL A   1      39.264  33.384  35.304  1.00  0.00     0.012 A 
ATOM     68  C   UNL A   1      38.428  31.409  36.440  1.00  0.00     0.148 A 
ATOM     69  C   UNL A   1      38.859  34.180  36.377  1.00  0.00     0.002 A 
ATOM     70  C   UNL A   1      37.977  32.213  37.481  1.00  0.00     0.091 A 
ATOM     71  F   UNL A   1      38.272  30.077  36.462  1.00  0.00    -0.205 F 
ATOM     72  C   UNL A   1      38.208  33.597  37.460  1.00  0.00     0.022 A 
BRANCH  70  73
ATOM     73  S   UNL A   1      37.020  31.551  38.849  1.00  0.00     0.127 S 
ATOM     74  O   UNL A   1      37.936  31.729  39.972  1.00  0.00    -0.237 OA
ATOM     75  O   UNL A   1      35.850  32.432  38.864  1.00  0.00    -0.237 OA
ATOM     76  O   UNL A   1      36.722  30.173  38.478  1.00  0.00    -0.744 OA
ENDBRANCH  70  73
ENDBRANCH  42  66
BRANCH  54  77
ATOM     77  C   UNL A   1      44.627  27.876  34.360  1.00  0.00     0.023 A 
ATOM     78  C   UNL A   1      45.782  28.682  34.347  1.00  0.00     0.012 A 
ATOM     79  C   UNL A   1      44.543  26.795  35.261  1.00  0.00     0.148 A 
ATOM     80  C   UNL A   1      46.847  28.404  35.202  1.00  0.00     0.002 A 
ATOM     81  C   UNL A   1      45.590  26.552  36.142  1.00  0.00     0.091 A 
ATOM     82  F   UNL A   1      43.442  26.031  35.243  1.00  0.00    -0.205 F 
ATOM     83  C   UNL A   1      46.746  27.349  36.108  1.00  0.00     0.022 A 
BRANCH  81  84
ATOM     84  S   UNL A   1      45.510  25.276  37.404  1.00  0.00     0.127 S 
ATOM     85  O   UNL A   1      45.103  24.110  36.622  1.00  0.00    -0.237 OA
ATOM     86  O   UNL A   1      46.889  25.233  37.890  1.00  0.00    -0.237 OA
ATOM     87  O   UNL A   1      44.538  25.741  38.384  1.00  0.00    -0.744 OA
ENDBRANCH  81  84
ENDBRANCH  54  77
ENDBRANCH  28  29
ENDBRANCH  21  23
ENDBRANCH  20  21
ENDBRANCH   1  20
TORSDOF 15
ENDMDL
