MODEL 1
REMARK VINA RESULT:     -13.0      0.000      0.000
REMARK SMILES CC(C)[C@@H]1C(=O)Nc2ccccc2N1C(=O)N[C@H](Cc1ccccc1)C(=O)OCCOC(=O)c1ccc(-c2c3nc(c(-c4cccc(S(=O)(=O)[O-])c4F)c4ccc([nH]4)c(-c4cccc(S(=O)(=O)[O-])c4F)c4nc(c(-c5cccc(S(=O)(=O)[O-])c5F)c5ccc2[nH]5)C=C4)C=C3)cc1
REMARK SMILES IDX 29 1 28 2 26 3 27 4 18 5 17 6 15 7 16 8 14 10 4 11 5 12 6 13
REMARK SMILES IDX 7 14 13 15 8 16 12 18 9 19 11 20 10 21 2 22 1 23 3 24 19 25
REMARK SMILES IDX 20 26 21 27 25 28 22 29 24 30 23 31 30 32 31 33 32 34 33 35
REMARK SMILES IDX 34 36 35 37 96 38 36 39 95 40 37 41 38 42 39 43 89 44 40 45
REMARK SMILES IDX 94 46 88 47 90 48 41 49 93 50 87 51 86 52 42 54 74 55 54 56
REMARK SMILES IDX 73 57 55 58 58 59 72 60 91 61 56 62 57 63 71 65 92 66 59 67
REMARK SMILES IDX 43 68 44 69 52 70 45 71 47 72 53 73 46 74 48 75 49 76 50 77
REMARK SMILES IDX 51 78 75 79 76 80 84 81 77 82 79 83 85 84 78 85 80 86 81 87
REMARK SMILES IDX 82 88 83 89 60 90 61 91 69 92 62 93 64 94 70 95 63 96 65 97
REMARK SMILES IDX 66 98 67 99 68 100
REMARK H PARENT 17 9 7 17 90 53 58 64
REMARK Flexibility Score: inf
ROOT
ATOM      1  C   UNL A   1      31.709  28.931  27.240  1.00  0.00     0.274 C 
ENDROOT
BRANCH   1   2
ATOM      2  O   UNL A   1      31.209  27.829  26.439  1.00  0.00    -0.461 OA
BRANCH   2   3
ATOM      3  C   UNL A   1      31.931  26.679  26.339  1.00  0.00     0.329 C 
ATOM      4  O   UNL A   1      31.509  25.574  26.657  1.00  0.00    -0.250 OA
BRANCH   3   5
ATOM      5  C   UNL A   1      33.330  26.893  25.703  1.00  0.00     0.198 C 
BRANCH   5   6
ATOM      6  N   UNL A   1      33.258  27.680  24.431  1.00  0.00    -0.324 N 
ATOM      7  C   UNL A   1      32.856  27.520  23.143  1.00  0.00     0.323 C 
ATOM      8  O   UNL A   1      33.396  28.323  22.366  1.00  0.00    -0.248 OA
ATOM      9  H   UNL A   1      33.609  28.589  24.571  1.00  0.00     0.166 HD
BRANCH   7  10
ATOM     10  N   UNL A   1      31.737  26.802  22.770  1.00  0.00    -0.280 N 
ATOM     11  C   UNL A   1      30.241  27.156  22.896  1.00  0.00     0.184 C 
ATOM     12  C   UNL A   1      29.434  26.220  23.825  1.00  0.00     0.247 C 
ATOM     13  O   UNL A   1      28.317  26.455  24.283  1.00  0.00    -0.272 OA
ATOM     14  N   UNL A   1      29.872  24.943  23.939  1.00  0.00    -0.322 N 
ATOM     15  C   UNL A   1      31.960  25.353  22.771  1.00  0.00     0.070 A 
ATOM     16  C   UNL A   1      31.038  24.475  23.359  1.00  0.00     0.065 A 
ATOM     17  H   UNL A   1      29.328  24.311  24.464  1.00  0.00     0.170 HD
ATOM     18  C   UNL A   1      33.140  24.796  22.251  1.00  0.00     0.028 A 
ATOM     19  C   UNL A   1      31.278  23.100  23.444  1.00  0.00     0.028 A 
ATOM     20  C   UNL A   1      33.373  23.413  22.311  1.00  0.00     0.002 A 
ATOM     21  C   UNL A   1      32.444  22.566  22.912  1.00  0.00     0.002 A 
BRANCH  11  22
ATOM     22  C   UNL A   1      29.806  28.642  23.051  1.00  0.00     0.015 C 
ATOM     23  C   UNL A   1      30.450  29.511  21.961  1.00  0.00     0.010 C 
ATOM     24  C   UNL A   1      28.323  29.032  23.040  1.00  0.00     0.010 C 
ENDBRANCH  11  22
ENDBRANCH   7  10
ENDBRANCH   5   6
BRANCH   5  25
ATOM     25  C   UNL A   1      34.159  25.623  25.442  1.00  0.00     0.072 C 
BRANCH  25  26
ATOM     26  C   UNL A   1      34.207  24.209  25.963  1.00  0.00    -0.045 A 
ATOM     27  C   UNL A   1      35.408  23.518  25.630  1.00  0.00     0.004 A 
ATOM     28  C   UNL A   1      33.219  23.506  26.635  1.00  0.00     0.004 A 
ATOM     29  C   UNL A   1      35.618  22.180  25.936  1.00  0.00     0.000 A 
ATOM     30  C   UNL A   1      33.433  22.149  26.950  1.00  0.00     0.000 A 
ATOM     31  C   UNL A   1      34.618  21.489  26.597  1.00  0.00     0.000 A 
ENDBRANCH  25  26
ENDBRANCH   5  25
ENDBRANCH   3   5
ENDBRANCH   2   3
ENDBRANCH   1   2
BRANCH   1  32
ATOM     32  C   UNL A   1      31.750  30.254  26.469  1.00  0.00     0.275 C 
BRANCH  32  33
ATOM     33  O   UNL A   1      33.109  30.693  26.450  1.00  0.00    -0.458 OA
BRANCH  33  34
ATOM     34  C   UNL A   1      33.457  31.722  27.248  1.00  0.00     0.338 C 
ATOM     35  O   UNL A   1      32.813  32.734  27.482  1.00  0.00    -0.246 OA
BRANCH  34  36
ATOM     36  C   UNL A   1      34.780  31.380  27.802  1.00  0.00     0.060 A 
ATOM     37  C   UNL A   1      35.747  32.385  27.936  1.00  0.00     0.016 A 
ATOM     38  C   UNL A   1      35.042  30.088  28.245  1.00  0.00     0.016 A 
ATOM     39  C   UNL A   1      36.951  32.135  28.578  1.00  0.00     0.010 A 
ATOM     40  C   UNL A   1      36.241  29.839  28.913  1.00  0.00     0.010 A 
ATOM     41  C   UNL A   1      37.189  30.865  29.099  1.00  0.00    -0.014 A 
BRANCH  41  42
ATOM     42  C   UNL A   1      38.445  30.573  29.820  1.00  0.00     0.031 A 
ATOM     43  C   UNL A   1      39.414  29.616  29.202  1.00  0.00     0.074 A 
ATOM     44  C   UNL A   1      38.658  31.093  31.043  1.00  0.00     0.049 A 
ATOM     45  N   UNL A   1      40.429  29.003  29.745  1.00  0.00    -0.248 NA
ATOM     46  C   UNL A   1      39.190  29.287  27.784  1.00  0.00     0.031 C 
ATOM     47  C   UNL A   1      37.789  32.061  31.718  1.00  0.00     0.029 A 
ATOM     48  N   UNL A   1      39.648  30.841  31.957  1.00  0.00    -0.354 N 
ATOM     49  C   UNL A   1      40.924  28.160  28.758  1.00  0.00     0.074 A 
ATOM     50  C   UNL A   1      40.102  28.348  27.582  1.00  0.00     0.031 C 
ATOM     51  C   UNL A   1      38.265  32.292  32.953  1.00  0.00     0.029 A 
ATOM     52  C   UNL A   1      39.431  31.445  33.175  1.00  0.00     0.049 A 
ATOM     53  H   UNL A   1      40.437  30.284  31.762  1.00  0.00     0.167 HD
ATOM     54  C   UNL A   1      41.970  27.306  28.835  1.00  0.00     0.034 A 
ATOM     55  C   UNL A   1      40.073  31.288  34.348  1.00  0.00     0.034 A 
ATOM     56  C   UNL A   1      42.790  27.163  30.008  1.00  0.00     0.049 A 
ATOM     57  C   UNL A   1      41.229  30.325  34.410  1.00  0.00     0.074 A 
ATOM     58  C   UNL A   1      43.895  26.354  30.194  1.00  0.00     0.029 A 
ATOM     59  N   UNL A   1      42.589  27.851  31.197  1.00  0.00    -0.354 N 
ATOM     60  N   UNL A   1      41.728  29.570  33.459  1.00  0.00    -0.248 NA
ATOM     61  C   UNL A   1      41.927  30.206  35.697  1.00  0.00     0.031 C 
ATOM     62  C   UNL A   1      44.352  26.539  31.504  1.00  0.00     0.029 A 
ATOM     63  C   UNL A   1      43.552  27.489  32.122  1.00  0.00     0.049 A 
ATOM     64  H   UNL A   1      41.868  28.501  31.358  1.00  0.00     0.167 HD
ATOM     65  C   UNL A   1      42.821  28.920  34.019  1.00  0.00     0.074 A 
ATOM     66  C   UNL A   1      42.920  29.383  35.389  1.00  0.00     0.031 C 
ATOM     67  C   UNL A   1      43.661  28.015  33.459  1.00  0.00     0.034 A 
BRANCH  54  68
ATOM     68  C   UNL A   1      42.284  26.475  27.621  1.00  0.00     0.023 A 
ATOM     69  C   UNL A   1      42.984  27.048  26.539  1.00  0.00     0.012 A 
ATOM     70  C   UNL A   1      41.910  25.118  27.560  1.00  0.00     0.148 A 
ATOM     71  C   UNL A   1      43.271  26.296  25.400  1.00  0.00     0.002 A 
ATOM     72  C   UNL A   1      42.243  24.362  26.442  1.00  0.00     0.091 A 
ATOM     73  F   UNL A   1      41.223  24.597  28.586  1.00  0.00    -0.205 F 
ATOM     74  C   UNL A   1      42.911  24.952  25.357  1.00  0.00     0.022 A 
BRANCH  72  75
ATOM     75  S   UNL A   1      41.894  22.604  26.320  1.00  0.00     0.127 S 
ATOM     76  O   UNL A   1      42.548  22.088  27.522  1.00  0.00    -0.237 OA
ATOM     77  O   UNL A   1      40.432  22.580  26.363  1.00  0.00    -0.237 OA
ATOM     78  O   UNL A   1      42.473  22.165  25.058  1.00  0.00    -0.744 OA
ENDBRANCH  72  75
ENDBRANCH  54  68
BRANCH  55  79
ATOM     79  C   UNL A   1      39.656  32.068  35.549  1.00  0.00     0.023 A 
ATOM     80  C   UNL A   1      40.119  33.390  35.705  1.00  0.00     0.012 A 
ATOM     81  C   UNL A   1      38.793  31.525  36.523  1.00  0.00     0.148 A 
ATOM     82  C   UNL A   1      39.760  34.144  36.823  1.00  0.00     0.002 A 
ATOM     83  C   UNL A   1      38.395  32.302  37.606  1.00  0.00     0.091 A 
ATOM     84  F   UNL A   1      38.373  30.263  36.367  1.00  0.00    -0.205 F 
ATOM     85  C   UNL A   1      38.891  33.604  37.767  1.00  0.00     0.022 A 
BRANCH  83  86
ATOM     86  S   UNL A   1      37.182  31.739  38.806  1.00  0.00     0.127 S 
ATOM     87  O   UNL A   1      37.927  31.847  40.058  1.00  0.00    -0.237 OA
ATOM     88  O   UNL A   1      36.112  32.723  38.639  1.00  0.00    -0.237 OA
ATOM     89  O   UNL A   1      36.822  30.387  38.398  1.00  0.00    -0.744 OA
ENDBRANCH  83  86
ENDBRANCH  55  79
BRANCH  67  90
ATOM     90  C   UNL A   1      44.802  27.513  34.304  1.00  0.00     0.023 A 
ATOM     91  C   UNL A   1      46.023  28.212  34.331  1.00  0.00     0.012 A 
ATOM     92  C   UNL A   1      44.627  26.385  35.131  1.00  0.00     0.148 A 
ATOM     93  C   UNL A   1      47.068  27.778  35.146  1.00  0.00     0.002 A 
ATOM     94  C   UNL A   1      45.654  25.989  35.978  1.00  0.00     0.091 A 
ATOM     95  F   UNL A   1      43.463  25.723  35.073  1.00  0.00    -0.205 F 
ATOM     96  C   UNL A   1      46.879  26.675  35.977  1.00  0.00     0.022 A 
BRANCH  94  97
ATOM     97  S   UNL A   1      45.462  24.647  37.155  1.00  0.00     0.127 S 
ATOM     98  O   UNL A   1      45.242  23.504  36.269  1.00  0.00    -0.237 OA
ATOM     99  O   UNL A   1      46.755  24.647  37.840  1.00  0.00    -0.237 OA
ATOM    100  O   UNL A   1      44.332  25.010  37.998  1.00  0.00    -0.744 OA
ENDBRANCH  94  97
ENDBRANCH  67  90
ENDBRANCH  41  42
ENDBRANCH  34  36
ENDBRANCH  33  34
ENDBRANCH  32  33
ENDBRANCH   1  32
TORSDOF 19
ENDMDL
MODEL 2
REMARK VINA RESULT:     -12.4      4.904      7.938
REMARK SMILES CC(C)[C@@H]1C(=O)Nc2ccccc2N1C(=O)N[C@H](Cc1ccccc1)C(=O)OCCOC(=O)c1ccc(-c2c3nc(c(-c4cccc(S(=O)(=O)[O-])c4F)c4ccc([nH]4)c(-c4cccc(S(=O)(=O)[O-])c4F)c4nc(c(-c5cccc(S(=O)(=O)[O-])c5F)c5ccc2[nH]5)C=C4)C=C3)cc1
REMARK SMILES IDX 29 1 28 2 26 3 27 4 18 5 17 6 15 7 16 8 14 10 4 11 5 12 6 13
REMARK SMILES IDX 7 14 13 15 8 16 12 18 9 19 11 20 10 21 2 22 1 23 3 24 19 25
REMARK SMILES IDX 20 26 21 27 25 28 22 29 24 30 23 31 30 32 31 33 32 34 33 35
REMARK SMILES IDX 34 36 35 37 96 38 36 39 95 40 37 41 38 42 39 43 89 44 40 45
REMARK SMILES IDX 94 46 88 47 90 48 41 49 93 50 87 51 86 52 42 54 74 55 54 56
REMARK SMILES IDX 73 57 55 58 58 59 72 60 91 61 56 62 57 63 71 65 92 66 59 67
REMARK SMILES IDX 43 68 44 69 52 70 45 71 47 72 53 73 46 74 48 75 49 76 50 77
REMARK SMILES IDX 51 78 75 79 76 80 84 81 77 82 79 83 85 84 78 85 80 86 81 87
REMARK SMILES IDX 82 88 83 89 60 90 61 91 69 92 62 93 64 94 70 95 63 96 65 97
REMARK SMILES IDX 66 98 67 99 68 100
REMARK H PARENT 17 9 7 17 90 53 58 64
REMARK Flexibility Score: inf
ROOT
ATOM      1  C   UNL A   1      36.953  21.438  24.414  1.00  0.00     0.274 C 
ENDROOT
BRANCH   1   2
ATOM      2  O   UNL A   1      36.898  22.820  23.975  1.00  0.00    -0.461 OA
BRANCH   2   3
ATOM      3  C   UNL A   1      35.699  23.387  23.664  1.00  0.00     0.329 C 
ATOM      4  O   UNL A   1      35.086  23.168  22.627  1.00  0.00    -0.250 OA
BRANCH   3   5
ATOM      5  C   UNL A   1      35.141  24.288  24.797  1.00  0.00     0.198 C 
BRANCH   5   6
ATOM      6  N   UNL A   1      34.520  23.489  25.900  1.00  0.00    -0.324 N 
ATOM      7  C   UNL A   1      33.289  23.118  26.336  1.00  0.00     0.323 C 
ATOM      8  O   UNL A   1      33.273  22.813  27.538  1.00  0.00    -0.248 OA
ATOM      9  H   UNL A   1      35.218  23.122  26.490  1.00  0.00     0.166 HD
BRANCH   7  10
ATOM     10  N   UNL A   1      32.246  22.779  25.496  1.00  0.00    -0.280 N 
ATOM     11  C   UNL A   1      32.145  21.664  24.435  1.00  0.00     0.184 C 
ATOM     12  C   UNL A   1      31.972  22.169  22.984  1.00  0.00     0.247 C 
ATOM     13  O   UNL A   1      32.136  21.497  21.967  1.00  0.00    -0.272 OA
ATOM     14  N   UNL A   1      31.348  23.360  22.820  1.00  0.00    -0.322 N 
ATOM     15  C   UNL A   1      31.371  23.913  25.184  1.00  0.00     0.070 A 
ATOM     16  C   UNL A   1      30.961  24.176  23.869  1.00  0.00     0.065 A 
ATOM     17  H   UNL A   1      31.159  23.663  21.902  1.00  0.00     0.170 HD
ATOM     18  C   UNL A   1      30.971  24.822  26.178  1.00  0.00     0.028 A 
ATOM     19  C   UNL A   1      30.197  25.302  23.544  1.00  0.00     0.028 A 
ATOM     20  C   UNL A   1      30.183  25.939  25.860  1.00  0.00     0.002 A 
ATOM     21  C   UNL A   1      29.801  26.182  24.543  1.00  0.00     0.002 A 
BRANCH  11  22
ATOM     22  C   UNL A   1      33.097  20.434  24.511  1.00  0.00     0.015 C 
ATOM     23  C   UNL A   1      33.252  19.959  25.962  1.00  0.00     0.010 C 
ATOM     24  C   UNL A   1      32.799  19.161  23.709  1.00  0.00     0.010 C 
ENDBRANCH  11  22
ENDBRANCH   7  10
ENDBRANCH   5   6
BRANCH   5  25
ATOM     25  C   UNL A   1      34.144  25.379  24.367  1.00  0.00     0.072 C 
BRANCH  25  26
ATOM     26  C   UNL A   1      33.698  26.729  24.871  1.00  0.00    -0.045 A 
ATOM     27  C   UNL A   1      33.274  27.612  23.837  1.00  0.00     0.004 A 
ATOM     28  C   UNL A   1      33.728  27.216  26.169  1.00  0.00     0.004 A 
ATOM     29  C   UNL A   1      32.909  28.931  24.075  1.00  0.00     0.000 A 
ATOM     30  C   UNL A   1      33.354  28.552  26.411  1.00  0.00     0.000 A 
ATOM     31  C   UNL A   1      32.955  29.406  25.373  1.00  0.00     0.000 A 
ENDBRANCH  25  26
ENDBRANCH   5  25
ENDBRANCH   3   5
ENDBRANCH   2   3
ENDBRANCH   1   2
BRANCH   1  32
ATOM     32  C   UNL A   1      38.061  21.186  25.441  1.00  0.00     0.275 C 
BRANCH  32  33
ATOM     33  O   UNL A   1      38.370  22.440  26.051  1.00  0.00    -0.458 OA
BRANCH  33  34
ATOM     34  C   UNL A   1      39.483  22.524  26.806  1.00  0.00     0.338 C 
ATOM     35  O   UNL A   1      40.197  21.607  27.185  1.00  0.00    -0.246 OA
BRANCH  34  36
ATOM     36  C   UNL A   1      39.682  23.959  27.083  1.00  0.00     0.060 A 
ATOM     37  C   UNL A   1      39.574  24.424  28.400  1.00  0.00     0.016 A 
ATOM     38  C   UNL A   1      40.036  24.828  26.056  1.00  0.00     0.016 A 
ATOM     39  C   UNL A   1      39.889  25.736  28.721  1.00  0.00     0.010 A 
ATOM     40  C   UNL A   1      40.377  26.141  26.378  1.00  0.00     0.010 A 
ATOM     41  C   UNL A   1      40.324  26.594  27.712  1.00  0.00    -0.014 A 
BRANCH  41  42
ATOM     42  C   UNL A   1      40.702  27.987  28.024  1.00  0.00     0.031 A 
ATOM     43  C   UNL A   1      42.153  28.349  28.019  1.00  0.00     0.074 A 
ATOM     44  C   UNL A   1      39.760  28.877  28.388  1.00  0.00     0.049 A 
ATOM     45  N   UNL A   1      42.743  29.403  28.511  1.00  0.00    -0.248 NA
ATOM     46  C   UNL A   1      43.065  27.374  27.397  1.00  0.00     0.031 C 
ATOM     47  C   UNL A   1      38.315  28.631  28.392  1.00  0.00     0.029 A 
ATOM     48  N   UNL A   1      39.881  30.153  28.873  1.00  0.00    -0.354 N 
ATOM     49  C   UNL A   1      44.103  29.188  28.324  1.00  0.00     0.074 A 
ATOM     50  C   UNL A   1      44.247  27.908  27.666  1.00  0.00     0.031 C 
ATOM     51  C   UNL A   1      37.688  29.708  28.893  1.00  0.00     0.029 A 
ATOM     52  C   UNL A   1      38.687  30.690  29.299  1.00  0.00     0.049 A 
ATOM     53  H   UNL A   1      40.738  30.639  28.912  1.00  0.00     0.167 HD
ATOM     54  C   UNL A   1      45.132  29.992  28.675  1.00  0.00     0.034 A 
ATOM     55  C   UNL A   1      38.440  31.822  29.985  1.00  0.00     0.034 A 
ATOM     56  C   UNL A   1      44.956  31.276  29.300  1.00  0.00     0.049 A 
ATOM     57  C   UNL A   1      39.605  32.696  30.372  1.00  0.00     0.074 A 
ATOM     58  C   UNL A   1      45.922  32.192  29.673  1.00  0.00     0.029 A 
ATOM     59  N   UNL A   1      43.728  31.822  29.642  1.00  0.00    -0.354 N 
ATOM     60  N   UNL A   1      40.884  32.514  30.144  1.00  0.00    -0.248 NA
ATOM     61  C   UNL A   1      39.293  33.939  31.088  1.00  0.00     0.031 C 
ATOM     62  C   UNL A   1      45.276  33.287  30.259  1.00  0.00     0.029 A 
ATOM     63  C   UNL A   1      43.907  33.066  30.220  1.00  0.00     0.049 A 
ATOM     64  H   UNL A   1      42.856  31.388  29.497  1.00  0.00     0.167 HD
ATOM     65  C   UNL A   1      41.526  33.638  30.651  1.00  0.00     0.074 A 
ATOM     66  C   UNL A   1      40.490  34.501  31.183  1.00  0.00     0.031 C 
ATOM     67  C   UNL A   1      42.850  33.929  30.684  1.00  0.00     0.034 A 
BRANCH  54  68
ATOM     68  C   UNL A   1      46.526  29.507  28.383  1.00  0.00     0.023 A 
ATOM     69  C   UNL A   1      47.175  29.906  27.196  1.00  0.00     0.012 A 
ATOM     70  C   UNL A   1      47.207  28.679  29.298  1.00  0.00     0.148 A 
ATOM     71  C   UNL A   1      48.462  29.456  26.905  1.00  0.00     0.002 A 
ATOM     72  C   UNL A   1      48.508  28.274  29.023  1.00  0.00     0.091 A 
ATOM     73  F   UNL A   1      46.566  28.290  30.408  1.00  0.00    -0.205 F 
ATOM     74  C   UNL A   1      49.131  28.650  27.822  1.00  0.00     0.022 A 
BRANCH  72  75
ATOM     75  S   UNL A   1      49.485  27.301  30.173  1.00  0.00     0.127 S 
ATOM     76  O   UNL A   1      49.541  28.185  31.337  1.00  0.00    -0.237 OA
ATOM     77  O   UNL A   1      48.652  26.111  30.350  1.00  0.00    -0.237 OA
ATOM     78  O   UNL A   1      50.761  27.058  29.514  1.00  0.00    -0.744 OA
ENDBRANCH  72  75
ENDBRANCH  54  68
BRANCH  55  79
ATOM     79  C   UNL A   1      37.041  32.205  30.333  1.00  0.00     0.023 A 
ATOM     80  C   UNL A   1      36.549  31.914  31.620  1.00  0.00     0.012 A 
ATOM     81  C   UNL A   1      36.204  32.868  29.413  1.00  0.00     0.148 A 
ATOM     82  C   UNL A   1      35.240  32.245  31.975  1.00  0.00     0.002 A 
ATOM     83  C   UNL A   1      34.919  33.245  29.792  1.00  0.00     0.091 A 
ATOM     84  F   UNL A   1      36.683  33.125  28.188  1.00  0.00    -0.205 F 
ATOM     85  C   UNL A   1      34.430  32.918  31.066  1.00  0.00     0.022 A 
BRANCH  83  86
ATOM     86  S   UNL A   1      33.847  34.225  28.735  1.00  0.00     0.127 S 
ATOM     87  O   UNL A   1      33.350  33.220  27.798  1.00  0.00    -0.237 OA
ATOM     88  O   UNL A   1      32.855  34.723  29.689  1.00  0.00    -0.237 OA
ATOM     89  O   UNL A   1      34.698  35.259  28.161  1.00  0.00    -0.744 OA
ENDBRANCH  83  86
ENDBRANCH  55  79
BRANCH  67  90
ATOM     90  C   UNL A   1      43.253  35.262  31.257  1.00  0.00     0.023 A 
ATOM     91  C   UNL A   1      43.509  35.391  32.635  1.00  0.00     0.012 A 
ATOM     92  C   UNL A   1      43.451  36.367  30.406  1.00  0.00     0.148 A 
ATOM     93  C   UNL A   1      43.926  36.611  33.165  1.00  0.00     0.002 A 
ATOM     94  C   UNL A   1      43.916  37.565  30.933  1.00  0.00     0.091 A 
ATOM     95  F   UNL A   1      43.181  36.226  29.101  1.00  0.00    -0.205 F 
ATOM     96  C   UNL A   1      44.141  37.693  32.313  1.00  0.00     0.022 A 
BRANCH  94  97
ATOM     97  S   UNL A   1      44.319  38.975  29.897  1.00  0.00     0.127 S 
ATOM     98  O   UNL A   1      43.013  39.311  29.331  1.00  0.00    -0.237 OA
ATOM     99  O   UNL A   1      44.828  39.941  30.872  1.00  0.00    -0.237 OA
ATOM    100  O   UNL A   1      45.311  38.502  28.942  1.00  0.00    -0.744 OA
ENDBRANCH  94  97
ENDBRANCH  67  90
ENDBRANCH  41  42
ENDBRANCH  34  36
ENDBRANCH  33  34
ENDBRANCH  32  33
ENDBRANCH   1  32
TORSDOF 19
ENDMDL
MODEL 3
REMARK VINA RESULT:     -12.4      5.149     10.007
REMARK SMILES CC(C)[C@@H]1C(=O)Nc2ccccc2N1C(=O)N[C@H](Cc1ccccc1)C(=O)OCCOC(=O)c1ccc(-c2c3nc(c(-c4cccc(S(=O)(=O)[O-])c4F)c4ccc([nH]4)c(-c4cccc(S(=O)(=O)[O-])c4F)c4nc(c(-c5cccc(S(=O)(=O)[O-])c5F)c5ccc2[nH]5)C=C4)C=C3)cc1
REMARK SMILES IDX 29 1 28 2 26 3 27 4 18 5 17 6 15 7 16 8 14 10 4 11 5 12 6 13
REMARK SMILES IDX 7 14 13 15 8 16 12 18 9 19 11 20 10 21 2 22 1 23 3 24 19 25
REMARK SMILES IDX 20 26 21 27 25 28 22 29 24 30 23 31 30 32 31 33 32 34 33 35
REMARK SMILES IDX 34 36 35 37 96 38 36 39 95 40 37 41 38 42 39 43 89 44 40 45
REMARK SMILES IDX 94 46 88 47 90 48 41 49 93 50 87 51 86 52 42 54 74 55 54 56
REMARK SMILES IDX 73 57 55 58 58 59 72 60 91 61 56 62 57 63 71 65 92 66 59 67
REMARK SMILES IDX 43 68 44 69 52 70 45 71 47 72 53 73 46 74 48 75 49 76 50 77
REMARK SMILES IDX 51 78 75 79 76 80 84 81 77 82 79 83 85 84 78 85 80 86 81 87
REMARK SMILES IDX 82 88 83 89 60 90 61 91 69 92 62 93 64 94 70 95 63 96 65 97
REMARK SMILES IDX 66 98 67 99 68 100
REMARK H PARENT 17 9 7 17 90 53 58 64
REMARK Flexibility Score: inf
ROOT
ATOM      1  C   UNL A   1      36.863  22.752  23.533  1.00  0.00     0.274 C 
ENDROOT
BRANCH   1   2
ATOM      2  O   UNL A   1      35.508  22.895  23.034  1.00  0.00    -0.461 OA
BRANCH   2   3
ATOM      3  C   UNL A   1      34.726  23.919  23.476  1.00  0.00     0.329 C 
ATOM      4  O   UNL A   1      33.935  24.531  22.770  1.00  0.00    -0.250 OA
BRANCH   3   5
ATOM      5  C   UNL A   1      34.878  24.187  24.997  1.00  0.00     0.198 C 
BRANCH   5   6
ATOM      6  N   UNL A   1      34.474  23.005  25.823  1.00  0.00    -0.324 N 
ATOM      7  C   UNL A   1      33.346  22.351  26.201  1.00  0.00     0.323 C 
ATOM      8  O   UNL A   1      33.498  21.685  27.237  1.00  0.00    -0.248 OA
ATOM      9  H   UNL A   1      35.269  22.571  26.209  1.00  0.00     0.166 HD
BRANCH   7  10
ATOM     10  N   UNL A   1      32.258  22.153  25.374  1.00  0.00    -0.280 N 
ATOM     11  C   UNL A   1      32.046  21.133  24.236  1.00  0.00     0.184 C 
ATOM     12  C   UNL A   1      31.869  21.760  22.835  1.00  0.00     0.247 C 
ATOM     13  O   UNL A   1      31.955  21.159  21.765  1.00  0.00    -0.272 OA
ATOM     14  N   UNL A   1      31.329  23.001  22.782  1.00  0.00    -0.322 N 
ATOM     15  C   UNL A   1      31.459  23.366  25.178  1.00  0.00     0.070 A 
ATOM     16  C   UNL A   1      31.032  23.759  23.902  1.00  0.00     0.065 A 
ATOM     17  H   UNL A   1      31.136  23.386  21.896  1.00  0.00     0.170 HD
ATOM     18  C   UNL A   1      31.155  24.221  26.251  1.00  0.00     0.028 A 
ATOM     19  C   UNL A   1      30.344  24.957  23.689  1.00  0.00     0.028 A 
ATOM     20  C   UNL A   1      30.441  25.412  26.045  1.00  0.00     0.002 A 
ATOM     21  C   UNL A   1      30.041  25.782  24.764  1.00  0.00     0.002 A 
BRANCH  11  22
ATOM     22  C   UNL A   1      32.907  19.837  24.187  1.00  0.00     0.015 C 
ATOM     23  C   UNL A   1      32.846  19.095  25.529  1.00  0.00     0.010 C 
ATOM     24  C   UNL A   1      32.643  18.759  23.128  1.00  0.00     0.010 C 
ENDBRANCH  11  22
ENDBRANCH   7  10
ENDBRANCH   5   6
BRANCH   5  25
ATOM     25  C   UNL A   1      34.154  25.430  25.543  1.00  0.00     0.072 C 
BRANCH  25  26
ATOM     26  C   UNL A   1      33.805  26.812  25.048  1.00  0.00    -0.045 A 
ATOM     27  C   UNL A   1      33.318  27.678  26.069  1.00  0.00     0.004 A 
ATOM     28  C   UNL A   1      33.829  27.291  23.747  1.00  0.00     0.004 A 
ATOM     29  C   UNL A   1      32.858  28.963  25.812  1.00  0.00     0.000 A 
ATOM     30  C   UNL A   1      33.366  28.596  23.486  1.00  0.00     0.000 A 
ATOM     31  C   UNL A   1      32.877  29.423  24.507  1.00  0.00     0.000 A 
ENDBRANCH  25  26
ENDBRANCH   5  25
ENDBRANCH   3   5
ENDBRANCH   2   3
ENDBRANCH   1   2
BRANCH   1  32
ATOM     32  C   UNL A   1      37.072  21.456  24.322  1.00  0.00     0.275 C 
BRANCH  32  33
ATOM     33  O   UNL A   1      37.478  21.823  25.642  1.00  0.00    -0.458 OA
BRANCH  33  34
ATOM     34  C   UNL A   1      38.644  21.333  26.108  1.00  0.00     0.338 C 
ATOM     35  O   UNL A   1      38.966  20.160  26.222  1.00  0.00    -0.246 OA
BRANCH  34  36
ATOM     36  C   UNL A   1      39.472  22.504  26.451  1.00  0.00     0.060 A 
ATOM     37  C   UNL A   1      39.009  23.788  26.132  1.00  0.00     0.016 A 
ATOM     38  C   UNL A   1      40.669  22.339  27.140  1.00  0.00     0.016 A 
ATOM     39  C   UNL A   1      39.690  24.918  26.559  1.00  0.00     0.010 A 
ATOM     40  C   UNL A   1      41.343  23.473  27.592  1.00  0.00     0.010 A 
ATOM     41  C   UNL A   1      40.846  24.763  27.321  1.00  0.00    -0.014 A 
BRANCH  41  42
ATOM     42  C   UNL A   1      41.577  25.945  27.823  1.00  0.00     0.031 A 
ATOM     43  C   UNL A   1      40.821  26.970  28.607  1.00  0.00     0.074 A 
ATOM     44  C   UNL A   1      42.871  26.126  27.499  1.00  0.00     0.049 A 
ATOM     45  N   UNL A   1      41.160  28.191  28.914  1.00  0.00    -0.248 NA
ATOM     46  C   UNL A   1      39.488  26.567  29.088  1.00  0.00     0.031 C 
ATOM     47  C   UNL A   1      43.705  25.170  26.767  1.00  0.00     0.029 A 
ATOM     48  N   UNL A   1      43.697  27.201  27.702  1.00  0.00    -0.354 N 
ATOM     49  C   UNL A   1      40.056  28.731  29.561  1.00  0.00     0.074 A 
ATOM     50  C   UNL A   1      39.041  27.700  29.610  1.00  0.00     0.031 C 
ATOM     51  C   UNL A   1      44.913  25.717  26.549  1.00  0.00     0.029 A 
ATOM     52  C   UNL A   1      44.915  27.079  27.072  1.00  0.00     0.049 A 
ATOM     53  H   UNL A   1      43.445  27.983  28.246  1.00  0.00     0.167 HD
ATOM     54  C   UNL A   1      39.910  29.977  30.066  1.00  0.00     0.034 A 
ATOM     55  C   UNL A   1      45.895  27.985  26.894  1.00  0.00     0.034 A 
ATOM     56  C   UNL A   1      40.948  30.972  30.031  1.00  0.00     0.049 A 
ATOM     57  C   UNL A   1      45.704  29.369  27.457  1.00  0.00     0.074 A 
ATOM     58  C   UNL A   1      40.927  32.258  30.538  1.00  0.00     0.029 A 
ATOM     59  N   UNL A   1      42.197  30.785  29.457  1.00  0.00    -0.354 N 
ATOM     60  N   UNL A   1      44.680  29.858  28.117  1.00  0.00    -0.248 NA
ATOM     61  C   UNL A   1      46.808  30.319  27.275  1.00  0.00     0.031 C 
ATOM     62  C   UNL A   1      42.160  32.856  30.252  1.00  0.00     0.029 A 
ATOM     63  C   UNL A   1      42.960  31.931  29.598  1.00  0.00     0.049 A 
ATOM     64  H   UNL A   1      42.497  29.959  29.013  1.00  0.00     0.167 HD
ATOM     65  C   UNL A   1      45.033  31.156  28.464  1.00  0.00     0.074 A 
ATOM     66  C   UNL A   1      46.372  31.371  27.954  1.00  0.00     0.031 C 
ATOM     67  C   UNL A   1      44.314  32.092  29.133  1.00  0.00     0.034 A 
BRANCH  54  68
ATOM     68  C   UNL A   1      38.589  30.323  30.698  1.00  0.00     0.023 A 
ATOM     69  C   UNL A   1      38.322  29.931  32.026  1.00  0.00     0.012 A 
ATOM     70  C   UNL A   1      37.622  31.061  29.988  1.00  0.00     0.148 A 
ATOM     71  C   UNL A   1      37.098  30.233  32.622  1.00  0.00     0.002 A 
ATOM     72  C   UNL A   1      36.424  31.400  30.605  1.00  0.00     0.091 A 
ATOM     73  F   UNL A   1      37.883  31.402  28.718  1.00  0.00    -0.205 F 
ATOM     74  C   UNL A   1      36.155  30.975  31.917  1.00  0.00     0.022 A 
BRANCH  72  75
ATOM     75  S   UNL A   1      35.176  32.419  29.812  1.00  0.00     0.127 S 
ATOM     76  O   UNL A   1      34.256  32.676  30.919  1.00  0.00    -0.237 OA
ATOM     77  O   UNL A   1      35.956  33.580  29.384  1.00  0.00    -0.237 OA
ATOM     78  O   UNL A   1      34.632  31.617  28.724  1.00  0.00    -0.744 OA
ENDBRANCH  72  75
ENDBRANCH  54  68
BRANCH  55  79
ATOM     79  C   UNL A   1      47.146  27.614  26.172  1.00  0.00     0.023 A 
ATOM     80  C   UNL A   1      48.200  27.012  26.888  1.00  0.00     0.012 A 
ATOM     81  C   UNL A   1      47.295  27.829  24.787  1.00  0.00     0.148 A 
ATOM     82  C   UNL A   1      49.390  26.665  26.248  1.00  0.00     0.002 A 
ATOM     83  C   UNL A   1      48.462  27.430  24.144  1.00  0.00     0.091 A 
ATOM     84  F   UNL A   1      46.289  28.415  24.124  1.00  0.00    -0.205 F 
ATOM     85  C   UNL A   1      49.517  26.864  24.876  1.00  0.00     0.022 A 
BRANCH  83  86
ATOM     86  S   UNL A   1      48.669  27.530  22.363  1.00  0.00     0.127 S 
ATOM     87  O   UNL A   1      48.629  26.122  21.977  1.00  0.00    -0.237 OA
ATOM     88  O   UNL A   1      47.496  28.311  21.966  1.00  0.00    -0.237 OA
ATOM     89  O   UNL A   1      49.940  28.209  22.152  1.00  0.00    -0.744 OA
ENDBRANCH  83  86
ENDBRANCH  55  79
BRANCH  67  90
ATOM     90  C   UNL A   1      44.983  33.412  29.411  1.00  0.00     0.023 A 
ATOM     91  C   UNL A   1      45.721  33.594  30.596  1.00  0.00     0.012 A 
ATOM     92  C   UNL A   1      44.940  34.444  28.453  1.00  0.00     0.148 A 
ATOM     93  C   UNL A   1      46.381  34.798  30.839  1.00  0.00     0.002 A 
ATOM     94  C   UNL A   1      45.642  35.621  28.678  1.00  0.00     0.091 A 
ATOM     95  F   UNL A   1      44.214  34.254  27.341  1.00  0.00    -0.205 F 
ATOM     96  C   UNL A   1      46.351  35.806  29.876  1.00  0.00     0.022 A 
BRANCH  94  97
ATOM     97  S   UNL A   1      45.744  36.926  27.449  1.00  0.00     0.127 S 
ATOM     98  O   UNL A   1      44.352  37.368  27.368  1.00  0.00    -0.237 OA
ATOM     99  O   UNL A   1      46.651  37.881  28.087  1.00  0.00    -0.237 OA
ATOM    100  O   UNL A   1      46.273  36.303  26.244  1.00  0.00    -0.744 OA
ENDBRANCH  94  97
ENDBRANCH  67  90
ENDBRANCH  41  42
ENDBRANCH  34  36
ENDBRANCH  33  34
ENDBRANCH  32  33
ENDBRANCH   1  32
TORSDOF 19
ENDMDL
