MODEL 1
REMARK VINA RESULT:     -10.9      0.000      0.000
REMARK SMILES CC(C)C[NH+]1CC[NH+]([C@H](C)[C@@H](C)C(=O)OCCOC(=O)c2ccc(-c3c4nc(c(-c5cccc(S(=O)(=O)[O-])c5F)c5ccc([nH]5)c(-c5cccc(S(=O)(=O)[O-])c5F)c5nc(c(-c6cccc(S(=O)(=O)[O-])c6F)c6ccc3[nH]6)C=C5)C=C4)cc2)CC1
REMARK SMILES IDX 16 1 15 2 13 3 14 4 11 5 12 6 9 7 10 8 8 9 5 10 6 11 85 12
REMARK SMILES IDX 7 14 84 15 4 17 2 18 1 19 3 20 17 21 18 22 19 23 20 24 21 25
REMARK SMILES IDX 22 26 83 27 23 28 82 29 24 30 25 31 26 32 76 33 27 34 81 35
REMARK SMILES IDX 75 36 77 37 28 38 80 39 74 40 73 41 29 43 61 44 41 45 60 46
REMARK SMILES IDX 42 47 45 48 59 49 78 50 43 51 44 52 58 54 79 55 46 56 30 57
REMARK SMILES IDX 31 58 39 59 32 60 34 61 40 62 33 63 35 64 36 65 37 66 38 67
REMARK SMILES IDX 62 68 63 69 71 70 64 71 66 72 72 73 65 74 67 75 68 76 69 77
REMARK SMILES IDX 70 78 47 79 48 80 56 81 49 82 51 83 57 84 50 85 52 86 53 87
REMARK SMILES IDX 54 88 55 89
REMARK H PARENT 5 13 8 16 77 42 45 53
REMARK Flexibility Score: inf
ROOT
ATOM      1  C   UNL A   1      31.613  28.268  26.227  1.00  0.00     0.274 C 
ENDROOT
BRANCH   1   2
ATOM      2  O   UNL A   1      31.251  27.303  25.221  1.00  0.00    -0.462 OA
BRANCH   2   3
ATOM      3  C   UNL A   1      30.981  26.056  25.693  1.00  0.00     0.314 C 
ATOM      4  O   UNL A   1      30.091  25.801  26.500  1.00  0.00    -0.252 OA
BRANCH   3   5
ATOM      5  C   UNL A   1      31.961  24.994  25.226  1.00  0.00     0.154 C 
ATOM      6  C   UNL A   1      32.686  25.604  24.020  1.00  0.00     0.026 C 
BRANCH   5   7
ATOM      7  C   UNL A   1      31.332  23.593  24.954  1.00  0.00     0.195 C 
ATOM      8  C   UNL A   1      31.036  23.400  23.452  1.00  0.00     0.076 C 
BRANCH   7   9
ATOM      9  N   UNL A   1      32.128  22.479  25.547  1.00  0.00    -0.323 N 
ATOM     10  N   UNL A   1      34.733  21.059  26.008  1.00  0.00    -0.325 N 
ATOM     11  C   UNL A   1      33.965  21.699  27.071  1.00  0.00     0.324 C 
ATOM     12  C   UNL A   1      33.861  20.613  24.928  1.00  0.00     0.324 C 
ATOM     13  H   UNL A   1      35.108  20.166  26.327  1.00  0.00     0.348 HD
ATOM     14  C   UNL A   1      33.138  22.885  26.542  1.00  0.00     0.324 C 
ATOM     15  C   UNL A   1      32.688  21.563  24.522  1.00  0.00     0.324 C 
ATOM     16  H   UNL A   1      31.440  21.951  26.085  1.00  0.00     0.348 HD
BRANCH  10  17
ATOM     17  C   UNL A   1      36.061  21.611  25.759  1.00  0.00     0.265 C 
BRANCH  17  18
ATOM     18  C   UNL A   1      36.279  23.020  25.158  1.00  0.00     0.038 C 
ATOM     19  C   UNL A   1      37.481  23.753  25.734  1.00  0.00     0.013 C 
ATOM     20  C   UNL A   1      36.498  22.900  23.642  1.00  0.00     0.013 C 
ENDBRANCH  17  18
ENDBRANCH  10  17
ENDBRANCH   7   9
ENDBRANCH   5   7
ENDBRANCH   3   5
ENDBRANCH   2   3
ENDBRANCH   1   2
BRANCH   1  21
ATOM     21  C   UNL A   1      31.547  29.684  25.656  1.00  0.00     0.275 C 
BRANCH  21  22
ATOM     22  O   UNL A   1      32.844  30.295  25.730  1.00  0.00    -0.458 OA
BRANCH  22  23
ATOM     23  C   UNL A   1      33.044  31.104  26.796  1.00  0.00     0.338 C 
ATOM     24  O   UNL A   1      32.292  31.976  27.195  1.00  0.00    -0.246 OA
BRANCH  23  25
ATOM     25  C   UNL A   1      34.355  30.808  27.420  1.00  0.00     0.060 A 
ATOM     26  C   UNL A   1      34.719  29.509  27.784  1.00  0.00     0.016 A 
ATOM     27  C   UNL A   1      35.201  31.873  27.728  1.00  0.00     0.016 A 
ATOM     28  C   UNL A   1      35.888  29.282  28.515  1.00  0.00     0.010 A 
ATOM     29  C   UNL A   1      36.413  31.633  28.380  1.00  0.00     0.010 A 
ATOM     30  C   UNL A   1      36.761  30.340  28.808  1.00  0.00    -0.014 A 
BRANCH  30  31
ATOM     31  C   UNL A   1      38.038  30.124  29.545  1.00  0.00     0.031 A 
ATOM     32  C   UNL A   1      39.098  29.216  28.977  1.00  0.00     0.074 A 
ATOM     33  C   UNL A   1      38.219  30.673  30.764  1.00  0.00     0.049 A 
ATOM     34  N   UNL A   1      40.158  28.715  29.559  1.00  0.00    -0.248 NA
ATOM     35  C   UNL A   1      38.936  28.802  27.573  1.00  0.00     0.031 C 
ATOM     36  C   UNL A   1      37.278  31.570  31.438  1.00  0.00     0.029 A 
ATOM     37  N   UNL A   1      39.240  30.523  31.672  1.00  0.00    -0.354 N 
ATOM     38  C   UNL A   1      40.746  27.873  28.622  1.00  0.00     0.074 A 
ATOM     39  C   UNL A   1      39.932  27.939  27.426  1.00  0.00     0.031 C 
ATOM     40  C   UNL A   1      37.759  31.883  32.651  1.00  0.00     0.029 A 
ATOM     41  C   UNL A   1      39.003  31.154  32.872  1.00  0.00     0.049 A 
ATOM     42  H   UNL A   1      40.062  30.015  31.481  1.00  0.00     0.167 HD
ATOM     43  C   UNL A   1      41.866  27.119  28.743  1.00  0.00     0.034 A 
ATOM     44  C   UNL A   1      39.675  31.114  34.039  1.00  0.00     0.034 A 
ATOM     45  C   UNL A   1      42.711  27.103  29.908  1.00  0.00     0.049 A 
ATOM     46  C   UNL A   1      40.919  30.279  34.144  1.00  0.00     0.074 A 
ATOM     47  C   UNL A   1      43.898  26.416  30.100  1.00  0.00     0.029 A 
ATOM     48  N   UNL A   1      42.470  27.814  31.072  1.00  0.00    -0.354 N 
ATOM     49  N   UNL A   1      41.497  29.543  33.227  1.00  0.00    -0.248 NA
ATOM     50  C   UNL A   1      41.613  30.280  35.440  1.00  0.00     0.031 C 
ATOM     51  C   UNL A   1      44.369  26.706  31.386  1.00  0.00     0.029 A 
ATOM     52  C   UNL A   1      43.482  27.582  31.989  1.00  0.00     0.049 A 
ATOM     53  H   UNL A   1      41.692  28.398  31.226  1.00  0.00     0.167 HD
ATOM     54  C   UNL A   1      42.631  29.009  33.826  1.00  0.00     0.074 A 
ATOM     55  C   UNL A   1      42.675  29.529  35.178  1.00  0.00     0.031 C 
ATOM     56  C   UNL A   1      43.542  28.148  33.311  1.00  0.00     0.034 A 
BRANCH  43  57
ATOM     57  C   UNL A   1      42.273  26.268  27.567  1.00  0.00     0.023 A 
ATOM     58  C   UNL A   1      43.072  26.825  26.550  1.00  0.00     0.012 A 
ATOM     59  C   UNL A   1      41.928  24.903  27.506  1.00  0.00     0.148 A 
ATOM     60  C   UNL A   1      43.501  26.045  25.476  1.00  0.00     0.002 A 
ATOM     61  C   UNL A   1      42.392  24.121  26.452  1.00  0.00     0.091 A 
ATOM     62  F   UNL A   1      41.148  24.394  28.471  1.00  0.00    -0.205 F 
ATOM     63  C   UNL A   1      43.170  24.692  25.434  1.00  0.00     0.022 A 
BRANCH  61  64
ATOM     64  S   UNL A   1      42.082  22.354  26.354  1.00  0.00     0.127 S 
ATOM     65  O   UNL A   1      42.737  21.871  27.567  1.00  0.00    -0.237 OA
ATOM     66  O   UNL A   1      40.620  22.291  26.386  1.00  0.00    -0.237 OA
ATOM     67  O   UNL A   1      42.676  21.914  25.099  1.00  0.00    -0.744 OA
ENDBRANCH  61  64
ENDBRANCH  43  57
BRANCH  44  68
ATOM     68  C   UNL A   1      39.183  31.913  35.198  1.00  0.00     0.023 A 
ATOM     69  C   UNL A   1      38.293  31.323  36.114  1.00  0.00     0.012 A 
ATOM     70  C   UNL A   1      39.638  33.226  35.430  1.00  0.00     0.148 A 
ATOM     71  C   UNL A   1      37.854  32.030  37.234  1.00  0.00     0.002 A 
ATOM     72  C   UNL A   1      39.243  33.903  36.578  1.00  0.00     0.091 A 
ATOM     73  F   UNL A   1      40.464  33.782  34.533  1.00  0.00    -0.205 F 
ATOM     74  C   UNL A   1      38.340  33.312  37.474  1.00  0.00     0.022 A 
BRANCH  72  75
ATOM     75  S   UNL A   1      39.943  35.494  37.035  1.00  0.00     0.127 S 
ATOM     76  O   UNL A   1      41.359  35.169  37.178  1.00  0.00    -0.237 OA
ATOM     77  O   UNL A   1      39.615  36.319  35.872  1.00  0.00    -0.237 OA
ATOM     78  O   UNL A   1      39.251  35.885  38.256  1.00  0.00    -0.744 OA
ENDBRANCH  72  75
ENDBRANCH  44  68
BRANCH  56  79
ATOM     79  C   UNL A   1      44.680  27.726  34.202  1.00  0.00     0.023 A 
ATOM     80  C   UNL A   1      45.887  28.452  34.177  1.00  0.00     0.012 A 
ATOM     81  C   UNL A   1      44.534  26.657  35.108  1.00  0.00     0.148 A 
ATOM     82  C   UNL A   1      46.941  28.105  35.021  1.00  0.00     0.002 A 
ATOM     83  C   UNL A   1      45.574  26.341  35.974  1.00  0.00     0.091 A 
ATOM     84  F   UNL A   1      43.386  25.963  35.100  1.00  0.00    -0.205 F 
ATOM     85  C   UNL A   1      46.780  27.058  35.926  1.00  0.00     0.022 A 
BRANCH  83  86
ATOM     86  S   UNL A   1      45.422  25.062  37.226  1.00  0.00     0.127 S 
ATOM     87  O   UNL A   1      44.290  25.547  38.013  1.00  0.00    -0.237 OA
ATOM     88  O   UNL A   1      45.142  23.870  36.426  1.00  0.00    -0.237 OA
ATOM     89  O   UNL A   1      46.702  25.031  37.921  1.00  0.00    -0.744 OA
ENDBRANCH  83  86
ENDBRANCH  56  79
ENDBRANCH  30  31
ENDBRANCH  23  25
ENDBRANCH  22  23
ENDBRANCH  21  22
ENDBRANCH   1  21
TORSDOF 18
ENDMDL
MODEL 2
REMARK VINA RESULT:     -10.6      1.496      2.285
REMARK SMILES CC(C)C[NH+]1CC[NH+]([C@H](C)[C@@H](C)C(=O)OCCOC(=O)c2ccc(-c3c4nc(c(-c5cccc(S(=O)(=O)[O-])c5F)c5ccc([nH]5)c(-c5cccc(S(=O)(=O)[O-])c5F)c5nc(c(-c6cccc(S(=O)(=O)[O-])c6F)c6ccc3[nH]6)C=C5)C=C4)cc2)CC1
REMARK SMILES IDX 16 1 15 2 13 3 14 4 11 5 12 6 9 7 10 8 8 9 5 10 6 11 85 12
REMARK SMILES IDX 7 14 84 15 4 17 2 18 1 19 3 20 17 21 18 22 19 23 20 24 21 25
REMARK SMILES IDX 22 26 83 27 23 28 82 29 24 30 25 31 26 32 76 33 27 34 81 35
REMARK SMILES IDX 75 36 77 37 28 38 80 39 74 40 73 41 29 43 61 44 41 45 60 46
REMARK SMILES IDX 42 47 45 48 59 49 78 50 43 51 44 52 58 54 79 55 46 56 30 57
REMARK SMILES IDX 31 58 39 59 32 60 34 61 40 62 33 63 35 64 36 65 37 66 38 67
REMARK SMILES IDX 62 68 63 69 71 70 64 71 66 72 72 73 65 74 67 75 68 76 69 77
REMARK SMILES IDX 70 78 47 79 48 80 56 81 49 82 51 83 57 84 50 85 52 86 53 87
REMARK SMILES IDX 54 88 55 89
REMARK H PARENT 5 13 8 16 77 42 45 53
REMARK Flexibility Score: inf
ROOT
ATOM      1  C   UNL A   1      31.728  28.981  27.330  1.00  0.00     0.274 C 
ENDROOT
BRANCH   1   2
ATOM      2  O   UNL A   1      32.539  27.793  27.267  1.00  0.00    -0.462 OA
BRANCH   2   3
ATOM      3  C   UNL A   1      31.999  26.766  26.558  1.00  0.00     0.314 C 
ATOM      4  O   UNL A   1      30.806  26.476  26.564  1.00  0.00    -0.252 OA
BRANCH   3   5
ATOM      5  C   UNL A   1      33.023  25.912  25.832  1.00  0.00     0.154 C 
ATOM      6  C   UNL A   1      33.659  26.834  24.784  1.00  0.00     0.026 C 
BRANCH   5   7
ATOM      7  C   UNL A   1      32.471  24.572  25.254  1.00  0.00     0.195 C 
ATOM      8  C   UNL A   1      32.067  24.731  23.774  1.00  0.00     0.076 C 
BRANCH   7   9
ATOM      9  N   UNL A   1      33.389  23.420  25.496  1.00  0.00    -0.323 N 
ATOM     10  N   UNL A   1      33.883  20.485  25.887  1.00  0.00    -0.325 N 
ATOM     11  C   UNL A   1      34.376  21.239  24.739  1.00  0.00     0.324 C 
ATOM     12  C   UNL A   1      33.741  21.344  27.055  1.00  0.00     0.324 C 
ATOM     13  H   UNL A   1      34.595  19.834  26.218  1.00  0.00     0.348 HD
ATOM     14  C   UNL A   1      33.461  22.431  24.404  1.00  0.00     0.324 C 
ATOM     15  C   UNL A   1      33.174  22.780  26.818  1.00  0.00     0.324 C 
ATOM     16  H   UNL A   1      34.314  23.848  25.511  1.00  0.00     0.348 HD
BRANCH  10  17
ATOM     17  C   UNL A   1      32.938  19.413  25.587  1.00  0.00     0.265 C 
BRANCH  17  18
ATOM     18  C   UNL A   1      33.317  18.186  24.725  1.00  0.00     0.038 C 
ATOM     19  C   UNL A   1      32.997  16.852  25.385  1.00  0.00     0.013 C 
ATOM     20  C   UNL A   1      32.548  18.236  23.397  1.00  0.00     0.013 C 
ENDBRANCH  17  18
ENDBRANCH  10  17
ENDBRANCH   7   9
ENDBRANCH   5   7
ENDBRANCH   3   5
ENDBRANCH   2   3
ENDBRANCH   1   2
BRANCH   1  21
ATOM     21  C   UNL A   1      32.078  29.929  26.184  1.00  0.00     0.275 C 
BRANCH  21  22
ATOM     22  O   UNL A   1      33.439  30.365  26.318  1.00  0.00    -0.458 OA
BRANCH  22  23
ATOM     23  C   UNL A   1      33.644  31.362  27.210  1.00  0.00     0.338 C 
ATOM     24  O   UNL A   1      32.926  32.328  27.394  1.00  0.00    -0.246 OA
BRANCH  23  25
ATOM     25  C   UNL A   1      34.915  31.139  27.937  1.00  0.00     0.060 A 
ATOM     26  C   UNL A   1      35.904  32.124  28.007  1.00  0.00     0.016 A 
ATOM     27  C   UNL A   1      35.157  29.880  28.485  1.00  0.00     0.016 A 
ATOM     28  C   UNL A   1      37.154  31.831  28.559  1.00  0.00     0.010 A 
ATOM     29  C   UNL A   1      36.375  29.617  29.116  1.00  0.00     0.010 A 
ATOM     30  C   UNL A   1      37.401  30.578  29.137  1.00  0.00    -0.014 A 
BRANCH  30  31
ATOM     31  C   UNL A   1      38.708  30.250  29.774  1.00  0.00     0.031 A 
ATOM     32  C   UNL A   1      39.631  29.242  29.138  1.00  0.00     0.074 A 
ATOM     33  C   UNL A   1      39.035  30.788  30.967  1.00  0.00     0.049 A 
ATOM     34  N   UNL A   1      40.684  28.650  29.641  1.00  0.00    -0.248 NA
ATOM     35  C   UNL A   1      39.320  28.835  27.757  1.00  0.00     0.031 C 
ATOM     36  C   UNL A   1      38.238  31.774  31.699  1.00  0.00     0.029 A 
ATOM     37  N   UNL A   1      40.108  30.551  31.793  1.00  0.00    -0.354 N 
ATOM     38  C   UNL A   1      41.115  27.749  28.674  1.00  0.00     0.074 A 
ATOM     39  C   UNL A   1      40.218  27.882  27.545  1.00  0.00     0.031 C 
ATOM     40  C   UNL A   1      38.841  32.050  32.865  1.00  0.00     0.029 A 
ATOM     41  C   UNL A   1      40.027  31.210  32.999  1.00  0.00     0.049 A 
ATOM     42  H   UNL A   1      40.862  29.968  31.546  1.00  0.00     0.167 HD
ATOM     43  C   UNL A   1      42.167  26.895  28.716  1.00  0.00     0.034 A 
ATOM     44  C   UNL A   1      40.783  31.117  34.109  1.00  0.00     0.034 A 
ATOM     45  C   UNL A   1      43.098  26.810  29.811  1.00  0.00     0.049 A 
ATOM     46  C   UNL A   1      41.950  30.171  34.128  1.00  0.00     0.074 A 
ATOM     47  C   UNL A   1      44.228  26.017  29.920  1.00  0.00     0.029 A 
ATOM     48  N   UNL A   1      43.016  27.549  30.981  1.00  0.00    -0.354 N 
ATOM     49  N   UNL A   1      42.382  29.378  33.179  1.00  0.00    -0.248 NA
ATOM     50  C   UNL A   1      42.742  30.117  35.366  1.00  0.00     0.031 C 
ATOM     51  C   UNL A   1      44.825  26.272  31.160  1.00  0.00     0.029 A 
ATOM     52  C   UNL A   1      44.073  27.232  31.818  1.00  0.00     0.049 A 
ATOM     53  H   UNL A   1      42.311  28.205  31.186  1.00  0.00     0.167 HD
ATOM     54  C   UNL A   1      43.507  28.745  33.695  1.00  0.00     0.074 A 
ATOM     55  C   UNL A   1      43.706  29.268  35.032  1.00  0.00     0.031 C 
ATOM     56  C   UNL A   1      44.291  27.799  33.123  1.00  0.00     0.034 A 
BRANCH  43  57
ATOM     57  C   UNL A   1      42.398  26.002  27.525  1.00  0.00     0.023 A 
ATOM     58  C   UNL A   1      43.106  26.497  26.412  1.00  0.00     0.012 A 
ATOM     59  C   UNL A   1      41.983  24.655  27.538  1.00  0.00     0.148 A 
ATOM     60  C   UNL A   1      43.373  25.674  25.318  1.00  0.00     0.002 A 
ATOM     61  C   UNL A   1      42.287  23.830  26.459  1.00  0.00     0.091 A 
ATOM     62  F   UNL A   1      41.292  24.206  28.595  1.00  0.00    -0.205 F 
ATOM     63  C   UNL A   1      42.975  24.340  25.347  1.00  0.00     0.022 A 
BRANCH  61  64
ATOM     64  S   UNL A   1      41.883  22.079  26.441  1.00  0.00     0.127 S 
ATOM     65  O   UNL A   1      40.426  22.113  26.345  1.00  0.00    -0.237 OA
ATOM     66  O   UNL A   1      42.563  21.615  25.231  1.00  0.00    -0.237 OA
ATOM     67  O   UNL A   1      42.421  21.533  27.680  1.00  0.00    -0.744 OA
ENDBRANCH  61  64
ENDBRANCH  43  57
BRANCH  44  68
ATOM     68  C   UNL A   1      40.461  31.967  35.291  1.00  0.00     0.023 A 
ATOM     69  C   UNL A   1      41.247  33.104  35.558  1.00  0.00     0.012 A 
ATOM     70  C   UNL A   1      39.350  31.692  36.112  1.00  0.00     0.148 A 
ATOM     71  C   UNL A   1      40.940  33.945  36.628  1.00  0.00     0.002 A 
ATOM     72  C   UNL A   1      39.015  32.566  37.140  1.00  0.00     0.091 A 
ATOM     73  F   UNL A   1      38.629  30.591  35.861  1.00  0.00    -0.205 F 
ATOM     74  C   UNL A   1      39.817  33.685  37.408  1.00  0.00     0.022 A 
BRANCH  72  75
ATOM     75  S   UNL A   1      37.501  32.384  38.091  1.00  0.00     0.127 S 
ATOM     76  O   UNL A   1      36.512  32.979  37.196  1.00  0.00    -0.237 OA
ATOM     77  O   UNL A   1      37.404  30.932  38.239  1.00  0.00    -0.237 OA
ATOM     78  O   UNL A   1      37.741  33.095  39.340  1.00  0.00    -0.744 OA
ENDBRANCH  72  75
ENDBRANCH  44  68
BRANCH  56  79
ATOM     79  C   UNL A   1      45.452  27.280  33.927  1.00  0.00     0.023 A 
ATOM     80  C   UNL A   1      46.687  27.957  33.879  1.00  0.00     0.012 A 
ATOM     81  C   UNL A   1      45.306  26.167  34.778  1.00  0.00     0.148 A 
ATOM     82  C   UNL A   1      47.766  27.518  34.646  1.00  0.00     0.002 A 
ATOM     83  C   UNL A   1      46.374  25.759  35.569  1.00  0.00     0.091 A 
ATOM     84  F   UNL A   1      44.129  25.522  34.792  1.00  0.00    -0.205 F 
ATOM     85  C   UNL A   1      47.606  26.428  35.497  1.00  0.00     0.022 A 
BRANCH  83  86
ATOM     86  S   UNL A   1      46.229  24.416  36.753  1.00  0.00     0.127 S 
ATOM     87  O   UNL A   1      46.241  23.245  35.880  1.00  0.00    -0.237 OA
ATOM     88  O   UNL A   1      47.434  24.583  37.567  1.00  0.00    -0.237 OA
ATOM     89  O   UNL A   1      44.984  24.652  37.472  1.00  0.00    -0.744 OA
ENDBRANCH  83  86
ENDBRANCH  56  79
ENDBRANCH  30  31
ENDBRANCH  23  25
ENDBRANCH  22  23
ENDBRANCH  21  22
ENDBRANCH   1  21
TORSDOF 18
ENDMDL
MODEL 3
REMARK VINA RESULT:     -10.4      4.836      9.981
REMARK SMILES CC(C)C[NH+]1CC[NH+]([C@H](C)[C@@H](C)C(=O)OCCOC(=O)c2ccc(-c3c4nc(c(-c5cccc(S(=O)(=O)[O-])c5F)c5ccc([nH]5)c(-c5cccc(S(=O)(=O)[O-])c5F)c5nc(c(-c6cccc(S(=O)(=O)[O-])c6F)c6ccc3[nH]6)C=C5)C=C4)cc2)CC1
REMARK SMILES IDX 16 1 15 2 13 3 14 4 11 5 12 6 9 7 10 8 8 9 5 10 6 11 85 12
REMARK SMILES IDX 7 14 84 15 4 17 2 18 1 19 3 20 17 21 18 22 19 23 20 24 21 25
REMARK SMILES IDX 22 26 83 27 23 28 82 29 24 30 25 31 26 32 76 33 27 34 81 35
REMARK SMILES IDX 75 36 77 37 28 38 80 39 74 40 73 41 29 43 61 44 41 45 60 46
REMARK SMILES IDX 42 47 45 48 59 49 78 50 43 51 44 52 58 54 79 55 46 56 30 57
REMARK SMILES IDX 31 58 39 59 32 60 34 61 40 62 33 63 35 64 36 65 37 66 38 67
REMARK SMILES IDX 62 68 63 69 71 70 64 71 66 72 72 73 65 74 67 75 68 76 69 77
REMARK SMILES IDX 70 78 47 79 48 80 56 81 49 82 51 83 57 84 50 85 52 86 53 87
REMARK SMILES IDX 54 88 55 89
REMARK H PARENT 5 13 8 16 77 42 45 53
REMARK Flexibility Score: inf
ROOT
ATOM      1  C   UNL A   1      34.687  20.767  25.073  1.00  0.00     0.274 C 
ENDROOT
BRANCH   1   2
ATOM      2  O   UNL A   1      34.111  22.048  25.391  1.00  0.00    -0.462 OA
BRANCH   2   3
ATOM      3  C   UNL A   1      32.753  22.090  25.362  1.00  0.00     0.314 C 
ATOM      4  O   UNL A   1      32.030  21.097  25.369  1.00  0.00    -0.252 OA
BRANCH   3   5
ATOM      5  C   UNL A   1      32.182  23.488  25.200  1.00  0.00     0.154 C 
ATOM      6  C   UNL A   1      30.873  23.494  26.001  1.00  0.00     0.026 C 
BRANCH   5   7
ATOM      7  C   UNL A   1      32.031  23.971  23.725  1.00  0.00     0.195 C 
ATOM      8  C   UNL A   1      30.582  23.790  23.227  1.00  0.00     0.076 C 
BRANCH   7   9
ATOM      9  N   UNL A   1      32.559  25.351  23.513  1.00  0.00    -0.323 N 
ATOM     10  N   UNL A   1      32.426  28.317  23.953  1.00  0.00    -0.325 N 
ATOM     11  C   UNL A   1      33.509  27.476  24.453  1.00  0.00     0.324 C 
ATOM     12  C   UNL A   1      31.839  27.750  22.746  1.00  0.00     0.324 C 
ATOM     13  H   UNL A   1      32.797  29.195  23.587  1.00  0.00     0.348 HD
ATOM     14  C   UNL A   1      33.033  26.038  24.729  1.00  0.00     0.324 C 
ATOM     15  C   UNL A   1      31.645  26.200  22.708  1.00  0.00     0.324 C 
ATOM     16  H   UNL A   1      33.404  25.203  22.960  1.00  0.00     0.348 HD
BRANCH  10  17
ATOM     17  C   UNL A   1      31.624  28.995  24.967  1.00  0.00     0.265 C 
BRANCH  17  18
ATOM     18  C   UNL A   1      32.222  30.033  25.945  1.00  0.00     0.038 C 
ATOM     19  C   UNL A   1      31.354  31.269  26.132  1.00  0.00     0.013 C 
ATOM     20  C   UNL A   1      32.405  29.388  27.327  1.00  0.00     0.013 C 
ENDBRANCH  17  18
ENDBRANCH  10  17
ENDBRANCH   7   9
ENDBRANCH   5   7
ENDBRANCH   3   5
ENDBRANCH   2   3
ENDBRANCH   1   2
BRANCH   1  21
ATOM     21  C   UNL A   1      36.168  20.917  24.729  1.00  0.00     0.275 C 
BRANCH  21  22
ATOM     22  O   UNL A   1      36.867  21.489  25.845  1.00  0.00    -0.458 OA
BRANCH  22  23
ATOM     23  C   UNL A   1      38.208  21.311  25.842  1.00  0.00     0.338 C 
ATOM     24  O   UNL A   1      38.806  20.316  25.471  1.00  0.00    -0.246 OA
BRANCH  23  25
ATOM     25  C   UNL A   1      38.880  22.508  26.397  1.00  0.00     0.060 A 
ATOM     26  C   UNL A   1      38.439  23.801  26.105  1.00  0.00     0.016 A 
ATOM     27  C   UNL A   1      40.036  22.331  27.157  1.00  0.00     0.016 A 
ATOM     28  C   UNL A   1      39.186  24.911  26.509  1.00  0.00     0.010 A 
ATOM     29  C   UNL A   1      40.733  23.443  27.636  1.00  0.00     0.010 A 
ATOM     30  C   UNL A   1      40.335  24.747  27.296  1.00  0.00    -0.014 A 
BRANCH  30  31
ATOM     31  C   UNL A   1      41.127  25.912  27.781  1.00  0.00     0.031 A 
ATOM     32  C   UNL A   1      40.467  26.989  28.604  1.00  0.00     0.074 A 
ATOM     33  C   UNL A   1      42.418  26.053  27.418  1.00  0.00     0.049 A 
ATOM     34  N   UNL A   1      40.911  28.179  28.918  1.00  0.00    -0.248 NA
ATOM     35  C   UNL A   1      39.124  26.694  29.131  1.00  0.00     0.031 C 
ATOM     36  C   UNL A   1      43.185  25.092  26.623  1.00  0.00     0.029 A 
ATOM     37  N   UNL A   1      43.304  27.082  27.636  1.00  0.00    -0.354 N 
ATOM     38  C   UNL A   1      39.878  28.802  29.611  1.00  0.00     0.074 A 
ATOM     39  C   UNL A   1      38.788  27.852  29.684  1.00  0.00     0.031 C 
ATOM     40  C   UNL A   1      44.418  25.577  26.413  1.00  0.00     0.029 A 
ATOM     41  C   UNL A   1      44.509  26.913  26.992  1.00  0.00     0.049 A 
ATOM     42  H   UNL A   1      43.096  27.862  28.199  1.00  0.00     0.167 HD
ATOM     43  C   UNL A   1      39.842  30.047  30.144  1.00  0.00     0.034 A 
ATOM     44  C   UNL A   1      45.552  27.750  26.836  1.00  0.00     0.034 A 
ATOM     45  C   UNL A   1      40.949  30.968  30.129  1.00  0.00     0.049 A 
ATOM     46  C   UNL A   1      45.493  29.122  27.446  1.00  0.00     0.074 A 
ATOM     47  C   UNL A   1      41.027  32.229  30.694  1.00  0.00     0.029 A 
ATOM     48  N   UNL A   1      42.174  30.725  29.528  1.00  0.00    -0.354 N 
ATOM     49  N   UNL A   1      44.535  29.667  28.155  1.00  0.00    -0.248 NA
ATOM     50  C   UNL A   1      46.663  29.989  27.247  1.00  0.00     0.031 C 
ATOM     51  C   UNL A   1      42.298  32.751  30.428  1.00  0.00     0.029 A 
ATOM     52  C   UNL A   1      43.015  31.811  29.707  1.00  0.00     0.049 A 
ATOM     53  H   UNL A   1      42.412  29.900  29.045  1.00  0.00     0.167 HD
ATOM     54  C   UNL A   1      44.993  30.932  28.504  1.00  0.00     0.074 A 
ATOM     55  C   UNL A   1      46.327  31.062  27.952  1.00  0.00     0.031 C 
ATOM     56  C   UNL A   1      44.358  31.907  29.199  1.00  0.00     0.034 A 
BRANCH  43  57
ATOM     57  C   UNL A   1      38.573  30.484  30.830  1.00  0.00     0.023 A 
ATOM     58  C   UNL A   1      38.408  30.238  32.207  1.00  0.00     0.012 A 
ATOM     59  C   UNL A   1      37.582  31.202  30.131  1.00  0.00     0.148 A 
ATOM     60  C   UNL A   1      37.263  30.676  32.873  1.00  0.00     0.002 A 
ATOM     61  C   UNL A   1      36.461  31.668  30.811  1.00  0.00     0.091 A 
ATOM     62  F   UNL A   1      37.745  31.408  28.816  1.00  0.00    -0.205 F 
ATOM     63  C   UNL A   1      36.297  31.400  32.178  1.00  0.00     0.022 A 
BRANCH  61  64
ATOM     64  S   UNL A   1      35.202  32.676  30.016  1.00  0.00     0.127 S 
ATOM     65  O   UNL A   1      34.723  31.778  28.968  1.00  0.00    -0.237 OA
ATOM     66  O   UNL A   1      34.251  32.902  31.106  1.00  0.00    -0.237 OA
ATOM     67  O   UNL A   1      35.886  33.876  29.555  1.00  0.00    -0.744 OA
ENDBRANCH  61  64
ENDBRANCH  43  57
BRANCH  44  68
ATOM     68  C   UNL A   1      46.753  27.295  26.078  1.00  0.00     0.023 A 
ATOM     69  C   UNL A   1      46.862  27.604  24.710  1.00  0.00     0.012 A 
ATOM     70  C   UNL A   1      47.810  26.616  26.716  1.00  0.00     0.148 A 
ATOM     71  C   UNL A   1      47.996  27.234  23.986  1.00  0.00     0.002 A 
ATOM     72  C   UNL A   1      48.961  26.303  26.004  1.00  0.00     0.091 A 
ATOM     73  F   UNL A   1      47.677  26.306  28.013  1.00  0.00    -0.205 F 
ATOM     74  C   UNL A   1      49.051  26.598  24.636  1.00  0.00     0.022 A 
BRANCH  72  75
ATOM     75  S   UNL A   1      50.420  25.623  26.802  1.00  0.00     0.127 S 
ATOM     76  O   UNL A   1      51.332  25.459  25.672  1.00  0.00    -0.237 OA
ATOM     77  O   UNL A   1      50.784  26.687  27.737  1.00  0.00    -0.237 OA
ATOM     78  O   UNL A   1      49.972  24.394  27.444  1.00  0.00    -0.744 OA
ENDBRANCH  72  75
ENDBRANCH  44  68
BRANCH  56  79
ATOM     79  C   UNL A   1      45.102  33.196  29.425  1.00  0.00     0.023 A 
ATOM     80  C   UNL A   1      45.922  33.334  30.563  1.00  0.00     0.012 A 
ATOM     81  C   UNL A   1      45.043  34.241  28.483  1.00  0.00     0.148 A 
ATOM     82  C   UNL A   1      46.651  34.503  30.773  1.00  0.00     0.002 A 
ATOM     83  C   UNL A   1      45.804  35.389  28.679  1.00  0.00     0.091 A 
ATOM     84  F   UNL A   1      44.239  34.100  27.418  1.00  0.00    -0.205 F 
ATOM     85  C   UNL A   1      46.601  35.524  29.827  1.00  0.00     0.022 A 
BRANCH  83  86
ATOM     86  S   UNL A   1      45.861  36.716  27.471  1.00  0.00     0.127 S 
ATOM     87  O   UNL A   1      44.474  37.175  27.465  1.00  0.00    -0.237 OA
ATOM     88  O   UNL A   1      46.811  37.652  28.076  1.00  0.00    -0.237 OA
ATOM     89  O   UNL A   1      46.327  36.107  26.232  1.00  0.00    -0.744 OA
ENDBRANCH  83  86
ENDBRANCH  56  79
ENDBRANCH  30  31
ENDBRANCH  23  25
ENDBRANCH  22  23
ENDBRANCH  21  22
ENDBRANCH   1  21
TORSDOF 18
ENDMDL
