MODEL 1
REMARK VINA RESULT:     -12.2      0.000      0.000
REMARK SMILES COc1cc(C)cc2c1O[C@H](C(F)(F)F)C(C(=O)OCCOC(=O)c1ccc(-c3c4nc(c(-c5cccc(S(=O)(=O)[O-])c5F)c5ccc([nH]5)c(-c5cccc(S(=O)(=O)[O-])c5F)c5nc(c(-c6cccc(S(=O)(=O)[O-])c6F)c6ccc3[nH]6)C=C5)C=C4)cc1)=C2
REMARK SMILES IDX 21 1 20 2 19 3 17 4 18 5 16 6 3 7 4 8 9 9 5 10 8 11 10 12
REMARK SMILES IDX 6 13 7 14 88 15 11 16 2 17 1 18 12 19 13 20 14 21 15 22
REMARK SMILES IDX 22 23 23 24 24 25 25 26 26 27 87 28 27 29 86 30 28 31 29 32
REMARK SMILES IDX 30 33 80 34 31 35 85 36 79 37 81 38 32 39 84 40 78 41 77 42
REMARK SMILES IDX 33 44 65 45 45 46 64 47 46 48 49 49 63 50 82 51 47 52 48 53
REMARK SMILES IDX 62 55 83 56 50 57 34 58 35 59 43 60 36 61 38 62 44 63 37 64
REMARK SMILES IDX 39 65 40 66 41 67 42 68 66 69 67 70 75 71 68 72 70 73 76 74
REMARK SMILES IDX 69 75 71 76 72 77 73 78 74 79 51 80 52 81 60 82 53 83 55 84
REMARK SMILES IDX 61 85 54 86 56 87 57 88 58 89 59 90
REMARK H PARENT 81 43 49 54
REMARK Flexibility Score: inf
ROOT
ATOM      1  C   UNL A   1      31.777  30.452  25.783  1.00  0.00     0.275 C 
ENDROOT
BRANCH   1   2
ATOM      2  C   UNL A   1      31.414  29.134  25.098  1.00  0.00     0.275 C 
BRANCH   2   3
ATOM      3  O   UNL A   1      32.314  28.070  25.482  1.00  0.00    -0.459 OA
BRANCH   3   4
ATOM      4  C   UNL A   1      31.782  27.123  26.291  1.00  0.00     0.338 C 
ATOM      5  O   UNL A   1      31.026  27.315  27.230  1.00  0.00    -0.246 OA
BRANCH   4   6
ATOM      6  C   UNL A   1      32.222  25.778  25.876  1.00  0.00     0.087 C 
ATOM      7  C   UNL A   1      33.604  22.150  24.309  1.00  0.00     0.161 A 
ATOM      8  C   UNL A   1      34.987  21.908  24.276  1.00  0.00     0.054 A 
ATOM      9  C   UNL A   1      33.114  23.337  24.868  1.00  0.00     0.169 A 
ATOM     10  C   UNL A   1      35.886  22.819  24.841  1.00  0.00    -0.047 A 
ATOM     11  C   UNL A   1      34.012  24.255  25.406  1.00  0.00     0.021 A 
ATOM     12  O   UNL A   1      31.757  23.532  24.884  1.00  0.00    -0.471 OA
ATOM     13  C   UNL A   1      37.370  22.589  24.815  1.00  0.00     0.044 C 
ATOM     14  C   UNL A   1      35.387  23.991  25.412  1.00  0.00     0.015 A 
ATOM     15  C   UNL A   1      33.531  25.518  25.922  1.00  0.00     0.027 C 
ATOM     16  C   UNL A   1      31.221  24.818  25.302  1.00  0.00     0.316 C 
BRANCH   7  17
ATOM     17  O   UNL A   1      32.682  21.305  23.742  1.00  0.00    -0.493 OA
ATOM     18  C   UNL A   1      32.750  19.962  24.205  1.00  0.00     0.278 C 
ENDBRANCH   7  17
BRANCH  16  19
ATOM     19  C   UNL A   1      30.462  25.440  24.118  1.00  0.00     0.430 C 
ATOM     20  F   UNL A   1      31.286  26.172  23.329  1.00  0.00    -0.167 F 
ATOM     21  F   UNL A   1      29.925  24.486  23.317  1.00  0.00    -0.167 F 
ATOM     22  F   UNL A   1      29.454  26.247  24.514  1.00  0.00    -0.167 F 
ENDBRANCH  16  19
ENDBRANCH   4   6
ENDBRANCH   3   4
ENDBRANCH   2   3
ENDBRANCH   1   2
BRANCH   1  23
ATOM     23  O   UNL A   1      32.814  30.244  26.756  1.00  0.00    -0.458 OA
BRANCH  23  24
ATOM     24  C   UNL A   1      33.420  31.366  27.207  1.00  0.00     0.338 C 
ATOM     25  O   UNL A   1      32.947  32.486  27.280  1.00  0.00    -0.246 OA
BRANCH  24  26
ATOM     26  C   UNL A   1      34.763  31.026  27.701  1.00  0.00     0.060 A 
ATOM     27  C   UNL A   1      35.700  32.007  27.999  1.00  0.00     0.016 A 
ATOM     28  C   UNL A   1      35.030  29.696  28.001  1.00  0.00     0.016 A 
ATOM     29  C   UNL A   1      36.914  31.630  28.588  1.00  0.00     0.010 A 
ATOM     30  C   UNL A   1      36.164  29.346  28.725  1.00  0.00     0.010 A 
ATOM     31  C   UNL A   1      37.149  30.299  28.995  1.00  0.00    -0.014 A 
BRANCH  31  32
ATOM     32  C   UNL A   1      38.409  29.899  29.687  1.00  0.00     0.031 A 
ATOM     33  C   UNL A   1      38.721  30.379  31.090  1.00  0.00     0.074 A 
ATOM     34  C   UNL A   1      39.315  29.138  29.037  1.00  0.00     0.049 A 
ATOM     35  N   UNL A   1      39.765  30.114  31.835  1.00  0.00    -0.248 NA
ATOM     36  C   UNL A   1      37.769  31.307  31.726  1.00  0.00     0.031 C 
ATOM     37  C   UNL A   1      39.216  28.710  27.639  1.00  0.00     0.029 A 
ATOM     38  N   UNL A   1      40.495  28.579  29.467  1.00  0.00    -0.354 N 
ATOM     39  C   UNL A   1      39.619  30.879  32.988  1.00  0.00     0.074 A 
ATOM     40  C   UNL A   1      38.413  31.655  32.831  1.00  0.00     0.031 C 
ATOM     41  C   UNL A   1      40.246  27.900  27.350  1.00  0.00     0.029 A 
ATOM     42  C   UNL A   1      41.096  27.771  28.529  1.00  0.00     0.049 A 
ATOM     43  H   UNL A   1      40.874  28.742  30.361  1.00  0.00     0.167 HD
ATOM     44  C   UNL A   1      40.386  30.898  34.103  1.00  0.00     0.034 A 
ATOM     45  C   UNL A   1      42.190  26.991  28.613  1.00  0.00     0.034 A 
ATOM     46  C   UNL A   1      41.515  30.038  34.316  1.00  0.00     0.049 A 
ATOM     47  C   UNL A   1      42.952  26.924  29.905  1.00  0.00     0.074 A 
ATOM     48  C   UNL A   1      42.272  29.885  35.465  1.00  0.00     0.029 A 
ATOM     49  N   UNL A   1      42.035  29.170  33.371  1.00  0.00    -0.354 N 
ATOM     50  N   UNL A   1      42.708  27.546  31.032  1.00  0.00    -0.248 NA
ATOM     51  C   UNL A   1      44.121  26.033  29.949  1.00  0.00     0.031 C 
ATOM     52  C   UNL A   1      43.249  28.918  35.215  1.00  0.00     0.029 A 
ATOM     53  C   UNL A   1      43.099  28.471  33.912  1.00  0.00     0.049 A 
ATOM     54  H   UNL A   1      41.697  29.066  32.453  1.00  0.00     0.167 HD
ATOM     55  C   UNL A   1      43.682  27.113  31.924  1.00  0.00     0.074 A 
ATOM     56  C   UNL A   1      44.507  26.160  31.213  1.00  0.00     0.031 C 
ATOM     57  C   UNL A   1      43.881  27.490  33.209  1.00  0.00     0.034 A 
BRANCH  44  58
ATOM     58  C   UNL A   1      39.971  31.799  35.237  1.00  0.00     0.023 A 
ATOM     59  C   UNL A   1      40.423  33.135  35.250  1.00  0.00     0.012 A 
ATOM     60  C   UNL A   1      39.066  31.363  36.224  1.00  0.00     0.148 A 
ATOM     61  C   UNL A   1      39.999  34.017  36.242  1.00  0.00     0.002 A 
ATOM     62  C   UNL A   1      38.619  32.260  37.188  1.00  0.00     0.091 A 
ATOM     63  F   UNL A   1      38.654  30.088  36.194  1.00  0.00    -0.205 F 
ATOM     64  C   UNL A   1      39.091  33.583  37.203  1.00  0.00     0.022 A 
BRANCH  62  65
ATOM     65  S   UNL A   1      37.400  31.828  38.435  1.00  0.00     0.127 S 
ATOM     66  O   UNL A   1      38.151  32.052  39.672  1.00  0.00    -0.237 OA
ATOM     67  O   UNL A   1      36.342  32.806  38.180  1.00  0.00    -0.237 OA
ATOM     68  O   UNL A   1      37.031  30.444  38.180  1.00  0.00    -0.744 OA
ENDBRANCH  62  65
ENDBRANCH  44  58
BRANCH  45  69
ATOM     69  C   UNL A   1      42.549  26.116  27.462  1.00  0.00     0.023 A 
ATOM     70  C   UNL A   1      43.447  26.604  26.492  1.00  0.00     0.012 A 
ATOM     71  C   UNL A   1      42.082  24.792  27.367  1.00  0.00     0.148 A 
ATOM     72  C   UNL A   1      43.869  25.790  25.441  1.00  0.00     0.002 A 
ATOM     73  C   UNL A   1      42.537  23.974  26.339  1.00  0.00     0.091 A 
ATOM     74  F   UNL A   1      41.228  24.354  28.302  1.00  0.00    -0.205 F 
ATOM     75  C   UNL A   1      43.423  24.473  25.371  1.00  0.00     0.022 A 
BRANCH  73  76
ATOM     76  S   UNL A   1      42.106  22.234  26.219  1.00  0.00     0.127 S 
ATOM     77  O   UNL A   1      42.825  21.831  25.013  1.00  0.00    -0.237 OA
ATOM     78  O   UNL A   1      42.652  21.705  27.469  1.00  0.00    -0.237 OA
ATOM     79  O   UNL A   1      40.653  22.191  26.126  1.00  0.00    -0.744 OA
ENDBRANCH  73  76
ENDBRANCH  45  69
BRANCH  57  80
ATOM     80  C   UNL A   1      45.034  26.881  33.955  1.00  0.00     0.023 A 
ATOM     81  C   UNL A   1      46.288  27.520  33.917  1.00  0.00     0.012 A 
ATOM     82  C   UNL A   1      44.840  25.770  34.798  1.00  0.00     0.148 A 
ATOM     83  C   UNL A   1      47.339  27.057  34.706  1.00  0.00     0.002 A 
ATOM     84  C   UNL A   1      45.882  25.334  35.606  1.00  0.00     0.091 A 
ATOM     85  F   UNL A   1      43.638  25.178  34.807  1.00  0.00    -0.205 F 
ATOM     86  C   UNL A   1      47.133  25.973  35.558  1.00  0.00     0.022 A 
BRANCH  84  87
ATOM     87  S   UNL A   1      45.695  23.999  36.793  1.00  0.00     0.127 S 
ATOM     88  O   UNL A   1      45.363  22.871  35.923  1.00  0.00    -0.237 OA
ATOM     89  O   UNL A   1      47.025  23.933  37.398  1.00  0.00    -0.237 OA
ATOM     90  O   UNL A   1      44.634  24.413  37.702  1.00  0.00    -0.744 OA
ENDBRANCH  84  87
ENDBRANCH  57  80
ENDBRANCH  31  32
ENDBRANCH  24  26
ENDBRANCH  23  24
ENDBRANCH   1  23
TORSDOF 16
ENDMDL
MODEL 2
REMARK VINA RESULT:     -12.1      1.285      1.665
REMARK SMILES COc1cc(C)cc2c1O[C@H](C(F)(F)F)C(C(=O)OCCOC(=O)c1ccc(-c3c4nc(c(-c5cccc(S(=O)(=O)[O-])c5F)c5ccc([nH]5)c(-c5cccc(S(=O)(=O)[O-])c5F)c5nc(c(-c6cccc(S(=O)(=O)[O-])c6F)c6ccc3[nH]6)C=C5)C=C4)cc1)=C2
REMARK SMILES IDX 21 1 20 2 19 3 17 4 18 5 16 6 3 7 4 8 9 9 5 10 8 11 10 12
REMARK SMILES IDX 6 13 7 14 88 15 11 16 2 17 1 18 12 19 13 20 14 21 15 22
REMARK SMILES IDX 22 23 23 24 24 25 25 26 26 27 87 28 27 29 86 30 28 31 29 32
REMARK SMILES IDX 30 33 80 34 31 35 85 36 79 37 81 38 32 39 84 40 78 41 77 42
REMARK SMILES IDX 33 44 65 45 45 46 64 47 46 48 49 49 63 50 82 51 47 52 48 53
REMARK SMILES IDX 62 55 83 56 50 57 34 58 35 59 43 60 36 61 38 62 44 63 37 64
REMARK SMILES IDX 39 65 40 66 41 67 42 68 66 69 67 70 75 71 68 72 70 73 76 74
REMARK SMILES IDX 69 75 71 76 72 77 73 78 74 79 51 80 52 81 60 82 53 83 55 84
REMARK SMILES IDX 61 85 54 86 56 87 57 88 58 89 59 90
REMARK H PARENT 81 43 49 54
REMARK Flexibility Score: inf
ROOT
ATOM      1  C   UNL A   1      31.520  30.298  25.542  1.00  0.00     0.275 C 
ENDROOT
BRANCH   1   2
ATOM      2  C   UNL A   1      31.233  28.955  24.870  1.00  0.00     0.275 C 
BRANCH   2   3
ATOM      3  O   UNL A   1      32.181  27.943  25.280  1.00  0.00    -0.459 OA
BRANCH   3   4
ATOM      4  C   UNL A   1      31.715  27.040  26.174  1.00  0.00     0.338 C 
ATOM      5  O   UNL A   1      31.005  27.277  27.139  1.00  0.00    -0.246 OA
BRANCH   4   6
ATOM      6  C   UNL A   1      32.163  25.679  25.823  1.00  0.00     0.087 C 
ATOM      7  C   UNL A   1      33.575  21.993  24.427  1.00  0.00     0.161 A 
ATOM      8  C   UNL A   1      34.959  21.756  24.416  1.00  0.00     0.054 A 
ATOM      9  C   UNL A   1      33.075  23.201  24.930  1.00  0.00     0.169 A 
ATOM     10  C   UNL A   1      35.849  22.696  24.948  1.00  0.00    -0.047 A 
ATOM     11  C   UNL A   1      33.964  24.146  25.434  1.00  0.00     0.021 A 
ATOM     12  O   UNL A   1      31.717  23.390  24.926  1.00  0.00    -0.471 OA
ATOM     13  C   UNL A   1      37.334  22.471  24.944  1.00  0.00     0.044 C 
ATOM     14  C   UNL A   1      35.341  23.889  25.463  1.00  0.00     0.015 A 
ATOM     15  C   UNL A   1      33.474  25.428  25.891  1.00  0.00     0.027 C 
ATOM     16  C   UNL A   1      31.172  24.691  25.283  1.00  0.00     0.316 C 
BRANCH   7  17
ATOM     17  O   UNL A   1      32.661  21.119  23.891  1.00  0.00    -0.493 OA
ATOM     18  C   UNL A   1      32.255  21.432  22.564  1.00  0.00     0.278 C 
ENDBRANCH   7  17
BRANCH  16  19
ATOM     19  C   UNL A   1      30.420  25.256  24.067  1.00  0.00     0.430 C 
ATOM     20  F   UNL A   1      29.401  26.066  24.446  1.00  0.00    -0.167 F 
ATOM     21  F   UNL A   1      31.233  26.014  23.289  1.00  0.00    -0.167 F 
ATOM     22  F   UNL A   1      29.901  24.288  23.281  1.00  0.00    -0.167 F 
ENDBRANCH  16  19
ENDBRANCH   4   6
ENDBRANCH   3   4
ENDBRANCH   2   3
ENDBRANCH   1   2
BRANCH   1  23
ATOM     23  O   UNL A   1      32.895  30.372  25.952  1.00  0.00    -0.458 OA
BRANCH  23  24
ATOM     24  C   UNL A   1      33.160  31.259  26.939  1.00  0.00     0.338 C 
ATOM     25  O   UNL A   1      32.419  32.118  27.382  1.00  0.00    -0.246 OA
BRANCH  24  26
ATOM     26  C   UNL A   1      34.495  30.984  27.492  1.00  0.00     0.060 A 
ATOM     27  C   UNL A   1      35.355  32.010  27.861  1.00  0.00     0.016 A 
ATOM     28  C   UNL A   1      34.826  29.664  27.772  1.00  0.00     0.016 A 
ATOM     29  C   UNL A   1      36.560  31.687  28.502  1.00  0.00     0.010 A 
ATOM     30  C   UNL A   1      35.941  29.361  28.544  1.00  0.00     0.010 A 
ATOM     31  C   UNL A   1      36.853  30.362  28.887  1.00  0.00    -0.014 A 
BRANCH  31  32
ATOM     32  C   UNL A   1      38.099  30.017  29.633  1.00  0.00     0.031 A 
ATOM     33  C   UNL A   1      38.329  30.508  31.048  1.00  0.00     0.074 A 
ATOM     34  C   UNL A   1      39.065  29.299  29.022  1.00  0.00     0.049 A 
ATOM     35  N   UNL A   1      39.351  30.288  31.837  1.00  0.00    -0.248 NA
ATOM     36  C   UNL A   1      37.310  31.392  31.643  1.00  0.00     0.031 C 
ATOM     37  C   UNL A   1      39.045  28.870  27.621  1.00  0.00     0.029 A 
ATOM     38  N   UNL A   1      40.249  28.792  29.502  1.00  0.00    -0.354 N 
ATOM     39  C   UNL A   1      39.122  31.043  32.982  1.00  0.00     0.074 A 
ATOM     40  C   UNL A   1      37.890  31.766  32.774  1.00  0.00     0.031 C 
ATOM     41  C   UNL A   1      40.121  28.107  27.376  1.00  0.00     0.029 A 
ATOM     42  C   UNL A   1      40.926  28.014  28.591  1.00  0.00     0.049 A 
ATOM     43  H   UNL A   1      40.582  28.970  30.411  1.00  0.00     0.167 HD
ATOM     44  C   UNL A   1      39.839  31.095  34.130  1.00  0.00     0.034 A 
ATOM     45  C   UNL A   1      42.049  27.283  28.721  1.00  0.00     0.034 A 
ATOM     46  C   UNL A   1      40.995  30.285  34.391  1.00  0.00     0.049 A 
ATOM     47  C   UNL A   1      42.757  27.248  30.045  1.00  0.00     0.074 A 
ATOM     48  C   UNL A   1      41.709  30.164  35.571  1.00  0.00     0.029 A 
ATOM     49  N   UNL A   1      41.593  29.444  33.469  1.00  0.00    -0.354 N 
ATOM     50  N   UNL A   1      42.438  27.856  31.160  1.00  0.00    -0.248 NA
ATOM     51  C   UNL A   1      43.961  26.409  30.139  1.00  0.00     0.031 C 
ATOM     52  C   UNL A   1      42.738  29.242  35.362  1.00  0.00     0.029 A 
ATOM     53  C   UNL A   1      42.663  28.792  34.054  1.00  0.00     0.049 A 
ATOM     54  H   UNL A   1      41.300  29.326  32.536  1.00  0.00     0.167 HD
ATOM     55  C   UNL A   1      43.390  27.465  32.093  1.00  0.00     0.074 A 
ATOM     56  C   UNL A   1      44.287  26.551  31.418  1.00  0.00     0.031 C 
ATOM     57  C   UNL A   1      43.518  27.848  33.385  1.00  0.00     0.034 A 
BRANCH  44  58
ATOM     58  C   UNL A   1      39.336  31.974  35.244  1.00  0.00     0.023 A 
ATOM     59  C   UNL A   1      38.438  31.435  36.189  1.00  0.00     0.012 A 
ATOM     60  C   UNL A   1      39.818  33.286  35.416  1.00  0.00     0.148 A 
ATOM     61  C   UNL A   1      38.010  32.195  37.276  1.00  0.00     0.002 A 
ATOM     62  C   UNL A   1      39.414  34.025  36.523  1.00  0.00     0.091 A 
ATOM     63  F   UNL A   1      40.666  33.779  34.502  1.00  0.00    -0.205 F 
ATOM     64  C   UNL A   1      38.505  33.484  37.447  1.00  0.00     0.022 A 
BRANCH  62  65
ATOM     65  S   UNL A   1      40.038  35.672  36.879  1.00  0.00     0.127 S 
ATOM     66  O   UNL A   1      39.364  35.976  38.142  1.00  0.00    -0.237 OA
ATOM     67  O   UNL A   1      41.476  35.435  36.998  1.00  0.00    -0.237 OA
ATOM     68  O   UNL A   1      39.644  36.507  35.754  1.00  0.00    -0.744 OA
ENDBRANCH  62  65
ENDBRANCH  44  58
BRANCH  45  69
ATOM     69  C   UNL A   1      42.495  26.428  27.586  1.00  0.00     0.023 A 
ATOM     70  C   UNL A   1      43.450  26.938  26.685  1.00  0.00     0.012 A 
ATOM     71  C   UNL A   1      42.052  25.100  27.443  1.00  0.00     0.148 A 
ATOM     72  C   UNL A   1      43.953  26.143  25.656  1.00  0.00     0.002 A 
ATOM     73  C   UNL A   1      42.585  24.301  26.439  1.00  0.00     0.091 A 
ATOM     74  F   UNL A   1      41.142  24.640  28.313  1.00  0.00    -0.205 F 
ATOM     75  C   UNL A   1      43.529  24.822  25.539  1.00  0.00     0.022 A 
BRANCH  73  76
ATOM     76  S   UNL A   1      42.184  22.558  26.269  1.00  0.00     0.127 S 
ATOM     77  O   UNL A   1      40.725  22.593  26.193  1.00  0.00    -0.237 OA
ATOM     78  O   UNL A   1      42.859  22.217  25.016  1.00  0.00    -0.237 OA
ATOM     79  O   UNL A   1      42.734  21.907  27.450  1.00  0.00    -0.744 OA
ENDBRANCH  73  76
ENDBRANCH  45  69
BRANCH  57  80
ATOM     80  C   UNL A   1      44.663  27.289  34.179  1.00  0.00     0.023 A 
ATOM     81  C   UNL A   1      45.883  27.993  34.209  1.00  0.00     0.012 A 
ATOM     82  C   UNL A   1      44.488  26.158  35.001  1.00  0.00     0.148 A 
ATOM     83  C   UNL A   1      46.918  27.574  35.044  1.00  0.00     0.002 A 
ATOM     84  C   UNL A   1      45.511  25.767  35.853  1.00  0.00     0.091 A 
ATOM     85  F   UNL A   1      43.319  25.505  34.945  1.00  0.00    -0.205 F 
ATOM     86  C   UNL A   1      46.727  26.470  35.873  1.00  0.00     0.022 A 
BRANCH  84  87
ATOM     87  S   UNL A   1      45.337  24.408  37.016  1.00  0.00     0.127 S 
ATOM     88  O   UNL A   1      46.649  24.398  37.661  1.00  0.00    -0.237 OA
ATOM     89  O   UNL A   1      44.240  24.868  37.867  1.00  0.00    -0.237 OA
ATOM     90  O   UNL A   1      45.031  23.229  36.215  1.00  0.00    -0.744 OA
ENDBRANCH  84  87
ENDBRANCH  57  80
ENDBRANCH  31  32
ENDBRANCH  24  26
ENDBRANCH  23  24
ENDBRANCH   1  23
TORSDOF 16
ENDMDL
MODEL 3
REMARK VINA RESULT:     -12.1      5.047      9.965
REMARK SMILES COc1cc(C)cc2c1O[C@H](C(F)(F)F)C(C(=O)OCCOC(=O)c1ccc(-c3c4nc(c(-c5cccc(S(=O)(=O)[O-])c5F)c5ccc([nH]5)c(-c5cccc(S(=O)(=O)[O-])c5F)c5nc(c(-c6cccc(S(=O)(=O)[O-])c6F)c6ccc3[nH]6)C=C5)C=C4)cc1)=C2
REMARK SMILES IDX 21 1 20 2 19 3 17 4 18 5 16 6 3 7 4 8 9 9 5 10 8 11 10 12
REMARK SMILES IDX 6 13 7 14 88 15 11 16 2 17 1 18 12 19 13 20 14 21 15 22
REMARK SMILES IDX 22 23 23 24 24 25 25 26 26 27 87 28 27 29 86 30 28 31 29 32
REMARK SMILES IDX 30 33 80 34 31 35 85 36 79 37 81 38 32 39 84 40 78 41 77 42
REMARK SMILES IDX 33 44 65 45 45 46 64 47 46 48 49 49 63 50 82 51 47 52 48 53
REMARK SMILES IDX 62 55 83 56 50 57 34 58 35 59 43 60 36 61 38 62 44 63 37 64
REMARK SMILES IDX 39 65 40 66 41 67 42 68 66 69 67 70 75 71 68 72 70 73 76 74
REMARK SMILES IDX 69 75 71 76 72 77 73 78 74 79 51 80 52 81 60 82 53 83 55 84
REMARK SMILES IDX 61 85 54 86 56 87 57 88 58 89 59 90
REMARK H PARENT 81 43 49 54
REMARK Flexibility Score: inf
ROOT
ATOM      1  C   UNL A   1      36.343  20.418  24.994  1.00  0.00     0.275 C 
ENDROOT
BRANCH   1   2
ATOM      2  C   UNL A   1      34.855  20.773  24.995  1.00  0.00     0.275 C 
BRANCH   2   3
ATOM      3  O   UNL A   1      34.649  22.197  24.858  1.00  0.00    -0.459 OA
BRANCH   3   4
ATOM      4  C   UNL A   1      33.796  22.748  25.754  1.00  0.00     0.338 C 
ATOM      5  O   UNL A   1      33.498  22.291  26.846  1.00  0.00    -0.246 OA
BRANCH   4   6
ATOM      6  C   UNL A   1      33.263  24.027  25.247  1.00  0.00     0.087 C 
ATOM      7  C   UNL A   1      31.393  27.586  24.079  1.00  0.00     0.161 A 
ATOM      8  C   UNL A   1      31.415  28.683  24.955  1.00  0.00     0.054 A 
ATOM      9  C   UNL A   1      32.049  26.398  24.428  1.00  0.00     0.169 A 
ATOM     10  C   UNL A   1      32.128  28.624  26.158  1.00  0.00    -0.047 A 
ATOM     11  C   UNL A   1      32.735  26.332  25.637  1.00  0.00     0.021 A 
ATOM     12  O   UNL A   1      32.006  25.352  23.542  1.00  0.00    -0.471 OA
ATOM     13  C   UNL A   1      32.164  29.780  27.115  1.00  0.00     0.044 C 
ATOM     14  C   UNL A   1      32.793  27.442  26.489  1.00  0.00     0.015 A 
ATOM     15  C   UNL A   1      33.357  25.092  26.047  1.00  0.00     0.027 C 
ATOM     16  C   UNL A   1      32.530  24.054  23.938  1.00  0.00     0.316 C 
BRANCH   7  17
ATOM     17  O   UNL A   1      30.684  27.580  22.903  1.00  0.00    -0.493 OA
ATOM     18  C   UNL A   1      29.894  28.742  22.685  1.00  0.00     0.278 C 
ENDBRANCH   7  17
BRANCH  16  19
ATOM     19  C   UNL A   1      31.378  23.035  23.917  1.00  0.00     0.430 C 
ATOM     20  F   UNL A   1      30.423  23.385  23.022  1.00  0.00    -0.167 F 
ATOM     21  F   UNL A   1      31.811  21.805  23.545  1.00  0.00    -0.167 F 
ATOM     22  F   UNL A   1      30.781  22.904  25.122  1.00  0.00    -0.167 F 
ENDBRANCH  16  19
ENDBRANCH   4   6
ENDBRANCH   3   4
ENDBRANCH   2   3
ENDBRANCH   1   2
BRANCH   1  23
ATOM     23  O   UNL A   1      37.118  21.502  25.534  1.00  0.00    -0.458 OA
BRANCH  23  24
ATOM     24  C   UNL A   1      38.410  21.210  25.811  1.00  0.00     0.338 C 
ATOM     25  O   UNL A   1      39.013  20.187  25.541  1.00  0.00    -0.246 OA
BRANCH  24  26
ATOM     26  C   UNL A   1      39.047  22.379  26.436  1.00  0.00     0.060 A 
ATOM     27  C   UNL A   1      40.206  22.258  27.192  1.00  0.00     0.016 A 
ATOM     28  C   UNL A   1      38.541  23.637  26.135  1.00  0.00     0.016 A 
ATOM     29  C   UNL A   1      40.838  23.421  27.654  1.00  0.00     0.010 A 
ATOM     30  C   UNL A   1      39.255  24.785  26.459  1.00  0.00     0.010 A 
ATOM     31  C   UNL A   1      40.394  24.702  27.262  1.00  0.00    -0.014 A 
BRANCH  31  32
ATOM     32  C   UNL A   1      41.103  25.944  27.689  1.00  0.00     0.031 A 
ATOM     33  C   UNL A   1      42.521  26.232  27.243  1.00  0.00     0.074 A 
ATOM     34  C   UNL A   1      40.491  26.805  28.529  1.00  0.00     0.049 A 
ATOM     35  N   UNL A   1      43.273  27.270  27.515  1.00  0.00    -0.248 NA
ATOM     36  C   UNL A   1      43.205  25.214  26.425  1.00  0.00     0.031 C 
ATOM     37  C   UNL A   1      39.179  26.599  29.149  1.00  0.00     0.029 A 
ATOM     38  N   UNL A   1      40.885  28.034  29.003  1.00  0.00    -0.354 N 
ATOM     39  C   UNL A   1      44.517  27.001  26.955  1.00  0.00     0.074 A 
ATOM     40  C   UNL A   1      44.442  25.686  26.365  1.00  0.00     0.031 C 
ATOM     41  C   UNL A   1      38.846  27.689  29.856  1.00  0.00     0.029 A 
ATOM     42  C   UNL A   1      39.930  28.663  29.768  1.00  0.00     0.049 A 
ATOM     43  H   UNL A   1      41.768  28.426  28.812  1.00  0.00     0.167 HD
ATOM     44  C   UNL A   1      45.612  27.795  26.885  1.00  0.00     0.034 A 
ATOM     45  C   UNL A   1      39.911  29.893  30.315  1.00  0.00     0.034 A 
ATOM     46  C   UNL A   1      45.654  29.149  27.358  1.00  0.00     0.049 A 
ATOM     47  C   UNL A   1      41.084  30.808  30.112  1.00  0.00     0.074 A 
ATOM     48  C   UNL A   1      46.669  30.078  27.211  1.00  0.00     0.029 A 
ATOM     49  N   UNL A   1      44.631  29.775  28.049  1.00  0.00    -0.354 N 
ATOM     50  N   UNL A   1      42.193  30.585  29.450  1.00  0.00    -0.248 NA
ATOM     51  C   UNL A   1      40.997  32.151  30.705  1.00  0.00     0.031 C 
ATOM     52  C   UNL A   1      46.256  31.271  27.810  1.00  0.00     0.029 A 
ATOM     53  C   UNL A   1      44.985  31.082  28.329  1.00  0.00     0.049 A 
ATOM     54  H   UNL A   1      43.778  29.353  28.302  1.00  0.00     0.167 HD
ATOM     55  C   UNL A   1      42.930  31.760  29.534  1.00  0.00     0.074 A 
ATOM     56  C   UNL A   1      42.134  32.701  30.293  1.00  0.00     0.031 C 
ATOM     57  C   UNL A   1      44.163  32.023  29.042  1.00  0.00     0.034 A 
BRANCH  44  58
ATOM     58  C   UNL A   1      46.830  27.266  26.172  1.00  0.00     0.023 A 
ATOM     59  C   UNL A   1      46.972  27.509  24.790  1.00  0.00     0.012 A 
ATOM     60  C   UNL A   1      47.868  26.624  26.875  1.00  0.00     0.148 A 
ATOM     61  C   UNL A   1      48.120  27.100  24.113  1.00  0.00     0.002 A 
ATOM     62  C   UNL A   1      49.025  26.252  26.199  1.00  0.00     0.091 A 
ATOM     63  F   UNL A   1      47.707  26.399  28.187  1.00  0.00    -0.205 F 
ATOM     64  C   UNL A   1      49.149  26.482  24.819  1.00  0.00     0.022 A 
BRANCH  62  65
ATOM     65  S   UNL A   1      50.440  25.508  27.019  1.00  0.00     0.127 S 
ATOM     66  O   UNL A   1      51.342  25.269  25.892  1.00  0.00    -0.237 OA
ATOM     67  O   UNL A   1      50.865  26.576  27.924  1.00  0.00    -0.237 OA
ATOM     68  O   UNL A   1      49.943  24.308  27.676  1.00  0.00    -0.744 OA
ENDBRANCH  62  65
ENDBRANCH  44  58
BRANCH  45  69
ATOM     69  C   UNL A   1      38.677  30.364  31.003  1.00  0.00     0.023 A 
ATOM     70  C   UNL A   1      38.584  30.224  32.402  1.00  0.00     0.012 A 
ATOM     71  C   UNL A   1      37.646  31.019  30.304  1.00  0.00     0.148 A 
ATOM     72  C   UNL A   1      37.480  30.722  33.093  1.00  0.00     0.002 A 
ATOM     73  C   UNL A   1      36.568  31.547  31.004  1.00  0.00     0.091 A 
ATOM     74  F   UNL A   1      37.760  31.138  28.974  1.00  0.00    -0.205 F 
ATOM     75  C   UNL A   1      36.479  31.392  32.397  1.00  0.00     0.022 A 
BRANCH  73  76
ATOM     76  S   UNL A   1      35.279  32.518  30.214  1.00  0.00     0.127 S 
ATOM     77  O   UNL A   1      34.333  32.707  31.312  1.00  0.00    -0.237 OA
ATOM     78  O   UNL A   1      36.012  33.721  29.818  1.00  0.00    -0.237 OA
ATOM     79  O   UNL A   1      34.796  31.709  29.104  1.00  0.00    -0.744 OA
ENDBRANCH  73  76
ENDBRANCH  45  69
BRANCH  57  80
ATOM     80  C   UNL A   1      44.751  33.381  29.295  1.00  0.00     0.023 A 
ATOM     81  C   UNL A   1      45.537  33.583  30.445  1.00  0.00     0.012 A 
ATOM     82  C   UNL A   1      44.646  34.403  28.331  1.00  0.00     0.148 A 
ATOM     83  C   UNL A   1      46.208  34.790  30.638  1.00  0.00     0.002 A 
ATOM     84  C   UNL A   1      45.343  35.590  28.514  1.00  0.00     0.091 A 
ATOM     85  F   UNL A   1      43.884  34.184  27.251  1.00  0.00    -0.205 F 
ATOM     86  C   UNL A   1      46.120  35.787  29.668  1.00  0.00     0.022 A 
BRANCH  84  87
ATOM     87  S   UNL A   1      45.358  36.903  27.288  1.00  0.00     0.127 S 
ATOM     88  O   UNL A   1      46.129  37.940  27.971  1.00  0.00    -0.237 OA
ATOM     89  O   UNL A   1      46.048  36.268  26.165  1.00  0.00    -0.237 OA
ATOM     90  O   UNL A   1      43.962  37.234  27.034  1.00  0.00    -0.744 OA
ENDBRANCH  84  87
ENDBRANCH  57  80
ENDBRANCH  31  32
ENDBRANCH  24  26
ENDBRANCH  23  24
ENDBRANCH   1  23
TORSDOF 16
ENDMDL
