MODEL 1
REMARK VINA RESULT:     -10.8      0.000      0.000
REMARK SMILES O=Cc1ccc2c(c1)C=C(C(=O)OCCOC(=O)c1ccc(-c3c4nc(c(-c5cccc(S(=O)(=O)[O-])c5F)c5ccc([nH]5)c(-c5cccc(S(=O)(=O)[O-])c5F)c5nc(c(-c6cccc(S(=O)(=O)[O-])c6F)c6ccc3[nH]6)C=C5)C=C4)cc1)[C@H](C(F)(F)F)O2
REMARK SMILES IDX 15 1 14 2 13 3 11 4 12 5 10 6 3 7 4 8 8 9 5 10 7 11 6 12
REMARK SMILES IDX 9 13 87 14 82 15 2 16 1 17 83 18 84 19 85 20 86 21 16 22
REMARK SMILES IDX 17 23 18 24 19 25 20 26 81 27 21 28 80 29 22 30 23 31 24 32
REMARK SMILES IDX 74 33 25 34 79 35 73 36 75 37 26 38 78 39 72 40 71 41 27 43
REMARK SMILES IDX 59 44 39 45 58 46 40 47 43 48 57 49 76 50 41 51 42 52 56 54
REMARK SMILES IDX 77 55 44 56 28 57 29 58 37 59 30 60 32 61 38 62 31 63 33 64
REMARK SMILES IDX 34 65 35 66 36 67 60 68 61 69 69 70 62 71 64 72 70 73 63 74
REMARK SMILES IDX 65 75 66 76 67 77 68 78 45 79 46 80 54 81 47 82 49 83 55 84
REMARK SMILES IDX 48 85 50 86 51 87 52 88 53 89
REMARK H PARENT 75 42 43 53
REMARK Flexibility Score: inf
ROOT
ATOM      1  C   UNL A   1      40.784  19.895  26.384  1.00  0.00     0.275 C 
ENDROOT
BRANCH   1   2
ATOM      2  C   UNL A   1      42.293  19.898  26.115  1.00  0.00     0.275 C 
BRANCH   2   3
ATOM      3  O   UNL A   1      42.951  21.028  26.728  1.00  0.00    -0.459 OA
BRANCH   3   4
ATOM      4  C   UNL A   1      43.244  22.062  25.893  1.00  0.00     0.338 C 
ATOM      5  O   UNL A   1      42.670  22.302  24.850  1.00  0.00    -0.246 OA
BRANCH   4   6
ATOM      6  C   UNL A   1      44.360  22.893  26.409  1.00  0.00     0.087 C 
ATOM      7  C   UNL A   1      46.662  25.316  29.898  1.00  0.00     0.015 A 
ATOM      8  C   UNL A   1      47.724  25.565  29.024  1.00  0.00     0.015 A 
ATOM      9  C   UNL A   1      45.549  24.572  29.479  1.00  0.00     0.023 A 
ATOM     10  C   UNL A   1      47.699  25.018  27.743  1.00  0.00     0.048 A 
ATOM     11  C   UNL A   1      45.512  24.046  28.183  1.00  0.00     0.018 A 
ATOM     12  C   UNL A   1      46.606  24.253  27.337  1.00  0.00     0.128 A 
ATOM     13  C   UNL A   1      44.390  23.238  27.709  1.00  0.00     0.027 C 
ATOM     14  O   UNL A   1      46.709  23.649  26.118  1.00  0.00    -0.475 OA
ATOM     15  C   UNL A   1      45.456  23.333  25.449  1.00  0.00     0.316 C 
BRANCH   7  16
ATOM     16  C   UNL A   1      46.729  25.805  31.289  1.00  0.00     0.260 C 
ATOM     17  O   UNL A   1      45.750  25.834  32.024  1.00  0.00    -0.298 OA
ENDBRANCH   7  16
BRANCH  15  18
ATOM     18  C   UNL A   1      45.799  22.426  24.251  1.00  0.00     0.430 C 
ATOM     19  F   UNL A   1      44.970  22.638  23.206  1.00  0.00    -0.167 F 
ATOM     20  F   UNL A   1      47.048  22.706  23.796  1.00  0.00    -0.167 F 
ATOM     21  F   UNL A   1      45.778  21.116  24.576  1.00  0.00    -0.167 F 
ENDBRANCH  15  18
ENDBRANCH   4   6
ENDBRANCH   3   4
ENDBRANCH   2   3
ENDBRANCH   1   2
BRANCH   1  22
ATOM     22  O   UNL A   1      40.398  20.964  27.264  1.00  0.00    -0.458 OA
BRANCH  22  23
ATOM     23  C   UNL A   1      39.649  21.932  26.684  1.00  0.00     0.338 C 
ATOM     24  O   UNL A   1      38.648  21.766  26.003  1.00  0.00    -0.246 OA
BRANCH  23  25
ATOM     25  C   UNL A   1      40.079  23.264  27.156  1.00  0.00     0.060 A 
ATOM     26  C   UNL A   1      39.682  24.354  26.376  1.00  0.00     0.016 A 
ATOM     27  C   UNL A   1      40.850  23.468  28.301  1.00  0.00     0.016 A 
ATOM     28  C   UNL A   1      39.986  25.655  26.770  1.00  0.00     0.010 A 
ATOM     29  C   UNL A   1      41.204  24.774  28.670  1.00  0.00     0.010 A 
ATOM     30  C   UNL A   1      40.763  25.875  27.913  1.00  0.00    -0.014 A 
BRANCH  30  31
ATOM     31  C   UNL A   1      41.198  27.259  28.220  1.00  0.00     0.031 A 
ATOM     32  C   UNL A   1      42.613  27.662  27.918  1.00  0.00     0.074 A 
ATOM     33  C   UNL A   1      40.327  28.166  28.701  1.00  0.00     0.049 A 
ATOM     34  N   UNL A   1      43.190  28.827  28.059  1.00  0.00    -0.248 NA
ATOM     35  C   UNL A   1      43.489  26.616  27.366  1.00  0.00     0.031 C 
ATOM     36  C   UNL A   1      38.915  27.918  28.986  1.00  0.00     0.029 A 
ATOM     37  N   UNL A   1      40.512  29.485  29.037  1.00  0.00    -0.354 N 
ATOM     38  C   UNL A   1      44.497  28.657  27.618  1.00  0.00     0.074 A 
ATOM     39  C   UNL A   1      44.630  27.273  27.216  1.00  0.00     0.031 C 
ATOM     40  C   UNL A   1      38.367  29.043  29.482  1.00  0.00     0.029 A 
ATOM     41  C   UNL A   1      39.391  30.082  29.567  1.00  0.00     0.049 A 
ATOM     42  H   UNL A   1      41.366  29.960  28.912  1.00  0.00     0.167 HD
ATOM     43  C   UNL A   1      45.492  29.572  27.541  1.00  0.00     0.034 A 
ATOM     44  C   UNL A   1      39.221  31.319  30.078  1.00  0.00     0.034 A 
ATOM     45  C   UNL A   1      45.371  30.942  27.962  1.00  0.00     0.049 A 
ATOM     46  C   UNL A   1      40.378  32.290  30.065  1.00  0.00     0.074 A 
ATOM     47  C   UNL A   1      46.331  31.939  27.933  1.00  0.00     0.029 A 
ATOM     48  N   UNL A   1      44.227  31.506  28.504  1.00  0.00    -0.354 N 
ATOM     49  N   UNL A   1      41.579  32.144  29.559  1.00  0.00    -0.248 NA
ATOM     50  C   UNL A   1      40.142  33.613  30.665  1.00  0.00     0.031 C 
ATOM     51  C   UNL A   1      45.777  33.096  28.489  1.00  0.00     0.029 A 
ATOM     52  C   UNL A   1      44.460  32.833  28.825  1.00  0.00     0.049 A 
ATOM     53  H   UNL A   1      43.375  31.033  28.642  1.00  0.00     0.167 HD
ATOM     54  C   UNL A   1      42.221  33.365  29.736  1.00  0.00     0.074 A 
ATOM     55  C   UNL A   1      41.270  34.248  30.379  1.00  0.00     0.031 C 
ATOM     56  C   UNL A   1      43.488  33.723  29.407  1.00  0.00     0.034 A 
BRANCH  43  57
ATOM     57  C   UNL A   1      46.808  29.115  26.971  1.00  0.00     0.023 A 
ATOM     58  C   UNL A   1      47.966  29.155  27.774  1.00  0.00     0.012 A 
ATOM     59  C   UNL A   1      46.891  28.603  25.663  1.00  0.00     0.148 A 
ATOM     60  C   UNL A   1      49.193  28.723  27.273  1.00  0.00     0.002 A 
ATOM     61  C   UNL A   1      48.107  28.133  25.184  1.00  0.00     0.091 A 
ATOM     62  F   UNL A   1      45.781  28.592  24.910  1.00  0.00    -0.205 F 
ATOM     63  C   UNL A   1      49.261  28.203  25.982  1.00  0.00     0.022 A 
BRANCH  61  64
ATOM     64  S   UNL A   1      48.287  27.380  23.563  1.00  0.00     0.127 S 
ATOM     65  O   UNL A   1      47.345  28.166  22.767  1.00  0.00    -0.237 OA
ATOM     66  O   UNL A   1      49.697  27.632  23.264  1.00  0.00    -0.237 OA
ATOM     67  O   UNL A   1      47.939  25.976  23.729  1.00  0.00    -0.744 OA
ENDBRANCH  61  64
ENDBRANCH  43  57
BRANCH  44  68
ATOM     68  C   UNL A   1      37.903  31.738  30.639  1.00  0.00     0.023 A 
ATOM     69  C   UNL A   1      37.584  31.431  31.977  1.00  0.00     0.012 A 
ATOM     70  C   UNL A   1      36.944  32.390  29.840  1.00  0.00     0.148 A 
ATOM     71  C   UNL A   1      36.320  31.720  32.493  1.00  0.00     0.002 A 
ATOM     72  C   UNL A   1      35.706  32.726  30.376  1.00  0.00     0.091 A 
ATOM     73  F   UNL A   1      37.255  32.657  28.564  1.00  0.00    -0.205 F 
ATOM     74  C   UNL A   1      35.384  32.372  31.696  1.00  0.00     0.022 A 
BRANCH  72  75
ATOM     75  S   UNL A   1      34.475  33.657  29.458  1.00  0.00     0.127 S 
ATOM     76  O   UNL A   1      35.299  34.664  28.792  1.00  0.00    -0.237 OA
ATOM     77  O   UNL A   1      33.920  32.633  28.573  1.00  0.00    -0.237 OA
ATOM     78  O   UNL A   1      33.542  34.166  30.453  1.00  0.00    -0.744 OA
ENDBRANCH  72  75
ENDBRANCH  44  68
BRANCH  56  79
ATOM     79  C   UNL A   1      43.913  35.146  29.678  1.00  0.00     0.023 A 
ATOM     80  C   UNL A   1      44.522  35.485  30.903  1.00  0.00     0.012 A 
ATOM     81  C   UNL A   1      43.767  36.137  28.684  1.00  0.00     0.148 A 
ATOM     82  C   UNL A   1      44.939  36.792  31.151  1.00  0.00     0.002 A 
ATOM     83  C   UNL A   1      44.235  37.425  28.918  1.00  0.00     0.091 A 
ATOM     84  F   UNL A   1      43.172  35.803  27.530  1.00  0.00    -0.205 F 
ATOM     85  C   UNL A   1      44.807  37.759  30.157  1.00  0.00     0.022 A 
BRANCH  83  86
ATOM     86  S   UNL A   1      44.201  38.708  27.660  1.00  0.00     0.127 S 
ATOM     87  O   UNL A   1      44.296  39.922  28.471  1.00  0.00    -0.237 OA
ATOM     88  O   UNL A   1      45.398  38.404  26.875  1.00  0.00    -0.237 OA
ATOM     89  O   UNL A   1      42.945  38.534  26.942  1.00  0.00    -0.744 OA
ENDBRANCH  83  86
ENDBRANCH  56  79
ENDBRANCH  30  31
ENDBRANCH  23  25
ENDBRANCH  22  23
ENDBRANCH   1  22
TORSDOF 16
ENDMDL
MODEL 2
REMARK VINA RESULT:     -10.8      3.773      6.300
REMARK SMILES O=Cc1ccc2c(c1)C=C(C(=O)OCCOC(=O)c1ccc(-c3c4nc(c(-c5cccc(S(=O)(=O)[O-])c5F)c5ccc([nH]5)c(-c5cccc(S(=O)(=O)[O-])c5F)c5nc(c(-c6cccc(S(=O)(=O)[O-])c6F)c6ccc3[nH]6)C=C5)C=C4)cc1)[C@H](C(F)(F)F)O2
REMARK SMILES IDX 15 1 14 2 13 3 11 4 12 5 10 6 3 7 4 8 8 9 5 10 7 11 6 12
REMARK SMILES IDX 9 13 87 14 82 15 2 16 1 17 83 18 84 19 85 20 86 21 16 22
REMARK SMILES IDX 17 23 18 24 19 25 20 26 81 27 21 28 80 29 22 30 23 31 24 32
REMARK SMILES IDX 74 33 25 34 79 35 73 36 75 37 26 38 78 39 72 40 71 41 27 43
REMARK SMILES IDX 59 44 39 45 58 46 40 47 43 48 57 49 76 50 41 51 42 52 56 54
REMARK SMILES IDX 77 55 44 56 28 57 29 58 37 59 30 60 32 61 38 62 31 63 33 64
REMARK SMILES IDX 34 65 35 66 36 67 60 68 61 69 69 70 62 71 64 72 70 73 63 74
REMARK SMILES IDX 65 75 66 76 67 77 68 78 45 79 46 80 54 81 47 82 49 83 55 84
REMARK SMILES IDX 48 85 50 86 51 87 52 88 53 89
REMARK H PARENT 75 42 43 53
REMARK Flexibility Score: inf
ROOT
ATOM      1  C   UNL A   1      36.896  20.655  24.976  1.00  0.00     0.275 C 
ENDROOT
BRANCH   1   2
ATOM      2  C   UNL A   1      35.381  20.892  24.964  1.00  0.00     0.275 C 
BRANCH   2   3
ATOM      3  O   UNL A   1      35.029  22.186  25.500  1.00  0.00    -0.459 OA
BRANCH   3   4
ATOM      4  C   UNL A   1      33.716  22.528  25.393  1.00  0.00     0.338 C 
ATOM      5  O   UNL A   1      32.780  21.798  25.651  1.00  0.00    -0.246 OA
BRANCH   4   6
ATOM      6  C   UNL A   1      33.543  23.926  24.928  1.00  0.00     0.087 C 
ATOM      7  C   UNL A   1      33.501  28.710  25.604  1.00  0.00     0.015 A 
ATOM      8  C   UNL A   1      33.285  28.901  24.236  1.00  0.00     0.015 A 
ATOM      9  C   UNL A   1      33.637  27.419  26.134  1.00  0.00     0.023 A 
ATOM     10  C   UNL A   1      33.260  27.798  23.386  1.00  0.00     0.048 A 
ATOM     11  C   UNL A   1      33.586  26.309  25.283  1.00  0.00     0.018 A 
ATOM     12  C   UNL A   1      33.425  26.516  23.909  1.00  0.00     0.128 A 
ATOM     13  C   UNL A   1      33.752  24.945  25.782  1.00  0.00     0.027 C 
ATOM     14  O   UNL A   1      33.514  25.499  23.005  1.00  0.00    -0.475 OA
ATOM     15  C   UNL A   1      33.137  24.177  23.483  1.00  0.00     0.316 C 
BRANCH   7  16
ATOM     16  C   UNL A   1      33.632  29.880  26.495  1.00  0.00     0.260 C 
ATOM     17  O   UNL A   1      32.664  30.512  26.897  1.00  0.00    -0.298 OA
ENDBRANCH   7  16
BRANCH  15  18
ATOM     18  C   UNL A   1      33.574  23.165  22.405  1.00  0.00     0.430 C 
ATOM     19  F   UNL A   1      32.911  21.993  22.517  1.00  0.00    -0.167 F 
ATOM     20  F   UNL A   1      33.276  23.642  21.169  1.00  0.00    -0.167 F 
ATOM     21  F   UNL A   1      34.903  22.929  22.431  1.00  0.00    -0.167 F 
ENDBRANCH  15  18
ENDBRANCH   4   6
ENDBRANCH   3   4
ENDBRANCH   2   3
ENDBRANCH   1   2
BRANCH   1  22
ATOM     22  O   UNL A   1      37.531  21.330  26.075  1.00  0.00    -0.458 OA
BRANCH  22  23
ATOM     23  C   UNL A   1      38.875  21.175  26.133  1.00  0.00     0.338 C 
ATOM     24  O   UNL A   1      39.517  20.231  25.696  1.00  0.00    -0.246 OA
BRANCH  23  25
ATOM     25  C   UNL A   1      39.514  22.414  26.618  1.00  0.00     0.060 A 
ATOM     26  C   UNL A   1      39.044  23.610  26.068  1.00  0.00     0.016 A 
ATOM     27  C   UNL A   1      40.543  22.437  27.561  1.00  0.00     0.016 A 
ATOM     28  C   UNL A   1      39.541  24.835  26.506  1.00  0.00     0.010 A 
ATOM     29  C   UNL A   1      41.084  23.668  27.962  1.00  0.00     0.010 A 
ATOM     30  C   UNL A   1      40.576  24.873  27.446  1.00  0.00    -0.014 A 
BRANCH  30  31
ATOM     31  C   UNL A   1      41.187  26.184  27.775  1.00  0.00     0.031 A 
ATOM     32  C   UNL A   1      42.594  26.465  27.329  1.00  0.00     0.074 A 
ATOM     33  C   UNL A   1      40.478  27.138  28.407  1.00  0.00     0.049 A 
ATOM     34  N   UNL A   1      43.304  27.555  27.465  1.00  0.00    -0.248 NA
ATOM     35  C   UNL A   1      43.286  25.378  26.619  1.00  0.00     0.031 C 
ATOM     36  C   UNL A   1      39.088  27.011  28.845  1.00  0.00     0.029 A 
ATOM     37  N   UNL A   1      40.838  28.406  28.793  1.00  0.00    -0.354 N 
ATOM     38  C   UNL A   1      44.526  27.287  26.863  1.00  0.00     0.074 A 
ATOM     39  C   UNL A   1      44.466  25.928  26.370  1.00  0.00     0.031 C 
ATOM     40  C   UNL A   1      38.722  28.148  29.465  1.00  0.00     0.029 A 
ATOM     41  C   UNL A   1      39.854  29.073  29.485  1.00  0.00     0.049 A 
ATOM     42  H   UNL A   1      41.718  28.801  28.593  1.00  0.00     0.167 HD
ATOM     43  C   UNL A   1      45.598  28.103  26.719  1.00  0.00     0.034 A 
ATOM     44  C   UNL A   1      39.875  30.283  30.082  1.00  0.00     0.034 A 
ATOM     45  C   UNL A   1      45.671  29.446  27.227  1.00  0.00     0.049 A 
ATOM     46  C   UNL A   1      41.119  31.134  29.984  1.00  0.00     0.074 A 
ATOM     47  C   UNL A   1      46.721  30.343  27.140  1.00  0.00     0.029 A 
ATOM     48  N   UNL A   1      44.661  30.082  27.933  1.00  0.00    -0.354 N 
ATOM     49  N   UNL A   1      42.233  30.904  29.331  1.00  0.00    -0.248 NA
ATOM     50  C   UNL A   1      41.094  32.429  30.682  1.00  0.00     0.031 C 
ATOM     51  C   UNL A   1      46.360  31.508  27.822  1.00  0.00     0.029 A 
ATOM     52  C   UNL A   1      45.069  31.354  28.298  1.00  0.00     0.049 A 
ATOM     53  H   UNL A   1      43.785  29.687  28.145  1.00  0.00     0.167 HD
ATOM     54  C   UNL A   1      43.017  32.042  29.499  1.00  0.00     0.074 A 
ATOM     55  C   UNL A   1      42.243  32.968  30.299  1.00  0.00     0.031 C 
ATOM     56  C   UNL A   1      44.269  32.295  29.041  1.00  0.00     0.034 A 
BRANCH  43  57
ATOM     57  C   UNL A   1      46.785  27.558  25.970  1.00  0.00     0.023 A 
ATOM     58  C   UNL A   1      46.877  27.752  24.577  1.00  0.00     0.012 A 
ATOM     59  C   UNL A   1      47.828  26.900  26.649  1.00  0.00     0.148 A 
ATOM     60  C   UNL A   1      47.975  27.269  23.865  1.00  0.00     0.002 A 
ATOM     61  C   UNL A   1      48.939  26.461  25.940  1.00  0.00     0.091 A 
ATOM     62  F   UNL A   1      47.709  26.710  27.971  1.00  0.00    -0.205 F 
ATOM     63  C   UNL A   1      49.009  26.633  24.547  1.00  0.00     0.022 A 
BRANCH  61  64
ATOM     64  S   UNL A   1      50.355  25.694  26.734  1.00  0.00     0.127 S 
ATOM     65  O   UNL A   1      50.691  26.684  27.756  1.00  0.00    -0.237 OA
ATOM     66  O   UNL A   1      49.780  24.453  27.254  1.00  0.00    -0.237 OA
ATOM     67  O   UNL A   1      51.355  25.513  25.691  1.00  0.00    -0.744 OA
ENDBRANCH  61  64
ENDBRANCH  43  57
BRANCH  44  68
ATOM     68  C   UNL A   1      38.680  30.790  30.819  1.00  0.00     0.023 A 
ATOM     69  C   UNL A   1      38.547  30.527  32.197  1.00  0.00     0.012 A 
ATOM     70  C   UNL A   1      37.652  31.485  30.152  1.00  0.00     0.148 A 
ATOM     71  C   UNL A   1      37.391  30.902  32.885  1.00  0.00     0.002 A 
ATOM     72  C   UNL A   1      36.529  31.904  30.855  1.00  0.00     0.091 A 
ATOM     73  F   UNL A   1      37.786  31.710  28.838  1.00  0.00    -0.205 F 
ATOM     74  C   UNL A   1      36.386  31.595  32.217  1.00  0.00     0.022 A 
BRANCH  72  75
ATOM     75  S   UNL A   1      35.231  32.892  30.103  1.00  0.00     0.127 S 
ATOM     76  O   UNL A   1      35.988  34.018  29.562  1.00  0.00    -0.237 OA
ATOM     77  O   UNL A   1      34.695  31.972  29.100  1.00  0.00    -0.237 OA
ATOM     78  O   UNL A   1      34.306  33.215  31.181  1.00  0.00    -0.744 OA
ENDBRANCH  72  75
ENDBRANCH  44  68
BRANCH  56  79
ATOM     79  C   UNL A   1      44.870  33.647  29.339  1.00  0.00     0.023 A 
ATOM     80  C   UNL A   1      45.559  33.868  30.548  1.00  0.00     0.012 A 
ATOM     81  C   UNL A   1      44.808  34.683  28.383  1.00  0.00     0.148 A 
ATOM     82  C   UNL A   1      46.138  35.107  30.819  1.00  0.00     0.002 A 
ATOM     83  C   UNL A   1      45.434  35.898  28.638  1.00  0.00     0.091 A 
ATOM     84  F   UNL A   1      44.136  34.463  27.244  1.00  0.00    -0.205 F 
ATOM     85  C   UNL A   1      46.087  36.117  29.862  1.00  0.00     0.022 A 
BRANCH  83  86
ATOM     86  S   UNL A   1      45.507  37.220  27.423  1.00  0.00     0.127 S 
ATOM     87  O   UNL A   1      44.095  37.574  27.284  1.00  0.00    -0.237 OA
ATOM     88  O   UNL A   1      46.324  38.223  28.106  1.00  0.00    -0.237 OA
ATOM     89  O   UNL A   1      46.125  36.642  26.237  1.00  0.00    -0.744 OA
ENDBRANCH  83  86
ENDBRANCH  56  79
ENDBRANCH  30  31
ENDBRANCH  23  25
ENDBRANCH  22  23
ENDBRANCH   1  22
TORSDOF 16
ENDMDL
MODEL 3
REMARK VINA RESULT:     -10.7      3.733      9.796
REMARK SMILES O=Cc1ccc2c(c1)C=C(C(=O)OCCOC(=O)c1ccc(-c3c4nc(c(-c5cccc(S(=O)(=O)[O-])c5F)c5ccc([nH]5)c(-c5cccc(S(=O)(=O)[O-])c5F)c5nc(c(-c6cccc(S(=O)(=O)[O-])c6F)c6ccc3[nH]6)C=C5)C=C4)cc1)[C@H](C(F)(F)F)O2
REMARK SMILES IDX 15 1 14 2 13 3 11 4 12 5 10 6 3 7 4 8 8 9 5 10 7 11 6 12
REMARK SMILES IDX 9 13 87 14 82 15 2 16 1 17 83 18 84 19 85 20 86 21 16 22
REMARK SMILES IDX 17 23 18 24 19 25 20 26 81 27 21 28 80 29 22 30 23 31 24 32
REMARK SMILES IDX 74 33 25 34 79 35 73 36 75 37 26 38 78 39 72 40 71 41 27 43
REMARK SMILES IDX 59 44 39 45 58 46 40 47 43 48 57 49 76 50 41 51 42 52 56 54
REMARK SMILES IDX 77 55 44 56 28 57 29 58 37 59 30 60 32 61 38 62 31 63 33 64
REMARK SMILES IDX 34 65 35 66 36 67 60 68 61 69 69 70 62 71 64 72 70 73 63 74
REMARK SMILES IDX 65 75 66 76 67 77 68 78 45 79 46 80 54 81 47 82 49 83 55 84
REMARK SMILES IDX 48 85 50 86 51 87 52 88 53 89
REMARK H PARENT 75 42 43 53
REMARK Flexibility Score: inf
ROOT
ATOM      1  C   UNL A   1      36.554  20.454  25.064  1.00  0.00     0.275 C 
ENDROOT
BRANCH   1   2
ATOM      2  C   UNL A   1      35.054  20.731  25.219  1.00  0.00     0.275 C 
BRANCH   2   3
ATOM      3  O   UNL A   1      34.796  22.059  25.724  1.00  0.00    -0.459 OA
BRANCH   3   4
ATOM      4  C   UNL A   1      33.510  22.489  25.616  1.00  0.00     0.338 C 
ATOM      5  O   UNL A   1      32.527  21.835  25.903  1.00  0.00    -0.246 OA
BRANCH   4   6
ATOM      6  C   UNL A   1      33.430  23.881  25.108  1.00  0.00     0.087 C 
ATOM      7  C   UNL A   1      33.541  28.678  25.672  1.00  0.00     0.015 A 
ATOM      8  C   UNL A   1      33.434  28.843  24.288  1.00  0.00     0.015 A 
ATOM      9  C   UNL A   1      33.583  27.396  26.240  1.00  0.00     0.023 A 
ATOM     10  C   UNL A   1      33.425  27.720  23.463  1.00  0.00     0.048 A 
ATOM     11  C   UNL A   1      33.547  26.268  25.412  1.00  0.00     0.018 A 
ATOM     12  C   UNL A   1      33.497  26.446  24.026  1.00  0.00     0.128 A 
ATOM     13  C   UNL A   1      33.619  24.912  25.952  1.00  0.00     0.027 C 
ATOM     14  O   UNL A   1      33.610  25.405  23.153  1.00  0.00    -0.475 OA
ATOM     15  C   UNL A   1      33.143  24.111  23.631  1.00  0.00     0.316 C 
BRANCH   7  16
ATOM     16  C   UNL A   1      33.655  29.864  26.544  1.00  0.00     0.260 C 
ATOM     17  O   UNL A   1      32.837  30.119  27.418  1.00  0.00    -0.298 OA
ENDBRANCH   7  16
BRANCH  15  18
ATOM     18  C   UNL A   1      33.615  23.055  22.612  1.00  0.00     0.430 C 
ATOM     19  F   UNL A   1      32.977  21.876  22.777  1.00  0.00    -0.167 F 
ATOM     20  F   UNL A   1      33.321  23.461  21.349  1.00  0.00    -0.167 F 
ATOM     21  F   UNL A   1      34.948  22.851  22.664  1.00  0.00    -0.167 F 
ENDBRANCH  15  18
ENDBRANCH   4   6
ENDBRANCH   3   4
ENDBRANCH   2   3
ENDBRANCH   1   2
BRANCH   1  22
ATOM     22  O   UNL A   1      37.351  21.518  25.613  1.00  0.00    -0.458 OA
BRANCH  22  23
ATOM     23  C   UNL A   1      38.608  21.158  25.964  1.00  0.00     0.338 C 
ATOM     24  O   UNL A   1      39.134  20.071  25.772  1.00  0.00    -0.246 OA
BRANCH  23  25
ATOM     25  C   UNL A   1      39.365  22.335  26.436  1.00  0.00     0.060 A 
ATOM     26  C   UNL A   1      38.955  23.575  25.939  1.00  0.00     0.016 A 
ATOM     27  C   UNL A   1      40.445  22.258  27.317  1.00  0.00     0.016 A 
ATOM     28  C   UNL A   1      39.567  24.750  26.371  1.00  0.00     0.010 A 
ATOM     29  C   UNL A   1      41.099  23.435  27.711  1.00  0.00     0.010 A 
ATOM     30  C   UNL A   1      40.654  24.688  27.250  1.00  0.00    -0.014 A 
BRANCH  30  31
ATOM     31  C   UNL A   1      41.380  25.941  27.570  1.00  0.00     0.031 A 
ATOM     32  C   UNL A   1      40.687  26.997  28.384  1.00  0.00     0.074 A 
ATOM     33  C   UNL A   1      42.662  26.111  27.197  1.00  0.00     0.049 A 
ATOM     34  N   UNL A   1      41.146  28.141  28.818  1.00  0.00    -0.248 NA
ATOM     35  C   UNL A   1      39.296  26.716  28.774  1.00  0.00     0.031 C 
ATOM     36  C   UNL A   1      43.465  25.143  26.452  1.00  0.00     0.029 A 
ATOM     37  N   UNL A   1      43.513  27.171  27.396  1.00  0.00    -0.354 N 
ATOM     38  C   UNL A   1      40.104  28.721  29.531  1.00  0.00     0.074 A 
ATOM     39  C   UNL A   1      38.985  27.806  29.460  1.00  0.00     0.031 C 
ATOM     40  C   UNL A   1      44.685  25.666  26.231  1.00  0.00     0.029 A 
ATOM     41  C   UNL A   1      44.743  27.010  26.802  1.00  0.00     0.049 A 
ATOM     42  H   UNL A   1      43.266  27.972  27.914  1.00  0.00     0.167 HD
ATOM     43  C   UNL A   1      40.084  29.900  30.196  1.00  0.00     0.034 A 
ATOM     44  C   UNL A   1      45.787  27.861  26.715  1.00  0.00     0.034 A 
ATOM     45  C   UNL A   1      41.185  30.822  30.249  1.00  0.00     0.049 A 
ATOM     46  C   UNL A   1      45.700  29.210  27.389  1.00  0.00     0.074 A 
ATOM     47  C   UNL A   1      41.251  32.048  30.889  1.00  0.00     0.029 A 
ATOM     48  N   UNL A   1      42.409  30.631  29.626  1.00  0.00    -0.354 N 
ATOM     49  N   UNL A   1      44.744  29.704  28.137  1.00  0.00    -0.248 NA
ATOM     50  C   UNL A   1      46.857  30.106  27.232  1.00  0.00     0.031 C 
ATOM     51  C   UNL A   1      42.502  32.613  30.624  1.00  0.00     0.029 A 
ATOM     52  C   UNL A   1      43.232  31.722  29.855  1.00  0.00     0.049 A 
ATOM     53  H   UNL A   1      42.656  29.839  29.097  1.00  0.00     0.167 HD
ATOM     54  C   UNL A   1      45.202  30.942  28.577  1.00  0.00     0.074 A 
ATOM     55  C   UNL A   1      46.531  31.115  28.028  1.00  0.00     0.031 C 
ATOM     56  C   UNL A   1      44.577  31.859  29.357  1.00  0.00     0.034 A 
BRANCH  43  57
ATOM     57  C   UNL A   1      38.819  30.257  30.930  1.00  0.00     0.023 A 
ATOM     58  C   UNL A   1      38.640  29.824  32.259  1.00  0.00     0.012 A 
ATOM     59  C   UNL A   1      37.833  31.059  30.324  1.00  0.00     0.148 A 
ATOM     60  C   UNL A   1      37.483  30.155  32.964  1.00  0.00     0.002 A 
ATOM     61  C   UNL A   1      36.703  31.422  31.046  1.00  0.00     0.091 A 
ATOM     62  F   UNL A   1      38.015  31.443  29.052  1.00  0.00    -0.205 F 
ATOM     63  C   UNL A   1      36.521  30.961  32.361  1.00  0.00     0.022 A 
BRANCH  61  64
ATOM     64  S   UNL A   1      35.440  32.514  30.387  1.00  0.00     0.127 S 
ATOM     65  O   UNL A   1      35.028  31.794  29.182  1.00  0.00    -0.237 OA
ATOM     66  O   UNL A   1      34.448  32.519  31.463  1.00  0.00    -0.237 OA
ATOM     67  O   UNL A   1      36.093  33.794  30.153  1.00  0.00    -0.744 OA
ENDBRANCH  61  64
ENDBRANCH  43  57
BRANCH  44  68
ATOM     68  C   UNL A   1      47.026  27.475  25.976  1.00  0.00     0.023 A 
ATOM     69  C   UNL A   1      48.110  26.910  26.677  1.00  0.00     0.012 A 
ATOM     70  C   UNL A   1      47.154  27.712  24.593  1.00  0.00     0.148 A 
ATOM     71  C   UNL A   1      49.314  26.637  26.027  1.00  0.00     0.002 A 
ATOM     72  C   UNL A   1      48.337  27.386  23.941  1.00  0.00     0.091 A 
ATOM     73  F   UNL A   1      46.121  28.268  23.945  1.00  0.00    -0.205 F 
ATOM     74  C   UNL A   1      49.426  26.869  24.659  1.00  0.00     0.022 A 
BRANCH  72  75
ATOM     75  S   UNL A   1      48.538  27.554  22.163  1.00  0.00     0.127 S 
ATOM     76  O   UNL A   1      49.761  28.348  22.075  1.00  0.00    -0.237 OA
ATOM     77  O   UNL A   1      48.677  26.159  21.743  1.00  0.00    -0.237 OA
ATOM     78  O   UNL A   1      47.326  28.209  21.690  1.00  0.00    -0.744 OA
ENDBRANCH  72  75
ENDBRANCH  44  68
BRANCH  56  79
ATOM     79  C   UNL A   1      45.335  33.113  29.720  1.00  0.00     0.023 A 
ATOM     80  C   UNL A   1      46.157  33.140  30.864  1.00  0.00     0.012 A 
ATOM     81  C   UNL A   1      45.283  34.248  28.883  1.00  0.00     0.148 A 
ATOM     82  C   UNL A   1      46.881  34.286  31.192  1.00  0.00     0.002 A 
ATOM     83  C   UNL A   1      46.048  35.367  29.187  1.00  0.00     0.091 A 
ATOM     84  F   UNL A   1      44.484  34.212  27.806  1.00  0.00    -0.205 F 
ATOM     85  C   UNL A   1      46.836  35.394  30.350  1.00  0.00     0.022 A 
BRANCH  83  86
ATOM     86  S   UNL A   1      46.134  36.801  28.107  1.00  0.00     0.127 S 
ATOM     87  O   UNL A   1      46.591  36.202  26.853  1.00  0.00    -0.237 OA
ATOM     88  O   UNL A   1      44.745  37.261  28.093  1.00  0.00    -0.237 OA
ATOM     89  O   UNL A   1      47.070  37.723  28.736  1.00  0.00    -0.744 OA
ENDBRANCH  83  86
ENDBRANCH  56  79
ENDBRANCH  30  31
ENDBRANCH  23  25
ENDBRANCH  22  23
ENDBRANCH   1  22
TORSDOF 16
ENDMDL
