MODEL 1
REMARK VINA RESULT:     -11.3      0.000      0.000
REMARK SMILES CCCC1CN(c2cc(C(=O)OCCOC(=O)c3ccc(-c4c5nc(c(-c6cccc(S(=O)(=O)[O-])c6F)c6ccc([nH]6)c(-c6cccc(S(=O)(=O)[O-])c6F)c6nc(c(-c7cccc(S(=O)(=O)[O-])c7F)c7ccc4[nH]7)C=C6)C=C5)cc3)ccc2C)C1
REMARK SMILES IDX 13 1 12 2 10 3 11 4 9 5 7 6 8 7 83 8 82 9 84 10 81 11 6 12
REMARK SMILES IDX 4 13 5 14 85 15 3 16 2 17 1 18 14 19 15 20 16 21 17 22 18 23
REMARK SMILES IDX 19 24 80 25 20 26 79 27 21 28 22 29 23 30 73 31 24 32 78 33
REMARK SMILES IDX 72 34 74 35 25 36 77 37 71 38 70 39 26 41 58 42 38 43 57 44
REMARK SMILES IDX 39 45 42 46 56 47 75 48 40 49 41 50 55 52 76 53 43 54 27 55
REMARK SMILES IDX 28 56 36 57 29 58 31 59 37 60 30 61 32 62 33 63 34 64 35 65
REMARK SMILES IDX 59 66 60 67 68 68 61 69 63 70 69 71 62 72 64 73 65 74 66 75
REMARK SMILES IDX 67 76 44 77 45 78 53 79 46 80 48 81 54 82 47 83 49 84 50 85
REMARK SMILES IDX 51 86 52 87
REMARK H PARENT 74 40 42 51
REMARK Flexibility Score: inf
ROOT
ATOM      1  C   UNL A   1      33.898  29.332  26.718  1.00  0.00     0.275 C 
ENDROOT
BRANCH   1   2
ATOM      2  O   UNL A   1      32.817  28.575  26.182  1.00  0.00    -0.458 OA
BRANCH   2   3
ATOM      3  C   UNL A   1      33.135  27.589  25.319  1.00  0.00     0.338 C 
ATOM      4  O   UNL A   1      33.866  27.672  24.352  1.00  0.00    -0.246 OA
BRANCH   3   5
ATOM      5  C   UNL A   1      32.395  26.379  25.719  1.00  0.00     0.062 A 
ATOM      6  C   UNL A   1      32.392  24.044  26.368  1.00  0.00     0.040 A 
ATOM      7  C   UNL A   1      33.090  25.230  26.106  1.00  0.00     0.041 A 
ATOM      8  C   UNL A   1      30.979  24.061  26.365  1.00  0.00    -0.028 A 
ATOM      9  C   UNL A   1      30.299  25.246  26.039  1.00  0.00     0.006 A 
ATOM     10  C   UNL A   1      30.158  22.863  26.766  1.00  0.00     0.046 C 
ATOM     11  C   UNL A   1      31.003  26.385  25.661  1.00  0.00     0.016 A 
BRANCH   6  12
ATOM     12  N   UNL A   1      33.077  22.803  26.466  1.00  0.00    -0.371 N 
ATOM     13  C   UNL A   1      34.979  22.386  25.768  1.00  0.00     0.028 C 
ATOM     14  C   UNL A   1      33.548  22.169  25.255  1.00  0.00     0.122 C 
ATOM     15  C   UNL A   1      34.308  22.495  27.154  1.00  0.00     0.122 C 
BRANCH  13  16
ATOM     16  C   UNL A   1      35.927  21.240  25.447  1.00  0.00     0.007 C 
BRANCH  16  17
ATOM     17  C   UNL A   1      37.283  21.755  24.963  1.00  0.00    -0.003 C 
ATOM     18  C   UNL A   1      37.755  22.982  25.725  1.00  0.00     0.004 C 
ENDBRANCH  16  17
ENDBRANCH  13  16
ENDBRANCH   6  12
ENDBRANCH   3   5
ENDBRANCH   2   3
ENDBRANCH   1   2
BRANCH   1  19
ATOM     19  C   UNL A   1      33.595  30.736  27.286  1.00  0.00     0.275 C 
BRANCH  19  20
ATOM     20  O   UNL A   1      34.619  31.550  27.924  1.00  0.00    -0.458 OA
BRANCH  20  21
ATOM     21  C   UNL A   1      35.225  31.450  29.141  1.00  0.00     0.338 C 
ATOM     22  O   UNL A   1      34.786  31.966  30.137  1.00  0.00    -0.246 OA
BRANCH  21  23
ATOM     23  C   UNL A   1      36.431  30.618  29.187  1.00  0.00     0.060 A 
ATOM     24  C   UNL A   1      36.675  29.808  30.308  1.00  0.00     0.016 A 
ATOM     25  C   UNL A   1      37.250  30.587  28.068  1.00  0.00     0.016 A 
ATOM     26  C   UNL A   1      37.702  28.873  30.270  1.00  0.00     0.010 A 
ATOM     27  C   UNL A   1      38.181  29.587  27.975  1.00  0.00     0.010 A 
ATOM     28  C   UNL A   1      38.451  28.783  29.100  1.00  0.00    -0.014 A 
BRANCH  28  29
ATOM     29  C   UNL A   1      39.806  28.261  29.082  1.00  0.00     0.031 A 
ATOM     30  C   UNL A   1      40.149  26.881  28.743  1.00  0.00     0.074 A 
ATOM     31  C   UNL A   1      40.705  29.263  29.216  1.00  0.00     0.049 A 
ATOM     32  N   UNL A   1      41.280  26.357  29.057  1.00  0.00    -0.248 NA
ATOM     33  C   UNL A   1      39.254  25.959  28.049  1.00  0.00     0.031 C 
ATOM     34  C   UNL A   1      42.092  29.351  28.819  1.00  0.00     0.029 A 
ATOM     35  N   UNL A   1      40.460  30.481  29.871  1.00  0.00    -0.354 N 
ATOM     36  C   UNL A   1      41.390  25.171  28.363  1.00  0.00     0.074 A 
ATOM     37  C   UNL A   1      40.066  24.913  27.841  1.00  0.00     0.031 C 
ATOM     38  C   UNL A   1      42.639  30.420  29.433  1.00  0.00     0.029 A 
ATOM     39  C   UNL A   1      41.665  30.920  30.401  1.00  0.00     0.049 A 
ATOM     40  H   UNL A   1      39.591  30.940  29.941  1.00  0.00     0.167 HD
ATOM     41  C   UNL A   1      42.633  24.658  28.142  1.00  0.00     0.034 A 
ATOM     42  C   UNL A   1      41.832  31.053  31.751  1.00  0.00     0.034 A 
ATOM     43  C   UNL A   1      43.653  25.530  28.743  1.00  0.00     0.049 A 
ATOM     44  C   UNL A   1      42.898  30.094  32.245  1.00  0.00     0.074 A 
ATOM     45  C   UNL A   1      44.372  26.593  28.218  1.00  0.00     0.029 A 
ATOM     46  N   UNL A   1      43.771  25.625  30.126  1.00  0.00    -0.354 N 
ATOM     47  N   UNL A   1      43.363  29.098  31.543  1.00  0.00    -0.248 NA
ATOM     48  C   UNL A   1      43.488  30.159  33.576  1.00  0.00     0.031 C 
ATOM     49  C   UNL A   1      44.848  27.381  29.297  1.00  0.00     0.029 A 
ATOM     50  C   UNL A   1      44.445  26.788  30.481  1.00  0.00     0.049 A 
ATOM     51  H   UNL A   1      43.424  24.961  30.765  1.00  0.00     0.167 HD
ATOM     52  C   UNL A   1      44.187  28.332  32.314  1.00  0.00     0.074 A 
ATOM     53  C   UNL A   1      44.289  29.079  33.558  1.00  0.00     0.031 C 
ATOM     54  C   UNL A   1      44.660  27.122  31.886  1.00  0.00     0.034 A 
BRANCH  41  55
ATOM     55  C   UNL A   1      42.947  23.636  27.063  1.00  0.00     0.023 A 
ATOM     56  C   UNL A   1      43.542  24.125  25.876  1.00  0.00     0.012 A 
ATOM     57  C   UNL A   1      42.667  22.250  27.098  1.00  0.00     0.148 A 
ATOM     58  C   UNL A   1      43.765  23.324  24.753  1.00  0.00     0.002 A 
ATOM     59  C   UNL A   1      42.855  21.452  25.959  1.00  0.00     0.091 A 
ATOM     60  F   UNL A   1      42.258  21.692  28.245  1.00  0.00    -0.205 F 
ATOM     61  C   UNL A   1      43.397  21.991  24.785  1.00  0.00     0.022 A 
BRANCH  59  62
ATOM     62  S   UNL A   1      42.355  19.723  25.870  1.00  0.00     0.127 S 
ATOM     63  O   UNL A   1      42.647  19.247  27.225  1.00  0.00    -0.237 OA
ATOM     64  O   UNL A   1      40.930  19.821  25.560  1.00  0.00    -0.237 OA
ATOM     65  O   UNL A   1      43.187  19.116  24.838  1.00  0.00    -0.744 OA
ENDBRANCH  59  62
ENDBRANCH  41  55
BRANCH  42  66
ATOM     66  C   UNL A   1      40.564  31.364  32.513  1.00  0.00     0.023 A 
ATOM     67  C   UNL A   1      39.750  30.278  32.932  1.00  0.00     0.012 A 
ATOM     68  C   UNL A   1      40.361  32.613  33.125  1.00  0.00     0.148 A 
ATOM     69  C   UNL A   1      38.866  30.406  34.012  1.00  0.00     0.002 A 
ATOM     70  C   UNL A   1      39.490  32.727  34.211  1.00  0.00     0.091 A 
ATOM     71  F   UNL A   1      41.060  33.672  32.696  1.00  0.00    -0.205 F 
ATOM     72  C   UNL A   1      38.758  31.625  34.670  1.00  0.00     0.022 A 
BRANCH  70  73
ATOM     73  S   UNL A   1      39.451  34.255  35.160  1.00  0.00     0.127 S 
ATOM     74  O   UNL A   1      38.918  35.228  34.206  1.00  0.00    -0.237 OA
ATOM     75  O   UNL A   1      38.544  33.949  36.258  1.00  0.00    -0.237 OA
ATOM     76  O   UNL A   1      40.859  34.437  35.498  1.00  0.00    -0.744 OA
ENDBRANCH  70  73
ENDBRANCH  42  66
BRANCH  54  77
ATOM     77  C   UNL A   1      45.390  26.135  32.765  1.00  0.00     0.023 A 
ATOM     78  C   UNL A   1      46.794  26.093  32.839  1.00  0.00     0.012 A 
ATOM     79  C   UNL A   1      44.672  25.311  33.668  1.00  0.00     0.148 A 
ATOM     80  C   UNL A   1      47.458  25.217  33.701  1.00  0.00     0.002 A 
ATOM     81  C   UNL A   1      45.338  24.540  34.613  1.00  0.00     0.091 A 
ATOM     82  F   UNL A   1      43.334  25.253  33.607  1.00  0.00    -0.205 F 
ATOM     83  C   UNL A   1      46.731  24.457  34.606  1.00  0.00     0.022 A 
BRANCH  81  84
ATOM     84  S   UNL A   1      44.435  23.780  35.968  1.00  0.00     0.127 S 
ATOM     85  O   UNL A   1      43.475  22.936  35.261  1.00  0.00    -0.237 OA
ATOM     86  O   UNL A   1      45.485  23.047  36.677  1.00  0.00    -0.237 OA
ATOM     87  O   UNL A   1      43.881  24.898  36.720  1.00  0.00    -0.744 OA
ENDBRANCH  81  84
ENDBRANCH  54  77
ENDBRANCH  28  29
ENDBRANCH  21  23
ENDBRANCH  20  21
ENDBRANCH  19  20
ENDBRANCH   1  19
TORSDOF 17
ENDMDL
MODEL 2
REMARK VINA RESULT:     -11.1      3.989      9.772
REMARK SMILES CCCC1CN(c2cc(C(=O)OCCOC(=O)c3ccc(-c4c5nc(c(-c6cccc(S(=O)(=O)[O-])c6F)c6ccc([nH]6)c(-c6cccc(S(=O)(=O)[O-])c6F)c6nc(c(-c7cccc(S(=O)(=O)[O-])c7F)c7ccc4[nH]7)C=C6)C=C5)cc3)ccc2C)C1
REMARK SMILES IDX 13 1 12 2 10 3 11 4 9 5 7 6 8 7 83 8 82 9 84 10 81 11 6 12
REMARK SMILES IDX 4 13 5 14 85 15 3 16 2 17 1 18 14 19 15 20 16 21 17 22 18 23
REMARK SMILES IDX 19 24 80 25 20 26 79 27 21 28 22 29 23 30 73 31 24 32 78 33
REMARK SMILES IDX 72 34 74 35 25 36 77 37 71 38 70 39 26 41 58 42 38 43 57 44
REMARK SMILES IDX 39 45 42 46 56 47 75 48 40 49 41 50 55 52 76 53 43 54 27 55
REMARK SMILES IDX 28 56 36 57 29 58 31 59 37 60 30 61 32 62 33 63 34 64 35 65
REMARK SMILES IDX 59 66 60 67 68 68 61 69 63 70 69 71 62 72 64 73 65 74 66 75
REMARK SMILES IDX 67 76 44 77 45 78 53 79 46 80 48 81 54 82 47 83 49 84 50 85
REMARK SMILES IDX 51 86 52 87
REMARK H PARENT 74 40 42 51
REMARK Flexibility Score: inf
ROOT
ATOM      1  C   UNL A   1      37.074  21.863  25.770  1.00  0.00     0.275 C 
ENDROOT
BRANCH   1   2
ATOM      2  O   UNL A   1      36.436  23.012  25.219  1.00  0.00    -0.458 OA
BRANCH   2   3
ATOM      3  C   UNL A   1      35.136  23.193  25.531  1.00  0.00     0.338 C 
ATOM      4  O   UNL A   1      34.573  22.843  26.549  1.00  0.00    -0.246 OA
BRANCH   3   5
ATOM      5  C   UNL A   1      34.484  23.856  24.387  1.00  0.00     0.062 A 
ATOM      6  C   UNL A   1      33.606  25.863  23.351  1.00  0.00     0.040 A 
ATOM      7  C   UNL A   1      34.334  25.245  24.377  1.00  0.00     0.041 A 
ATOM      8  C   UNL A   1      33.144  25.083  22.267  1.00  0.00    -0.028 A 
ATOM      9  C   UNL A   1      33.366  23.696  22.266  1.00  0.00     0.006 A 
ATOM     10  C   UNL A   1      32.473  25.693  21.065  1.00  0.00     0.046 C 
ATOM     11  C   UNL A   1      33.982  23.076  23.348  1.00  0.00     0.016 A 
BRANCH   6  12
ATOM     12  N   UNL A   1      33.185  27.214  23.471  1.00  0.00    -0.371 N 
ATOM     13  C   UNL A   1      33.093  28.329  25.212  1.00  0.00     0.028 C 
ATOM     14  C   UNL A   1      32.093  27.527  24.365  1.00  0.00     0.122 C 
ATOM     15  C   UNL A   1      33.934  28.365  23.918  1.00  0.00     0.122 C 
BRANCH  13  16
ATOM     16  C   UNL A   1      32.514  29.605  25.804  1.00  0.00     0.007 C 
BRANCH  16  17
ATOM     17  C   UNL A   1      33.049  29.860  27.214  1.00  0.00    -0.003 C 
ATOM     18  C   UNL A   1      33.445  31.309  27.443  1.00  0.00     0.004 C 
ENDBRANCH  16  17
ENDBRANCH  13  16
ENDBRANCH   6  12
ENDBRANCH   3   5
ENDBRANCH   2   3
ENDBRANCH   1   2
BRANCH   1  19
ATOM     19  C   UNL A   1      38.618  21.822  25.785  1.00  0.00     0.275 C 
BRANCH  19  20
ATOM     20  O   UNL A   1      39.421  22.992  26.109  1.00  0.00    -0.458 OA
BRANCH  20  21
ATOM     21  C   UNL A   1      40.143  23.313  27.220  1.00  0.00     0.338 C 
ATOM     22  O   UNL A   1      40.866  22.530  27.780  1.00  0.00    -0.246 OA
BRANCH  21  23
ATOM     23  C   UNL A   1      40.036  24.704  27.671  1.00  0.00     0.060 A 
ATOM     24  C   UNL A   1      40.650  25.725  26.930  1.00  0.00     0.016 A 
ATOM     25  C   UNL A   1      39.242  24.975  28.776  1.00  0.00     0.016 A 
ATOM     26  C   UNL A   1      40.384  27.054  27.238  1.00  0.00     0.010 A 
ATOM     27  C   UNL A   1      38.877  26.274  29.007  1.00  0.00     0.010 A 
ATOM     28  C   UNL A   1      39.503  27.310  28.285  1.00  0.00    -0.014 A 
BRANCH  28  29
ATOM     29  C   UNL A   1      39.523  28.557  29.029  1.00  0.00     0.031 A 
ATOM     30  C   UNL A   1      38.672  29.706  28.727  1.00  0.00     0.074 A 
ATOM     31  C   UNL A   1      40.273  28.433  30.148  1.00  0.00     0.049 A 
ATOM     32  N   UNL A   1      38.933  30.888  29.160  1.00  0.00    -0.248 NA
ATOM     33  C   UNL A   1      37.471  29.643  27.897  1.00  0.00     0.031 C 
ATOM     34  C   UNL A   1      40.246  29.166  31.394  1.00  0.00     0.029 A 
ATOM     35  N   UNL A   1      41.345  27.538  30.302  1.00  0.00    -0.354 N 
ATOM     36  C   UNL A   1      37.815  31.663  28.939  1.00  0.00     0.074 A 
ATOM     37  C   UNL A   1      36.979  30.880  28.055  1.00  0.00     0.031 C 
ATOM     38  C   UNL A   1      41.374  28.879  32.076  1.00  0.00     0.029 A 
ATOM     39  C   UNL A   1      42.246  28.115  31.187  1.00  0.00     0.049 A 
ATOM     40  H   UNL A   1      41.440  26.662  29.863  1.00  0.00     0.167 HD
ATOM     41  C   UNL A   1      37.639  32.784  29.694  1.00  0.00     0.034 A 
ATOM     42  C   UNL A   1      43.512  28.440  30.788  1.00  0.00     0.034 A 
ATOM     43  C   UNL A   1      38.761  32.941  30.632  1.00  0.00     0.049 A 
ATOM     44  C   UNL A   1      43.720  29.939  30.873  1.00  0.00     0.074 A 
ATOM     45  C   UNL A   1      38.930  32.504  31.937  1.00  0.00     0.029 A 
ATOM     46  N   UNL A   1      40.029  33.270  30.164  1.00  0.00    -0.354 N 
ATOM     47  N   UNL A   1      42.752  30.801  31.015  1.00  0.00    -0.248 NA
ATOM     48  C   UNL A   1      45.024  30.582  30.761  1.00  0.00     0.031 C 
ATOM     49  C   UNL A   1      40.320  32.485  32.220  1.00  0.00     0.029 A 
ATOM     50  C   UNL A   1      40.998  32.936  31.101  1.00  0.00     0.049 A 
ATOM     51  H   UNL A   1      40.213  33.682  29.288  1.00  0.00     0.167 HD
ATOM     52  C   UNL A   1      43.239  32.070  30.897  1.00  0.00     0.074 A 
ATOM     53  C   UNL A   1      44.679  31.880  30.810  1.00  0.00     0.031 C 
ATOM     54  C   UNL A   1      42.414  33.158  30.817  1.00  0.00     0.034 A 
BRANCH  41  55
ATOM     55  C   UNL A   1      36.302  33.480  29.877  1.00  0.00     0.023 A 
ATOM     56  C   UNL A   1      35.688  33.999  28.713  1.00  0.00     0.012 A 
ATOM     57  C   UNL A   1      35.622  33.708  31.097  1.00  0.00     0.148 A 
ATOM     58  C   UNL A   1      34.526  34.775  28.748  1.00  0.00     0.002 A 
ATOM     59  C   UNL A   1      34.477  34.517  31.138  1.00  0.00     0.091 A 
ATOM     60  F   UNL A   1      36.057  33.107  32.212  1.00  0.00    -0.205 F 
ATOM     61  C   UNL A   1      33.933  35.056  29.965  1.00  0.00     0.022 A 
BRANCH  59  62
ATOM     62  S   UNL A   1      33.662  34.998  32.673  1.00  0.00     0.127 S 
ATOM     63  O   UNL A   1      33.226  33.706  33.209  1.00  0.00    -0.237 OA
ATOM     64  O   UNL A   1      34.747  35.627  33.424  1.00  0.00    -0.237 OA
ATOM     65  O   UNL A   1      32.567  35.879  32.288  1.00  0.00    -0.744 OA
ENDBRANCH  59  62
ENDBRANCH  41  55
BRANCH  42  66
ATOM     66  C   UNL A   1      44.061  27.577  29.676  1.00  0.00     0.023 A 
ATOM     67  C   UNL A   1      44.203  26.184  29.914  1.00  0.00     0.012 A 
ATOM     68  C   UNL A   1      44.081  28.021  28.342  1.00  0.00     0.148 A 
ATOM     69  C   UNL A   1      44.226  25.264  28.859  1.00  0.00     0.002 A 
ATOM     70  C   UNL A   1      44.089  27.095  27.295  1.00  0.00     0.091 A 
ATOM     71  F   UNL A   1      44.028  29.335  28.089  1.00  0.00    -0.205 F 
ATOM     72  C   UNL A   1      44.141  25.718  27.549  1.00  0.00     0.022 A 
BRANCH  70  73
ATOM     73  S   UNL A   1      43.830  27.661  25.608  1.00  0.00     0.127 S 
ATOM     74  O   UNL A   1      42.778  28.670  25.751  1.00  0.00    -0.237 OA
ATOM     75  O   UNL A   1      45.125  28.210  25.232  1.00  0.00    -0.237 OA
ATOM     76  O   UNL A   1      43.413  26.434  24.937  1.00  0.00    -0.744 OA
ENDBRANCH  70  73
ENDBRANCH  42  66
BRANCH  54  77
ATOM     77  C   UNL A   1      42.876  34.552  30.469  1.00  0.00     0.023 A 
ATOM     78  C   UNL A   1      43.372  35.441  31.439  1.00  0.00     0.012 A 
ATOM     79  C   UNL A   1      42.967  34.961  29.115  1.00  0.00     0.148 A 
ATOM     80  C   UNL A   1      43.854  36.707  31.099  1.00  0.00     0.002 A 
ATOM     81  C   UNL A   1      43.568  36.166  28.773  1.00  0.00     0.091 A 
ATOM     82  F   UNL A   1      42.453  34.192  28.144  1.00  0.00    -0.205 F 
ATOM     83  C   UNL A   1      43.975  37.062  29.762  1.00  0.00     0.022 A 
BRANCH  81  84
ATOM     84  S   UNL A   1      43.994  36.518  27.063  1.00  0.00     0.127 S 
ATOM     85  O   UNL A   1      44.800  37.729  27.191  1.00  0.00    -0.237 OA
ATOM     86  O   UNL A   1      44.748  35.324  26.672  1.00  0.00    -0.237 OA
ATOM     87  O   UNL A   1      42.715  36.661  26.381  1.00  0.00    -0.744 OA
ENDBRANCH  81  84
ENDBRANCH  54  77
ENDBRANCH  28  29
ENDBRANCH  21  23
ENDBRANCH  20  21
ENDBRANCH  19  20
ENDBRANCH   1  19
TORSDOF 17
ENDMDL
MODEL 3
REMARK VINA RESULT:     -11.0      3.940      9.879
REMARK SMILES CCCC1CN(c2cc(C(=O)OCCOC(=O)c3ccc(-c4c5nc(c(-c6cccc(S(=O)(=O)[O-])c6F)c6ccc([nH]6)c(-c6cccc(S(=O)(=O)[O-])c6F)c6nc(c(-c7cccc(S(=O)(=O)[O-])c7F)c7ccc4[nH]7)C=C6)C=C5)cc3)ccc2C)C1
REMARK SMILES IDX 13 1 12 2 10 3 11 4 9 5 7 6 8 7 83 8 82 9 84 10 81 11 6 12
REMARK SMILES IDX 4 13 5 14 85 15 3 16 2 17 1 18 14 19 15 20 16 21 17 22 18 23
REMARK SMILES IDX 19 24 80 25 20 26 79 27 21 28 22 29 23 30 73 31 24 32 78 33
REMARK SMILES IDX 72 34 74 35 25 36 77 37 71 38 70 39 26 41 58 42 38 43 57 44
REMARK SMILES IDX 39 45 42 46 56 47 75 48 40 49 41 50 55 52 76 53 43 54 27 55
REMARK SMILES IDX 28 56 36 57 29 58 31 59 37 60 30 61 32 62 33 63 34 64 35 65
REMARK SMILES IDX 59 66 60 67 68 68 61 69 63 70 69 71 62 72 64 73 65 74 66 75
REMARK SMILES IDX 67 76 44 77 45 78 53 79 46 80 48 81 54 82 47 83 49 84 50 85
REMARK SMILES IDX 51 86 52 87
REMARK H PARENT 74 40 42 51
REMARK Flexibility Score: inf
ROOT
ATOM      1  C   UNL A   1      36.988  21.143  24.749  1.00  0.00     0.275 C 
ENDROOT
BRANCH   1   2
ATOM      2  O   UNL A   1      36.226  22.283  24.360  1.00  0.00    -0.458 OA
BRANCH   2   3
ATOM      3  C   UNL A   1      35.028  22.446  24.959  1.00  0.00     0.338 C 
ATOM      4  O   UNL A   1      34.625  21.877  25.954  1.00  0.00    -0.246 OA
BRANCH   3   5
ATOM      5  C   UNL A   1      34.251  23.412  24.162  1.00  0.00     0.062 A 
ATOM      6  C   UNL A   1      32.962  25.460  24.027  1.00  0.00     0.040 A 
ATOM      7  C   UNL A   1      33.804  24.600  24.745  1.00  0.00     0.041 A 
ATOM      8  C   UNL A   1      32.682  25.176  22.671  1.00  0.00    -0.028 A 
ATOM      9  C   UNL A   1      33.198  24.008  22.085  1.00  0.00     0.006 A 
ATOM     10  C   UNL A   1      31.898  26.118  21.796  1.00  0.00     0.046 C 
ATOM     11  C   UNL A   1      33.931  23.100  22.843  1.00  0.00     0.016 A 
BRANCH   6  12
ATOM     12  N   UNL A   1      32.259  26.505  24.683  1.00  0.00    -0.371 N 
ATOM     13  C   UNL A   1      32.921  27.612  26.301  1.00  0.00     0.028 C 
ATOM     14  C   UNL A   1      32.009  26.392  26.102  1.00  0.00     0.122 C 
ATOM     15  C   UNL A   1      32.614  27.898  24.815  1.00  0.00     0.122 C 
BRANCH  13  16
ATOM     16  C   UNL A   1      32.451  28.561  27.393  1.00  0.00     0.007 C 
BRANCH  16  17
ATOM     17  C   UNL A   1      33.563  29.521  27.816  1.00  0.00    -0.003 C 
ATOM     18  C   UNL A   1      33.458  30.880  27.144  1.00  0.00     0.004 C 
ENDBRANCH  16  17
ENDBRANCH  13  16
ENDBRANCH   6  12
ENDBRANCH   3   5
ENDBRANCH   2   3
ENDBRANCH   1   2
BRANCH   1  19
ATOM     19  C   UNL A   1      38.225  21.364  25.646  1.00  0.00     0.275 C 
BRANCH  19  20
ATOM     20  O   UNL A   1      38.671  22.693  26.037  1.00  0.00    -0.458 OA
BRANCH  20  21
ATOM     21  C   UNL A   1      39.903  23.172  26.369  1.00  0.00     0.338 C 
ATOM     22  O   UNL A   1      40.922  22.565  26.157  1.00  0.00    -0.246 OA
BRANCH  21  23
ATOM     23  C   UNL A   1      39.929  24.516  26.956  1.00  0.00     0.060 A 
ATOM     24  C   UNL A   1      40.690  25.527  26.348  1.00  0.00     0.016 A 
ATOM     25  C   UNL A   1      39.116  24.768  28.052  1.00  0.00     0.016 A 
ATOM     26  C   UNL A   1      40.559  26.840  26.780  1.00  0.00     0.010 A 
ATOM     27  C   UNL A   1      38.888  26.072  28.400  1.00  0.00     0.010 A 
ATOM     28  C   UNL A   1      39.661  27.093  27.813  1.00  0.00    -0.014 A 
BRANCH  28  29
ATOM     29  C   UNL A   1      39.782  28.251  28.682  1.00  0.00     0.031 A 
ATOM     30  C   UNL A   1      38.862  29.387  28.669  1.00  0.00     0.074 A 
ATOM     31  C   UNL A   1      40.724  28.040  29.630  1.00  0.00     0.049 A 
ATOM     32  N   UNL A   1      39.166  30.525  29.183  1.00  0.00    -0.248 NA
ATOM     33  C   UNL A   1      37.534  29.360  28.061  1.00  0.00     0.031 C 
ATOM     34  C   UNL A   1      40.902  28.631  30.937  1.00  0.00     0.029 A 
ATOM     35  N   UNL A   1      41.828  27.184  29.489  1.00  0.00    -0.354 N 
ATOM     36  C   UNL A   1      38.007  31.268  29.252  1.00  0.00     0.074 A 
ATOM     37  C   UNL A   1      37.047  30.549  28.444  1.00  0.00     0.031 C 
ATOM     38  C   UNL A   1      42.141  28.322  31.374  1.00  0.00     0.029 A 
ATOM     39  C   UNL A   1      42.858  27.700  30.263  1.00  0.00     0.049 A 
ATOM     40  H   UNL A   1      41.865  26.366  28.942  1.00  0.00     0.167 HD
ATOM     41  C   UNL A   1      37.941  32.290  30.151  1.00  0.00     0.034 A 
ATOM     42  C   UNL A   1      44.024  28.124  29.688  1.00  0.00     0.034 A 
ATOM     43  C   UNL A   1      39.209  32.395  30.890  1.00  0.00     0.049 A 
ATOM     44  C   UNL A   1      44.205  29.613  29.908  1.00  0.00     0.074 A 
ATOM     45  C   UNL A   1      39.621  31.826  32.085  1.00  0.00     0.029 A 
ATOM     46  N   UNL A   1      40.363  32.830  30.247  1.00  0.00    -0.354 N 
ATOM     47  N   UNL A   1      43.257  30.410  30.317  1.00  0.00    -0.248 NA
ATOM     48  C   UNL A   1      45.451  30.323  29.644  1.00  0.00     0.031 C 
ATOM     49  C   UNL A   1      41.039  31.839  32.115  1.00  0.00     0.029 A 
ATOM     50  C   UNL A   1      41.494  32.440  30.955  1.00  0.00     0.049 A 
ATOM     51  H   UNL A   1      40.377  33.344  29.407  1.00  0.00     0.167 HD
ATOM     52  C   UNL A   1      43.683  31.704  30.262  1.00  0.00     0.074 A 
ATOM     53  C   UNL A   1      45.088  31.591  29.903  1.00  0.00     0.031 C 
ATOM     54  C   UNL A   1      42.829  32.757  30.455  1.00  0.00     0.034 A 
BRANCH  41  55
ATOM     55  C   UNL A   1      36.642  32.900  30.645  1.00  0.00     0.023 A 
ATOM     56  C   UNL A   1      36.211  32.525  31.939  1.00  0.00     0.012 A 
ATOM     57  C   UNL A   1      35.787  33.772  29.930  1.00  0.00     0.148 A 
ATOM     58  C   UNL A   1      34.975  32.904  32.469  1.00  0.00     0.002 A 
ATOM     59  C   UNL A   1      34.529  34.123  30.444  1.00  0.00     0.091 A 
ATOM     60  F   UNL A   1      36.205  34.297  28.771  1.00  0.00    -0.205 F 
ATOM     61  C   UNL A   1      34.121  33.683  31.710  1.00  0.00     0.022 A 
BRANCH  59  62
ATOM     62  S   UNL A   1      33.315  35.080  29.517  1.00  0.00     0.127 S 
ATOM     63  O   UNL A   1      32.920  34.141  28.464  1.00  0.00    -0.237 OA
ATOM     64  O   UNL A   1      32.280  35.333  30.518  1.00  0.00    -0.237 OA
ATOM     65  O   UNL A   1      34.020  36.258  29.027  1.00  0.00    -0.744 OA
ENDBRANCH  59  62
ENDBRANCH  41  55
BRANCH  42  66
ATOM     66  C   UNL A   1      44.386  27.414  28.405  1.00  0.00     0.023 A 
ATOM     67  C   UNL A   1      44.082  28.055  27.174  1.00  0.00     0.012 A 
ATOM     68  C   UNL A   1      45.313  26.358  28.384  1.00  0.00     0.148 A 
ATOM     69  C   UNL A   1      44.778  27.743  26.000  1.00  0.00     0.002 A 
ATOM     70  C   UNL A   1      46.014  26.064  27.212  1.00  0.00     0.091 A 
ATOM     71  F   UNL A   1      45.562  25.684  29.514  1.00  0.00    -0.205 F 
ATOM     72  C   UNL A   1      45.766  26.766  26.025  1.00  0.00     0.022 A 
BRANCH  70  73
ATOM     73  S   UNL A   1      47.393  24.909  27.267  1.00  0.00     0.127 S 
ATOM     74  O   UNL A   1      48.031  25.087  25.962  1.00  0.00    -0.237 OA
ATOM     75  O   UNL A   1      48.193  25.391  28.385  1.00  0.00    -0.237 OA
ATOM     76  O   UNL A   1      46.710  23.632  27.446  1.00  0.00    -0.744 OA
ENDBRANCH  70  73
ENDBRANCH  42  66
BRANCH  54  77
ATOM     77  C   UNL A   1      43.186  34.200  30.194  1.00  0.00     0.023 A 
ATOM     78  C   UNL A   1      43.551  35.080  31.230  1.00  0.00     0.012 A 
ATOM     79  C   UNL A   1      43.312  34.680  28.867  1.00  0.00     0.148 A 
ATOM     80  C   UNL A   1      43.938  36.397  30.973  1.00  0.00     0.002 A 
ATOM     81  C   UNL A   1      43.823  35.947  28.613  1.00  0.00     0.091 A 
ATOM     82  F   UNL A   1      42.920  33.917  27.837  1.00  0.00    -0.205 F 
ATOM     83  C   UNL A   1      44.098  36.825  29.662  1.00  0.00     0.022 A 
BRANCH  81  84
ATOM     84  S   UNL A   1      44.308  36.415  26.947  1.00  0.00     0.127 S 
ATOM     85  O   UNL A   1      45.269  35.371  26.603  1.00  0.00    -0.237 OA
ATOM     86  O   UNL A   1      43.041  36.342  26.215  1.00  0.00    -0.237 OA
ATOM     87  O   UNL A   1      44.839  37.765  27.079  1.00  0.00    -0.744 OA
ENDBRANCH  81  84
ENDBRANCH  54  77
ENDBRANCH  28  29
ENDBRANCH  21  23
ENDBRANCH  20  21
ENDBRANCH  19  20
ENDBRANCH   1  19
TORSDOF 17
ENDMDL
