MODEL 1
REMARK VINA RESULT:     -12.9      0.000      0.000
REMARK SMILES O=C1C[C@@H](C(=O)OCCOC(=O)c2ccc(-c3c4nc(c(-c5cccc(S(=O)(=O)[O-])c5F)c5ccc([nH]5)c(-c5cccc(S(=O)(=O)[O-])c5F)c5nc(c(-c6cccc(S(=O)(=O)[O-])c6F)c6ccc3[nH]6)C=C5)C=C4)cc2)C2(CC[NH+](Cc3c[nH]nc3-c3ccc(Cl)cc3)CC2)N1
REMARK SMILES IDX 8 1 7 2 5 3 6 4 4 5 1 6 2 7 3 8 95 9 76 10 77 12 94 13 78 14
REMARK SMILES IDX 93 15 79 16 80 18 81 19 82 20 85 21 83 22 84 23 86 25 87 26
REMARK SMILES IDX 92 27 88 28 91 29 89 30 90 31 9 32 10 33 11 34 12 35 13 36
REMARK SMILES IDX 14 37 75 38 15 39 74 40 16 41 17 42 18 43 68 44 19 45 73 46
REMARK SMILES IDX 67 47 69 48 20 49 72 50 66 51 65 52 21 54 53 55 33 56 52 57
REMARK SMILES IDX 34 58 37 59 51 60 70 61 35 62 36 63 50 65 71 66 38 67 22 68
REMARK SMILES IDX 23 69 31 70 24 71 26 72 32 73 25 74 27 75 28 76 29 77 30 78
REMARK SMILES IDX 54 79 55 80 63 81 56 82 58 83 64 84 57 85 59 86 60 87 61 88
REMARK SMILES IDX 62 89 39 90 40 91 48 92 41 93 43 94 49 95 42 96 44 97 45 98
REMARK SMILES IDX 46 99 47 100
REMARK H PARENT 95 11 79 17 83 24 69 53 37 64
REMARK Flexibility Score: inf
ROOT
ATOM      1  C   UNL A   1      35.833  20.397  25.032  1.00  0.00     0.274 C 
ENDROOT
BRANCH   1   2
ATOM      2  O   UNL A   1      34.868  21.272  24.409  1.00  0.00    -0.462 OA
BRANCH   2   3
ATOM      3  C   UNL A   1      34.140  22.029  25.259  1.00  0.00     0.311 C 
ATOM      4  O   UNL A   1      34.562  22.453  26.332  1.00  0.00    -0.252 OA
BRANCH   3   5
ATOM      5  C   UNL A   1      32.702  22.281  24.844  1.00  0.00     0.134 C 
ATOM      6  O   UNL A   1      32.039  19.985  22.204  1.00  0.00    -0.275 OA
ATOM      7  C   UNL A   1      32.178  20.930  22.953  1.00  0.00     0.221 C 
ATOM      8  C   UNL A   1      32.138  20.898  24.458  1.00  0.00     0.117 C 
ATOM      9  N   UNL A   1      32.346  22.236  22.559  1.00  0.00    -0.349 N 
ATOM     10  C   UNL A   1      32.310  23.194  23.658  1.00  0.00     0.064 C 
ATOM     11  H   UNL A   1      32.480  22.500  21.620  1.00  0.00     0.164 HD
ATOM     12  C   UNL A   1      33.212  24.388  23.309  1.00  0.00     0.091 C 
ATOM     13  C   UNL A   1      30.823  23.651  23.825  1.00  0.00     0.091 C 
ATOM     14  C   UNL A   1      32.894  25.672  24.061  1.00  0.00     0.264 C 
ATOM     15  C   UNL A   1      30.600  25.049  24.415  1.00  0.00     0.264 C 
ATOM     16  N   UNL A   1      31.511  26.073  23.941  1.00  0.00    -0.331 N 
ATOM     17  H   UNL A   1      31.370  26.827  24.613  1.00  0.00     0.348 HD
BRANCH  16  18
ATOM     18  C   UNL A   1      31.145  26.886  22.776  1.00  0.00     0.303 C 
BRANCH  18  19
ATOM     19  C   UNL A   1      30.464  28.179  23.091  1.00  0.00     0.052 A 
ATOM     20  C   UNL A   1      29.233  28.588  22.610  1.00  0.00     0.115 A 
ATOM     21  C   UNL A   1      30.820  29.208  24.030  1.00  0.00     0.101 A 
ATOM     22  N   UNL A   1      29.009  29.828  23.112  1.00  0.00    -0.285 N 
ATOM     23  N   UNL A   1      29.935  30.221  23.988  1.00  0.00    -0.175 NA
ATOM     24  H   UNL A   1      28.238  30.385  22.853  1.00  0.00     0.189 HD
BRANCH  21  25
ATOM     25  C   UNL A   1      31.913  29.270  25.004  1.00  0.00     0.003 A 
ATOM     26  C   UNL A   1      33.232  29.122  24.546  1.00  0.00     0.012 A 
ATOM     27  C   UNL A   1      31.695  29.413  26.377  1.00  0.00     0.012 A 
ATOM     28  C   UNL A   1      34.306  29.129  25.440  1.00  0.00     0.021 A 
ATOM     29  C   UNL A   1      32.768  29.424  27.277  1.00  0.00     0.021 A 
ATOM     30  C   UNL A   1      34.069  29.281  26.803  1.00  0.00     0.041 A 
ATOM     31  Cl  UNL A   1      35.387  29.270  27.908  1.00  0.00    -0.084 Cl
ENDBRANCH  21  25
ENDBRANCH  18  19
ENDBRANCH  16  18
ENDBRANCH   3   5
ENDBRANCH   2   3
ENDBRANCH   1   2
BRANCH   1  32
ATOM     32  C   UNL A   1      37.265  20.849  24.741  1.00  0.00     0.275 C 
BRANCH  32  33
ATOM     33  O   UNL A   1      37.719  21.776  25.744  1.00  0.00    -0.458 OA
BRANCH  33  34
ATOM     34  C   UNL A   1      39.005  21.629  26.140  1.00  0.00     0.338 C 
ATOM     35  O   UNL A   1      39.711  20.645  25.978  1.00  0.00    -0.246 OA
BRANCH  34  36
ATOM     36  C   UNL A   1      39.514  22.869  26.758  1.00  0.00     0.060 A 
ATOM     37  C   UNL A   1      39.068  24.117  26.318  1.00  0.00     0.016 A 
ATOM     38  C   UNL A   1      40.574  22.790  27.660  1.00  0.00     0.016 A 
ATOM     39  C   UNL A   1      39.733  25.279  26.707  1.00  0.00     0.010 A 
ATOM     40  C   UNL A   1      41.167  23.963  28.136  1.00  0.00     0.010 A 
ATOM     41  C   UNL A   1      40.770  25.220  27.648  1.00  0.00    -0.014 A 
BRANCH  41  42
ATOM     42  C   UNL A   1      41.391  26.463  28.183  1.00  0.00     0.031 A 
ATOM     43  C   UNL A   1      40.561  27.517  28.866  1.00  0.00     0.074 A 
ATOM     44  C   UNL A   1      42.702  26.686  27.961  1.00  0.00     0.049 A 
ATOM     45  N   UNL A   1      40.895  28.735  29.208  1.00  0.00    -0.248 NA
ATOM     46  C   UNL A   1      39.171  27.163  29.194  1.00  0.00     0.031 C 
ATOM     47  C   UNL A   1      43.614  25.760  27.288  1.00  0.00     0.029 A 
ATOM     48  N   UNL A   1      43.485  27.781  28.238  1.00  0.00    -0.354 N 
ATOM     49  C   UNL A   1      39.742  29.320  29.719  1.00  0.00     0.074 A 
ATOM     50  C   UNL A   1      38.702  28.314  29.660  1.00  0.00     0.031 C 
ATOM     51  C   UNL A   1      44.823  26.325  27.188  1.00  0.00     0.029 A 
ATOM     52  C   UNL A   1      44.755  27.680  27.719  1.00  0.00     0.049 A 
ATOM     53  H   UNL A   1      43.171  28.557  28.754  1.00  0.00     0.167 HD
ATOM     54  C   UNL A   1      39.569  30.577  30.196  1.00  0.00     0.034 A 
ATOM     55  C   UNL A   1      45.745  28.589  27.621  1.00  0.00     0.034 A 
ATOM     56  C   UNL A   1      40.622  31.555  30.305  1.00  0.00     0.049 A 
ATOM     57  C   UNL A   1      45.537  29.965  28.174  1.00  0.00     0.074 A 
ATOM     58  C   UNL A   1      40.564  32.821  30.864  1.00  0.00     0.029 A 
ATOM     59  N   UNL A   1      41.917  31.385  29.840  1.00  0.00    -0.354 N 
ATOM     60  N   UNL A   1      44.474  30.465  28.756  1.00  0.00    -0.248 NA
ATOM     61  C   UNL A   1      46.669  30.897  28.081  1.00  0.00     0.031 C 
ATOM     62  C   UNL A   1      41.818  33.425  30.715  1.00  0.00     0.029 A 
ATOM     63  C   UNL A   1      42.663  32.528  30.083  1.00  0.00     0.049 A 
ATOM     64  H   UNL A   1      42.256  30.573  29.401  1.00  0.00     0.167 HD
ATOM     65  C   UNL A   1      44.812  31.763  29.115  1.00  0.00     0.074 A 
ATOM     66  C   UNL A   1      46.189  31.962  28.709  1.00  0.00     0.031 C 
ATOM     67  C   UNL A   1      44.043  32.708  29.709  1.00  0.00     0.034 A 
BRANCH  54  68
ATOM     68  C   UNL A   1      38.190  30.970  30.662  1.00  0.00     0.023 A 
ATOM     69  C   UNL A   1      37.754  30.608  31.952  1.00  0.00     0.012 A 
ATOM     70  C   UNL A   1      37.351  31.754  29.844  1.00  0.00     0.148 A 
ATOM     71  C   UNL A   1      36.493  30.990  32.408  1.00  0.00     0.002 A 
ATOM     72  C   UNL A   1      36.110  32.166  30.323  1.00  0.00     0.091 A 
ATOM     73  F   UNL A   1      37.769  32.070  28.611  1.00  0.00    -0.205 F 
ATOM     74  C   UNL A   1      35.677  31.777  31.599  1.00  0.00     0.022 A 
BRANCH  72  75
ATOM     75  S   UNL A   1      35.030  33.248  29.378  1.00  0.00     0.127 S 
ATOM     76  O   UNL A   1      33.999  33.569  30.363  1.00  0.00    -0.237 OA
ATOM     77  O   UNL A   1      35.918  34.361  29.040  1.00  0.00    -0.237 OA
ATOM     78  O   UNL A   1      34.590  32.462  28.233  1.00  0.00    -0.744 OA
ENDBRANCH  72  75
ENDBRANCH  54  68
BRANCH  55  79
ATOM     79  C   UNL A   1      47.024  28.190  26.971  1.00  0.00     0.023 A 
ATOM     80  C   UNL A   1      48.080  27.706  27.765  1.00  0.00     0.012 A 
ATOM     81  C   UNL A   1      47.157  28.187  25.568  1.00  0.00     0.148 A 
ATOM     82  C   UNL A   1      49.250  27.231  27.172  1.00  0.00     0.002 A 
ATOM     83  C   UNL A   1      48.298  27.654  24.983  1.00  0.00     0.091 A 
ATOM     84  F   UNL A   1      46.142  28.665  24.834  1.00  0.00    -0.205 F 
ATOM     85  C   UNL A   1      49.352  27.189  25.784  1.00  0.00     0.022 A 
BRANCH  83  86
ATOM     86  S   UNL A   1      48.445  27.410  23.209  1.00  0.00     0.127 S 
ATOM     87  O   UNL A   1      47.307  28.176  22.707  1.00  0.00    -0.237 OA
ATOM     88  O   UNL A   1      49.756  28.000  22.932  1.00  0.00    -0.237 OA
ATOM     89  O   UNL A   1      48.379  25.970  23.002  1.00  0.00    -0.744 OA
ENDBRANCH  83  86
ENDBRANCH  55  79
BRANCH  67  90
ATOM     90  C   UNL A   1      44.679  34.047  29.976  1.00  0.00     0.023 A 
ATOM     91  C   UNL A   1      45.466  34.229  31.130  1.00  0.00     0.012 A 
ATOM     92  C   UNL A   1      44.543  35.107  29.058  1.00  0.00     0.148 A 
ATOM     93  C   UNL A   1      46.083  35.453  31.383  1.00  0.00     0.002 A 
ATOM     94  C   UNL A   1      45.198  36.311  29.294  1.00  0.00     0.091 A 
ATOM     95  F   UNL A   1      43.771  34.924  27.977  1.00  0.00    -0.205 F 
ATOM     96  C   UNL A   1      45.958  36.489  30.461  1.00  0.00     0.022 A 
BRANCH  94  97
ATOM     97  S   UNL A   1      45.161  37.669  28.118  1.00  0.00     0.127 S 
ATOM     98  O   UNL A   1      45.985  38.670  28.793  1.00  0.00    -0.237 OA
ATOM     99  O   UNL A   1      45.776  37.071  26.931  1.00  0.00    -0.237 OA
ATOM    100  O   UNL A   1      43.757  38.018  27.955  1.00  0.00    -0.744 OA
ENDBRANCH  94  97
ENDBRANCH  67  90
ENDBRANCH  41  42
ENDBRANCH  34  36
ENDBRANCH  33  34
ENDBRANCH  32  33
ENDBRANCH   1  32
TORSDOF 17
ENDMDL
MODEL 2
REMARK VINA RESULT:     -12.9      1.578      2.226
REMARK SMILES O=C1C[C@@H](C(=O)OCCOC(=O)c2ccc(-c3c4nc(c(-c5cccc(S(=O)(=O)[O-])c5F)c5ccc([nH]5)c(-c5cccc(S(=O)(=O)[O-])c5F)c5nc(c(-c6cccc(S(=O)(=O)[O-])c6F)c6ccc3[nH]6)C=C5)C=C4)cc2)C2(CC[NH+](Cc3c[nH]nc3-c3ccc(Cl)cc3)CC2)N1
REMARK SMILES IDX 8 1 7 2 5 3 6 4 4 5 1 6 2 7 3 8 95 9 76 10 77 12 94 13 78 14
REMARK SMILES IDX 93 15 79 16 80 18 81 19 82 20 85 21 83 22 84 23 86 25 87 26
REMARK SMILES IDX 92 27 88 28 91 29 89 30 90 31 9 32 10 33 11 34 12 35 13 36
REMARK SMILES IDX 14 37 75 38 15 39 74 40 16 41 17 42 18 43 68 44 19 45 73 46
REMARK SMILES IDX 67 47 69 48 20 49 72 50 66 51 65 52 21 54 53 55 33 56 52 57
REMARK SMILES IDX 34 58 37 59 51 60 70 61 35 62 36 63 50 65 71 66 38 67 22 68
REMARK SMILES IDX 23 69 31 70 24 71 26 72 32 73 25 74 27 75 28 76 29 77 30 78
REMARK SMILES IDX 54 79 55 80 63 81 56 82 58 83 64 84 57 85 59 86 60 87 61 88
REMARK SMILES IDX 62 89 39 90 40 91 48 92 41 93 43 94 49 95 42 96 44 97 45 98
REMARK SMILES IDX 46 99 47 100
REMARK H PARENT 95 11 79 17 83 24 69 53 37 64
REMARK Flexibility Score: inf
ROOT
ATOM      1  C   UNL A   1      35.834  19.877  25.002  1.00  0.00     0.274 C 
ENDROOT
BRANCH   1   2
ATOM      2  O   UNL A   1      35.018  21.038  24.740  1.00  0.00    -0.462 OA
BRANCH   2   3
ATOM      3  C   UNL A   1      34.339  21.519  25.804  1.00  0.00     0.311 C 
ATOM      4  O   UNL A   1      34.750  21.467  26.961  1.00  0.00    -0.252 OA
BRANCH   3   5
ATOM      5  C   UNL A   1      32.962  22.085  25.502  1.00  0.00     0.134 C 
ATOM      6  O   UNL A   1      32.061  20.784  22.312  1.00  0.00    -0.275 OA
ATOM      7  C   UNL A   1      32.310  21.438  23.304  1.00  0.00     0.221 C 
ATOM      8  C   UNL A   1      32.222  20.972  24.733  1.00  0.00     0.117 C 
ATOM      9  N   UNL A   1      32.670  22.764  23.311  1.00  0.00    -0.349 N 
ATOM     10  C   UNL A   1      32.737  23.352  24.643  1.00  0.00     0.064 C 
ATOM     11  H   UNL A   1      32.868  23.271  22.489  1.00  0.00     0.164 HD
ATOM     12  C   UNL A   1      33.807  24.454  24.650  1.00  0.00     0.091 C 
ATOM     13  C   UNL A   1      31.324  23.946  24.958  1.00  0.00     0.091 C 
ATOM     14  C   UNL A   1      33.650  25.493  25.751  1.00  0.00     0.264 C 
ATOM     15  C   UNL A   1      31.282  25.126  25.937  1.00  0.00     0.264 C 
ATOM     16  N   UNL A   1      32.341  26.104  25.774  1.00  0.00    -0.331 N 
ATOM     17  H   UNL A   1      32.288  26.639  26.641  1.00  0.00     0.348 HD
BRANCH  16  18
ATOM     18  C   UNL A   1      32.127  27.267  24.906  1.00  0.00     0.303 C 
BRANCH  18  19
ATOM     19  C   UNL A   1      32.141  28.591  25.601  1.00  0.00     0.052 A 
ATOM     20  C   UNL A   1      32.992  28.961  26.627  1.00  0.00     0.115 A 
ATOM     21  C   UNL A   1      31.417  29.798  25.307  1.00  0.00     0.101 A 
ATOM     22  N   UNL A   1      32.644  30.221  26.988  1.00  0.00    -0.285 N 
ATOM     23  N   UNL A   1      31.714  30.762  26.198  1.00  0.00    -0.175 NA
ATOM     24  H   UNL A   1      33.039  30.691  27.759  1.00  0.00     0.189 HD
BRANCH  21  25
ATOM     25  C   UNL A   1      30.505  30.116  24.206  1.00  0.00     0.003 A 
ATOM     26  C   UNL A   1      30.586  29.360  23.025  1.00  0.00     0.012 A 
ATOM     27  C   UNL A   1      29.596  31.176  24.259  1.00  0.00     0.012 A 
ATOM     28  C   UNL A   1      29.768  29.652  21.930  1.00  0.00     0.021 A 
ATOM     29  C   UNL A   1      28.772  31.470  23.166  1.00  0.00     0.021 A 
ATOM     30  C   UNL A   1      28.863  30.707  22.006  1.00  0.00     0.041 A 
ATOM     31  Cl  UNL A   1      27.869  31.081  20.653  1.00  0.00    -0.084 Cl
ENDBRANCH  21  25
ENDBRANCH  18  19
ENDBRANCH  16  18
ENDBRANCH   3   5
ENDBRANCH   2   3
ENDBRANCH   1   2
BRANCH   1  32
ATOM     32  C   UNL A   1      37.311  20.158  24.723  1.00  0.00     0.275 C 
BRANCH  32  33
ATOM     33  O   UNL A   1      37.815  21.164  25.622  1.00  0.00    -0.458 OA
BRANCH  33  34
ATOM     34  C   UNL A   1      39.080  20.976  26.063  1.00  0.00     0.338 C 
ATOM     35  O   UNL A   1      39.740  19.951  25.975  1.00  0.00    -0.246 OA
BRANCH  34  36
ATOM     36  C   UNL A   1      39.634  22.220  26.631  1.00  0.00     0.060 A 
ATOM     37  C   UNL A   1      39.191  23.466  26.180  1.00  0.00     0.016 A 
ATOM     38  C   UNL A   1      40.729  22.144  27.492  1.00  0.00     0.016 A 
ATOM     39  C   UNL A   1      39.890  24.624  26.514  1.00  0.00     0.010 A 
ATOM     40  C   UNL A   1      41.359  23.317  27.915  1.00  0.00     0.010 A 
ATOM     41  C   UNL A   1      40.964  24.569  27.414  1.00  0.00    -0.014 A 
BRANCH  41  42
ATOM     42  C   UNL A   1      41.626  25.813  27.894  1.00  0.00     0.031 A 
ATOM     43  C   UNL A   1      40.857  26.865  28.647  1.00  0.00     0.074 A 
ATOM     44  C   UNL A   1      42.913  26.039  27.560  1.00  0.00     0.049 A 
ATOM     45  N   UNL A   1      41.217  28.084  28.960  1.00  0.00    -0.248 NA
ATOM     46  C   UNL A   1      39.501  26.508  29.094  1.00  0.00     0.031 C 
ATOM     47  C   UNL A   1      43.765  25.115  26.810  1.00  0.00     0.029 A 
ATOM     48  N   UNL A   1      43.715  27.135  27.769  1.00  0.00    -0.354 N 
ATOM     49  C   UNL A   1      40.111  28.666  29.569  1.00  0.00     0.074 A 
ATOM     50  C   UNL A   1      39.072  27.658  29.600  1.00  0.00     0.031 C 
ATOM     51  C   UNL A   1      44.960  25.682  26.606  1.00  0.00     0.029 A 
ATOM     52  C   UNL A   1      44.936  27.037  27.142  1.00  0.00     0.049 A 
ATOM     53  H   UNL A   1      43.445  27.910  28.311  1.00  0.00     0.167 HD
ATOM     54  C   UNL A   1      39.978  29.923  30.059  1.00  0.00     0.034 A 
ATOM     55  C   UNL A   1      45.912  27.948  26.959  1.00  0.00     0.034 A 
ATOM     56  C   UNL A   1      41.034  30.903  30.078  1.00  0.00     0.049 A 
ATOM     57  C   UNL A   1      45.749  29.323  27.529  1.00  0.00     0.074 A 
ATOM     58  C   UNL A   1      41.022  32.168  30.641  1.00  0.00     0.029 A 
ATOM     59  N   UNL A   1      42.284  30.736  29.503  1.00  0.00    -0.354 N 
ATOM     60  N   UNL A   1      44.740  29.820  28.201  1.00  0.00    -0.248 NA
ATOM     61  C   UNL A   1      46.867  30.257  27.340  1.00  0.00     0.031 C 
ATOM     62  C   UNL A   1      42.257  32.775  30.384  1.00  0.00     0.029 A 
ATOM     63  C   UNL A   1      43.047  31.880  29.682  1.00  0.00     0.049 A 
ATOM     64  H   UNL A   1      42.586  29.924  29.036  1.00  0.00     0.167 HD
ATOM     65  C   UNL A   1      45.105  31.119  28.530  1.00  0.00     0.074 A 
ATOM     66  C   UNL A   1      46.441  31.321  28.007  1.00  0.00     0.031 C 
ATOM     67  C   UNL A   1      44.389  32.063  29.190  1.00  0.00     0.034 A 
BRANCH  54  68
ATOM     68  C   UNL A   1      38.643  30.313  30.643  1.00  0.00     0.023 A 
ATOM     69  C   UNL A   1      38.361  30.040  31.996  1.00  0.00     0.012 A 
ATOM     70  C   UNL A   1      37.693  31.006  29.866  1.00  0.00     0.148 A 
ATOM     71  C   UNL A   1      37.143  30.423  32.559  1.00  0.00     0.002 A 
ATOM     72  C   UNL A   1      36.498  31.421  30.445  1.00  0.00     0.091 A 
ATOM     73  F   UNL A   1      37.966  31.237  28.574  1.00  0.00    -0.205 F 
ATOM     74  C   UNL A   1      36.217  31.121  31.788  1.00  0.00     0.022 A 
BRANCH  72  75
ATOM     75  S   UNL A   1      35.284  32.395  29.546  1.00  0.00     0.127 S 
ATOM     76  O   UNL A   1      34.824  31.439  28.541  1.00  0.00    -0.237 OA
ATOM     77  O   UNL A   1      34.301  32.708  30.584  1.00  0.00    -0.237 OA
ATOM     78  O   UNL A   1      36.008  33.552  29.036  1.00  0.00    -0.744 OA
ENDBRANCH  72  75
ENDBRANCH  54  68
BRANCH  55  79
ATOM     79  C   UNL A   1      47.131  27.552  26.202  1.00  0.00     0.023 A 
ATOM     80  C   UNL A   1      48.096  26.738  26.823  1.00  0.00     0.012 A 
ATOM     81  C   UNL A   1      47.282  27.887  24.841  1.00  0.00     0.148 A 
ATOM     82  C   UNL A   1      49.196  26.270  26.103  1.00  0.00     0.002 A 
ATOM     83  C   UNL A   1      48.344  27.366  24.115  1.00  0.00     0.091 A 
ATOM     84  F   UNL A   1      46.356  28.674  24.275  1.00  0.00    -0.205 F 
ATOM     85  C   UNL A   1      49.310  26.569  24.747  1.00  0.00     0.022 A 
BRANCH  83  86
ATOM     86  S   UNL A   1      48.481  27.563  22.334  1.00  0.00     0.127 S 
ATOM     87  O   UNL A   1      49.685  28.381  22.216  1.00  0.00    -0.237 OA
ATOM     88  O   UNL A   1      48.632  26.177  21.888  1.00  0.00    -0.237 OA
ATOM     89  O   UNL A   1      47.241  28.198  21.911  1.00  0.00    -0.744 OA
ENDBRANCH  83  86
ENDBRANCH  55  79
BRANCH  67  90
ATOM     90  C   UNL A   1      45.042  33.403  29.401  1.00  0.00     0.023 A 
ATOM     91  C   UNL A   1      45.813  33.628  30.559  1.00  0.00     0.012 A 
ATOM     92  C   UNL A   1      44.941  34.418  28.430  1.00  0.00     0.148 A 
ATOM     93  C   UNL A   1      46.446  34.854  30.763  1.00  0.00     0.002 A 
ATOM     94  C   UNL A   1      45.611  35.622  28.619  1.00  0.00     0.091 A 
ATOM     95  F   UNL A   1      44.184  34.194  27.346  1.00  0.00    -0.205 F 
ATOM     96  C   UNL A   1      46.354  35.845  29.789  1.00  0.00     0.022 A 
BRANCH  94  97
ATOM     97  S   UNL A   1      45.617  36.920  27.376  1.00  0.00     0.127 S 
ATOM     98  O   UNL A   1      46.162  36.219  26.216  1.00  0.00    -0.237 OA
ATOM     99  O   UNL A   1      44.197  37.260  27.274  1.00  0.00    -0.237 OA
ATOM    100  O   UNL A   1      46.452  37.984  27.916  1.00  0.00    -0.744 OA
ENDBRANCH  94  97
ENDBRANCH  67  90
ENDBRANCH  41  42
ENDBRANCH  34  36
ENDBRANCH  33  34
ENDBRANCH  32  33
ENDBRANCH   1  32
TORSDOF 17
ENDMDL
MODEL 3
REMARK VINA RESULT:     -12.8      5.219      9.968
REMARK SMILES O=C1C[C@@H](C(=O)OCCOC(=O)c2ccc(-c3c4nc(c(-c5cccc(S(=O)(=O)[O-])c5F)c5ccc([nH]5)c(-c5cccc(S(=O)(=O)[O-])c5F)c5nc(c(-c6cccc(S(=O)(=O)[O-])c6F)c6ccc3[nH]6)C=C5)C=C4)cc2)C2(CC[NH+](Cc3c[nH]nc3-c3ccc(Cl)cc3)CC2)N1
REMARK SMILES IDX 8 1 7 2 5 3 6 4 4 5 1 6 2 7 3 8 95 9 76 10 77 12 94 13 78 14
REMARK SMILES IDX 93 15 79 16 80 18 81 19 82 20 85 21 83 22 84 23 86 25 87 26
REMARK SMILES IDX 92 27 88 28 91 29 89 30 90 31 9 32 10 33 11 34 12 35 13 36
REMARK SMILES IDX 14 37 75 38 15 39 74 40 16 41 17 42 18 43 68 44 19 45 73 46
REMARK SMILES IDX 67 47 69 48 20 49 72 50 66 51 65 52 21 54 53 55 33 56 52 57
REMARK SMILES IDX 34 58 37 59 51 60 70 61 35 62 36 63 50 65 71 66 38 67 22 68
REMARK SMILES IDX 23 69 31 70 24 71 26 72 32 73 25 74 27 75 28 76 29 77 30 78
REMARK SMILES IDX 54 79 55 80 63 81 56 82 58 83 64 84 57 85 59 86 60 87 61 88
REMARK SMILES IDX 62 89 39 90 40 91 48 92 41 93 43 94 49 95 42 96 44 97 45 98
REMARK SMILES IDX 46 99 47 100
REMARK H PARENT 95 11 79 17 83 24 69 53 37 64
REMARK Flexibility Score: inf
ROOT
ATOM      1  C   UNL A   1      31.149  29.011  24.990  1.00  0.00     0.274 C 
ENDROOT
BRANCH   1   2
ATOM      2  O   UNL A   1      30.461  29.044  23.721  1.00  0.00    -0.462 OA
BRANCH   2   3
ATOM      3  C   UNL A   1      30.859  28.115  22.824  1.00  0.00     0.311 C 
ATOM      4  O   UNL A   1      30.304  27.922  21.745  1.00  0.00    -0.252 OA
BRANCH   3   5
ATOM      5  C   UNL A   1      32.023  27.242  23.258  1.00  0.00     0.134 C 
ATOM      6  O   UNL A   1      33.138  25.583  20.310  1.00  0.00    -0.275 OA
ATOM      7  C   UNL A   1      32.755  25.930  21.408  1.00  0.00     0.221 C 
ATOM      8  C   UNL A   1      33.010  27.257  22.073  1.00  0.00     0.117 C 
ATOM      9  N   UNL A   1      32.052  25.142  22.288  1.00  0.00    -0.349 N 
ATOM     10  C   UNL A   1      31.873  25.742  23.605  1.00  0.00     0.064 C 
ATOM     11  H   UNL A   1      31.700  24.253  22.050  1.00  0.00     0.164 HD
ATOM     12  C   UNL A   1      30.547  25.247  24.203  1.00  0.00     0.091 C 
ATOM     13  C   UNL A   1      33.083  25.291  24.488  1.00  0.00     0.091 C 
ATOM     14  C   UNL A   1      30.454  25.337  25.719  1.00  0.00     0.264 C 
ATOM     15  C   UNL A   1      32.838  25.224  26.001  1.00  0.00     0.264 C 
ATOM     16  N   UNL A   1      31.551  24.684  26.396  1.00  0.00    -0.331 N 
ATOM     17  H   UNL A   1      31.486  24.955  27.377  1.00  0.00     0.348 HD
BRANCH  16  18
ATOM     18  C   UNL A   1      31.418  23.248  26.662  1.00  0.00     0.303 C 
BRANCH  18  19
ATOM     19  C   UNL A   1      32.699  22.533  26.951  1.00  0.00     0.052 A 
ATOM     20  C   UNL A   1      33.407  22.583  28.139  1.00  0.00     0.115 A 
ATOM     21  C   UNL A   1      33.410  21.556  26.172  1.00  0.00     0.101 A 
ATOM     22  N   UNL A   1      34.518  21.825  27.964  1.00  0.00    -0.285 N 
ATOM     23  N   UNL A   1      34.538  21.175  26.798  1.00  0.00    -0.175 NA
ATOM     24  H   UNL A   1      35.240  21.761  28.631  1.00  0.00     0.189 HD
BRANCH  21  25
ATOM     25  C   UNL A   1      33.063  20.918  24.900  1.00  0.00     0.003 A 
ATOM     26  C   UNL A   1      32.718  21.734  23.810  1.00  0.00     0.012 A 
ATOM     27  C   UNL A   1      33.005  19.531  24.740  1.00  0.00     0.012 A 
ATOM     28  C   UNL A   1      32.336  21.173  22.588  1.00  0.00     0.021 A 
ATOM     29  C   UNL A   1      32.626  18.964  23.517  1.00  0.00     0.021 A 
ATOM     30  C   UNL A   1      32.293  19.789  22.447  1.00  0.00     0.041 A 
ATOM     31  Cl  UNL A   1      31.804  19.097  20.950  1.00  0.00    -0.084 Cl
ENDBRANCH  21  25
ENDBRANCH  18  19
ENDBRANCH  16  18
ENDBRANCH   3   5
ENDBRANCH   2   3
ENDBRANCH   1   2
BRANCH   1  32
ATOM     32  C   UNL A   1      31.488  30.421  25.477  1.00  0.00     0.275 C 
BRANCH  32  33
ATOM     33  O   UNL A   1      32.788  30.445  26.096  1.00  0.00    -0.458 OA
BRANCH  33  34
ATOM     34  C   UNL A   1      33.018  31.480  26.936  1.00  0.00     0.338 C 
ATOM     35  O   UNL A   1      32.308  32.461  27.099  1.00  0.00    -0.246 OA
BRANCH  34  36
ATOM     36  C   UNL A   1      34.246  31.260  27.725  1.00  0.00     0.060 A 
ATOM     37  C   UNL A   1      35.131  32.312  27.970  1.00  0.00     0.016 A 
ATOM     38  C   UNL A   1      34.605  29.958  28.070  1.00  0.00     0.016 A 
ATOM     39  C   UNL A   1      36.405  32.057  28.476  1.00  0.00     0.010 A 
ATOM     40  C   UNL A   1      35.839  29.719  28.682  1.00  0.00     0.010 A 
ATOM     41  C   UNL A   1      36.763  30.761  28.871  1.00  0.00    -0.014 A 
BRANCH  41  42
ATOM     42  C   UNL A   1      38.063  30.497  29.548  1.00  0.00     0.031 A 
ATOM     43  C   UNL A   1      39.075  29.557  28.950  1.00  0.00     0.074 A 
ATOM     44  C   UNL A   1      38.288  31.035  30.763  1.00  0.00     0.049 A 
ATOM     45  N   UNL A   1      40.157  29.058  29.493  1.00  0.00    -0.248 NA
ATOM     46  C   UNL A   1      38.833  29.104  27.572  1.00  0.00     0.031 C 
ATOM     47  C   UNL A   1      37.379  31.941  31.467  1.00  0.00     0.029 A 
ATOM     48  N   UNL A   1      39.331  30.864  31.641  1.00  0.00    -0.354 N 
ATOM     49  C   UNL A   1      40.684  28.177  28.555  1.00  0.00     0.074 A 
ATOM     50  C   UNL A   1      39.812  28.224  27.401  1.00  0.00     0.031 C 
ATOM     51  C   UNL A   1      37.889  32.234  32.669  1.00  0.00     0.029 A 
ATOM     52  C   UNL A   1      39.122  31.479  32.854  1.00  0.00     0.049 A 
ATOM     53  H   UNL A   1      40.144  30.354  31.425  1.00  0.00     0.167 HD
ATOM     54  C   UNL A   1      41.794  27.404  28.649  1.00  0.00     0.034 A 
ATOM     55  C   UNL A   1      39.805  31.405  34.013  1.00  0.00     0.034 A 
ATOM     56  C   UNL A   1      42.690  27.405  29.778  1.00  0.00     0.049 A 
ATOM     57  C   UNL A   1      41.041  30.560  34.085  1.00  0.00     0.074 A 
ATOM     58  C   UNL A   1      43.890  26.729  29.923  1.00  0.00     0.029 A 
ATOM     59  N   UNL A   1      42.484  28.105  30.957  1.00  0.00    -0.354 N 
ATOM     60  N   UNL A   1      41.586  29.821  33.150  1.00  0.00    -0.248 NA
ATOM     61  C   UNL A   1      41.770  30.558  35.359  1.00  0.00     0.031 C 
ATOM     62  C   UNL A   1      44.397  27.001  31.199  1.00  0.00     0.029 A 
ATOM     63  C   UNL A   1      43.524  27.864  31.841  1.00  0.00     0.049 A 
ATOM     64  H   UNL A   1      41.712  28.686  31.139  1.00  0.00     0.167 HD
ATOM     65  C   UNL A   1      42.731  29.277  33.716  1.00  0.00     0.074 A 
ATOM     66  C   UNL A   1      42.815  29.796  35.067  1.00  0.00     0.031 C 
ATOM     67  C   UNL A   1      43.621  28.411  33.171  1.00  0.00     0.034 A 
BRANCH  54  68
ATOM     68  C   UNL A   1      42.124  26.501  27.488  1.00  0.00     0.023 A 
ATOM     69  C   UNL A   1      42.860  27.001  26.395  1.00  0.00     0.012 A 
ATOM     70  C   UNL A   1      41.758  25.140  27.508  1.00  0.00     0.148 A 
ATOM     71  C   UNL A   1      43.199  26.170  25.328  1.00  0.00     0.002 A 
ATOM     72  C   UNL A   1      42.136  24.308  26.459  1.00  0.00     0.091 A 
ATOM     73  F   UNL A   1      41.038  24.684  28.543  1.00  0.00    -0.205 F 
ATOM     74  C   UNL A   1      42.847  24.823  25.364  1.00  0.00     0.022 A 
BRANCH  72  75
ATOM     75  S   UNL A   1      41.793  22.543  26.464  1.00  0.00     0.127 S 
ATOM     76  O   UNL A   1      40.331  22.527  26.429  1.00  0.00    -0.237 OA
ATOM     77  O   UNL A   1      42.436  22.095  25.228  1.00  0.00    -0.237 OA
ATOM     78  O   UNL A   1      42.403  22.027  27.681  1.00  0.00    -0.744 OA
ENDBRANCH  72  75
ENDBRANCH  54  68
BRANCH  55  79
ATOM     79  C   UNL A   1      39.314  32.177  35.187  1.00  0.00     0.023 A 
ATOM     80  C   UNL A   1      38.507  31.537  36.145  1.00  0.00     0.012 A 
ATOM     81  C   UNL A   1      39.731  33.505  35.410  1.00  0.00     0.148 A 
ATOM     82  C   UNL A   1      38.119  32.209  37.305  1.00  0.00     0.002 A 
ATOM     83  C   UNL A   1      39.393  34.145  36.595  1.00  0.00     0.091 A 
ATOM     84  F   UNL A   1      40.488  34.097  34.476  1.00  0.00    -0.205 F 
ATOM     85  C   UNL A   1      38.576  33.504  37.537  1.00  0.00     0.022 A 
BRANCH  83  86
ATOM     86  S   UNL A   1      40.070  35.746  37.050  1.00  0.00     0.127 S 
ATOM     87  O   UNL A   1      41.497  35.450  37.150  1.00  0.00    -0.237 OA
ATOM     88  O   UNL A   1      39.691  36.570  35.900  1.00  0.00    -0.237 OA
ATOM     89  O   UNL A   1      39.411  36.114  38.295  1.00  0.00    -0.744 OA
ENDBRANCH  83  86
ENDBRANCH  55  79
BRANCH  67  90
ATOM     90  C   UNL A   1      44.779  27.979  34.030  1.00  0.00     0.023 A 
ATOM     91  C   UNL A   1      45.962  28.746  34.045  1.00  0.00     0.012 A 
ATOM     92  C   UNL A   1      44.679  26.848  34.864  1.00  0.00     0.148 A 
ATOM     93  C   UNL A   1      47.037  28.377  34.852  1.00  0.00     0.002 A 
ATOM     94  C   UNL A   1      45.738  26.511  35.699  1.00  0.00     0.091 A 
ATOM     95  F   UNL A   1      43.555  26.117  34.819  1.00  0.00    -0.205 F 
ATOM     96  C   UNL A   1      46.921  27.267  35.686  1.00  0.00     0.022 A 
BRANCH  94  97
ATOM     97  S   UNL A   1      45.642  25.149  36.867  1.00  0.00     0.127 S 
ATOM     98  O   UNL A   1      46.453  25.649  37.975  1.00  0.00    -0.237 OA
ATOM     99  O   UNL A   1      44.206  25.077  37.145  1.00  0.00    -0.237 OA
ATOM    100  O   UNL A   1      46.178  23.988  36.171  1.00  0.00    -0.744 OA
ENDBRANCH  94  97
ENDBRANCH  67  90
ENDBRANCH  41  42
ENDBRANCH  34  36
ENDBRANCH  33  34
ENDBRANCH  32  33
ENDBRANCH   1  32
TORSDOF 17
ENDMDL
