MODEL 1
REMARK VINA RESULT:     -11.8      0.000      0.000
REMARK SMILES O=C(OCCOC(=O)[C@@H]1CC[C@@H](CNC(=O)c2ccc(O)nn2)O1)c1ccc(-c2c3nc(c(-c4cccc(S(=O)(=O)[O-])c4F)c4ccc([nH]4)c(-c4cccc(S(=O)(=O)[O-])c4F)c4nc(c(-c5cccc(S(=O)(=O)[O-])c5F)c5ccc2[nH]5)C=C4)C=C3)cc1
REMARK SMILES IDX 5 1 4 2 3 3 2 4 1 5 25 6 26 7 87 8 27 9 86 10 28 11 29 12
REMARK SMILES IDX 30 13 80 14 31 15 85 16 79 17 81 18 32 19 84 20 78 21 77 22
REMARK SMILES IDX 33 24 65 25 45 26 64 27 46 28 49 29 63 30 82 31 47 32 48 33
REMARK SMILES IDX 62 35 83 36 50 37 34 38 35 39 43 40 36 41 38 42 44 43 37 44
REMARK SMILES IDX 39 45 40 46 41 47 42 48 66 49 67 50 75 51 68 52 70 53 76 54
REMARK SMILES IDX 69 55 71 56 72 57 73 58 74 59 51 60 52 61 60 62 53 63 55 64
REMARK SMILES IDX 61 65 54 66 56 67 57 68 58 69 59 70 6 71 7 72 8 73 9 74
REMARK SMILES IDX 10 75 24 76 11 77 12 78 13 79 14 80 15 81 16 83 17 84 18 85
REMARK SMILES IDX 23 86 19 87 22 88 20 89 21 90
REMARK H PARENT 81 23 49 34 14 82 21 91
REMARK Flexibility Score: inf
ROOT
ATOM      1  C   UNL A   1      34.764  21.451  24.689  1.00  0.00     0.274 C 
ENDROOT
BRANCH   1   2
ATOM      2  C   UNL A   1      35.868  21.651  25.736  1.00  0.00     0.275 C 
BRANCH   2   3
ATOM      3  O   UNL A   1      37.161  21.937  25.197  1.00  0.00    -0.458 OA
BRANCH   3   4
ATOM      4  C   UNL A   1      38.377  21.669  25.731  1.00  0.00     0.338 C 
ATOM      5  O   UNL A   1      38.763  20.500  25.711  1.00  0.00    -0.246 OA
BRANCH   4   6
ATOM      6  C   UNL A   1      39.229  22.691  26.433  1.00  0.00     0.060 A 
ATOM      7  C   UNL A   1      40.244  22.456  27.375  1.00  0.00     0.016 A 
ATOM      8  C   UNL A   1      39.000  24.020  26.064  1.00  0.00     0.016 A 
ATOM      9  C   UNL A   1      41.110  23.472  27.810  1.00  0.00     0.010 A 
ATOM     10  C   UNL A   1      39.823  25.039  26.541  1.00  0.00     0.010 A 
ATOM     11  C   UNL A   1      40.919  24.772  27.371  1.00  0.00    -0.014 A 
BRANCH  11  12
ATOM     12  C   UNL A   1      41.711  25.918  27.875  1.00  0.00     0.031 A 
ATOM     13  C   UNL A   1      40.953  26.974  28.616  1.00  0.00     0.074 A 
ATOM     14  C   UNL A   1      43.010  26.077  27.551  1.00  0.00     0.049 A 
ATOM     15  N   UNL A   1      41.351  28.145  29.034  1.00  0.00    -0.248 NA
ATOM     16  C   UNL A   1      39.542  26.667  28.919  1.00  0.00     0.031 C 
ATOM     17  C   UNL A   1      43.852  25.080  26.891  1.00  0.00     0.029 A 
ATOM     18  N   UNL A   1      43.833  27.171  27.658  1.00  0.00    -0.354 N 
ATOM     19  C   UNL A   1      40.245  28.706  29.657  1.00  0.00     0.074 A 
ATOM     20  C   UNL A   1      39.149  27.776  29.519  1.00  0.00     0.031 C 
ATOM     21  C   UNL A   1      45.010  25.652  26.512  1.00  0.00     0.029 A 
ATOM     22  C   UNL A   1      45.009  27.042  26.948  1.00  0.00     0.049 A 
ATOM     23  H   UNL A   1      43.605  27.969  28.189  1.00  0.00     0.167 HD
ATOM     24  C   UNL A   1      40.149  29.916  30.252  1.00  0.00     0.034 A 
ATOM     25  C   UNL A   1      45.962  27.958  26.683  1.00  0.00     0.034 A 
ATOM     26  C   UNL A   1      41.228  30.864  30.288  1.00  0.00     0.049 A 
ATOM     27  C   UNL A   1      45.830  29.317  27.326  1.00  0.00     0.074 A 
ATOM     28  C   UNL A   1      41.198  32.182  30.699  1.00  0.00     0.029 A 
ATOM     29  N   UNL A   1      42.533  30.612  29.874  1.00  0.00    -0.354 N 
ATOM     30  N   UNL A   1      44.893  29.749  28.138  1.00  0.00    -0.248 NA
ATOM     31  C   UNL A   1      46.909  30.285  27.088  1.00  0.00     0.031 C 
ATOM     32  C   UNL A   1      42.426  32.765  30.362  1.00  0.00     0.029 A 
ATOM     33  C   UNL A   1      43.242  31.792  29.798  1.00  0.00     0.049 A 
ATOM     34  H   UNL A   1      42.897  29.721  29.667  1.00  0.00     0.167 HD
ATOM     35  C   UNL A   1      45.253  31.039  28.501  1.00  0.00     0.074 A 
ATOM     36  C   UNL A   1      46.536  31.295  27.867  1.00  0.00     0.031 C 
ATOM     37  C   UNL A   1      44.581  31.937  29.269  1.00  0.00     0.034 A 
BRANCH  24  38
ATOM     38  C   UNL A   1      38.785  30.282  30.771  1.00  0.00     0.023 A 
ATOM     39  C   UNL A   1      38.385  29.857  32.054  1.00  0.00     0.012 A 
ATOM     40  C   UNL A   1      37.863  30.959  29.948  1.00  0.00     0.148 A 
ATOM     41  C   UNL A   1      37.079  30.069  32.496  1.00  0.00     0.002 A 
ATOM     42  C   UNL A   1      36.580  31.211  30.416  1.00  0.00     0.091 A 
ATOM     43  F   UNL A   1      38.247  31.296  28.708  1.00  0.00    -0.205 F 
ATOM     44  C   UNL A   1      36.180  30.752  31.681  1.00  0.00     0.022 A 
BRANCH  42  45
ATOM     45  S   UNL A   1      35.353  32.115  29.467  1.00  0.00     0.127 S 
ATOM     46  O   UNL A   1      36.139  33.238  28.961  1.00  0.00    -0.237 OA
ATOM     47  O   UNL A   1      34.968  31.131  28.460  1.00  0.00    -0.237 OA
ATOM     48  O   UNL A   1      34.303  32.477  30.414  1.00  0.00    -0.744 OA
ENDBRANCH  42  45
ENDBRANCH  24  38
BRANCH  25  49
ATOM     49  C   UNL A   1      47.169  27.567  25.895  1.00  0.00     0.023 A 
ATOM     50  C   UNL A   1      48.206  26.894  26.568  1.00  0.00     0.012 A 
ATOM     51  C   UNL A   1      47.274  27.763  24.499  1.00  0.00     0.148 A 
ATOM     52  C   UNL A   1      49.323  26.421  25.877  1.00  0.00     0.002 A 
ATOM     53  C   UNL A   1      48.391  27.284  23.814  1.00  0.00     0.091 A 
ATOM     54  F   UNL A   1      46.271  28.383  23.866  1.00  0.00    -0.205 F 
ATOM     55  C   UNL A   1      49.414  26.613  24.502  1.00  0.00     0.022 A 
BRANCH  53  56
ATOM     56  S   UNL A   1      48.609  27.432  22.032  1.00  0.00     0.127 S 
ATOM     57  O   UNL A   1      49.908  28.099  21.940  1.00  0.00    -0.237 OA
ATOM     58  O   UNL A   1      48.612  26.028  21.619  1.00  0.00    -0.237 OA
ATOM     59  O   UNL A   1      47.479  28.213  21.554  1.00  0.00    -0.744 OA
ENDBRANCH  53  56
ENDBRANCH  25  49
BRANCH  37  60
ATOM     60  C   UNL A   1      45.278  33.213  29.634  1.00  0.00     0.023 A 
ATOM     61  C   UNL A   1      46.120  33.309  30.756  1.00  0.00     0.012 A 
ATOM     62  C   UNL A   1      45.203  34.280  28.719  1.00  0.00     0.148 A 
ATOM     63  C   UNL A   1      46.875  34.464  30.964  1.00  0.00     0.002 A 
ATOM     64  C   UNL A   1      45.990  35.403  28.905  1.00  0.00     0.091 A 
ATOM     65  F   UNL A   1      44.381  34.156  27.666  1.00  0.00    -0.205 F 
ATOM     66  C   UNL A   1      46.823  35.502  30.032  1.00  0.00     0.022 A 
BRANCH  64  67
ATOM     67  S   UNL A   1      46.051  36.728  27.698  1.00  0.00     0.127 S 
ATOM     68  O   UNL A   1      44.669  37.202  27.708  1.00  0.00    -0.237 OA
ATOM     69  O   UNL A   1      47.019  37.647  28.298  1.00  0.00    -0.237 OA
ATOM     70  O   UNL A   1      46.487  36.120  26.448  1.00  0.00    -0.744 OA
ENDBRANCH  64  67
ENDBRANCH  37  60
ENDBRANCH  11  12
ENDBRANCH   4   6
ENDBRANCH   3   4
ENDBRANCH   2   3
ENDBRANCH   1   2
BRANCH   1  71
ATOM     71  O   UNL A   1      33.839  22.555  24.585  1.00  0.00    -0.460 OA
BRANCH  71  72
ATOM     72  C   UNL A   1      34.032  23.395  23.527  1.00  0.00     0.335 C 
ATOM     73  O   UNL A   1      34.107  23.009  22.364  1.00  0.00    -0.249 OA
BRANCH  72  74
ATOM     74  C   UNL A   1      34.244  24.873  23.937  1.00  0.00     0.228 C 
ATOM     75  C   UNL A   1      33.561  25.168  25.269  1.00  0.00     0.047 C 
ATOM     76  O   UNL A   1      33.904  25.951  23.047  1.00  0.00    -0.361 OA
ATOM     77  C   UNL A   1      33.474  26.674  25.246  1.00  0.00     0.037 C 
ATOM     78  C   UNL A   1      33.119  26.911  23.790  1.00  0.00     0.138 C 
BRANCH  78  79
ATOM     79  C   UNL A   1      33.235  28.392  23.377  1.00  0.00     0.148 C 
BRANCH  79  80
ATOM     80  N   UNL A   1      32.740  29.353  24.362  1.00  0.00    -0.348 N 
ATOM     81  C   UNL A   1      31.453  29.756  24.667  1.00  0.00     0.271 C 
ATOM     82  H   UNL A   1      33.443  29.787  24.898  1.00  0.00     0.163 HD
ATOM     83  O   UNL A   1      31.284  30.569  25.577  1.00  0.00    -0.267 OA
BRANCH  81  84
ATOM     84  C   UNL A   1      30.293  29.358  23.825  1.00  0.00     0.151 A 
ATOM     85  C   UNL A   1      29.907  28.022  23.809  1.00  0.00     0.042 A 
ATOM     86  N   UNL A   1      29.543  30.343  23.287  1.00  0.00    -0.142 NA
ATOM     87  C   UNL A   1      28.635  27.728  23.360  1.00  0.00     0.072 A 
ATOM     88  N   UNL A   1      28.295  30.058  22.862  1.00  0.00    -0.112 NA
ATOM     89  C   UNL A   1      27.857  28.791  22.956  1.00  0.00     0.230 A 
BRANCH  89  90
ATOM     90  O   UNL A   1      26.522  28.620  22.852  1.00  0.00    -0.492 OA
ATOM     91  H   UNL A   1      25.943  29.124  23.389  1.00  0.00     0.295 HD
ENDBRANCH  89  90
ENDBRANCH  81  84
ENDBRANCH  79  80
ENDBRANCH  78  79
ENDBRANCH  72  74
ENDBRANCH  71  72
ENDBRANCH   1  71
TORSDOF 18
ENDMDL
MODEL 2
REMARK VINA RESULT:     -11.7      1.424      2.000
REMARK SMILES O=C(OCCOC(=O)[C@@H]1CC[C@@H](CNC(=O)c2ccc(O)nn2)O1)c1ccc(-c2c3nc(c(-c4cccc(S(=O)(=O)[O-])c4F)c4ccc([nH]4)c(-c4cccc(S(=O)(=O)[O-])c4F)c4nc(c(-c5cccc(S(=O)(=O)[O-])c5F)c5ccc2[nH]5)C=C4)C=C3)cc1
REMARK SMILES IDX 5 1 4 2 3 3 2 4 1 5 25 6 26 7 87 8 27 9 86 10 28 11 29 12
REMARK SMILES IDX 30 13 80 14 31 15 85 16 79 17 81 18 32 19 84 20 78 21 77 22
REMARK SMILES IDX 33 24 65 25 45 26 64 27 46 28 49 29 63 30 82 31 47 32 48 33
REMARK SMILES IDX 62 35 83 36 50 37 34 38 35 39 43 40 36 41 38 42 44 43 37 44
REMARK SMILES IDX 39 45 40 46 41 47 42 48 66 49 67 50 75 51 68 52 70 53 76 54
REMARK SMILES IDX 69 55 71 56 72 57 73 58 74 59 51 60 52 61 60 62 53 63 55 64
REMARK SMILES IDX 61 65 54 66 56 67 57 68 58 69 59 70 6 71 7 72 8 73 9 74
REMARK SMILES IDX 10 75 24 76 11 77 12 78 13 79 14 80 15 81 16 83 17 84 18 85
REMARK SMILES IDX 23 86 19 87 22 88 20 89 21 90
REMARK H PARENT 81 23 49 34 14 82 21 91
REMARK Flexibility Score: inf
ROOT
ATOM      1  C   UNL A   1      34.836  20.760  25.382  1.00  0.00     0.274 C 
ENDROOT
BRANCH   1   2
ATOM      2  C   UNL A   1      35.757  21.852  25.943  1.00  0.00     0.275 C 
BRANCH   2   3
ATOM      3  O   UNL A   1      36.998  22.005  25.248  1.00  0.00    -0.458 OA
BRANCH   3   4
ATOM      4  C   UNL A   1      38.250  21.732  25.686  1.00  0.00     0.338 C 
ATOM      5  O   UNL A   1      38.659  20.578  25.559  1.00  0.00    -0.246 OA
BRANCH   4   6
ATOM      6  C   UNL A   1      39.123  22.724  26.406  1.00  0.00     0.060 A 
ATOM      7  C   UNL A   1      40.152  22.450  27.322  1.00  0.00     0.016 A 
ATOM      8  C   UNL A   1      38.898  24.066  26.085  1.00  0.00     0.016 A 
ATOM      9  C   UNL A   1      41.033  23.445  27.774  1.00  0.00     0.010 A 
ATOM     10  C   UNL A   1      39.738  25.063  26.580  1.00  0.00     0.010 A 
ATOM     11  C   UNL A   1      40.845  24.760  27.382  1.00  0.00    -0.014 A 
BRANCH  11  12
ATOM     12  C   UNL A   1      41.655  25.882  27.909  1.00  0.00     0.031 A 
ATOM     13  C   UNL A   1      40.909  26.952  28.644  1.00  0.00     0.074 A 
ATOM     14  C   UNL A   1      42.963  26.012  27.610  1.00  0.00     0.049 A 
ATOM     15  N   UNL A   1      41.327  28.110  29.077  1.00  0.00    -0.248 NA
ATOM     16  C   UNL A   1      39.486  26.677  28.917  1.00  0.00     0.031 C 
ATOM     17  C   UNL A   1      43.793  24.999  26.958  1.00  0.00     0.029 A 
ATOM     18  N   UNL A   1      43.811  27.085  27.741  1.00  0.00    -0.354 N 
ATOM     19  C   UNL A   1      40.224  28.693  29.684  1.00  0.00     0.074 A 
ATOM     20  C   UNL A   1      39.108  27.791  29.518  1.00  0.00     0.031 C 
ATOM     21  C   UNL A   1      44.972  25.546  26.606  1.00  0.00     0.029 A 
ATOM     22  C   UNL A   1      44.996  26.933  27.052  1.00  0.00     0.049 A 
ATOM     23  H   UNL A   1      43.592  27.885  28.273  1.00  0.00     0.167 HD
ATOM     24  C   UNL A   1      40.146  29.901  30.286  1.00  0.00     0.034 A 
ATOM     25  C   UNL A   1      45.976  27.827  26.811  1.00  0.00     0.034 A 
ATOM     26  C   UNL A   1      41.247  30.822  30.349  1.00  0.00     0.049 A 
ATOM     27  C   UNL A   1      45.866  29.184  27.462  1.00  0.00     0.074 A 
ATOM     28  C   UNL A   1      41.241  32.138  30.770  1.00  0.00     0.029 A 
ATOM     29  N   UNL A   1      42.553  30.541  29.958  1.00  0.00    -0.354 N 
ATOM     30  N   UNL A   1      44.924  29.633  28.260  1.00  0.00    -0.248 NA
ATOM     31  C   UNL A   1      46.971  30.127  27.251  1.00  0.00     0.031 C 
ATOM     32  C   UNL A   1      42.489  32.693  30.460  1.00  0.00     0.029 A 
ATOM     33  C   UNL A   1      43.292  31.705  29.904  1.00  0.00     0.049 A 
ATOM     34  H   UNL A   1      42.899  29.643  29.751  1.00  0.00     0.167 HD
ATOM     35  C   UNL A   1      45.308  30.912  28.639  1.00  0.00     0.074 A 
ATOM     36  C   UNL A   1      46.608  31.141  28.030  1.00  0.00     0.031 C 
ATOM     37  C   UNL A   1      44.644  31.820  29.401  1.00  0.00     0.034 A 
BRANCH  24  38
ATOM     38  C   UNL A   1      38.782  30.296  30.782  1.00  0.00     0.023 A 
ATOM     39  C   UNL A   1      38.344  29.865  32.051  1.00  0.00     0.012 A 
ATOM     40  C   UNL A   1      37.896  31.009  29.950  1.00  0.00     0.148 A 
ATOM     41  C   UNL A   1      37.035  30.106  32.469  1.00  0.00     0.002 A 
ATOM     42  C   UNL A   1      36.610  31.289  30.396  1.00  0.00     0.091 A 
ATOM     43  F   UNL A   1      38.314  31.353  28.723  1.00  0.00    -0.205 F 
ATOM     44  C   UNL A   1      36.172  30.824  31.646  1.00  0.00     0.022 A 
BRANCH  42  45
ATOM     45  S   UNL A   1      35.428  32.240  29.435  1.00  0.00     0.127 S 
ATOM     46  O   UNL A   1      34.345  32.426  30.397  1.00  0.00    -0.237 OA
ATOM     47  O   UNL A   1      36.193  33.444  29.126  1.00  0.00    -0.237 OA
ATOM     48  O   UNL A   1      35.091  31.408  28.283  1.00  0.00    -0.744 OA
ENDBRANCH  42  45
ENDBRANCH  24  38
BRANCH  25  49
ATOM     49  C   UNL A   1      47.188  27.412  26.043  1.00  0.00     0.023 A 
ATOM     50  C   UNL A   1      48.149  26.623  26.703  1.00  0.00     0.012 A 
ATOM     51  C   UNL A   1      47.366  27.701  24.671  1.00  0.00     0.148 A 
ATOM     52  C   UNL A   1      49.261  26.126  26.022  1.00  0.00     0.002 A 
ATOM     53  C   UNL A   1      48.477  27.196  23.995  1.00  0.00     0.091 A 
ATOM     54  F   UNL A   1      46.433  28.432  24.047  1.00  0.00    -0.205 F 
ATOM     55  C   UNL A   1      49.424  26.410  24.670  1.00  0.00     0.022 A 
BRANCH  53  56
ATOM     56  S   UNL A   1      48.781  27.457  22.239  1.00  0.00     0.127 S 
ATOM     57  O   UNL A   1      50.203  27.797  22.225  1.00  0.00    -0.237 OA
ATOM     58  O   UNL A   1      48.462  26.140  21.687  1.00  0.00    -0.237 OA
ATOM     59  O   UNL A   1      47.886  28.529  21.832  1.00  0.00    -0.744 OA
ENDBRANCH  53  56
ENDBRANCH  25  49
BRANCH  37  60
ATOM     60  C   UNL A   1      45.364  33.077  29.788  1.00  0.00     0.023 A 
ATOM     61  C   UNL A   1      46.191  33.142  30.924  1.00  0.00     0.012 A 
ATOM     62  C   UNL A   1      45.328  34.154  28.883  1.00  0.00     0.148 A 
ATOM     63  C   UNL A   1      46.970  34.277  31.153  1.00  0.00     0.002 A 
ATOM     64  C   UNL A   1      46.138  35.256  29.091  1.00  0.00     0.091 A 
ATOM     65  F   UNL A   1      44.519  34.058  27.817  1.00  0.00    -0.205 F 
ATOM     66  C   UNL A   1      46.955  35.325  30.231  1.00  0.00     0.022 A 
BRANCH  64  67
ATOM     67  S   UNL A   1      46.247  36.590  27.898  1.00  0.00     0.127 S 
ATOM     68  O   UNL A   1      46.587  35.868  26.675  1.00  0.00    -0.237 OA
ATOM     69  O   UNL A   1      44.893  37.143  27.929  1.00  0.00    -0.237 OA
ATOM     70  O   UNL A   1      47.281  37.492  28.390  1.00  0.00    -0.744 OA
ENDBRANCH  64  67
ENDBRANCH  37  60
ENDBRANCH  11  12
ENDBRANCH   4   6
ENDBRANCH   3   4
ENDBRANCH   2   3
ENDBRANCH   1   2
BRANCH   1  71
ATOM     71  O   UNL A   1      33.898  21.227  24.390  1.00  0.00    -0.460 OA
BRANCH  71  72
ATOM     72  C   UNL A   1      32.579  21.028  24.678  1.00  0.00     0.335 C 
ATOM     73  O   UNL A   1      32.132  19.961  25.089  1.00  0.00    -0.249 OA
BRANCH  72  74
ATOM     74  C   UNL A   1      31.680  22.244  24.348  1.00  0.00     0.228 C 
ATOM     75  C   UNL A   1      32.410  23.226  23.436  1.00  0.00     0.047 C 
ATOM     76  O   UNL A   1      31.067  23.024  25.392  1.00  0.00    -0.361 OA
ATOM     77  C   UNL A   1      31.601  24.484  23.624  1.00  0.00     0.037 C 
ATOM     78  C   UNL A   1      31.324  24.419  25.114  1.00  0.00     0.138 C 
BRANCH  78  79
ATOM     79  C   UNL A   1      30.264  25.440  25.574  1.00  0.00     0.148 C 
BRANCH  79  80
ATOM     80  N   UNL A   1      30.631  26.232  26.747  1.00  0.00    -0.348 N 
ATOM     81  C   UNL A   1      31.333  27.419  26.856  1.00  0.00     0.271 C 
ATOM     82  H   UNL A   1      30.329  25.856  27.606  1.00  0.00     0.163 HD
ATOM     83  O   UNL A   1      31.489  27.919  27.971  1.00  0.00    -0.267 OA
BRANCH  81  84
ATOM     84  C   UNL A   1      32.035  28.017  25.688  1.00  0.00     0.151 A 
ATOM     85  C   UNL A   1      33.325  27.588  25.395  1.00  0.00     0.042 A 
ATOM     86  N   UNL A   1      31.311  28.786  24.848  1.00  0.00    -0.142 NA
ATOM     87  C   UNL A   1      33.810  27.838  24.127  1.00  0.00     0.072 A 
ATOM     88  N   UNL A   1      31.779  29.017  23.604  1.00  0.00    -0.112 NA
ATOM     89  C   UNL A   1      32.972  28.502  23.260  1.00  0.00     0.230 A 
BRANCH  89  90
ATOM     90  O   UNL A   1      33.234  28.460  21.936  1.00  0.00    -0.492 OA
ATOM     91  H   UNL A   1      33.792  29.105  21.549  1.00  0.00     0.295 HD
ENDBRANCH  89  90
ENDBRANCH  81  84
ENDBRANCH  79  80
ENDBRANCH  78  79
ENDBRANCH  72  74
ENDBRANCH  71  72
ENDBRANCH   1  71
TORSDOF 18
ENDMDL
MODEL 3
REMARK VINA RESULT:     -11.6      5.141      9.399
REMARK SMILES O=C(OCCOC(=O)[C@@H]1CC[C@@H](CNC(=O)c2ccc(O)nn2)O1)c1ccc(-c2c3nc(c(-c4cccc(S(=O)(=O)[O-])c4F)c4ccc([nH]4)c(-c4cccc(S(=O)(=O)[O-])c4F)c4nc(c(-c5cccc(S(=O)(=O)[O-])c5F)c5ccc2[nH]5)C=C4)C=C3)cc1
REMARK SMILES IDX 5 1 4 2 3 3 2 4 1 5 25 6 26 7 87 8 27 9 86 10 28 11 29 12
REMARK SMILES IDX 30 13 80 14 31 15 85 16 79 17 81 18 32 19 84 20 78 21 77 22
REMARK SMILES IDX 33 24 65 25 45 26 64 27 46 28 49 29 63 30 82 31 47 32 48 33
REMARK SMILES IDX 62 35 83 36 50 37 34 38 35 39 43 40 36 41 38 42 44 43 37 44
REMARK SMILES IDX 39 45 40 46 41 47 42 48 66 49 67 50 75 51 68 52 70 53 76 54
REMARK SMILES IDX 69 55 71 56 72 57 73 58 74 59 51 60 52 61 60 62 53 63 55 64
REMARK SMILES IDX 61 65 54 66 56 67 57 68 58 69 59 70 6 71 7 72 8 73 9 74
REMARK SMILES IDX 10 75 24 76 11 77 12 78 13 79 14 80 15 81 16 83 17 84 18 85
REMARK SMILES IDX 23 86 19 87 22 88 20 89 21 90
REMARK H PARENT 81 23 49 34 14 82 21 91
REMARK Flexibility Score: inf
ROOT
ATOM      1  C   UNL A   1      42.983  20.423  25.860  1.00  0.00     0.274 C 
ENDROOT
BRANCH   1   2
ATOM      2  C   UNL A   1      43.924  21.543  25.399  1.00  0.00     0.275 C 
BRANCH   2   3
ATOM      3  O   UNL A   1      43.267  22.705  24.885  1.00  0.00    -0.458 OA
BRANCH   3   4
ATOM      4  C   UNL A   1      43.607  24.007  25.043  1.00  0.00     0.338 C 
ATOM      5  O   UNL A   1      44.549  24.435  24.377  1.00  0.00    -0.246 OA
BRANCH   4   6
ATOM      6  C   UNL A   1      42.971  24.924  26.053  1.00  0.00     0.060 A 
ATOM      7  C   UNL A   1      41.921  24.624  26.937  1.00  0.00     0.016 A 
ATOM      8  C   UNL A   1      43.525  26.204  26.135  1.00  0.00     0.016 A 
ATOM      9  C   UNL A   1      41.547  25.493  27.974  1.00  0.00     0.010 A 
ATOM     10  C   UNL A   1      43.114  27.092  27.128  1.00  0.00     0.010 A 
ATOM     11  C   UNL A   1      42.164  26.728  28.091  1.00  0.00    -0.014 A 
BRANCH  11  12
ATOM     12  C   UNL A   1      41.744  27.749  29.080  1.00  0.00     0.031 A 
ATOM     13  C   UNL A   1      42.480  27.752  30.384  1.00  0.00     0.074 A 
ATOM     14  C   UNL A   1      40.661  28.526  28.878  1.00  0.00     0.049 A 
ATOM     15  N   UNL A   1      42.232  28.422  31.476  1.00  0.00    -0.248 NA
ATOM     16  C   UNL A   1      43.655  26.865  30.466  1.00  0.00     0.031 C 
ATOM     17  C   UNL A   1      39.918  28.643  27.624  1.00  0.00     0.029 A 
ATOM     18  N   UNL A   1      39.942  29.305  29.751  1.00  0.00    -0.354 N 
ATOM     19  C   UNL A   1      43.226  28.046  32.368  1.00  0.00     0.074 A 
ATOM     20  C   UNL A   1      44.047  27.054  31.713  1.00  0.00     0.031 C 
ATOM     21  C   UNL A   1      38.771  29.313  27.844  1.00  0.00     0.029 A 
ATOM     22  C   UNL A   1      38.725  29.713  29.244  1.00  0.00     0.049 A 
ATOM     23  H   UNL A   1      40.263  29.548  30.649  1.00  0.00     0.167 HD
ATOM     24  C   UNL A   1      43.404  28.464  33.641  1.00  0.00     0.034 A 
ATOM     25  C   UNL A   1      37.697  30.332  29.859  1.00  0.00     0.034 A 
ATOM     26  C   UNL A   1      42.513  29.377  34.302  1.00  0.00     0.049 A 
ATOM     27  C   UNL A   1      37.893  30.767  31.291  1.00  0.00     0.074 A 
ATOM     28  C   UNL A   1      42.486  29.733  35.637  1.00  0.00     0.029 A 
ATOM     29  N   UNL A   1      41.470  30.065  33.691  1.00  0.00    -0.354 N 
ATOM     30  N   UNL A   1      38.958  30.630  32.048  1.00  0.00    -0.248 NA
ATOM     31  C   UNL A   1      36.794  31.501  31.930  1.00  0.00     0.031 C 
ATOM     32  C   UNL A   1      41.324  30.483  35.857  1.00  0.00     0.029 A 
ATOM     33  C   UNL A   1      40.661  30.646  34.646  1.00  0.00     0.049 A 
ATOM     34  H   UNL A   1      41.329  30.129  32.719  1.00  0.00     0.167 HD
ATOM     35  C   UNL A   1      38.661  31.246  33.256  1.00  0.00     0.074 A 
ATOM     36  C   UNL A   1      37.333  31.815  33.105  1.00  0.00     0.031 C 
ATOM     37  C   UNL A   1      39.406  31.318  34.391  1.00  0.00     0.034 A 
BRANCH  24  38
ATOM     38  C   UNL A   1      44.532  27.809  34.391  1.00  0.00     0.023 A 
ATOM     39  C   UNL A   1      45.814  28.396  34.384  1.00  0.00     0.012 A 
ATOM     40  C   UNL A   1      44.346  26.561  35.019  1.00  0.00     0.148 A 
ATOM     41  C   UNL A   1      46.900  27.734  34.958  1.00  0.00     0.002 A 
ATOM     42  C   UNL A   1      45.423  25.933  35.632  1.00  0.00     0.091 A 
ATOM     43  F   UNL A   1      43.133  25.993  34.957  1.00  0.00    -0.205 F 
ATOM     44  C   UNL A   1      46.703  26.509  35.589  1.00  0.00     0.022 A 
BRANCH  42  45
ATOM     45  S   UNL A   1      45.275  24.372  36.506  1.00  0.00     0.127 S 
ATOM     46  O   UNL A   1      46.569  24.285  37.178  1.00  0.00    -0.237 OA
ATOM     47  O   UNL A   1      44.140  24.628  37.387  1.00  0.00    -0.237 OA
ATOM     48  O   UNL A   1      45.047  23.360  35.479  1.00  0.00    -0.744 OA
ENDBRANCH  42  45
ENDBRANCH  24  38
BRANCH  25  49
ATOM     49  C   UNL A   1      36.473  30.690  29.082  1.00  0.00     0.023 A 
ATOM     50  C   UNL A   1      35.746  29.646  28.478  1.00  0.00     0.012 A 
ATOM     51  C   UNL A   1      35.970  32.008  29.003  1.00  0.00     0.148 A 
ATOM     52  C   UNL A   1      34.546  29.898  27.813  1.00  0.00     0.002 A 
ATOM     53  C   UNL A   1      34.766  32.252  28.340  1.00  0.00     0.091 A 
ATOM     54  F   UNL A   1      36.657  32.989  29.601  1.00  0.00    -0.205 F 
ATOM     55  C   UNL A   1      34.055  31.197  27.746  1.00  0.00     0.022 A 
BRANCH  53  56
ATOM     56  S   UNL A   1      34.005  33.879  28.218  1.00  0.00     0.127 S 
ATOM     57  O   UNL A   1      34.901  34.564  27.286  1.00  0.00    -0.237 OA
ATOM     58  O   UNL A   1      32.689  33.549  27.670  1.00  0.00    -0.237 OA
ATOM     59  O   UNL A   1      33.993  34.418  29.570  1.00  0.00    -0.744 OA
ENDBRANCH  53  56
ENDBRANCH  25  49
BRANCH  37  60
ATOM     60  C   UNL A   1      38.907  32.186  35.506  1.00  0.00     0.023 A 
ATOM     61  C   UNL A   1      38.062  31.690  36.515  1.00  0.00     0.012 A 
ATOM     62  C   UNL A   1      39.446  33.481  35.616  1.00  0.00     0.148 A 
ATOM     63  C   UNL A   1      37.756  32.485  37.620  1.00  0.00     0.002 A 
ATOM     64  C   UNL A   1      39.177  34.247  36.737  1.00  0.00     0.091 A 
ATOM     65  F   UNL A   1      40.240  33.922  34.628  1.00  0.00    -0.205 F 
ATOM     66  C   UNL A   1      38.325  33.755  37.739  1.00  0.00     0.022 A 
BRANCH  64  67
ATOM     67  S   UNL A   1      39.954  35.841  37.004  1.00  0.00     0.127 S 
ATOM     68  O   UNL A   1      41.364  35.471  37.106  1.00  0.00    -0.237 OA
ATOM     69  O   UNL A   1      39.596  36.566  35.785  1.00  0.00    -0.237 OA
ATOM     70  O   UNL A   1      39.367  36.380  38.224  1.00  0.00    -0.744 OA
ENDBRANCH  64  67
ENDBRANCH  37  60
ENDBRANCH  11  12
ENDBRANCH   4   6
ENDBRANCH   3   4
ENDBRANCH   2   3
ENDBRANCH   1   2
BRANCH   1  71
ATOM     71  O   UNL A   1      41.647  20.866  26.180  1.00  0.00    -0.460 OA
BRANCH  71  72
ATOM     72  C   UNL A   1      40.664  19.927  26.058  1.00  0.00     0.335 C 
ATOM     73  O   UNL A   1      40.887  18.741  25.834  1.00  0.00    -0.249 OA
BRANCH  72  74
ATOM     74  C   UNL A   1      39.233  20.513  26.134  1.00  0.00     0.228 C 
ATOM     75  C   UNL A   1      38.429  20.141  24.891  1.00  0.00     0.047 C 
ATOM     76  O   UNL A   1      39.012  21.916  26.366  1.00  0.00    -0.361 OA
ATOM     77  C   UNL A   1      37.309  21.150  24.932  1.00  0.00     0.037 C 
ATOM     78  C   UNL A   1      38.065  22.387  25.381  1.00  0.00     0.138 C 
BRANCH  78  79
ATOM     79  C   UNL A   1      37.133  23.545  25.791  1.00  0.00     0.148 C 
BRANCH  79  80
ATOM     80  N   UNL A   1      35.964  23.153  26.577  1.00  0.00    -0.348 N 
ATOM     81  C   UNL A   1      34.630  23.048  26.227  1.00  0.00     0.271 C 
ATOM     82  H   UNL A   1      36.159  22.925  27.516  1.00  0.00     0.163 HD
ATOM     83  O   UNL A   1      33.821  22.657  27.071  1.00  0.00    -0.267 OA
BRANCH  81  84
ATOM     84  C   UNL A   1      34.128  23.545  24.917  1.00  0.00     0.151 A 
ATOM     85  C   UNL A   1      33.944  22.632  23.884  1.00  0.00     0.042 A 
ATOM     86  N   UNL A   1      33.676  24.815  24.861  1.00  0.00    -0.142 NA
ATOM     87  C   UNL A   1      33.131  23.010  22.834  1.00  0.00     0.072 A 
ATOM     88  N   UNL A   1      32.870  25.179  23.842  1.00  0.00    -0.112 NA
ATOM     89  C   UNL A   1      32.578  24.269  22.897  1.00  0.00     0.230 A 
BRANCH  89  90
ATOM     90  O   UNL A   1      31.519  24.557  22.110  1.00  0.00    -0.492 OA
ATOM     91  H   UNL A   1      31.224  25.443  22.029  1.00  0.00     0.295 HD
ENDBRANCH  89  90
ENDBRANCH  81  84
ENDBRANCH  79  80
ENDBRANCH  78  79
ENDBRANCH  72  74
ENDBRANCH  71  72
ENDBRANCH   1  71
TORSDOF 18
ENDMDL
