MODEL 1
REMARK VINA RESULT:     -12.4      0.000      0.000
REMARK SMILES O=C(OCCOC(=O)c1ccc(OC[C@H]2C[C@H]3CC[C@@H]2C3)c(Cl)c1)c1ccc(-c2c3nc(c(-c4cccc(S(=O)(=O)[O-])c4F)c4ccc([nH]4)c(-c4cccc(S(=O)(=O)[O-])c4F)c4nc(c(-c5cccc(S(=O)(=O)[O-])c5F)c5ccc2[nH]5)C=C4)C=C3)cc1
REMARK SMILES IDX 4 1 3 2 2 3 1 4 25 5 26 6 87 7 27 8 86 9 28 10 29 11 30 12
REMARK SMILES IDX 80 13 31 14 85 15 79 16 81 17 32 18 84 19 78 20 77 21 33 23
REMARK SMILES IDX 65 24 45 25 64 26 46 27 49 28 63 29 82 30 47 31 48 32 62 34
REMARK SMILES IDX 83 35 50 36 34 37 35 38 43 39 36 40 38 41 44 42 37 43 39 44
REMARK SMILES IDX 40 45 41 46 42 47 66 48 67 49 75 50 68 51 70 52 76 53 69 54
REMARK SMILES IDX 71 55 72 56 73 57 74 58 51 59 52 60 60 61 53 62 55 63 61 64
REMARK SMILES IDX 54 65 56 66 57 67 58 68 59 69 5 70 6 71 7 72 8 73 9 74 10 75
REMARK SMILES IDX 24 76 11 77 22 78 12 79 23 80 13 81 14 82 15 83 16 84 20 85
REMARK SMILES IDX 17 86 19 87 21 88 18 89
REMARK H PARENT 81 22 49 33
REMARK Flexibility Score: inf
ROOT
ATOM      1  C   UNL A   1      31.785  29.155  26.719  1.00  0.00     0.275 C 
ENDROOT
BRANCH   1   2
ATOM      2  O   UNL A   1      32.611  30.250  26.294  1.00  0.00    -0.458 OA
BRANCH   2   3
ATOM      3  C   UNL A   1      33.187  31.162  27.117  1.00  0.00     0.338 C 
ATOM      4  O   UNL A   1      32.674  32.274  27.226  1.00  0.00    -0.246 OA
BRANCH   3   5
ATOM      5  C   UNL A   1      34.570  30.954  27.656  1.00  0.00     0.060 A 
ATOM      6  C   UNL A   1      35.540  31.931  27.883  1.00  0.00     0.016 A 
ATOM      7  C   UNL A   1      34.892  29.634  28.002  1.00  0.00     0.016 A 
ATOM      8  C   UNL A   1      36.752  31.617  28.514  1.00  0.00     0.010 A 
ATOM      9  C   UNL A   1      36.071  29.332  28.693  1.00  0.00     0.010 A 
ATOM     10  C   UNL A   1      37.018  30.321  28.958  1.00  0.00    -0.014 A 
BRANCH  10  11
ATOM     11  C   UNL A   1      38.309  29.999  29.619  1.00  0.00     0.031 A 
ATOM     12  C   UNL A   1      38.610  30.581  30.975  1.00  0.00     0.074 A 
ATOM     13  C   UNL A   1      39.199  29.183  29.018  1.00  0.00     0.049 A 
ATOM     14  N   UNL A   1      39.615  30.330  31.774  1.00  0.00    -0.248 NA
ATOM     15  C   UNL A   1      37.667  31.584  31.503  1.00  0.00     0.031 C 
ATOM     16  C   UNL A   1      39.065  28.623  27.670  1.00  0.00     0.029 A 
ATOM     17  N   UNL A   1      40.400  28.681  29.459  1.00  0.00    -0.354 N 
ATOM     18  C   UNL A   1      39.418  31.135  32.888  1.00  0.00     0.074 A 
ATOM     19  C   UNL A   1      38.255  31.949  32.630  1.00  0.00     0.031 C 
ATOM     20  C   UNL A   1      40.135  27.857  27.397  1.00  0.00     0.029 A 
ATOM     21  C   UNL A   1      41.030  27.861  28.549  1.00  0.00     0.049 A 
ATOM     22  H   UNL A   1      40.776  28.889  30.344  1.00  0.00     0.167 HD
ATOM     23  C   UNL A   1      40.096  31.148  34.059  1.00  0.00     0.034 A 
ATOM     24  C   UNL A   1      42.185  27.172  28.648  1.00  0.00     0.034 A 
ATOM     25  C   UNL A   1      41.230  30.314  34.328  1.00  0.00     0.049 A 
ATOM     26  C   UNL A   1      42.918  27.189  29.968  1.00  0.00     0.074 A 
ATOM     27  C   UNL A   1      41.967  30.205  35.492  1.00  0.00     0.029 A 
ATOM     28  N   UNL A   1      41.794  29.442  33.409  1.00  0.00    -0.354 N 
ATOM     29  N   UNL A   1      42.605  27.817  31.077  1.00  0.00    -0.248 NA
ATOM     30  C   UNL A   1      44.124  26.356  30.070  1.00  0.00     0.031 C 
ATOM     31  C   UNL A   1      42.983  29.269  35.273  1.00  0.00     0.029 A 
ATOM     32  C   UNL A   1      42.867  28.785  33.979  1.00  0.00     0.049 A 
ATOM     33  H   UNL A   1      41.476  29.311  32.487  1.00  0.00     0.167 HD
ATOM     34  C   UNL A   1      43.547  27.418  32.019  1.00  0.00     0.074 A 
ATOM     35  C   UNL A   1      44.426  26.477  31.356  1.00  0.00     0.031 C 
ATOM     36  C   UNL A   1      43.683  27.804  33.312  1.00  0.00     0.034 A 
BRANCH  23  37
ATOM     37  C   UNL A   1      39.553  32.034  35.148  1.00  0.00     0.023 A 
ATOM     38  C   UNL A   1      39.855  33.413  35.119  1.00  0.00     0.012 A 
ATOM     39  C   UNL A   1      38.774  31.519  36.199  1.00  0.00     0.148 A 
ATOM     40  C   UNL A   1      39.433  34.256  36.145  1.00  0.00     0.002 A 
ATOM     41  C   UNL A   1      38.321  32.374  37.196  1.00  0.00     0.091 A 
ATOM     42  F   UNL A   1      38.513  30.204  36.216  1.00  0.00    -0.205 F 
ATOM     43  C   UNL A   1      38.662  33.738  37.180  1.00  0.00     0.022 A 
BRANCH  41  44
ATOM     44  S   UNL A   1      37.278  31.825  38.552  1.00  0.00     0.127 S 
ATOM     45  O   UNL A   1      37.046  30.425  38.199  1.00  0.00    -0.237 OA
ATOM     46  O   UNL A   1      38.152  32.025  39.707  1.00  0.00    -0.237 OA
ATOM     47  O   UNL A   1      36.096  32.676  38.522  1.00  0.00    -0.744 OA
ENDBRANCH  41  44
ENDBRANCH  23  37
BRANCH  24  48
ATOM     48  C   UNL A   1      42.677  26.332  27.515  1.00  0.00     0.023 A 
ATOM     49  C   UNL A   1      43.535  26.895  26.547  1.00  0.00     0.012 A 
ATOM     50  C   UNL A   1      42.284  24.987  27.373  1.00  0.00     0.148 A 
ATOM     51  C   UNL A   1      43.948  26.154  25.438  1.00  0.00     0.002 A 
ATOM     52  C   UNL A   1      42.739  24.238  26.292  1.00  0.00     0.091 A 
ATOM     53  F   UNL A   1      41.461  24.464  28.294  1.00  0.00    -0.205 F 
ATOM     54  C   UNL A   1      43.556  24.825  25.313  1.00  0.00     0.022 A 
BRANCH  52  55
ATOM     55  S   UNL A   1      42.376  22.487  26.119  1.00  0.00     0.127 S 
ATOM     56  O   UNL A   1      40.916  22.483  26.108  1.00  0.00    -0.237 OA
ATOM     57  O   UNL A   1      43.003  22.169  24.836  1.00  0.00    -0.237 OA
ATOM     58  O   UNL A   1      43.011  21.849  27.264  1.00  0.00    -0.744 OA
ENDBRANCH  52  55
ENDBRANCH  24  48
BRANCH  36  59
ATOM     59  C   UNL A   1      44.799  27.184  34.108  1.00  0.00     0.023 A 
ATOM     60  C   UNL A   1      46.071  27.788  34.117  1.00  0.00     0.012 A 
ATOM     61  C   UNL A   1      44.561  26.052  34.912  1.00  0.00     0.148 A 
ATOM     62  C   UNL A   1      47.099  27.256  34.894  1.00  0.00     0.002 A 
ATOM     63  C   UNL A   1      45.575  25.560  35.722  1.00  0.00     0.091 A 
ATOM     64  F   UNL A   1      43.350  25.479  34.870  1.00  0.00    -0.205 F 
ATOM     65  C   UNL A   1      46.848  26.152  35.706  1.00  0.00     0.022 A 
BRANCH  63  66
ATOM     66  S   UNL A   1      45.303  24.211  36.877  1.00  0.00     0.127 S 
ATOM     67  O   UNL A   1      44.243  24.754  37.726  1.00  0.00    -0.237 OA
ATOM     68  O   UNL A   1      44.880  23.124  35.995  1.00  0.00    -0.237 OA
ATOM     69  O   UNL A   1      46.584  23.987  37.534  1.00  0.00    -0.744 OA
ENDBRANCH  63  66
ENDBRANCH  36  59
ENDBRANCH  10  11
ENDBRANCH   3   5
ENDBRANCH   2   3
ENDBRANCH   1   2
BRANCH   1  70
ATOM     70  C   UNL A   1      31.529  28.144  25.599  1.00  0.00     0.275 C 
BRANCH  70  71
ATOM     71  O   UNL A   1      30.907  26.940  26.080  1.00  0.00    -0.458 OA
BRANCH  71  72
ATOM     72  C   UNL A   1      30.312  26.180  25.126  1.00  0.00     0.338 C 
ATOM     73  O   UNL A   1      29.562  26.554  24.240  1.00  0.00    -0.246 OA
BRANCH  72  74
ATOM     74  C   UNL A   1      30.817  24.804  25.215  1.00  0.00     0.061 A 
ATOM     75  C   UNL A   1      30.770  24.076  26.397  1.00  0.00     0.019 A 
ATOM     76  C   UNL A   1      31.310  24.220  24.052  1.00  0.00     0.040 A 
ATOM     77  C   UNL A   1      31.156  22.730  26.373  1.00  0.00     0.049 A 
ATOM     78  C   UNL A   1      31.797  22.907  24.065  1.00  0.00     0.083 A 
ATOM     79  C   UNL A   1      31.625  22.108  25.198  1.00  0.00     0.137 A 
ATOM     80  Cl  UNL A   1      32.650  22.449  22.635  1.00  0.00    -0.080 Cl
BRANCH  79  81
ATOM     81  O   UNL A   1      31.804  20.769  25.367  1.00  0.00    -0.492 OA
BRANCH  81  82
ATOM     82  C   UNL A   1      33.072  20.150  25.567  1.00  0.00     0.233 C 
BRANCH  82  83
ATOM     83  C   UNL A   1      33.581  19.311  24.376  1.00  0.00     0.030 C 
ATOM     84  C   UNL A   1      34.917  18.549  24.522  1.00  0.00     0.011 C 
ATOM     85  C   UNL A   1      32.616  18.160  23.957  1.00  0.00    -0.004 C 
ATOM     86  C   UNL A   1      34.525  17.075  24.318  1.00  0.00    -0.010 C 
ATOM     87  C   UNL A   1      32.269  17.258  25.153  1.00  0.00     0.004 C 
ATOM     88  C   UNL A   1      33.539  17.221  23.166  1.00  0.00     0.007 C 
ATOM     89  C   UNL A   1      33.608  16.571  25.450  1.00  0.00     0.004 C 
ENDBRANCH  82  83
ENDBRANCH  81  82
ENDBRANCH  79  81
ENDBRANCH  72  74
ENDBRANCH  71  72
ENDBRANCH  70  71
ENDBRANCH   1  70
TORSDOF 17
ENDMDL
MODEL 2
REMARK VINA RESULT:     -12.4      5.184     10.653
REMARK SMILES O=C(OCCOC(=O)c1ccc(OC[C@H]2C[C@H]3CC[C@@H]2C3)c(Cl)c1)c1ccc(-c2c3nc(c(-c4cccc(S(=O)(=O)[O-])c4F)c4ccc([nH]4)c(-c4cccc(S(=O)(=O)[O-])c4F)c4nc(c(-c5cccc(S(=O)(=O)[O-])c5F)c5ccc2[nH]5)C=C4)C=C3)cc1
REMARK SMILES IDX 4 1 3 2 2 3 1 4 25 5 26 6 87 7 27 8 86 9 28 10 29 11 30 12
REMARK SMILES IDX 80 13 31 14 85 15 79 16 81 17 32 18 84 19 78 20 77 21 33 23
REMARK SMILES IDX 65 24 45 25 64 26 46 27 49 28 63 29 82 30 47 31 48 32 62 34
REMARK SMILES IDX 83 35 50 36 34 37 35 38 43 39 36 40 38 41 44 42 37 43 39 44
REMARK SMILES IDX 40 45 41 46 42 47 66 48 67 49 75 50 68 51 70 52 76 53 69 54
REMARK SMILES IDX 71 55 72 56 73 57 74 58 51 59 52 60 60 61 53 62 55 63 61 64
REMARK SMILES IDX 54 65 56 66 57 67 58 68 59 69 5 70 6 71 7 72 8 73 9 74 10 75
REMARK SMILES IDX 24 76 11 77 22 78 12 79 23 80 13 81 14 82 15 83 16 84 20 85
REMARK SMILES IDX 17 86 19 87 21 88 18 89
REMARK H PARENT 81 22 49 33
REMARK Flexibility Score: inf
ROOT
ATOM      1  C   UNL A   1      36.921  20.457  24.948  1.00  0.00     0.275 C 
ENDROOT
BRANCH   1   2
ATOM      2  O   UNL A   1      37.612  21.545  25.581  1.00  0.00    -0.458 OA
BRANCH   2   3
ATOM      3  C   UNL A   1      38.916  21.533  25.956  1.00  0.00     0.338 C 
ATOM      4  O   UNL A   1      39.525  20.465  25.964  1.00  0.00    -0.246 OA
BRANCH   3   5
ATOM      5  C   UNL A   1      39.538  22.718  26.631  1.00  0.00     0.060 A 
ATOM      6  C   UNL A   1      40.516  22.702  27.626  1.00  0.00     0.016 A 
ATOM      7  C   UNL A   1      39.105  23.971  26.173  1.00  0.00     0.016 A 
ATOM      8  C   UNL A   1      41.106  23.889  28.082  1.00  0.00     0.010 A 
ATOM      9  C   UNL A   1      39.741  25.150  26.578  1.00  0.00     0.010 A 
ATOM     10  C   UNL A   1      40.751  25.124  27.539  1.00  0.00    -0.014 A 
BRANCH  10  11
ATOM     11  C   UNL A   1      41.378  26.376  28.037  1.00  0.00     0.031 A 
ATOM     12  C   UNL A   1      42.819  26.663  27.704  1.00  0.00     0.074 A 
ATOM     13  C   UNL A   1      40.663  27.254  28.770  1.00  0.00     0.049 A 
ATOM     14  N   UNL A   1      43.515  27.746  27.932  1.00  0.00    -0.248 NA
ATOM     15  C   UNL A   1      43.583  25.594  27.036  1.00  0.00     0.031 C 
ATOM     16  C   UNL A   1      39.287  27.054  29.232  1.00  0.00     0.029 A 
ATOM     17  N   UNL A   1      40.992  28.494  29.260  1.00  0.00    -0.354 N 
ATOM     18  C   UNL A   1      44.786  27.487  27.433  1.00  0.00     0.074 A 
ATOM     19  C   UNL A   1      44.795  26.119  26.974  1.00  0.00     0.031 C 
ATOM     20  C   UNL A   1      38.891  28.130  29.934  1.00  0.00     0.029 A 
ATOM     21  C   UNL A   1      39.978  29.102  29.968  1.00  0.00     0.049 A 
ATOM     22  H   UNL A   1      41.873  28.911  29.120  1.00  0.00     0.167 HD
ATOM     23  C   UNL A   1      45.835  28.331  27.295  1.00  0.00     0.034 A 
ATOM     24  C   UNL A   1      39.927  30.317  30.552  1.00  0.00     0.034 A 
ATOM     25  C   UNL A   1      45.813  29.699  27.719  1.00  0.00     0.049 A 
ATOM     26  C   UNL A   1      41.103  31.246  30.374  1.00  0.00     0.074 A 
ATOM     27  C   UNL A   1      46.796  30.660  27.588  1.00  0.00     0.029 A 
ATOM     28  N   UNL A   1      44.742  30.300  28.363  1.00  0.00    -0.354 N 
ATOM     29  N   UNL A   1      42.227  31.041  29.730  1.00  0.00    -0.248 NA
ATOM     30  C   UNL A   1      40.978  32.594  30.946  1.00  0.00     0.031 C 
ATOM     31  C   UNL A   1      46.321  31.845  28.161  1.00  0.00     0.029 A 
ATOM     32  C   UNL A   1      45.036  31.622  28.633  1.00  0.00     0.049 A 
ATOM     33  H   UNL A   1      43.898  29.850  28.594  1.00  0.00     0.167 HD
ATOM     34  C   UNL A   1      42.922  32.244  29.779  1.00  0.00     0.074 A 
ATOM     35  C   UNL A   1      42.079  33.180  30.497  1.00  0.00     0.031 C 
ATOM     36  C   UNL A   1      44.149  32.548  29.291  1.00  0.00     0.034 A 
BRANCH  23  37
ATOM     37  C   UNL A   1      47.044  27.797  26.576  1.00  0.00     0.023 A 
ATOM     38  C   UNL A   1      48.081  27.205  27.331  1.00  0.00     0.012 A 
ATOM     39  C   UNL A   1      47.175  27.892  25.179  1.00  0.00     0.148 A 
ATOM     40  C   UNL A   1      49.249  26.764  26.713  1.00  0.00     0.002 A 
ATOM     41  C   UNL A   1      48.325  27.411  24.566  1.00  0.00     0.091 A 
ATOM     42  F   UNL A   1      46.186  28.472  24.484  1.00  0.00    -0.205 F 
ATOM     43  C   UNL A   1      49.368  26.861  25.331  1.00  0.00     0.022 A 
BRANCH  41  44
ATOM     44  S   UNL A   1      48.566  27.438  22.786  1.00  0.00     0.127 S 
ATOM     45  O   UNL A   1      47.412  28.220  22.343  1.00  0.00    -0.237 OA
ATOM     46  O   UNL A   1      49.850  28.128  22.665  1.00  0.00    -0.237 OA
ATOM     47  O   UNL A   1      48.574  26.047  22.358  1.00  0.00    -0.744 OA
ENDBRANCH  41  44
ENDBRANCH  23  37
BRANCH  24  48
ATOM     48  C   UNL A   1      38.700  30.770  31.273  1.00  0.00     0.023 A 
ATOM     49  C   UNL A   1      38.578  30.543  32.659  1.00  0.00     0.012 A 
ATOM     50  C   UNL A   1      37.641  31.404  30.593  1.00  0.00     0.148 A 
ATOM     51  C   UNL A   1      37.410  30.889  33.342  1.00  0.00     0.002 A 
ATOM     52  C   UNL A   1      36.500  31.792  31.289  1.00  0.00     0.091 A 
ATOM     53  F   UNL A   1      37.764  31.607  29.273  1.00  0.00    -0.205 F 
ATOM     54  C   UNL A   1      36.374  31.518  32.659  1.00  0.00     0.022 A 
BRANCH  52  55
ATOM     55  S   UNL A   1      35.169  32.713  30.508  1.00  0.00     0.127 S 
ATOM     56  O   UNL A   1      34.800  31.830  29.406  1.00  0.00    -0.237 OA
ATOM     57  O   UNL A   1      34.183  32.799  31.585  1.00  0.00    -0.237 OA
ATOM     58  O   UNL A   1      35.756  33.993  30.136  1.00  0.00    -0.744 OA
ENDBRANCH  52  55
ENDBRANCH  24  48
BRANCH  36  59
ATOM     59  C   UNL A   1      44.644  33.956  29.479  1.00  0.00     0.023 A 
ATOM     60  C   UNL A   1      45.285  34.318  30.679  1.00  0.00     0.012 A 
ATOM     61  C   UNL A   1      44.547  34.893  28.432  1.00  0.00     0.148 A 
ATOM     62  C   UNL A   1      45.798  35.603  30.845  1.00  0.00     0.002 A 
ATOM     63  C   UNL A   1      45.106  36.155  28.587  1.00  0.00     0.091 A 
ATOM     64  F   UNL A   1      43.911  34.536  27.307  1.00  0.00    -0.205 F 
ATOM     65  C   UNL A   1      45.721  36.516  29.796  1.00  0.00     0.022 A 
BRANCH  63  66
ATOM     66  S   UNL A   1      45.146  37.351  27.247  1.00  0.00     0.127 S 
ATOM     67  O   UNL A   1      45.939  36.646  26.241  1.00  0.00    -0.237 OA
ATOM     68  O   UNL A   1      43.729  37.496  26.914  1.00  0.00    -0.237 OA
ATOM     69  O   UNL A   1      45.757  38.550  27.804  1.00  0.00    -0.744 OA
ENDBRANCH  63  66
ENDBRANCH  36  59
ENDBRANCH  10  11
ENDBRANCH   3   5
ENDBRANCH   2   3
ENDBRANCH   1   2
BRANCH   1  70
ATOM     70  C   UNL A   1      35.401  20.634  24.973  1.00  0.00     0.275 C 
BRANCH  70  71
ATOM     71  O   UNL A   1      34.998  21.965  24.608  1.00  0.00    -0.458 OA
BRANCH  71  72
ATOM     72  C   UNL A   1      33.766  22.060  24.050  1.00  0.00     0.338 C 
ATOM     73  O   UNL A   1      32.973  21.157  23.842  1.00  0.00    -0.246 OA
BRANCH  72  74
ATOM     74  C   UNL A   1      33.435  23.475  23.840  1.00  0.00     0.061 A 
ATOM     75  C   UNL A   1      33.263  24.358  24.898  1.00  0.00     0.019 A 
ATOM     76  C   UNL A   1      33.340  23.930  22.528  1.00  0.00     0.040 A 
ATOM     77  C   UNL A   1      33.070  25.716  24.617  1.00  0.00     0.049 A 
ATOM     78  C   UNL A   1      33.038  25.270  22.257  1.00  0.00     0.083 A 
ATOM     79  C   UNL A   1      33.008  26.204  23.296  1.00  0.00     0.137 A 
ATOM     80  Cl  UNL A   1      32.654  25.594  20.605  1.00  0.00    -0.080 Cl
BRANCH  79  81
ATOM     81  O   UNL A   1      32.962  27.564  23.256  1.00  0.00    -0.492 OA
BRANCH  81  82
ATOM     82  C   UNL A   1      33.785  28.417  24.047  1.00  0.00     0.233 C 
BRANCH  82  83
ATOM     83  C   UNL A   1      33.021  29.473  24.872  1.00  0.00     0.030 C 
ATOM     84  C   UNL A   1      31.569  29.171  25.304  1.00  0.00     0.011 C 
ATOM     85  C   UNL A   1      33.685  29.804  26.244  1.00  0.00    -0.004 C 
ATOM     86  C   UNL A   1      31.622  29.220  26.841  1.00  0.00    -0.010 C 
ATOM     87  C   UNL A   1      33.923  28.530  27.071  1.00  0.00     0.004 C 
ATOM     88  C   UNL A   1      32.527  30.431  27.034  1.00  0.00     0.007 C 
ATOM     89  C   UNL A   1      32.495  28.086  27.414  1.00  0.00     0.004 C 
ENDBRANCH  82  83
ENDBRANCH  81  82
ENDBRANCH  79  81
ENDBRANCH  72  74
ENDBRANCH  71  72
ENDBRANCH  70  71
ENDBRANCH   1  70
TORSDOF 17
ENDMDL
MODEL 3
REMARK VINA RESULT:     -12.4      1.415      1.695
REMARK SMILES O=C(OCCOC(=O)c1ccc(OC[C@H]2C[C@H]3CC[C@@H]2C3)c(Cl)c1)c1ccc(-c2c3nc(c(-c4cccc(S(=O)(=O)[O-])c4F)c4ccc([nH]4)c(-c4cccc(S(=O)(=O)[O-])c4F)c4nc(c(-c5cccc(S(=O)(=O)[O-])c5F)c5ccc2[nH]5)C=C4)C=C3)cc1
REMARK SMILES IDX 4 1 3 2 2 3 1 4 25 5 26 6 87 7 27 8 86 9 28 10 29 11 30 12
REMARK SMILES IDX 80 13 31 14 85 15 79 16 81 17 32 18 84 19 78 20 77 21 33 23
REMARK SMILES IDX 65 24 45 25 64 26 46 27 49 28 63 29 82 30 47 31 48 32 62 34
REMARK SMILES IDX 83 35 50 36 34 37 35 38 43 39 36 40 38 41 44 42 37 43 39 44
REMARK SMILES IDX 40 45 41 46 42 47 66 48 67 49 75 50 68 51 70 52 76 53 69 54
REMARK SMILES IDX 71 55 72 56 73 57 74 58 51 59 52 60 60 61 53 62 55 63 61 64
REMARK SMILES IDX 54 65 56 66 57 67 58 68 59 69 5 70 6 71 7 72 8 73 9 74 10 75
REMARK SMILES IDX 24 76 11 77 22 78 12 79 23 80 13 81 14 82 15 83 16 84 20 85
REMARK SMILES IDX 17 86 19 87 21 88 18 89
REMARK H PARENT 81 22 49 33
REMARK Flexibility Score: inf
ROOT
ATOM      1  C   UNL A   1      32.786  29.768  25.200  1.00  0.00     0.275 C 
ENDROOT
BRANCH   1   2
ATOM      2  O   UNL A   1      32.454  30.166  26.539  1.00  0.00    -0.458 OA
BRANCH   2   3
ATOM      3  C   UNL A   1      33.087  31.133  27.249  1.00  0.00     0.338 C 
ATOM      4  O   UNL A   1      32.626  32.273  27.249  1.00  0.00    -0.246 OA
BRANCH   3   5
ATOM      5  C   UNL A   1      34.473  30.919  27.782  1.00  0.00     0.060 A 
ATOM      6  C   UNL A   1      35.452  31.891  27.990  1.00  0.00     0.016 A 
ATOM      7  C   UNL A   1      34.786  29.601  28.140  1.00  0.00     0.016 A 
ATOM      8  C   UNL A   1      36.666  31.574  28.616  1.00  0.00     0.010 A 
ATOM      9  C   UNL A   1      35.967  29.297  28.827  1.00  0.00     0.010 A 
ATOM     10  C   UNL A   1      36.924  30.282  29.074  1.00  0.00    -0.014 A 
BRANCH  10  11
ATOM     11  C   UNL A   1      38.217  29.957  29.730  1.00  0.00     0.031 A 
ATOM     12  C   UNL A   1      38.523  30.535  31.087  1.00  0.00     0.074 A 
ATOM     13  C   UNL A   1      39.105  29.142  29.124  1.00  0.00     0.049 A 
ATOM     14  N   UNL A   1      39.530  30.281  31.881  1.00  0.00    -0.248 NA
ATOM     15  C   UNL A   1      37.583  31.537  31.620  1.00  0.00     0.031 C 
ATOM     16  C   UNL A   1      38.966  28.586  27.774  1.00  0.00     0.029 A 
ATOM     17  N   UNL A   1      40.306  28.638  29.559  1.00  0.00    -0.354 N 
ATOM     18  C   UNL A   1      39.338  31.083  32.998  1.00  0.00     0.074 A 
ATOM     19  C   UNL A   1      38.174  31.898  32.746  1.00  0.00     0.031 C 
ATOM     20  C   UNL A   1      40.035  27.820  27.495  1.00  0.00     0.029 A 
ATOM     21  C   UNL A   1      40.933  27.820  28.644  1.00  0.00     0.049 A 
ATOM     22  H   UNL A   1      40.685  28.843  30.444  1.00  0.00     0.167 HD
ATOM     23  C   UNL A   1      40.020  31.092  34.167  1.00  0.00     0.034 A 
ATOM     24  C   UNL A   1      42.088  27.130  28.738  1.00  0.00     0.034 A 
ATOM     25  C   UNL A   1      41.154  30.257  34.430  1.00  0.00     0.049 A 
ATOM     26  C   UNL A   1      42.825  27.143  30.055  1.00  0.00     0.074 A 
ATOM     27  C   UNL A   1      41.894  30.144  35.591  1.00  0.00     0.029 A 
ATOM     28  N   UNL A   1      41.714  29.386  33.507  1.00  0.00    -0.354 N 
ATOM     29  N   UNL A   1      42.517  27.767  31.167  1.00  0.00    -0.248 NA
ATOM     30  C   UNL A   1      44.031  26.308  30.152  1.00  0.00     0.031 C 
ATOM     31  C   UNL A   1      42.909  29.207  35.367  1.00  0.00     0.029 A 
ATOM     32  C   UNL A   1      42.788  28.727  34.071  1.00  0.00     0.049 A 
ATOM     33  H   UNL A   1      41.393  29.258  32.585  1.00  0.00     0.167 HD
ATOM     34  C   UNL A   1      43.461  27.366  32.106  1.00  0.00     0.074 A 
ATOM     35  C   UNL A   1      44.337  26.426  31.436  1.00  0.00     0.031 C 
ATOM     36  C   UNL A   1      43.602  27.747  33.399  1.00  0.00     0.034 A 
BRANCH  23  37
ATOM     37  C   UNL A   1      39.481  31.975  35.260  1.00  0.00     0.023 A 
ATOM     38  C   UNL A   1      38.425  31.495  36.066  1.00  0.00     0.012 A 
ATOM     39  C   UNL A   1      39.987  33.267  35.483  1.00  0.00     0.148 A 
ATOM     40  C   UNL A   1      37.848  32.306  37.042  1.00  0.00     0.002 A 
ATOM     41  C   UNL A   1      39.435  34.054  36.486  1.00  0.00     0.091 A 
ATOM     42  F   UNL A   1      40.979  33.709  34.696  1.00  0.00    -0.205 F 
ATOM     43  C   UNL A   1      38.357  33.582  37.255  1.00  0.00     0.022 A 
BRANCH  41  44
ATOM     44  S   UNL A   1      40.043  35.697  36.883  1.00  0.00     0.127 S 
ATOM     45  O   UNL A   1      39.652  36.453  35.694  1.00  0.00    -0.237 OA
ATOM     46  O   UNL A   1      39.279  36.020  38.088  1.00  0.00    -0.237 OA
ATOM     47  O   UNL A   1      41.479  35.558  37.085  1.00  0.00    -0.744 OA
ENDBRANCH  41  44
ENDBRANCH  23  37
BRANCH  24  48
ATOM     48  C   UNL A   1      42.576  26.293  27.601  1.00  0.00     0.023 A 
ATOM     49  C   UNL A   1      43.423  26.860  26.627  1.00  0.00     0.012 A 
ATOM     50  C   UNL A   1      42.189  24.945  27.462  1.00  0.00     0.148 A 
ATOM     51  C   UNL A   1      43.831  26.122  25.514  1.00  0.00     0.002 A 
ATOM     52  C   UNL A   1      42.640  24.199  26.377  1.00  0.00     0.091 A 
ATOM     53  F   UNL A   1      41.376  24.418  28.389  1.00  0.00    -0.205 F 
ATOM     54  C   UNL A   1      43.445  24.791  25.392  1.00  0.00     0.022 A 
BRANCH  52  55
ATOM     55  S   UNL A   1      42.285  22.446  26.207  1.00  0.00     0.127 S 
ATOM     56  O   UNL A   1      42.850  21.904  27.439  1.00  0.00    -0.237 OA
ATOM     57  O   UNL A   1      40.824  22.434  26.141  1.00  0.00    -0.237 OA
ATOM     58  O   UNL A   1      42.938  22.041  24.969  1.00  0.00    -0.744 OA
ENDBRANCH  52  55
ENDBRANCH  24  48
BRANCH  36  59
ATOM     59  C   UNL A   1      44.720  27.124  34.189  1.00  0.00     0.023 A 
ATOM     60  C   UNL A   1      45.986  27.741  34.217  1.00  0.00     0.012 A 
ATOM     61  C   UNL A   1      44.489  25.976  34.971  1.00  0.00     0.148 A 
ATOM     62  C   UNL A   1      47.014  27.205  34.989  1.00  0.00     0.002 A 
ATOM     63  C   UNL A   1      45.504  25.479  35.778  1.00  0.00     0.091 A 
ATOM     64  F   UNL A   1      43.284  25.391  34.912  1.00  0.00    -0.205 F 
ATOM     65  C   UNL A   1      46.770  26.084  35.779  1.00  0.00     0.022 A 
BRANCH  63  66
ATOM     66  S   UNL A   1      45.239  24.107  36.907  1.00  0.00     0.127 S 
ATOM     67  O   UNL A   1      44.161  24.618  37.751  1.00  0.00    -0.237 OA
ATOM     68  O   UNL A   1      44.845  23.028  36.001  1.00  0.00    -0.237 OA
ATOM     69  O   UNL A   1      46.515  23.892  37.576  1.00  0.00    -0.744 OA
ENDBRANCH  63  66
ENDBRANCH  36  59
ENDBRANCH  10  11
ENDBRANCH   3   5
ENDBRANCH   2   3
ENDBRANCH   1   2
BRANCH   1  70
ATOM     70  C   UNL A   1      32.351  28.334  24.889  1.00  0.00     0.275 C 
BRANCH  70  71
ATOM     71  O   UNL A   1      32.910  27.380  25.809  1.00  0.00    -0.458 OA
BRANCH  71  72
ATOM     72  C   UNL A   1      32.002  26.647  26.499  1.00  0.00     0.338 C 
ATOM     73  O   UNL A   1      31.100  27.060  27.210  1.00  0.00    -0.246 OA
BRANCH  72  74
ATOM     74  C   UNL A   1      32.163  25.228  26.161  1.00  0.00     0.061 A 
ATOM     75  C   UNL A   1      31.186  24.285  26.448  1.00  0.00     0.019 A 
ATOM     76  C   UNL A   1      33.324  24.851  25.491  1.00  0.00     0.040 A 
ATOM     77  C   UNL A   1      31.358  22.974  25.985  1.00  0.00     0.049 A 
ATOM     78  C   UNL A   1      33.537  23.515  25.128  1.00  0.00     0.083 A 
ATOM     79  C   UNL A   1      32.509  22.579  25.272  1.00  0.00     0.137 A 
ATOM     80  Cl  UNL A   1      35.141  23.169  24.592  1.00  0.00    -0.080 Cl
BRANCH  79  81
ATOM     81  O   UNL A   1      32.402  21.308  24.795  1.00  0.00    -0.492 OA
BRANCH  81  82
ATOM     82  C   UNL A   1      33.121  20.194  25.317  1.00  0.00     0.233 C 
BRANCH  82  83
ATOM     83  C   UNL A   1      33.699  19.238  24.253  1.00  0.00     0.030 C 
ATOM     84  C   UNL A   1      34.949  18.402  24.607  1.00  0.00     0.011 C 
ATOM     85  C   UNL A   1      32.705  18.125  23.798  1.00  0.00    -0.004 C 
ATOM     86  C   UNL A   1      34.475  16.946  24.456  1.00  0.00    -0.010 C 
ATOM     87  C   UNL A   1      32.157  17.340  25.001  1.00  0.00     0.004 C 
ATOM     88  C   UNL A   1      33.641  17.071  23.187  1.00  0.00     0.007 C 
ATOM     89  C   UNL A   1      33.398  16.589  25.500  1.00  0.00     0.004 C 
ENDBRANCH  82  83
ENDBRANCH  81  82
ENDBRANCH  79  81
ENDBRANCH  72  74
ENDBRANCH  71  72
ENDBRANCH  70  71
ENDBRANCH   1  70
TORSDOF 17
ENDMDL
