MODEL 1
REMARK VINA RESULT:     -11.5      0.000      0.000
REMARK SMILES CN(Cc1ccccc1Br)C(=O)N[C@H]1C=C[C@H](C(=O)OCCOC(=O)c2ccc(-c3c4nc(c(-c5cccc(S(=O)(=O)[O-])c5F)c5ccc([nH]5)c(-c5cccc(S(=O)(=O)[O-])c5F)c5nc(c(-c6cccc(S(=O)(=O)[O-])c6F)c6ccc3[nH]6)C=C5)C=C4)cc2)C1
REMARK SMILES IDX 21 1 20 2 18 3 19 4 17 5 14 6 15 7 89 8 16 9 13 10 11 11
REMARK SMILES IDX 12 12 2 14 1 15 3 16 4 17 5 18 9 19 6 20 8 21 10 22 7 23
REMARK SMILES IDX 22 24 23 25 24 26 25 27 26 28 27 29 88 30 28 31 87 32 29 33
REMARK SMILES IDX 30 34 31 35 81 36 32 37 86 38 80 39 82 40 33 41 85 42 79 43
REMARK SMILES IDX 78 44 34 46 66 47 46 48 65 49 47 50 50 51 64 52 83 53 48 54
REMARK SMILES IDX 49 55 63 57 84 58 51 59 35 60 36 61 44 62 37 63 39 64 45 65
REMARK SMILES IDX 38 66 40 67 41 68 42 69 43 70 67 71 68 72 76 73 69 74 71 75
REMARK SMILES IDX 77 76 70 77 72 78 73 79 74 80 75 81 52 82 53 83 61 84 54 85
REMARK SMILES IDX 56 86 62 87 55 88 57 89 58 90 59 91 60 92
REMARK H PARENT 13 13 82 45 50 56
REMARK Flexibility Score: inf
ROOT
ATOM      1  C   UNL A   1      31.577  28.430  26.437  1.00  0.00     0.274 C 
ENDROOT
BRANCH   1   2
ATOM      2  O   UNL A   1      31.400  27.700  25.207  1.00  0.00    -0.462 OA
BRANCH   2   3
ATOM      3  C   UNL A   1      32.540  27.182  24.670  1.00  0.00     0.312 C 
ATOM      4  O   UNL A   1      33.561  26.953  25.306  1.00  0.00    -0.252 OA
BRANCH   3   5
ATOM      5  C   UNL A   1      32.375  26.840  23.186  1.00  0.00     0.124 C 
ATOM      6  C   UNL A   1      32.513  24.442  23.177  1.00  0.00     0.107 C 
ATOM      7  C   UNL A   1      33.695  25.042  22.482  1.00  0.00    -0.006 C 
ATOM      8  C   UNL A   1      31.502  25.575  23.016  1.00  0.00     0.048 C 
ATOM      9  C   UNL A   1      33.646  26.380  22.536  1.00  0.00    -0.014 C 
BRANCH   6  10
ATOM     10  N   UNL A   1      32.134  23.201  22.569  1.00  0.00    -0.332 N 
ATOM     11  C   UNL A   1      32.108  21.913  22.960  1.00  0.00     0.317 C 
ATOM     12  O   UNL A   1      31.829  21.108  22.062  1.00  0.00    -0.249 OA
ATOM     13  H   UNL A   1      31.815  23.318  21.644  1.00  0.00     0.165 HD
BRANCH  11  14
ATOM     14  N   UNL A   1      32.383  21.480  24.232  1.00  0.00    -0.324 N 
ATOM     15  C   UNL A   1      31.372  21.815  25.227  1.00  0.00     0.149 C 
BRANCH  14  16
ATOM     16  C   UNL A   1      33.613  20.877  24.767  1.00  0.00     0.157 C 
BRANCH  16  17
ATOM     17  C   UNL A   1      34.781  21.839  24.925  1.00  0.00    -0.014 A 
ATOM     18  C   UNL A   1      35.665  22.083  23.858  1.00  0.00     0.007 A 
ATOM     19  C   UNL A   1      34.972  22.568  26.114  1.00  0.00     0.022 A 
ATOM     20  C   UNL A   1      36.618  23.105  23.930  1.00  0.00     0.000 A 
ATOM     21  C   UNL A   1      35.911  23.605  26.176  1.00  0.00     0.016 A 
ATOM     22  Br  UNL A   1      33.976  22.215  27.694  1.00  0.00    -0.050 Br
ATOM     23  C   UNL A   1      36.717  23.887  25.075  1.00  0.00     0.001 A 
ENDBRANCH  16  17
ENDBRANCH  14  16
ENDBRANCH  11  14
ENDBRANCH   6  10
ENDBRANCH   3   5
ENDBRANCH   2   3
ENDBRANCH   1   2
BRANCH   1  24
ATOM     24  C   UNL A   1      31.848  29.917  26.177  1.00  0.00     0.275 C 
BRANCH  24  25
ATOM     25  O   UNL A   1      33.247  30.240  26.280  1.00  0.00    -0.458 OA
BRANCH  25  26
ATOM     26  C   UNL A   1      33.543  31.293  27.080  1.00  0.00     0.338 C 
ATOM     27  O   UNL A   1      32.817  32.231  27.361  1.00  0.00    -0.246 OA
BRANCH  26  28
ATOM     28  C   UNL A   1      34.830  31.045  27.750  1.00  0.00     0.060 A 
ATOM     29  C   UNL A   1      35.047  29.764  28.262  1.00  0.00     0.016 A 
ATOM     30  C   UNL A   1      35.794  32.039  27.907  1.00  0.00     0.016 A 
ATOM     31  C   UNL A   1      36.241  29.442  28.889  1.00  0.00     0.010 A 
ATOM     32  C   UNL A   1      36.989  31.726  28.565  1.00  0.00     0.010 A 
ATOM     33  C   UNL A   1      37.219  30.424  29.049  1.00  0.00    -0.014 A 
BRANCH  33  34
ATOM     34  C   UNL A   1      38.473  30.082  29.750  1.00  0.00     0.031 A 
ATOM     35  C   UNL A   1      39.416  29.095  29.139  1.00  0.00     0.074 A 
ATOM     36  C   UNL A   1      38.757  30.675  30.924  1.00  0.00     0.049 A 
ATOM     37  N   UNL A   1      40.512  28.588  29.636  1.00  0.00    -0.248 NA
ATOM     38  C   UNL A   1      39.089  28.621  27.784  1.00  0.00     0.031 C 
ATOM     39  C   UNL A   1      37.934  31.693  31.574  1.00  0.00     0.029 A 
ATOM     40  N   UNL A   1      39.805  30.485  31.788  1.00  0.00    -0.354 N 
ATOM     41  C   UNL A   1      40.988  27.707  28.675  1.00  0.00     0.074 A 
ATOM     42  C   UNL A   1      40.068  27.756  27.558  1.00  0.00     0.031 C 
ATOM     43  C   UNL A   1      38.487  32.013  32.754  1.00  0.00     0.029 A 
ATOM     44  C   UNL A   1      39.675  31.189  32.961  1.00  0.00     0.049 A 
ATOM     45  H   UNL A   1      40.572  29.901  31.588  1.00  0.00     0.167 HD
ATOM     46  C   UNL A   1      42.095  26.930  28.724  1.00  0.00     0.034 A 
ATOM     47  C   UNL A   1      40.409  31.140  34.090  1.00  0.00     0.034 A 
ATOM     48  C   UNL A   1      43.011  26.905  29.832  1.00  0.00     0.049 A 
ATOM     49  C   UNL A   1      41.592  30.212  34.145  1.00  0.00     0.074 A 
ATOM     50  C   UNL A   1      44.179  26.178  29.966  1.00  0.00     0.029 A 
ATOM     51  N   UNL A   1      42.852  27.630  31.003  1.00  0.00    -0.354 N 
ATOM     52  N   UNL A   1      42.082  29.441  33.202  1.00  0.00    -0.248 NA
ATOM     53  C   UNL A   1      42.330  30.149  35.415  1.00  0.00     0.031 C 
ATOM     54  C   UNL A   1      44.716  26.447  31.231  1.00  0.00     0.029 A 
ATOM     55  C   UNL A   1      43.888  27.350  31.877  1.00  0.00     0.049 A 
ATOM     56  H   UNL A   1      42.112  28.252  31.187  1.00  0.00     0.167 HD
ATOM     57  C   UNL A   1      43.192  28.816  33.757  1.00  0.00     0.074 A 
ATOM     58  C   UNL A   1      43.319  29.319  35.111  1.00  0.00     0.031 C 
ATOM     59  C   UNL A   1      44.018  27.892  33.207  1.00  0.00     0.034 A 
BRANCH  46  60
ATOM     60  C   UNL A   1      42.379  26.049  27.540  1.00  0.00     0.023 A 
ATOM     61  C   UNL A   1      43.086  26.570  26.438  1.00  0.00     0.012 A 
ATOM     62  C   UNL A   1      41.984  24.698  27.536  1.00  0.00     0.148 A 
ATOM     63  C   UNL A   1      43.377  25.763  25.339  1.00  0.00     0.002 A 
ATOM     64  C   UNL A   1      42.307  23.891  26.451  1.00  0.00     0.091 A 
ATOM     65  F   UNL A   1      41.286  24.233  28.581  1.00  0.00    -0.205 F 
ATOM     66  C   UNL A   1      42.997  24.424  25.349  1.00  0.00     0.022 A 
BRANCH  64  67
ATOM     67  S   UNL A   1      41.910  22.140  26.400  1.00  0.00     0.127 S 
ATOM     68  O   UNL A   1      40.461  22.173  26.204  1.00  0.00    -0.237 OA
ATOM     69  O   UNL A   1      42.672  21.683  25.236  1.00  0.00    -0.237 OA
ATOM     70  O   UNL A   1      42.359  21.591  27.671  1.00  0.00    -0.744 OA
ENDBRANCH  64  67
ENDBRANCH  46  60
BRANCH  47  71
ATOM     71  C   UNL A   1      40.037  31.988  35.257  1.00  0.00     0.023 A 
ATOM     72  C   UNL A   1      40.584  33.279  35.378  1.00  0.00     0.012 A 
ATOM     73  C   UNL A   1      39.122  31.535  36.229  1.00  0.00     0.148 A 
ATOM     74  C   UNL A   1      40.240  34.097  36.456  1.00  0.00     0.002 A 
ATOM     75  C   UNL A   1      38.743  32.375  37.269  1.00  0.00     0.091 A 
ATOM     76  F   UNL A   1      38.633  30.292  36.112  1.00  0.00    -0.205 F 
ATOM     77  C   UNL A   1      39.312  33.651  37.394  1.00  0.00     0.022 A 
BRANCH  75  78
ATOM     78  S   UNL A   1      37.459  31.925  38.443  1.00  0.00     0.127 S 
ATOM     79  O   UNL A   1      36.396  32.866  38.101  1.00  0.00    -0.237 OA
ATOM     80  O   UNL A   1      37.188  30.533  38.082  1.00  0.00    -0.237 OA
ATOM     81  O   UNL A   1      38.059  32.093  39.760  1.00  0.00    -0.744 OA
ENDBRANCH  75  78
ENDBRANCH  47  71
BRANCH  59  82
ATOM     82  C   UNL A   1      45.134  27.359  34.064  1.00  0.00     0.023 A 
ATOM     83  C   UNL A   1      46.370  28.036  34.084  1.00  0.00     0.012 A 
ATOM     84  C   UNL A   1      44.935  26.251  34.910  1.00  0.00     0.148 A 
ATOM     85  C   UNL A   1      47.399  27.605  34.920  1.00  0.00     0.002 A 
ATOM     86  C   UNL A   1      45.951  25.855  35.772  1.00  0.00     0.091 A 
ATOM     87  F   UNL A   1      43.758  25.613  34.861  1.00  0.00    -0.205 F 
ATOM     88  C   UNL A   1      47.185  26.524  35.772  1.00  0.00     0.022 A 
BRANCH  86  89
ATOM     89  S   UNL A   1      45.739  24.531  36.968  1.00  0.00     0.127 S 
ATOM     90  O   UNL A   1      44.787  25.126  37.906  1.00  0.00    -0.237 OA
ATOM     91  O   UNL A   1      45.190  23.453  36.144  1.00  0.00    -0.237 OA
ATOM     92  O   UNL A   1      47.064  24.263  37.510  1.00  0.00    -0.744 OA
ENDBRANCH  86  89
ENDBRANCH  59  82
ENDBRANCH  33  34
ENDBRANCH  26  28
ENDBRANCH  25  26
ENDBRANCH  24  25
ENDBRANCH   1  24
TORSDOF 18
ENDMDL
MODEL 2
REMARK VINA RESULT:     -11.5      1.574      1.954
REMARK SMILES CN(Cc1ccccc1Br)C(=O)N[C@H]1C=C[C@H](C(=O)OCCOC(=O)c2ccc(-c3c4nc(c(-c5cccc(S(=O)(=O)[O-])c5F)c5ccc([nH]5)c(-c5cccc(S(=O)(=O)[O-])c5F)c5nc(c(-c6cccc(S(=O)(=O)[O-])c6F)c6ccc3[nH]6)C=C5)C=C4)cc2)C1
REMARK SMILES IDX 21 1 20 2 18 3 19 4 17 5 14 6 15 7 89 8 16 9 13 10 11 11
REMARK SMILES IDX 12 12 2 14 1 15 3 16 4 17 5 18 9 19 6 20 8 21 10 22 7 23
REMARK SMILES IDX 22 24 23 25 24 26 25 27 26 28 27 29 88 30 28 31 87 32 29 33
REMARK SMILES IDX 30 34 31 35 81 36 32 37 86 38 80 39 82 40 33 41 85 42 79 43
REMARK SMILES IDX 78 44 34 46 66 47 46 48 65 49 47 50 50 51 64 52 83 53 48 54
REMARK SMILES IDX 49 55 63 57 84 58 51 59 35 60 36 61 44 62 37 63 39 64 45 65
REMARK SMILES IDX 38 66 40 67 41 68 42 69 43 70 67 71 68 72 76 73 69 74 71 75
REMARK SMILES IDX 77 76 70 77 72 78 73 79 74 80 75 81 52 82 53 83 61 84 54 85
REMARK SMILES IDX 56 86 62 87 55 88 57 89 58 90 59 91 60 92
REMARK H PARENT 13 13 82 45 50 56
REMARK Flexibility Score: inf
ROOT
ATOM      1  C   UNL A   1      31.258  29.700  24.276  1.00  0.00     0.274 C 
ENDROOT
BRANCH   1   2
ATOM      2  O   UNL A   1      31.446  28.408  23.664  1.00  0.00    -0.462 OA
BRANCH   2   3
ATOM      3  C   UNL A   1      32.720  28.133  23.267  1.00  0.00     0.312 C 
ATOM      4  O   UNL A   1      33.502  28.969  22.830  1.00  0.00    -0.252 OA
BRANCH   3   5
ATOM      5  C   UNL A   1      33.095  26.668  23.505  1.00  0.00     0.124 C 
ATOM      6  C   UNL A   1      31.963  26.159  25.561  1.00  0.00     0.107 C 
ATOM      7  C   UNL A   1      33.447  26.140  25.757  1.00  0.00    -0.006 C 
ATOM      8  C   UNL A   1      31.885  25.882  24.061  1.00  0.00     0.048 C 
ATOM      9  C   UNL A   1      34.077  26.479  24.624  1.00  0.00    -0.014 C 
BRANCH   6  10
ATOM     10  N   UNL A   1      31.322  25.181  26.391  1.00  0.00    -0.332 N 
ATOM     11  C   UNL A   1      31.030  23.873  26.276  1.00  0.00     0.317 C 
ATOM     12  O   UNL A   1      30.331  23.418  27.191  1.00  0.00    -0.249 OA
ATOM     13  H   UNL A   1      31.025  25.557  27.251  1.00  0.00     0.165 HD
BRANCH  11  14
ATOM     14  N   UNL A   1      31.433  23.073  25.236  1.00  0.00    -0.324 N 
ATOM     15  C   UNL A   1      30.661  23.225  24.009  1.00  0.00     0.149 C 
BRANCH  14  16
ATOM     16  C   UNL A   1      32.413  21.976  25.228  1.00  0.00     0.157 C 
BRANCH  16  17
ATOM     17  C   UNL A   1      33.864  22.416  25.105  1.00  0.00    -0.014 A 
ATOM     18  C   UNL A   1      34.453  22.617  23.843  1.00  0.00     0.007 A 
ATOM     19  C   UNL A   1      34.640  22.704  26.244  1.00  0.00     0.022 A 
ATOM     20  C   UNL A   1      35.716  23.205  23.722  1.00  0.00     0.000 A 
ATOM     21  C   UNL A   1      35.895  23.312  26.121  1.00  0.00     0.016 A 
ATOM     22  Br  UNL A   1      34.046  22.308  28.005  1.00  0.00    -0.050 Br
ATOM     23  C   UNL A   1      36.421  23.583  24.860  1.00  0.00     0.001 A 
ENDBRANCH  16  17
ENDBRANCH  14  16
ENDBRANCH  11  14
ENDBRANCH   6  10
ENDBRANCH   3   5
ENDBRANCH   2   3
ENDBRANCH   1   2
BRANCH   1  24
ATOM     24  C   UNL A   1      31.630  29.679  25.763  1.00  0.00     0.275 C 
BRANCH  24  25
ATOM     25  O   UNL A   1      33.009  30.029  25.983  1.00  0.00    -0.458 OA
BRANCH  25  26
ATOM     26  C   UNL A   1      33.217  31.081  26.812  1.00  0.00     0.338 C 
ATOM     27  O   UNL A   1      32.433  31.977  27.075  1.00  0.00    -0.246 OA
BRANCH  26  28
ATOM     28  C   UNL A   1      34.484  30.885  27.534  1.00  0.00     0.060 A 
ATOM     29  C   UNL A   1      34.747  29.605  28.027  1.00  0.00     0.016 A 
ATOM     30  C   UNL A   1      35.386  31.924  27.757  1.00  0.00     0.016 A 
ATOM     31  C   UNL A   1      35.927  29.331  28.701  1.00  0.00     0.010 A 
ATOM     32  C   UNL A   1      36.565  31.658  28.462  1.00  0.00     0.010 A 
ATOM     33  C   UNL A   1      36.843  30.359  28.926  1.00  0.00    -0.014 A 
BRANCH  33  34
ATOM     34  C   UNL A   1      38.081  30.066  29.676  1.00  0.00     0.031 A 
ATOM     35  C   UNL A   1      39.103  29.145  29.087  1.00  0.00     0.074 A 
ATOM     36  C   UNL A   1      38.280  30.643  30.875  1.00  0.00     0.049 A 
ATOM     37  N   UNL A   1      40.201  28.685  29.622  1.00  0.00    -0.248 NA
ATOM     38  C   UNL A   1      38.862  28.688  27.708  1.00  0.00     0.031 C 
ATOM     39  C   UNL A   1      37.376  31.601  31.509  1.00  0.00     0.029 A 
ATOM     40  N   UNL A   1      39.298  30.488  31.782  1.00  0.00    -0.354 N 
ATOM     41  C   UNL A   1      40.765  27.854  28.665  1.00  0.00     0.074 A 
ATOM     42  C   UNL A   1      39.895  27.883  27.508  1.00  0.00     0.031 C 
ATOM     43  C   UNL A   1      37.858  31.920  32.721  1.00  0.00     0.029 A 
ATOM     44  C   UNL A   1      39.079  31.155  32.963  1.00  0.00     0.049 A 
ATOM     45  H   UNL A   1      40.104  29.950  31.604  1.00  0.00     0.167 HD
ATOM     46  C   UNL A   1      41.909  27.135  28.746  1.00  0.00     0.034 A 
ATOM     47  C   UNL A   1      39.763  31.117  34.122  1.00  0.00     0.034 A 
ATOM     48  C   UNL A   1      42.776  27.132  29.894  1.00  0.00     0.049 A 
ATOM     49  C   UNL A   1      40.991  30.251  34.211  1.00  0.00     0.074 A 
ATOM     50  C   UNL A   1      43.974  26.465  30.065  1.00  0.00     0.029 A 
ATOM     51  N   UNL A   1      42.526  27.818  31.073  1.00  0.00    -0.354 N 
ATOM     52  N   UNL A   1      41.563  29.531  33.274  1.00  0.00    -0.248 NA
ATOM     53  C   UNL A   1      41.674  30.196  35.511  1.00  0.00     0.031 C 
ATOM     54  C   UNL A   1      44.439  26.729  31.359  1.00  0.00     0.029 A 
ATOM     55  C   UNL A   1      43.536  27.572  31.987  1.00  0.00     0.049 A 
ATOM     56  H   UNL A   1      41.746  28.396  31.237  1.00  0.00     0.167 HD
ATOM     57  C   UNL A   1      42.679  28.952  33.865  1.00  0.00     0.074 A 
ATOM     58  C   UNL A   1      42.719  29.427  35.234  1.00  0.00     0.031 C 
ATOM     59  C   UNL A   1      43.578  28.086  33.333  1.00  0.00     0.034 A 
BRANCH  46  60
ATOM     60  C   UNL A   1      42.293  26.301  27.557  1.00  0.00     0.023 A 
ATOM     61  C   UNL A   1      43.063  26.872  26.525  1.00  0.00     0.012 A 
ATOM     62  C   UNL A   1      41.928  24.944  27.482  1.00  0.00     0.148 A 
ATOM     63  C   UNL A   1      43.446  26.108  25.423  1.00  0.00     0.002 A 
ATOM     64  C   UNL A   1      42.341  24.180  26.397  1.00  0.00     0.091 A 
ATOM     65  F   UNL A   1      41.169  24.430  28.461  1.00  0.00    -0.205 F 
ATOM     66  C   UNL A   1      43.094  24.762  25.363  1.00  0.00     0.022 A 
BRANCH  64  67
ATOM     67  S   UNL A   1      41.986  22.424  26.262  1.00  0.00     0.127 S 
ATOM     68  O   UNL A   1      42.649  22.086  25.002  1.00  0.00    -0.237 OA
ATOM     69  O   UNL A   1      42.636  21.883  27.456  1.00  0.00    -0.237 OA
ATOM     70  O   UNL A   1      40.535  22.309  26.257  1.00  0.00    -0.744 OA
ENDBRANCH  64  67
ENDBRANCH  46  60
BRANCH  47  71
ATOM     71  C   UNL A   1      39.295  31.915  35.290  1.00  0.00     0.023 A 
ATOM     72  C   UNL A   1      38.406  31.336  36.214  1.00  0.00     0.012 A 
ATOM     73  C   UNL A   1      39.750  33.232  35.506  1.00  0.00     0.148 A 
ATOM     74  C   UNL A   1      37.964  32.060  37.323  1.00  0.00     0.002 A 
ATOM     75  C   UNL A   1      39.349  33.927  36.640  1.00  0.00     0.091 A 
ATOM     76  F   UNL A   1      40.574  33.777  34.600  1.00  0.00    -0.205 F 
ATOM     77  C   UNL A   1      38.443  33.349  37.543  1.00  0.00     0.022 A 
BRANCH  75  78
ATOM     78  S   UNL A   1      40.020  35.540  37.063  1.00  0.00     0.127 S 
ATOM     79  O   UNL A   1      39.366  35.812  38.339  1.00  0.00    -0.237 OA
ATOM     80  O   UNL A   1      41.454  35.259  37.153  1.00  0.00    -0.237 OA
ATOM     81  O   UNL A   1      39.653  36.416  35.959  1.00  0.00    -0.744 OA
ENDBRANCH  75  78
ENDBRANCH  47  71
BRANCH  59  82
ATOM     82  C   UNL A   1      44.681  27.592  34.228  1.00  0.00     0.023 A 
ATOM     83  C   UNL A   1      45.854  28.361  34.363  1.00  0.00     0.012 A 
ATOM     84  C   UNL A   1      44.525  26.424  34.997  1.00  0.00     0.148 A 
ATOM     85  C   UNL A   1      46.865  27.963  35.237  1.00  0.00     0.002 A 
ATOM     86  C   UNL A   1      45.517  26.057  35.898  1.00  0.00     0.091 A 
ATOM     87  F   UNL A   1      43.409  25.699  34.839  1.00  0.00    -0.205 F 
ATOM     88  C   UNL A   1      46.691  26.819  36.013  1.00  0.00     0.022 A 
BRANCH  86  89
ATOM     89  S   UNL A   1      45.345  24.651  37.004  1.00  0.00     0.127 S 
ATOM     90  O   UNL A   1      46.590  24.717  37.768  1.00  0.00    -0.237 OA
ATOM     91  O   UNL A   1      44.143  24.999  37.764  1.00  0.00    -0.237 OA
ATOM     92  O   UNL A   1      45.199  23.482  36.147  1.00  0.00    -0.744 OA
ENDBRANCH  86  89
ENDBRANCH  59  82
ENDBRANCH  33  34
ENDBRANCH  26  28
ENDBRANCH  25  26
ENDBRANCH  24  25
ENDBRANCH   1  24
TORSDOF 18
ENDMDL
MODEL 3
REMARK VINA RESULT:     -11.3      1.170      1.829
REMARK SMILES CN(Cc1ccccc1Br)C(=O)N[C@H]1C=C[C@H](C(=O)OCCOC(=O)c2ccc(-c3c4nc(c(-c5cccc(S(=O)(=O)[O-])c5F)c5ccc([nH]5)c(-c5cccc(S(=O)(=O)[O-])c5F)c5nc(c(-c6cccc(S(=O)(=O)[O-])c6F)c6ccc3[nH]6)C=C5)C=C4)cc2)C1
REMARK SMILES IDX 21 1 20 2 18 3 19 4 17 5 14 6 15 7 89 8 16 9 13 10 11 11
REMARK SMILES IDX 12 12 2 14 1 15 3 16 4 17 5 18 9 19 6 20 8 21 10 22 7 23
REMARK SMILES IDX 22 24 23 25 24 26 25 27 26 28 27 29 88 30 28 31 87 32 29 33
REMARK SMILES IDX 30 34 31 35 81 36 32 37 86 38 80 39 82 40 33 41 85 42 79 43
REMARK SMILES IDX 78 44 34 46 66 47 46 48 65 49 47 50 50 51 64 52 83 53 48 54
REMARK SMILES IDX 49 55 63 57 84 58 51 59 35 60 36 61 44 62 37 63 39 64 45 65
REMARK SMILES IDX 38 66 40 67 41 68 42 69 43 70 67 71 68 72 76 73 69 74 71 75
REMARK SMILES IDX 77 76 70 77 72 78 73 79 74 80 75 81 52 82 53 83 61 84 54 85
REMARK SMILES IDX 56 86 62 87 55 88 57 89 58 90 59 91 60 92
REMARK H PARENT 13 13 82 45 50 56
REMARK Flexibility Score: inf
ROOT
ATOM      1  C   UNL A   1      31.410  29.828  25.000  1.00  0.00     0.274 C 
ENDROOT
BRANCH   1   2
ATOM      2  O   UNL A   1      31.487  28.390  24.934  1.00  0.00    -0.462 OA
BRANCH   2   3
ATOM      3  C   UNL A   1      32.492  27.897  24.157  1.00  0.00     0.312 C 
ATOM      4  O   UNL A   1      33.466  28.546  23.796  1.00  0.00    -0.252 OA
BRANCH   3   5
ATOM      5  C   UNL A   1      32.308  26.408  23.851  1.00  0.00     0.124 C 
ATOM      6  C   UNL A   1      33.507  25.347  25.641  1.00  0.00     0.107 C 
ATOM      7  C   UNL A   1      34.192  25.108  24.332  1.00  0.00    -0.006 C 
ATOM      8  C   UNL A   1      32.084  25.610  25.157  1.00  0.00     0.048 C 
ATOM      9  C   UNL A   1      33.554  25.746  23.341  1.00  0.00    -0.014 C 
BRANCH   6  10
ATOM     10  N   UNL A   1      33.652  24.218  26.511  1.00  0.00    -0.332 N 
ATOM     11  C   UNL A   1      33.211  22.946  26.509  1.00  0.00     0.317 C 
ATOM     12  O   UNL A   1      33.459  22.312  27.543  1.00  0.00    -0.249 OA
ATOM     13  H   UNL A   1      34.207  24.420  27.299  1.00  0.00     0.165 HD
BRANCH  11  14
ATOM     14  N   UNL A   1      32.521  22.363  25.476  1.00  0.00    -0.324 N 
ATOM     15  C   UNL A   1      31.091  22.202  25.707  1.00  0.00     0.149 C 
BRANCH  14  16
ATOM     16  C   UNL A   1      33.033  21.731  24.251  1.00  0.00     0.157 C 
BRANCH  16  17
ATOM     17  C   UNL A   1      33.449  20.276  24.407  1.00  0.00    -0.014 A 
ATOM     18  C   UNL A   1      32.528  19.234  24.193  1.00  0.00     0.007 A 
ATOM     19  C   UNL A   1      34.780  19.924  24.699  1.00  0.00     0.022 A 
ATOM     20  C   UNL A   1      32.946  17.900  24.143  1.00  0.00     0.000 A 
ATOM     21  C   UNL A   1      35.201  18.590  24.627  1.00  0.00     0.016 A 
ATOM     22  Br  UNL A   1      36.088  21.211  25.191  1.00  0.00    -0.050 Br
ATOM     23  C   UNL A   1      34.287  17.583  24.326  1.00  0.00     0.001 A 
ENDBRANCH  16  17
ENDBRANCH  14  16
ENDBRANCH  11  14
ENDBRANCH   6  10
ENDBRANCH   3   5
ENDBRANCH   2   3
ENDBRANCH   1   2
BRANCH   1  24
ATOM     24  C   UNL A   1      31.778  30.348  26.395  1.00  0.00     0.275 C 
BRANCH  24  25
ATOM     25  O   UNL A   1      33.202  30.468  26.572  1.00  0.00    -0.458 OA
BRANCH  25  26
ATOM     26  C   UNL A   1      33.613  31.567  27.250  1.00  0.00     0.338 C 
ATOM     27  O   UNL A   1      32.980  32.590  27.447  1.00  0.00    -0.246 OA
BRANCH  26  28
ATOM     28  C   UNL A   1      34.895  31.275  27.913  1.00  0.00     0.060 A 
ATOM     29  C   UNL A   1      35.044  30.011  28.486  1.00  0.00     0.016 A 
ATOM     30  C   UNL A   1      35.920  32.215  28.004  1.00  0.00     0.016 A 
ATOM     31  C   UNL A   1      36.227  29.648  29.111  1.00  0.00     0.010 A 
ATOM     32  C   UNL A   1      37.105  31.863  28.660  1.00  0.00     0.010 A 
ATOM     33  C   UNL A   1      37.265  30.575  29.205  1.00  0.00    -0.014 A 
BRANCH  33  34
ATOM     34  C   UNL A   1      38.508  30.193  29.904  1.00  0.00     0.031 A 
ATOM     35  C   UNL A   1      39.439  29.207  29.272  1.00  0.00     0.074 A 
ATOM     36  C   UNL A   1      38.795  30.749  31.096  1.00  0.00     0.049 A 
ATOM     37  N   UNL A   1      40.522  28.668  29.762  1.00  0.00    -0.248 NA
ATOM     38  C   UNL A   1      39.112  28.775  27.903  1.00  0.00     0.031 C 
ATOM     39  C   UNL A   1      37.985  31.763  31.768  1.00  0.00     0.029 A 
ATOM     40  N   UNL A   1      39.834  30.517  31.961  1.00  0.00    -0.354 N 
ATOM     41  C   UNL A   1      40.989  27.805  28.780  1.00  0.00     0.074 A 
ATOM     42  C   UNL A   1      40.079  27.901  27.660  1.00  0.00     0.031 C 
ATOM     43  C   UNL A   1      38.536  32.041  32.961  1.00  0.00     0.029 A 
ATOM     44  C   UNL A   1      39.709  31.192  33.152  1.00  0.00     0.049 A 
ATOM     45  H   UNL A   1      40.593  29.926  31.750  1.00  0.00     0.167 HD
ATOM     46  C   UNL A   1      42.083  27.009  28.814  1.00  0.00     0.034 A 
ATOM     47  C   UNL A   1      40.435  31.099  34.283  1.00  0.00     0.034 A 
ATOM     48  C   UNL A   1      42.992  26.938  29.926  1.00  0.00     0.049 A 
ATOM     49  C   UNL A   1      41.601  30.150  34.320  1.00  0.00     0.074 A 
ATOM     50  C   UNL A   1      44.147  26.189  30.047  1.00  0.00     0.029 A 
ATOM     51  N   UNL A   1      42.838  27.634  31.116  1.00  0.00    -0.354 N 
ATOM     52  N   UNL A   1      42.084  29.398  33.359  1.00  0.00    -0.248 NA
ATOM     53  C   UNL A   1      42.330  30.040  35.591  1.00  0.00     0.031 C 
ATOM     54  C   UNL A   1      44.680  26.413  31.322  1.00  0.00     0.029 A 
ATOM     55  C   UNL A   1      43.863  27.313  31.988  1.00  0.00     0.049 A 
ATOM     56  H   UNL A   1      42.107  28.263  31.312  1.00  0.00     0.167 HD
ATOM     57  C   UNL A   1      43.180  28.739  33.903  1.00  0.00     0.074 A 
ATOM     58  C   UNL A   1      43.307  29.202  35.271  1.00  0.00     0.031 C 
ATOM     59  C   UNL A   1      43.994  27.816  33.333  1.00  0.00     0.034 A 
BRANCH  46  60
ATOM     60  C   UNL A   1      42.360  26.156  27.608  1.00  0.00     0.023 A 
ATOM     61  C   UNL A   1      43.059  26.704  26.514  1.00  0.00     0.012 A 
ATOM     62  C   UNL A   1      41.967  24.805  27.576  1.00  0.00     0.148 A 
ATOM     63  C   UNL A   1      43.343  25.922  25.394  1.00  0.00     0.002 A 
ATOM     64  C   UNL A   1      42.283  24.024  26.470  1.00  0.00     0.091 A 
ATOM     65  F   UNL A   1      41.277  24.315  28.615  1.00  0.00    -0.205 F 
ATOM     66  C   UNL A   1      42.965  24.582  25.376  1.00  0.00     0.022 A 
BRANCH  64  67
ATOM     67  S   UNL A   1      41.888  22.274  26.382  1.00  0.00     0.127 S 
ATOM     68  O   UNL A   1      42.583  21.877  25.157  1.00  0.00    -0.237 OA
ATOM     69  O   UNL A   1      42.486  21.758  27.614  1.00  0.00    -0.237 OA
ATOM     70  O   UNL A   1      40.436  22.193  26.334  1.00  0.00    -0.744 OA
ENDBRANCH  64  67
ENDBRANCH  46  60
BRANCH  47  71
ATOM     71  C   UNL A   1      40.070  31.922  35.470  1.00  0.00     0.023 A 
ATOM     72  C   UNL A   1      40.716  33.153  35.685  1.00  0.00     0.012 A 
ATOM     73  C   UNL A   1      39.066  31.505  36.369  1.00  0.00     0.148 A 
ATOM     74  C   UNL A   1      40.381  33.947  36.784  1.00  0.00     0.002 A 
ATOM     75  C   UNL A   1      38.700  32.326  37.429  1.00  0.00     0.091 A 
ATOM     76  F   UNL A   1      38.482  30.316  36.163  1.00  0.00    -0.205 F 
ATOM     77  C   UNL A   1      39.367  33.541  37.648  1.00  0.00     0.022 A 
BRANCH  75  78
ATOM     78  S   UNL A   1      37.318  31.936  38.509  1.00  0.00     0.127 S 
ATOM     79  O   UNL A   1      37.034  30.551  38.146  1.00  0.00    -0.237 OA
ATOM     80  O   UNL A   1      37.908  32.115  39.837  1.00  0.00    -0.237 OA
ATOM     81  O   UNL A   1      36.282  32.906  38.182  1.00  0.00    -0.744 OA
ENDBRANCH  75  78
ENDBRANCH  47  71
BRANCH  59  82
ATOM     82  C   UNL A   1      45.095  27.241  34.182  1.00  0.00     0.023 A 
ATOM     83  C   UNL A   1      46.326  27.923  34.266  1.00  0.00     0.012 A 
ATOM     84  C   UNL A   1      44.887  26.086  34.959  1.00  0.00     0.148 A 
ATOM     85  C   UNL A   1      47.340  27.450  35.098  1.00  0.00     0.002 A 
ATOM     86  C   UNL A   1      45.887  25.646  35.818  1.00  0.00     0.091 A 
ATOM     87  F   UNL A   1      43.715  25.445  34.848  1.00  0.00    -0.205 F 
ATOM     88  C   UNL A   1      47.116  26.321  35.882  1.00  0.00     0.022 A 
BRANCH  86  89
ATOM     89  S   UNL A   1      45.658  24.255  36.931  1.00  0.00     0.127 S 
ATOM     90  O   UNL A   1      44.438  24.637  37.641  1.00  0.00    -0.237 OA
ATOM     91  O   UNL A   1      45.499  23.136  36.002  1.00  0.00    -0.237 OA
ATOM     92  O   UNL A   1      46.862  24.193  37.749  1.00  0.00    -0.744 OA
ENDBRANCH  86  89
ENDBRANCH  59  82
ENDBRANCH  33  34
ENDBRANCH  26  28
ENDBRANCH  25  26
ENDBRANCH  24  25
ENDBRANCH   1  24
TORSDOF 18
ENDMDL
