MODEL 1
REMARK VINA RESULT:      -9.9      0.000      0.000
REMARK SMILES COCCNS(=O)(=O)c1c[nH]c(C(=O)OCCOC(=O)c2ccc(-c3c4nc(c(-c5cccc(S(=O)(=O)[O-])c5F)c5ccc([nH]5)c(-c5cccc(S(=O)(=O)[O-])c5F)c5nc(c(-c6cccc(S(=O)(=O)[O-])c6F)c6ccc3[nH]6)C=C5)C=C4)cc2)c1
REMARK SMILES IDX 16 1 15 2 13 3 14 4 12 5 9 6 10 7 84 8 11 9 6 11 7 12 8 13
REMARK SMILES IDX 5 14 4 16 3 17 2 18 1 19 17 20 18 21 19 22 20 23 21 24 22 25
REMARK SMILES IDX 83 26 23 27 82 28 24 29 25 30 26 31 76 32 27 33 81 34 75 35
REMARK SMILES IDX 77 36 28 37 80 38 74 39 73 40 29 42 61 43 41 44 60 45 42 46
REMARK SMILES IDX 45 47 59 48 78 49 43 50 44 51 58 53 79 54 46 55 30 56 31 57
REMARK SMILES IDX 39 58 32 59 34 60 40 61 33 62 35 63 36 64 37 65 38 66 62 67
REMARK SMILES IDX 63 68 71 69 64 70 66 71 72 72 65 73 67 74 68 75 69 76 70 77
REMARK SMILES IDX 47 78 48 79 56 80 49 81 51 82 57 83 50 84 52 85 53 86 54 87
REMARK SMILES IDX 55 88
REMARK H PARENT 11 10 5 15 77 41 45 52
REMARK Flexibility Score: inf
ROOT
ATOM      1  C   UNL A   1      32.025  28.202  24.332  1.00  0.00     0.275 C 
ENDROOT
BRANCH   1   2
ATOM      2  O   UNL A   1      32.475  27.954  22.990  1.00  0.00    -0.457 OA
BRANCH   2   3
ATOM      3  C   UNL A   1      31.884  26.886  22.380  1.00  0.00     0.354 C 
ATOM      4  O   UNL A   1      30.876  26.928  21.702  1.00  0.00    -0.244 OA
BRANCH   3   5
ATOM      5  C   UNL A   1      32.677  25.690  22.565  1.00  0.00     0.126 A 
ATOM      6  C   UNL A   1      34.173  24.070  23.073  1.00  0.00     0.100 A 
ATOM      7  C   UNL A   1      33.273  23.553  22.165  1.00  0.00     0.104 A 
ATOM      8  C   UNL A   1      33.825  25.430  23.293  1.00  0.00     0.057 A 
ATOM      9  N   UNL A   1      32.357  24.529  21.889  1.00  0.00    -0.354 N 
ATOM     10  H   UNL A   1      31.581  24.421  21.294  1.00  0.00     0.166 HD
BRANCH   6  11
ATOM     11  S   UNL A   1      35.482  23.233  23.816  1.00  0.00     0.242 S 
ATOM     12  O   UNL A   1      35.820  24.025  24.979  1.00  0.00    -0.207 OA
ATOM     13  O   UNL A   1      36.431  22.979  22.759  1.00  0.00    -0.207 OA
BRANCH  11  14
ATOM     14  N   UNL A   1      34.943  21.724  24.363  1.00  0.00    -0.209 NA
ATOM     15  H   UNL A   1      34.271  21.369  23.683  1.00  0.00     0.141 HD
BRANCH  14  16
ATOM     16  C   UNL A   1      34.292  21.706  25.694  1.00  0.00     0.127 C 
BRANCH  16  17
ATOM     17  C   UNL A   1      32.781  21.937  25.564  1.00  0.00     0.176 C 
BRANCH  17  18
ATOM     18  O   UNL A   1      32.375  23.261  25.934  1.00  0.00    -0.383 OA
ATOM     19  C   UNL A   1      31.122  23.656  25.399  1.00  0.00     0.194 C 
ENDBRANCH  17  18
ENDBRANCH  16  17
ENDBRANCH  14  16
ENDBRANCH  11  14
ENDBRANCH   6  11
ENDBRANCH   3   5
ENDBRANCH   2   3
ENDBRANCH   1   2
BRANCH   1  20
ATOM     20  C   UNL A   1      32.509  29.548  24.875  1.00  0.00     0.275 C 
BRANCH  20  21
ATOM     21  O   UNL A   1      33.454  29.450  25.948  1.00  0.00    -0.458 OA
BRANCH  21  22
ATOM     22  C   UNL A   1      33.368  30.455  26.851  1.00  0.00     0.338 C 
ATOM     23  O   UNL A   1      32.466  31.272  26.951  1.00  0.00    -0.246 OA
BRANCH  22  24
ATOM     24  C   UNL A   1      34.584  30.556  27.660  1.00  0.00     0.060 A 
ATOM     25  C   UNL A   1      35.263  31.780  27.675  1.00  0.00     0.016 A 
ATOM     26  C   UNL A   1      35.152  29.398  28.202  1.00  0.00     0.016 A 
ATOM     27  C   UNL A   1      36.537  31.842  28.215  1.00  0.00     0.010 A 
ATOM     28  C   UNL A   1      36.442  29.453  28.705  1.00  0.00     0.010 A 
ATOM     29  C   UNL A   1      37.129  30.673  28.711  1.00  0.00    -0.014 A 
BRANCH  29  30
ATOM     30  C   UNL A   1      38.451  30.773  29.357  1.00  0.00     0.031 A 
ATOM     31  C   UNL A   1      38.446  31.798  30.518  1.00  0.00     0.074 A 
ATOM     32  C   UNL A   1      39.432  30.005  28.798  1.00  0.00     0.049 A 
ATOM     33  N   UNL A   1      39.384  32.579  30.985  1.00  0.00    -0.248 NA
ATOM     34  C   UNL A   1      37.138  32.090  31.169  1.00  0.00     0.031 C 
ATOM     35  C   UNL A   1      39.266  29.073  27.655  1.00  0.00     0.029 A 
ATOM     36  N   UNL A   1      40.770  29.859  29.062  1.00  0.00    -0.354 N 
ATOM     37  C   UNL A   1      38.825  33.275  32.089  1.00  0.00     0.074 A 
ATOM     38  C   UNL A   1      37.414  33.055  32.044  1.00  0.00     0.031 C 
ATOM     39  C   UNL A   1      40.456  28.554  27.277  1.00  0.00     0.029 A 
ATOM     40  C   UNL A   1      41.500  29.072  28.140  1.00  0.00     0.049 A 
ATOM     41  H   UNL A   1      41.197  30.275  29.845  1.00  0.00     0.167 HD
ATOM     42  C   UNL A   1      39.550  33.851  33.092  1.00  0.00     0.034 A 
ATOM     43  C   UNL A   1      42.859  28.926  28.046  1.00  0.00     0.034 A 
ATOM     44  C   UNL A   1      40.949  33.632  32.917  1.00  0.00     0.049 A 
ATOM     45  C   UNL A   1      43.387  29.736  29.152  1.00  0.00     0.074 A 
ATOM     46  C   UNL A   1      42.056  34.325  32.494  1.00  0.00     0.029 A 
ATOM     47  N   UNL A   1      41.347  32.373  33.280  1.00  0.00    -0.354 N 
ATOM     48  N   UNL A   1      43.347  29.402  30.404  1.00  0.00    -0.248 NA
ATOM     49  C   UNL A   1      43.708  31.129  28.847  1.00  0.00     0.031 C 
ATOM     50  C   UNL A   1      43.122  33.385  32.486  1.00  0.00     0.029 A 
ATOM     51  C   UNL A   1      42.550  32.133  32.686  1.00  0.00     0.049 A 
ATOM     52  H   UNL A   1      40.853  31.753  33.865  1.00  0.00     0.167 HD
ATOM     53  C   UNL A   1      43.369  30.609  31.061  1.00  0.00     0.074 A 
ATOM     54  C   UNL A   1      43.704  31.628  30.076  1.00  0.00     0.031 C 
ATOM     55  C   UNL A   1      42.799  30.786  32.277  1.00  0.00     0.034 A 
BRANCH  42  56
ATOM     56  C   UNL A   1      39.156  34.350  34.481  1.00  0.00     0.023 A 
ATOM     57  C   UNL A   1      39.760  35.577  34.876  1.00  0.00     0.012 A 
ATOM     58  C   UNL A   1      38.566  33.579  35.503  1.00  0.00     0.148 A 
ATOM     59  C   UNL A   1      39.908  35.953  36.211  1.00  0.00     0.002 A 
ATOM     60  C   UNL A   1      38.654  33.996  36.838  1.00  0.00     0.091 A 
ATOM     61  F   UNL A   1      38.002  32.403  35.206  1.00  0.00    -0.205 F 
ATOM     62  C   UNL A   1      39.365  35.151  37.196  1.00  0.00     0.022 A 
BRANCH  60  63
ATOM     63  S   UNL A   1      37.885  33.106  38.200  1.00  0.00     0.127 S 
ATOM     64  O   UNL A   1      38.676  31.880  38.253  1.00  0.00    -0.237 OA
ATOM     65  O   UNL A   1      38.111  34.020  39.324  1.00  0.00    -0.237 OA
ATOM     66  O   UNL A   1      36.483  32.963  37.831  1.00  0.00    -0.744 OA
ENDBRANCH  60  63
ENDBRANCH  42  56
BRANCH  43  67
ATOM     67  C   UNL A   1      43.833  28.386  27.029  1.00  0.00     0.023 A 
ATOM     68  C   UNL A   1      44.889  29.131  26.486  1.00  0.00     0.012 A 
ATOM     69  C   UNL A   1      43.754  27.018  26.620  1.00  0.00     0.148 A 
ATOM     70  C   UNL A   1      45.865  28.527  25.668  1.00  0.00     0.002 A 
ATOM     71  C   UNL A   1      44.767  26.401  25.894  1.00  0.00     0.091 A 
ATOM     72  F   UNL A   1      42.671  26.298  26.932  1.00  0.00    -0.205 F 
ATOM     73  C   UNL A   1      45.829  27.158  25.406  1.00  0.00     0.022 A 
BRANCH  71  74
ATOM     74  S   UNL A   1      44.835  24.611  25.673  1.00  0.00     0.127 S 
ATOM     75  O   UNL A   1      46.249  24.385  25.378  1.00  0.00    -0.237 OA
ATOM     76  O   UNL A   1      44.399  24.139  26.986  1.00  0.00    -0.237 OA
ATOM     77  O   UNL A   1      43.922  24.296  24.582  1.00  0.00    -0.744 OA
ENDBRANCH  71  74
ENDBRANCH  43  67
BRANCH  55  78
ATOM     78  C   UNL A   1      42.123  29.562  32.867  1.00  0.00     0.023 A 
ATOM     79  C   UNL A   1      40.873  29.174  32.371  1.00  0.00     0.012 A 
ATOM     80  C   UNL A   1      42.661  28.829  33.959  1.00  0.00     0.148 A 
ATOM     81  C   UNL A   1      40.190  28.087  32.925  1.00  0.00     0.002 A 
ATOM     82  C   UNL A   1      41.977  27.752  34.518  1.00  0.00     0.091 A 
ATOM     83  F   UNL A   1      43.859  29.181  34.426  1.00  0.00    -0.205 F 
ATOM     84  C   UNL A   1      40.738  27.376  33.993  1.00  0.00     0.022 A 
BRANCH  82  85
ATOM     85  S   UNL A   1      42.583  26.812  35.936  1.00  0.00     0.127 S 
ATOM     86  O   UNL A   1      42.663  27.836  36.980  1.00  0.00    -0.237 OA
ATOM     87  O   UNL A   1      41.517  25.835  36.135  1.00  0.00    -0.237 OA
ATOM     88  O   UNL A   1      43.873  26.257  35.545  1.00  0.00    -0.744 OA
ENDBRANCH  82  85
ENDBRANCH  55  78
ENDBRANCH  29  30
ENDBRANCH  22  24
ENDBRANCH  21  22
ENDBRANCH  20  21
ENDBRANCH   1  20
TORSDOF 19
ENDMDL
MODEL 2
REMARK VINA RESULT:      -9.8      3.855      9.196
REMARK SMILES COCCNS(=O)(=O)c1c[nH]c(C(=O)OCCOC(=O)c2ccc(-c3c4nc(c(-c5cccc(S(=O)(=O)[O-])c5F)c5ccc([nH]5)c(-c5cccc(S(=O)(=O)[O-])c5F)c5nc(c(-c6cccc(S(=O)(=O)[O-])c6F)c6ccc3[nH]6)C=C5)C=C4)cc2)c1
REMARK SMILES IDX 16 1 15 2 13 3 14 4 12 5 9 6 10 7 84 8 11 9 6 11 7 12 8 13
REMARK SMILES IDX 5 14 4 16 3 17 2 18 1 19 17 20 18 21 19 22 20 23 21 24 22 25
REMARK SMILES IDX 83 26 23 27 82 28 24 29 25 30 26 31 76 32 27 33 81 34 75 35
REMARK SMILES IDX 77 36 28 37 80 38 74 39 73 40 29 42 61 43 41 44 60 45 42 46
REMARK SMILES IDX 45 47 59 48 78 49 43 50 44 51 58 53 79 54 46 55 30 56 31 57
REMARK SMILES IDX 39 58 32 59 34 60 40 61 33 62 35 63 36 64 37 65 38 66 62 67
REMARK SMILES IDX 63 68 71 69 64 70 66 71 72 72 65 73 67 74 68 75 69 76 70 77
REMARK SMILES IDX 47 78 48 79 56 80 49 81 51 82 57 83 50 84 52 85 53 86 54 87
REMARK SMILES IDX 55 88
REMARK H PARENT 11 10 5 15 77 41 45 52
REMARK Flexibility Score: inf
ROOT
ATOM      1  C   UNL A   1      31.834  32.270  26.893  1.00  0.00     0.275 C 
ENDROOT
BRANCH   1   2
ATOM      2  O   UNL A   1      32.058  30.889  27.220  1.00  0.00    -0.457 OA
BRANCH   2   3
ATOM      3  C   UNL A   1      33.077  30.299  26.529  1.00  0.00     0.354 C 
ATOM      4  O   UNL A   1      34.230  30.216  26.905  1.00  0.00    -0.244 OA
BRANCH   3   5
ATOM      5  C   UNL A   1      32.584  29.688  25.315  1.00  0.00     0.126 A 
ATOM      6  C   UNL A   1      31.475  28.634  23.647  1.00  0.00     0.100 A 
ATOM      7  C   UNL A   1      32.752  28.909  23.206  1.00  0.00     0.104 A 
ATOM      8  C   UNL A   1      31.380  29.084  24.992  1.00  0.00     0.057 A 
ATOM      9  N   UNL A   1      33.402  29.572  24.209  1.00  0.00    -0.354 N 
ATOM     10  H   UNL A   1      34.322  29.917  24.153  1.00  0.00     0.166 HD
BRANCH   6  11
ATOM     11  S   UNL A   1      30.213  27.886  22.745  1.00  0.00     0.242 S 
ATOM     12  O   UNL A   1      29.314  27.343  23.740  1.00  0.00    -0.207 OA
ATOM     13  O   UNL A   1      30.874  27.052  21.771  1.00  0.00    -0.207 OA
BRANCH  11  14
ATOM     14  N   UNL A   1      29.365  29.070  21.881  1.00  0.00    -0.209 NA
ATOM     15  H   UNL A   1      29.757  29.108  20.940  1.00  0.00     0.141 HD
BRANCH  14  16
ATOM     16  C   UNL A   1      29.402  30.440  22.443  1.00  0.00     0.127 C 
BRANCH  16  17
ATOM     17  C   UNL A   1      28.037  30.823  23.033  1.00  0.00     0.176 C 
BRANCH  17  18
ATOM     18  O   UNL A   1      27.585  32.119  22.622  1.00  0.00    -0.383 OA
ATOM     19  C   UNL A   1      28.048  32.517  21.341  1.00  0.00     0.194 C 
ENDBRANCH  17  18
ENDBRANCH  16  17
ENDBRANCH  14  16
ENDBRANCH  11  14
ENDBRANCH   6  11
ENDBRANCH   3   5
ENDBRANCH   2   3
ENDBRANCH   1   2
BRANCH   1  20
ATOM     20  C   UNL A   1      32.813  33.209  27.602  1.00  0.00     0.275 C 
BRANCH  20  21
ATOM     21  O   UNL A   1      32.255  34.474  27.978  1.00  0.00    -0.458 OA
BRANCH  21  22
ATOM     22  C   UNL A   1      33.006  35.165  28.867  1.00  0.00     0.338 C 
ATOM     23  O   UNL A   1      32.854  36.329  29.203  1.00  0.00    -0.246 OA
BRANCH  22  24
ATOM     24  C   UNL A   1      34.160  34.383  29.317  1.00  0.00     0.060 A 
ATOM     25  C   UNL A   1      34.040  33.667  30.514  1.00  0.00     0.016 A 
ATOM     26  C   UNL A   1      35.395  34.546  28.682  1.00  0.00     0.016 A 
ATOM     27  C   UNL A   1      35.175  33.129  31.097  1.00  0.00     0.010 A 
ATOM     28  C   UNL A   1      36.535  34.041  29.288  1.00  0.00     0.010 A 
ATOM     29  C   UNL A   1      36.421  33.335  30.492  1.00  0.00    -0.014 A 
BRANCH  29  30
ATOM     30  C   UNL A   1      37.607  32.684  31.081  1.00  0.00     0.031 A 
ATOM     31  C   UNL A   1      37.953  31.358  30.359  1.00  0.00     0.074 A 
ATOM     32  C   UNL A   1      38.142  33.322  32.163  1.00  0.00     0.049 A 
ATOM     33  N   UNL A   1      38.496  30.253  30.795  1.00  0.00    -0.248 NA
ATOM     34  C   UNL A   1      37.488  31.203  28.951  1.00  0.00     0.031 C 
ATOM     35  C   UNL A   1      37.667  34.600  32.747  1.00  0.00     0.029 A 
ATOM     36  N   UNL A   1      39.183  33.022  33.005  1.00  0.00    -0.354 N 
ATOM     37  C   UNL A   1      38.612  29.385  29.678  1.00  0.00     0.074 A 
ATOM     38  C   UNL A   1      37.833  29.959  28.626  1.00  0.00     0.031 C 
ATOM     39  C   UNL A   1      38.343  34.896  33.880  1.00  0.00     0.029 A 
ATOM     40  C   UNL A   1      39.330  33.865  34.132  1.00  0.00     0.049 A 
ATOM     41  H   UNL A   1      39.791  32.266  32.836  1.00  0.00     0.167 HD
ATOM     42  C   UNL A   1      39.479  28.334  29.598  1.00  0.00     0.034 A 
ATOM     43  C   UNL A   1      40.141  33.683  35.221  1.00  0.00     0.034 A 
ATOM     44  C   UNL A   1      40.291  28.236  30.768  1.00  0.00     0.049 A 
ATOM     45  C   UNL A   1      40.860  32.435  34.933  1.00  0.00     0.074 A 
ATOM     46  C   UNL A   1      40.368  27.475  31.908  1.00  0.00     0.029 A 
ATOM     47  N   UNL A   1      41.313  29.146  30.793  1.00  0.00    -0.354 N 
ATOM     48  N   UNL A   1      41.828  32.314  34.079  1.00  0.00    -0.248 NA
ATOM     49  C   UNL A   1      40.249  31.200  35.421  1.00  0.00     0.031 C 
ATOM     50  C   UNL A   1      41.402  28.054  32.692  1.00  0.00     0.029 A 
ATOM     51  C   UNL A   1      41.731  29.262  32.085  1.00  0.00     0.049 A 
ATOM     52  H   UNL A   1      41.680  29.630  30.017  1.00  0.00     0.167 HD
ATOM     53  C   UNL A   1      41.770  30.991  33.710  1.00  0.00     0.074 A 
ATOM     54  C   UNL A   1      40.866  30.326  34.639  1.00  0.00     0.031 C 
ATOM     55  C   UNL A   1      42.179  30.557  32.493  1.00  0.00     0.034 A 
BRANCH  42  56
ATOM     56  C   UNL A   1      39.973  27.504  28.414  1.00  0.00     0.023 A 
ATOM     57  C   UNL A   1      39.624  26.124  28.457  1.00  0.00     0.012 A 
ATOM     58  C   UNL A   1      40.991  27.871  27.511  1.00  0.00     0.148 A 
ATOM     59  C   UNL A   1      40.334  25.142  27.765  1.00  0.00     0.002 A 
ATOM     60  C   UNL A   1      41.654  26.887  26.763  1.00  0.00     0.091 A 
ATOM     61  F   UNL A   1      41.385  29.146  27.438  1.00  0.00    -0.205 F 
ATOM     62  C   UNL A   1      41.362  25.526  26.926  1.00  0.00     0.022 A 
BRANCH  60  63
ATOM     63  S   UNL A   1      42.927  27.267  25.548  1.00  0.00     0.127 S 
ATOM     64  O   UNL A   1      44.017  27.758  26.386  1.00  0.00    -0.237 OA
ATOM     65  O   UNL A   1      43.172  25.953  24.947  1.00  0.00    -0.237 OA
ATOM     66  O   UNL A   1      42.321  28.228  24.636  1.00  0.00    -0.744 OA
ENDBRANCH  60  63
ENDBRANCH  42  56
BRANCH  43  67
ATOM     67  C   UNL A   1      40.264  34.273  36.603  1.00  0.00     0.023 A 
ATOM     68  C   UNL A   1      39.329  34.069  37.627  1.00  0.00     0.012 A 
ATOM     69  C   UNL A   1      41.422  35.036  36.953  1.00  0.00     0.148 A 
ATOM     70  C   UNL A   1      39.579  34.507  38.944  1.00  0.00     0.002 A 
ATOM     71  C   UNL A   1      41.713  35.382  38.268  1.00  0.00     0.091 A 
ATOM     72  F   UNL A   1      42.259  35.444  35.993  1.00  0.00    -0.205 F 
ATOM     73  C   UNL A   1      40.785  35.124  39.274  1.00  0.00     0.022 A 
BRANCH  71  74
ATOM     74  S   UNL A   1      43.324  36.036  38.754  1.00  0.00     0.127 S 
ATOM     75  O   UNL A   1      43.199  36.126  40.208  1.00  0.00    -0.237 OA
ATOM     76  O   UNL A   1      44.220  34.983  38.280  1.00  0.00    -0.237 OA
ATOM     77  O   UNL A   1      43.473  37.313  38.070  1.00  0.00    -0.744 OA
ENDBRANCH  71  74
ENDBRANCH  43  67
BRANCH  55  78
ATOM     78  C   UNL A   1      42.699  31.631  31.556  1.00  0.00     0.023 A 
ATOM     79  C   UNL A   1      41.781  32.383  30.814  1.00  0.00     0.012 A 
ATOM     80  C   UNL A   1      44.083  31.860  31.332  1.00  0.00     0.148 A 
ATOM     81  C   UNL A   1      42.221  33.343  29.896  1.00  0.00     0.002 A 
ATOM     82  C   UNL A   1      44.522  32.809  30.411  1.00  0.00     0.091 A 
ATOM     83  F   UNL A   1      44.963  31.161  32.048  1.00  0.00    -0.205 F 
ATOM     84  C   UNL A   1      43.584  33.558  29.694  1.00  0.00     0.022 A 
BRANCH  82  85
ATOM     85  S   UNL A   1      46.263  33.115  30.045  1.00  0.00     0.127 S 
ATOM     86  O   UNL A   1      46.816  31.759  29.996  1.00  0.00    -0.237 OA
ATOM     87  O   UNL A   1      46.193  33.781  28.748  1.00  0.00    -0.237 OA
ATOM     88  O   UNL A   1      46.780  33.930  31.137  1.00  0.00    -0.744 OA
ENDBRANCH  82  85
ENDBRANCH  55  78
ENDBRANCH  29  30
ENDBRANCH  22  24
ENDBRANCH  21  22
ENDBRANCH  20  21
ENDBRANCH   1  20
TORSDOF 19
ENDMDL
MODEL 3
REMARK VINA RESULT:      -9.7      3.962      9.878
REMARK SMILES COCCNS(=O)(=O)c1c[nH]c(C(=O)OCCOC(=O)c2ccc(-c3c4nc(c(-c5cccc(S(=O)(=O)[O-])c5F)c5ccc([nH]5)c(-c5cccc(S(=O)(=O)[O-])c5F)c5nc(c(-c6cccc(S(=O)(=O)[O-])c6F)c6ccc3[nH]6)C=C5)C=C4)cc2)c1
REMARK SMILES IDX 16 1 15 2 13 3 14 4 12 5 9 6 10 7 84 8 11 9 6 11 7 12 8 13
REMARK SMILES IDX 5 14 4 16 3 17 2 18 1 19 17 20 18 21 19 22 20 23 21 24 22 25
REMARK SMILES IDX 83 26 23 27 82 28 24 29 25 30 26 31 76 32 27 33 81 34 75 35
REMARK SMILES IDX 77 36 28 37 80 38 74 39 73 40 29 42 61 43 41 44 60 45 42 46
REMARK SMILES IDX 45 47 59 48 78 49 43 50 44 51 58 53 79 54 46 55 30 56 31 57
REMARK SMILES IDX 39 58 32 59 34 60 40 61 33 62 35 63 36 64 37 65 38 66 62 67
REMARK SMILES IDX 63 68 71 69 64 70 66 71 72 72 65 73 67 74 68 75 69 76 70 77
REMARK SMILES IDX 47 78 48 79 56 80 49 81 51 82 57 83 50 84 52 85 53 86 54 87
REMARK SMILES IDX 55 88
REMARK H PARENT 11 10 5 15 77 41 45 52
REMARK Flexibility Score: inf
ROOT
ATOM      1  C   UNL A   1      35.151  21.101  25.414  1.00  0.00     0.275 C 
ENDROOT
BRANCH   1   2
ATOM      2  O   UNL A   1      34.285  20.302  24.592  1.00  0.00    -0.457 OA
BRANCH   2   3
ATOM      3  C   UNL A   1      32.971  20.668  24.627  1.00  0.00     0.354 C 
ATOM      4  O   UNL A   1      32.064  20.000  25.085  1.00  0.00    -0.244 OA
BRANCH   3   5
ATOM      5  C   UNL A   1      32.803  22.015  24.131  1.00  0.00     0.126 A 
ATOM      6  C   UNL A   1      32.719  23.976  23.004  1.00  0.00     0.100 A 
ATOM      7  C   UNL A   1      32.347  24.217  24.310  1.00  0.00     0.104 A 
ATOM      8  C   UNL A   1      33.049  22.598  22.899  1.00  0.00     0.057 A 
ATOM      9  N   UNL A   1      32.372  23.021  24.973  1.00  0.00    -0.354 N 
ATOM     10  H   UNL A   1      32.119  22.895  25.915  1.00  0.00     0.166 HD
BRANCH   6  11
ATOM     11  S   UNL A   1      32.775  25.125  21.722  1.00  0.00     0.242 S 
ATOM     12  O   UNL A   1      31.499  25.807  21.775  1.00  0.00    -0.207 OA
ATOM     13  O   UNL A   1      33.201  24.387  20.557  1.00  0.00    -0.207 OA
BRANCH  11  14
ATOM     14  N   UNL A   1      33.981  26.268  22.046  1.00  0.00    -0.209 NA
ATOM     15  H   UNL A   1      34.557  25.905  22.805  1.00  0.00     0.141 HD
BRANCH  14  16
ATOM     16  C   UNL A   1      33.513  27.618  22.437  1.00  0.00     0.127 C 
BRANCH  16  17
ATOM     17  C   UNL A   1      33.466  27.755  23.965  1.00  0.00     0.176 C 
BRANCH  17  18
ATOM     18  O   UNL A   1      32.136  27.868  24.484  1.00  0.00    -0.383 OA
ATOM     19  C   UNL A   1      31.314  28.787  23.781  1.00  0.00     0.194 C 
ENDBRANCH  17  18
ENDBRANCH  16  17
ENDBRANCH  14  16
ENDBRANCH  11  14
ENDBRANCH   6  11
ENDBRANCH   3   5
ENDBRANCH   2   3
ENDBRANCH   1   2
BRANCH   1  20
ATOM     20  C   UNL A   1      36.616  21.021  24.976  1.00  0.00     0.275 C 
BRANCH  20  21
ATOM     21  O   UNL A   1      37.438  22.091  25.459  1.00  0.00    -0.458 OA
BRANCH  21  22
ATOM     22  C   UNL A   1      38.700  21.716  25.774  1.00  0.00     0.338 C 
ATOM     23  O   UNL A   1      39.228  20.644  25.521  1.00  0.00    -0.246 OA
BRANCH  22  24
ATOM     24  C   UNL A   1      39.369  22.722  26.601  1.00  0.00     0.060 A 
ATOM     25  C   UNL A   1      39.239  24.066  26.233  1.00  0.00     0.016 A 
ATOM     26  C   UNL A   1      40.284  22.316  27.578  1.00  0.00     0.016 A 
ATOM     27  C   UNL A   1      40.053  25.014  26.831  1.00  0.00     0.010 A 
ATOM     28  C   UNL A   1      41.125  23.260  28.146  1.00  0.00     0.010 A 
ATOM     29  C   UNL A   1      41.007  24.604  27.771  1.00  0.00    -0.014 A 
BRANCH  29  30
ATOM     30  C   UNL A   1      41.807  25.635  28.458  1.00  0.00     0.031 A 
ATOM     31  C   UNL A   1      43.327  25.371  28.316  1.00  0.00     0.074 A 
ATOM     32  C   UNL A   1      41.085  26.583  29.125  1.00  0.00     0.049 A 
ATOM     33  N   UNL A   1      44.327  25.634  29.115  1.00  0.00    -0.248 NA
ATOM     34  C   UNL A   1      43.775  24.559  27.150  1.00  0.00     0.031 C 
ATOM     35  C   UNL A   1      39.606  26.681  29.173  1.00  0.00     0.029 A 
ATOM     36  N   UNL A   1      41.443  27.650  29.909  1.00  0.00    -0.354 N 
ATOM     37  C   UNL A   1      45.505  25.206  28.448  1.00  0.00     0.074 A 
ATOM     38  C   UNL A   1      45.086  24.414  27.335  1.00  0.00     0.031 C 
ATOM     39  C   UNL A   1      39.212  27.666  30.012  1.00  0.00     0.029 A 
ATOM     40  C   UNL A   1      40.382  28.316  30.569  1.00  0.00     0.049 A 
ATOM     41  H   UNL A   1      42.379  27.936  30.008  1.00  0.00     0.167 HD
ATOM     42  C   UNL A   1      46.763  25.660  28.725  1.00  0.00     0.034 A 
ATOM     43  C   UNL A   1      40.464  29.266  31.552  1.00  0.00     0.034 A 
ATOM     44  C   UNL A   1      46.746  26.656  29.746  1.00  0.00     0.049 A 
ATOM     45  C   UNL A   1      41.907  29.473  31.735  1.00  0.00     0.074 A 
ATOM     46  C   UNL A   1      47.029  26.765  31.085  1.00  0.00     0.029 A 
ATOM     47  N   UNL A   1      46.343  27.885  29.295  1.00  0.00    -0.354 N 
ATOM     48  N   UNL A   1      42.675  30.123  30.917  1.00  0.00    -0.248 NA
ATOM     49  C   UNL A   1      42.564  28.647  32.745  1.00  0.00     0.031 C 
ATOM     50  C   UNL A   1      46.650  28.083  31.456  1.00  0.00     0.029 A 
ATOM     51  C   UNL A   1      45.951  28.614  30.378  1.00  0.00     0.049 A 
ATOM     52  H   UNL A   1      46.338  28.186  28.357  1.00  0.00     0.167 HD
ATOM     53  C   UNL A   1      43.916  29.573  31.134  1.00  0.00     0.074 A 
ATOM     54  C   UNL A   1      43.820  28.757  32.337  1.00  0.00     0.031 C 
ATOM     55  C   UNL A   1      44.868  29.524  30.171  1.00  0.00     0.034 A 
BRANCH  42  56
ATOM     56  C   UNL A   1      48.075  25.575  27.946  1.00  0.00     0.023 A 
ATOM     57  C   UNL A   1      49.191  25.105  28.694  1.00  0.00     0.012 A 
ATOM     58  C   UNL A   1      48.358  26.220  26.726  1.00  0.00     0.148 A 
ATOM     59  C   UNL A   1      50.511  25.383  28.339  1.00  0.00     0.002 A 
ATOM     60  C   UNL A   1      49.688  26.435  26.337  1.00  0.00     0.091 A 
ATOM     61  F   UNL A   1      47.358  26.708  25.985  1.00  0.00    -0.205 F 
ATOM     62  C   UNL A   1      50.758  26.063  27.163  1.00  0.00     0.022 A 
BRANCH  60  63
ATOM     63  S   UNL A   1      50.144  27.199  24.772  1.00  0.00     0.127 S 
ATOM     64  O   UNL A   1      49.350  26.436  23.813  1.00  0.00    -0.237 OA
ATOM     65  O   UNL A   1      49.692  28.580  24.968  1.00  0.00    -0.237 OA
ATOM     66  O   UNL A   1      51.592  27.061  24.679  1.00  0.00    -0.744 OA
ENDBRANCH  60  63
ENDBRANCH  42  56
BRANCH  43  67
ATOM     67  C   UNL A   1      39.522  29.893  32.549  1.00  0.00     0.023 A 
ATOM     68  C   UNL A   1      39.684  29.806  33.938  1.00  0.00     0.012 A 
ATOM     69  C   UNL A   1      38.425  30.689  32.093  1.00  0.00     0.148 A 
ATOM     70  C   UNL A   1      38.869  30.549  34.817  1.00  0.00     0.002 A 
ATOM     71  C   UNL A   1      37.685  31.494  32.951  1.00  0.00     0.091 A 
ATOM     72  F   UNL A   1      38.083  30.661  30.800  1.00  0.00    -0.205 F 
ATOM     73  C   UNL A   1      37.900  31.422  34.326  1.00  0.00     0.022 A 
BRANCH  71  74
ATOM     74  S   UNL A   1      36.538  32.747  32.341  1.00  0.00     0.127 S 
ATOM     75  O   UNL A   1      37.362  33.487  31.386  1.00  0.00    -0.237 OA
ATOM     76  O   UNL A   1      35.495  31.918  31.738  1.00  0.00    -0.237 OA
ATOM     77  O   UNL A   1      36.107  33.512  33.503  1.00  0.00    -0.744 OA
ENDBRANCH  71  74
ENDBRANCH  43  67
BRANCH  55  78
ATOM     78  C   UNL A   1      44.471  30.111  28.828  1.00  0.00     0.023 A 
ATOM     79  C   UNL A   1      43.565  29.409  28.025  1.00  0.00     0.012 A 
ATOM     80  C   UNL A   1      45.038  31.304  28.306  1.00  0.00     0.148 A 
ATOM     81  C   UNL A   1      43.217  29.886  26.757  1.00  0.00     0.002 A 
ATOM     82  C   UNL A   1      44.700  31.774  27.039  1.00  0.00     0.091 A 
ATOM     83  F   UNL A   1      45.889  31.987  29.072  1.00  0.00    -0.205 F 
ATOM     84  C   UNL A   1      43.779  31.063  26.264  1.00  0.00     0.022 A 
BRANCH  82  85
ATOM     85  S   UNL A   1      45.419  33.255  26.299  1.00  0.00     0.127 S 
ATOM     86  O   UNL A   1      46.837  32.903  26.206  1.00  0.00    -0.237 OA
ATOM     87  O   UNL A   1      44.732  33.321  25.012  1.00  0.00    -0.237 OA
ATOM     88  O   UNL A   1      45.136  34.356  27.213  1.00  0.00    -0.744 OA
ENDBRANCH  82  85
ENDBRANCH  55  78
ENDBRANCH  29  30
ENDBRANCH  22  24
ENDBRANCH  21  22
ENDBRANCH  20  21
ENDBRANCH   1  20
TORSDOF 19
ENDMDL
