MODEL 1
REMARK VINA RESULT:     -12.4      0.000      0.000
REMARK SMILES [NH3+][C@H]1CN(C(=O)OCC2c3ccccc3-c3ccccc32)C[C@@H]1C(=O)OCCOC(=O)c1ccc(-c2c3nc(c(-c4cccc(S(=O)(=O)[O-])c4F)c4ccc([nH]4)c(-c4cccc(S(=O)(=O)[O-])c4F)c4nc(c(-c5cccc(S(=O)(=O)[O-])c5F)c5ccc2[nH]5)C=C4)C=C3)cc1
REMARK SMILES IDX 27 1 26 2 24 3 25 4 23 5 2 6 3 7 4 8 22 9 1 10 5 14 6 15
REMARK SMILES IDX 7 16 8 17 9 18 10 19 21 20 11 21 15 22 16 23 20 24 12 25
REMARK SMILES IDX 14 26 17 27 19 28 13 29 18 30 28 31 29 32 30 33 31 34 32 35
REMARK SMILES IDX 33 36 94 37 34 38 93 39 35 40 36 41 37 42 87 43 38 44 92 45
REMARK SMILES IDX 86 46 88 47 39 48 91 49 85 50 84 51 40 53 72 54 52 55 71 56
REMARK SMILES IDX 53 57 56 58 70 59 89 60 54 61 55 62 69 64 90 65 57 66 41 67
REMARK SMILES IDX 42 68 50 69 43 70 45 71 51 72 44 73 46 74 47 75 48 76 49 77
REMARK SMILES IDX 73 78 74 79 82 80 75 81 77 82 83 83 76 84 78 85 79 86 80 87
REMARK SMILES IDX 81 88 58 89 59 90 67 91 60 92 62 93 68 94 61 95 63 96 64 97
REMARK SMILES IDX 65 98 66 99
REMARK H PARENT 1 11 1 12 1 13 88 52 56 63
REMARK Flexibility Score: inf
ROOT
ATOM      1  C   UNL A   1      35.810  20.054  24.997  1.00  0.00     0.274 C 
ENDROOT
BRANCH   1   2
ATOM      2  O   UNL A   1      35.244  21.075  25.838  1.00  0.00    -0.462 OA
BRANCH   2   3
ATOM      3  C   UNL A   1      33.889  21.074  25.967  1.00  0.00     0.317 C 
ATOM      4  O   UNL A   1      33.286  20.798  26.996  1.00  0.00    -0.252 OA
BRANCH   3   5
ATOM      5  C   UNL A   1      33.223  21.569  24.699  1.00  0.00     0.178 C 
ATOM      6  C   UNL A   1      33.949  22.811  24.138  1.00  0.00     0.216 C 
ATOM      7  C   UNL A   1      33.321  23.975  24.950  1.00  0.00     0.188 C 
ATOM      8  N   UNL A   1      32.105  23.412  25.524  1.00  0.00    -0.301 N 
ATOM      9  C   UNL A   1      31.841  22.093  25.003  1.00  0.00     0.145 C 
BRANCH   6  10
ATOM     10  N   UNL A   1      33.697  22.964  22.692  1.00  0.00    -0.353 N 
ATOM     11  H   UNL A   1      34.191  22.232  22.181  1.00  0.00     0.344 HD
ATOM     12  H   UNL A   1      34.030  23.878  22.383  1.00  0.00     0.344 HD
ATOM     13  H   UNL A   1      32.696  22.888  22.511  1.00  0.00     0.344 HD
ENDBRANCH   6  10
BRANCH   8  14
ATOM     14  C   UNL A   1      31.483  23.876  26.642  1.00  0.00     0.410 C 
ATOM     15  O   UNL A   1      30.987  23.141  27.492  1.00  0.00    -0.224 OA
BRANCH  14  16
ATOM     16  O   UNL A   1      31.398  25.225  26.653  1.00  0.00    -0.448 OA
BRANCH  16  17
ATOM     17  C   UNL A   1      30.303  25.760  25.887  1.00  0.00     0.248 C 
BRANCH  17  18
ATOM     18  C   UNL A   1      30.742  27.060  25.183  1.00  0.00     0.088 C 
ATOM     19  C   UNL A   1      31.820  27.861  25.921  1.00  0.00    -0.029 A 
ATOM     20  C   UNL A   1      31.453  26.753  23.867  1.00  0.00    -0.029 A 
ATOM     21  C   UNL A   1      31.742  28.525  27.137  1.00  0.00     0.005 A 
ATOM     22  C   UNL A   1      33.004  27.913  25.154  1.00  0.00    -0.014 A 
ATOM     23  C   UNL A   1      32.773  27.246  23.891  1.00  0.00    -0.014 A 
ATOM     24  C   UNL A   1      30.943  26.106  22.751  1.00  0.00     0.005 A 
ATOM     25  C   UNL A   1      32.879  29.172  27.625  1.00  0.00     0.000 A 
ATOM     26  C   UNL A   1      34.131  28.564  25.632  1.00  0.00     0.009 A 
ATOM     27  C   UNL A   1      33.602  27.087  22.794  1.00  0.00     0.009 A 
ATOM     28  C   UNL A   1      31.780  25.942  21.648  1.00  0.00     0.000 A 
ATOM     29  C   UNL A   1      34.068  29.184  26.883  1.00  0.00     0.001 A 
ATOM     30  C   UNL A   1      33.097  26.427  21.668  1.00  0.00     0.001 A 
ENDBRANCH  17  18
ENDBRANCH  16  17
ENDBRANCH  14  16
ENDBRANCH   8  14
ENDBRANCH   3   5
ENDBRANCH   2   3
ENDBRANCH   1   2
BRANCH   1  31
ATOM     31  C   UNL A   1      37.297  20.320  24.754  1.00  0.00     0.275 C 
BRANCH  31  32
ATOM     32  O   UNL A   1      37.824  21.305  25.664  1.00  0.00    -0.458 OA
BRANCH  32  33
ATOM     33  C   UNL A   1      39.072  21.054  26.127  1.00  0.00     0.338 C 
ATOM     34  O   UNL A   1      39.689  20.002  26.047  1.00  0.00    -0.246 OA
BRANCH  33  35
ATOM     35  C   UNL A   1      39.691  22.300  26.614  1.00  0.00     0.060 A 
ATOM     36  C   UNL A   1      39.220  23.508  26.089  1.00  0.00     0.016 A 
ATOM     37  C   UNL A   1      40.751  22.291  27.519  1.00  0.00     0.016 A 
ATOM     38  C   UNL A   1      39.797  24.714  26.464  1.00  0.00     0.010 A 
ATOM     39  C   UNL A   1      41.344  23.504  27.887  1.00  0.00     0.010 A 
ATOM     40  C   UNL A   1      40.874  24.717  27.354  1.00  0.00    -0.014 A 
BRANCH  40  41
ATOM     41  C   UNL A   1      41.540  25.999  27.668  1.00  0.00     0.031 A 
ATOM     42  C   UNL A   1      40.800  27.042  28.453  1.00  0.00     0.074 A 
ATOM     43  C   UNL A   1      42.807  26.207  27.271  1.00  0.00     0.049 A 
ATOM     44  N   UNL A   1      41.191  28.238  28.802  1.00  0.00    -0.248 NA
ATOM     45  C   UNL A   1      39.446  26.690  28.910  1.00  0.00     0.031 C 
ATOM     46  C   UNL A   1      43.627  25.248  26.530  1.00  0.00     0.029 A 
ATOM     47  N   UNL A   1      43.621  27.301  27.419  1.00  0.00    -0.354 N 
ATOM     48  C   UNL A   1      40.120  28.799  29.487  1.00  0.00     0.074 A 
ATOM     49  C   UNL A   1      39.065  27.810  29.508  1.00  0.00     0.031 C 
ATOM     50  C   UNL A   1      44.819  25.805  26.265  1.00  0.00     0.029 A 
ATOM     51  C   UNL A   1      44.834  27.170  26.788  1.00  0.00     0.049 A 
ATOM     52  H   UNL A   1      43.361  28.102  27.929  1.00  0.00     0.167 HD
ATOM     53  C   UNL A   1      40.033  30.024  30.054  1.00  0.00     0.034 A 
ATOM     54  C   UNL A   1      45.831  28.061  26.626  1.00  0.00     0.034 A 
ATOM     55  C   UNL A   1      41.095  30.994  30.047  1.00  0.00     0.049 A 
ATOM     56  C   UNL A   1      45.690  29.429  27.238  1.00  0.00     0.074 A 
ATOM     57  C   UNL A   1      41.116  32.251  30.623  1.00  0.00     0.029 A 
ATOM     58  N   UNL A   1      42.320  30.818  29.423  1.00  0.00    -0.354 N 
ATOM     59  N   UNL A   1      44.713  29.910  27.969  1.00  0.00    -0.248 NA
ATOM     60  C   UNL A   1      46.801  30.369  27.026  1.00  0.00     0.031 C 
ATOM     61  C   UNL A   1      42.348  32.844  30.329  1.00  0.00     0.029 A 
ATOM     62  C   UNL A   1      43.103  31.948  29.589  1.00  0.00     0.049 A 
ATOM     63  H   UNL A   1      42.595  30.008  28.935  1.00  0.00     0.167 HD
ATOM     64  C   UNL A   1      45.103  31.195  28.329  1.00  0.00     0.074 A 
ATOM     65  C   UNL A   1      46.416  31.409  27.754  1.00  0.00     0.031 C 
ATOM     66  C   UNL A   1      44.430  32.122  29.056  1.00  0.00     0.034 A 
BRANCH  53  67
ATOM     67  C   UNL A   1      38.744  30.383  30.743  1.00  0.00     0.023 A 
ATOM     68  C   UNL A   1      38.520  29.957  32.068  1.00  0.00     0.012 A 
ATOM     69  C   UNL A   1      37.779  31.179  30.099  1.00  0.00     0.148 A 
ATOM     70  C   UNL A   1      37.343  30.298  32.732  1.00  0.00     0.002 A 
ATOM     71  C   UNL A   1      36.625  31.547  30.780  1.00  0.00     0.091 A 
ATOM     72  F   UNL A   1      37.999  31.550  28.829  1.00  0.00    -0.205 F 
ATOM     73  C   UNL A   1      36.401  31.101  32.093  1.00  0.00     0.022 A 
BRANCH  71  74
ATOM     74  S   UNL A   1      35.386  32.634  30.064  1.00  0.00     0.127 S 
ATOM     75  O   UNL A   1      36.192  33.795  29.693  1.00  0.00    -0.237 OA
ATOM     76  O   UNL A   1      34.897  31.843  28.934  1.00  0.00    -0.237 OA
ATOM     77  O   UNL A   1      34.402  32.863  31.113  1.00  0.00    -0.744 OA
ENDBRANCH  71  74
ENDBRANCH  53  67
BRANCH  54  78
ATOM     78  C   UNL A   1      47.057  27.678  25.873  1.00  0.00     0.023 A 
ATOM     79  C   UNL A   1      48.115  27.039  26.546  1.00  0.00     0.012 A 
ATOM     80  C   UNL A   1      47.170  27.921  24.489  1.00  0.00     0.148 A 
ATOM     81  C   UNL A   1      49.274  26.672  25.863  1.00  0.00     0.002 A 
ATOM     82  C   UNL A   1      48.305  27.504  23.803  1.00  0.00     0.091 A 
ATOM     83  F   UNL A   1      46.162  28.550  23.870  1.00  0.00    -0.205 F 
ATOM     84  C   UNL A   1      49.365  26.892  24.491  1.00  0.00     0.022 A 
BRANCH  82  85
ATOM     85  S   UNL A   1      48.448  27.633  22.018  1.00  0.00     0.127 S 
ATOM     86  O   UNL A   1      48.649  26.239  21.631  1.00  0.00    -0.237 OA
ATOM     87  O   UNL A   1      47.148  28.194  21.648  1.00  0.00    -0.237 OA
ATOM     88  O   UNL A   1      49.574  28.526  21.781  1.00  0.00    -0.744 OA
ENDBRANCH  82  85
ENDBRANCH  54  78
BRANCH  66  89
ATOM     89  C   UNL A   1      45.108  33.444  29.300  1.00  0.00     0.023 A 
ATOM     90  C   UNL A   1      45.985  33.588  30.392  1.00  0.00     0.012 A 
ATOM     91  C   UNL A   1      44.939  34.515  28.400  1.00  0.00     0.148 A 
ATOM     92  C   UNL A   1      46.661  34.789  30.603  1.00  0.00     0.002 A 
ATOM     93  C   UNL A   1      45.651  35.693  28.590  1.00  0.00     0.091 A 
ATOM     94  F   UNL A   1      44.083  34.364  27.378  1.00  0.00    -0.205 F 
ATOM     95  C   UNL A   1      46.505  35.836  29.696  1.00  0.00     0.022 A 
BRANCH  93  96
ATOM     96  S   UNL A   1      45.585  37.055  27.420  1.00  0.00     0.127 S 
ATOM     97  O   UNL A   1      46.143  38.152  28.209  1.00  0.00    -0.237 OA
ATOM     98  O   UNL A   1      46.449  36.580  26.338  1.00  0.00    -0.237 OA
ATOM     99  O   UNL A   1      44.182  37.196  27.052  1.00  0.00    -0.744 OA
ENDBRANCH  93  96
ENDBRANCH  66  89
ENDBRANCH  40  41
ENDBRANCH  33  35
ENDBRANCH  32  33
ENDBRANCH  31  32
ENDBRANCH   1  31
TORSDOF 19
ENDMDL
MODEL 2
REMARK VINA RESULT:     -12.4      1.958      2.465
REMARK SMILES [NH3+][C@H]1CN(C(=O)OCC2c3ccccc3-c3ccccc32)C[C@@H]1C(=O)OCCOC(=O)c1ccc(-c2c3nc(c(-c4cccc(S(=O)(=O)[O-])c4F)c4ccc([nH]4)c(-c4cccc(S(=O)(=O)[O-])c4F)c4nc(c(-c5cccc(S(=O)(=O)[O-])c5F)c5ccc2[nH]5)C=C4)C=C3)cc1
REMARK SMILES IDX 27 1 26 2 24 3 25 4 23 5 2 6 3 7 4 8 22 9 1 10 5 14 6 15
REMARK SMILES IDX 7 16 8 17 9 18 10 19 21 20 11 21 15 22 16 23 20 24 12 25
REMARK SMILES IDX 14 26 17 27 19 28 13 29 18 30 28 31 29 32 30 33 31 34 32 35
REMARK SMILES IDX 33 36 94 37 34 38 93 39 35 40 36 41 37 42 87 43 38 44 92 45
REMARK SMILES IDX 86 46 88 47 39 48 91 49 85 50 84 51 40 53 72 54 52 55 71 56
REMARK SMILES IDX 53 57 56 58 70 59 89 60 54 61 55 62 69 64 90 65 57 66 41 67
REMARK SMILES IDX 42 68 50 69 43 70 45 71 51 72 44 73 46 74 47 75 48 76 49 77
REMARK SMILES IDX 73 78 74 79 82 80 75 81 77 82 83 83 76 84 78 85 79 86 80 87
REMARK SMILES IDX 81 88 58 89 59 90 67 91 60 92 62 93 68 94 61 95 63 96 64 97
REMARK SMILES IDX 65 98 66 99
REMARK H PARENT 1 11 1 12 1 13 88 52 56 63
REMARK Flexibility Score: inf
ROOT
ATOM      1  C   UNL A   1      34.817  21.410  24.618  1.00  0.00     0.274 C 
ENDROOT
BRANCH   1   2
ATOM      2  O   UNL A   1      33.951  21.700  25.730  1.00  0.00    -0.462 OA
BRANCH   2   3
ATOM      3  C   UNL A   1      33.766  23.015  26.029  1.00  0.00     0.317 C 
ATOM      4  O   UNL A   1      34.635  23.875  25.964  1.00  0.00    -0.252 OA
BRANCH   3   5
ATOM      5  C   UNL A   1      32.311  23.299  26.344  1.00  0.00     0.178 C 
ATOM      6  C   UNL A   1      31.378  22.342  25.571  1.00  0.00     0.216 C 
ATOM      7  C   UNL A   1      31.238  23.035  24.190  1.00  0.00     0.188 C 
ATOM      8  N   UNL A   1      31.689  24.403  24.414  1.00  0.00    -0.301 N 
ATOM      9  C   UNL A   1      31.916  24.657  25.816  1.00  0.00     0.145 C 
BRANCH   6  10
ATOM     10  N   UNL A   1      30.071  22.216  26.247  1.00  0.00    -0.353 N 
ATOM     11  H   UNL A   1      29.347  22.026  25.555  1.00  0.00     0.344 HD
ATOM     12  H   UNL A   1      29.856  23.086  26.735  1.00  0.00     0.344 HD
ATOM     13  H   UNL A   1      30.109  21.450  26.920  1.00  0.00     0.344 HD
ENDBRANCH   6  10
BRANCH   8  14
ATOM     14  C   UNL A   1      32.175  25.233  23.451  1.00  0.00     0.410 C 
ATOM     15  O   UNL A   1      33.371  25.464  23.300  1.00  0.00    -0.224 OA
BRANCH  14  16
ATOM     16  O   UNL A   1      31.185  25.833  22.752  1.00  0.00    -0.448 OA
BRANCH  16  17
ATOM     17  C   UNL A   1      31.261  27.271  22.727  1.00  0.00     0.248 C 
BRANCH  17  18
ATOM     18  C   UNL A   1      30.505  27.857  23.937  1.00  0.00     0.088 C 
ATOM     19  C   UNL A   1      31.383  28.600  24.948  1.00  0.00    -0.029 A 
ATOM     20  C   UNL A   1      29.555  28.970  23.499  1.00  0.00    -0.029 A 
ATOM     21  C   UNL A   1      32.373  28.104  25.785  1.00  0.00     0.005 A 
ATOM     22  C   UNL A   1      31.028  29.966  24.998  1.00  0.00    -0.014 A 
ATOM     23  C   UNL A   1      29.899  30.187  24.120  1.00  0.00    -0.014 A 
ATOM     24  C   UNL A   1      28.472  28.878  22.637  1.00  0.00     0.005 A 
ATOM     25  C   UNL A   1      33.065  28.991  26.612  1.00  0.00     0.000 A 
ATOM     26  C   UNL A   1      31.707  30.847  25.826  1.00  0.00     0.009 A 
ATOM     27  C   UNL A   1      29.163  31.333  23.874  1.00  0.00     0.009 A 
ATOM     28  C   UNL A   1      27.734  30.034  22.385  1.00  0.00     0.000 A 
ATOM     29  C   UNL A   1      32.741  30.354  26.626  1.00  0.00     0.001 A 
ATOM     30  C   UNL A   1      28.076  31.250  22.997  1.00  0.00     0.001 A 
ENDBRANCH  17  18
ENDBRANCH  16  17
ENDBRANCH  14  16
ENDBRANCH   8  14
ENDBRANCH   3   5
ENDBRANCH   2   3
ENDBRANCH   1   2
BRANCH   1  31
ATOM     31  C   UNL A   1      36.096  20.719  25.097  1.00  0.00     0.275 C 
BRANCH  31  32
ATOM     32  O   UNL A   1      36.877  21.570  25.958  1.00  0.00    -0.458 OA
BRANCH  32  33
ATOM     33  C   UNL A   1      38.213  21.346  25.932  1.00  0.00     0.338 C 
ATOM     34  O   UNL A   1      38.789  20.391  25.435  1.00  0.00    -0.246 OA
BRANCH  33  35
ATOM     35  C   UNL A   1      38.932  22.523  26.452  1.00  0.00     0.060 A 
ATOM     36  C   UNL A   1      38.458  23.788  26.089  1.00  0.00     0.016 A 
ATOM     37  C   UNL A   1      40.084  22.399  27.227  1.00  0.00     0.016 A 
ATOM     38  C   UNL A   1      39.123  24.936  26.499  1.00  0.00     0.010 A 
ATOM     39  C   UNL A   1      40.764  23.554  27.630  1.00  0.00     0.010 A 
ATOM     40  C   UNL A   1      40.290  24.825  27.259  1.00  0.00    -0.014 A 
BRANCH  40  41
ATOM     41  C   UNL A   1      41.038  26.052  27.605  1.00  0.00     0.031 A 
ATOM     42  C   UNL A   1      40.363  27.129  28.402  1.00  0.00     0.074 A 
ATOM     43  C   UNL A   1      42.322  26.177  27.228  1.00  0.00     0.049 A 
ATOM     44  N   UNL A   1      40.831  28.288  28.778  1.00  0.00    -0.248 NA
ATOM     45  C   UNL A   1      38.982  26.863  28.836  1.00  0.00     0.031 C 
ATOM     46  C   UNL A   1      43.083  25.177  26.478  1.00  0.00     0.029 A 
ATOM     47  N   UNL A   1      43.207  27.209  27.407  1.00  0.00    -0.354 N 
ATOM     48  C   UNL A   1      39.793  28.910  29.461  1.00  0.00     0.074 A 
ATOM     49  C   UNL A   1      38.671  27.996  29.451  1.00  0.00     0.031 C 
ATOM     50  C   UNL A   1      44.314  25.656  26.238  1.00  0.00     0.029 A 
ATOM     51  C   UNL A   1      44.417  27.006  26.787  1.00  0.00     0.049 A 
ATOM     52  H   UNL A   1      42.997  28.017  27.928  1.00  0.00     0.167 HD
ATOM     53  C   UNL A   1      39.783  30.127  30.050  1.00  0.00     0.034 A 
ATOM     54  C   UNL A   1      45.476  27.828  26.654  1.00  0.00     0.034 A 
ATOM     55  C   UNL A   1      40.910  31.021  30.074  1.00  0.00     0.049 A 
ATOM     56  C   UNL A   1      45.422  29.191  27.291  1.00  0.00     0.074 A 
ATOM     57  C   UNL A   1      41.011  32.263  30.675  1.00  0.00     0.029 A 
ATOM     58  N   UNL A   1      42.128  30.771  29.462  1.00  0.00    -0.354 N 
ATOM     59  N   UNL A   1      44.471  29.726  28.019  1.00  0.00    -0.248 NA
ATOM     60  C   UNL A   1      46.598  30.055  27.110  1.00  0.00     0.031 C 
ATOM     61  C   UNL A   1      42.285  32.774  30.407  1.00  0.00     0.029 A 
ATOM     62  C   UNL A   1      42.985  31.841  29.658  1.00  0.00     0.049 A 
ATOM     63  H   UNL A   1      42.352  29.953  28.961  1.00  0.00     0.167 HD
ATOM     64  C   UNL A   1      44.945  30.973  28.409  1.00  0.00     0.074 A 
ATOM     65  C   UNL A   1      46.277  31.106  27.853  1.00  0.00     0.031 C 
ATOM     66  C   UNL A   1      44.328  31.931  29.145  1.00  0.00     0.034 A 
BRANCH  53  67
ATOM     67  C   UNL A   1      38.513  30.562  30.731  1.00  0.00     0.023 A 
ATOM     68  C   UNL A   1      38.287  30.208  32.076  1.00  0.00     0.012 A 
ATOM     69  C   UNL A   1      37.570  31.360  30.056  1.00  0.00     0.148 A 
ATOM     70  C   UNL A   1      37.128  30.620  32.732  1.00  0.00     0.002 A 
ATOM     71  C   UNL A   1      36.435  31.799  30.728  1.00  0.00     0.091 A 
ATOM     72  F   UNL A   1      37.791  31.661  28.769  1.00  0.00    -0.205 F 
ATOM     73  C   UNL A   1      36.208  31.423  32.062  1.00  0.00     0.022 A 
BRANCH  71  74
ATOM     74  S   UNL A   1      35.227  32.891  29.970  1.00  0.00     0.127 S 
ATOM     75  O   UNL A   1      34.656  32.028  28.938  1.00  0.00    -0.237 OA
ATOM     76  O   UNL A   1      34.329  33.182  31.088  1.00  0.00    -0.237 OA
ATOM     77  O   UNL A   1      35.978  34.040  29.482  1.00  0.00    -0.744 OA
ENDBRANCH  71  74
ENDBRANCH  53  67
BRANCH  54  78
ATOM     78  C   UNL A   1      46.682  27.374  25.908  1.00  0.00     0.023 A 
ATOM     79  C   UNL A   1      46.764  27.593  24.521  1.00  0.00     0.012 A 
ATOM     80  C   UNL A   1      47.758  26.750  26.570  1.00  0.00     0.148 A 
ATOM     81  C   UNL A   1      47.883  27.176  23.800  1.00  0.00     0.002 A 
ATOM     82  C   UNL A   1      48.893  26.386  25.856  1.00  0.00     0.091 A 
ATOM     83  F   UNL A   1      47.652  26.530  27.888  1.00  0.00    -0.205 F 
ATOM     84  C   UNL A   1      48.952  26.584  24.467  1.00  0.00     0.022 A 
BRANCH  82  85
ATOM     85  S   UNL A   1      50.364  25.736  26.656  1.00  0.00     0.127 S 
ATOM     86  O   UNL A   1      51.297  25.642  25.537  1.00  0.00    -0.237 OA
ATOM     87  O   UNL A   1      50.670  26.786  27.628  1.00  0.00    -0.237 OA
ATOM     88  O   UNL A   1      49.957  24.471  27.252  1.00  0.00    -0.744 OA
ENDBRANCH  82  85
ENDBRANCH  54  78
BRANCH  66  89
ATOM     89  C   UNL A   1      45.093  33.198  29.422  1.00  0.00     0.023 A 
ATOM     90  C   UNL A   1      45.929  33.276  30.552  1.00  0.00     0.012 A 
ATOM     91  C   UNL A   1      45.045  34.279  28.519  1.00  0.00     0.148 A 
ATOM     92  C   UNL A   1      46.684  34.423  30.796  1.00  0.00     0.002 A 
ATOM     93  C   UNL A   1      45.835  35.400  28.743  1.00  0.00     0.091 A 
ATOM     94  F   UNL A   1      44.226  34.193  27.460  1.00  0.00    -0.205 F 
ATOM     95  C   UNL A   1      46.649  35.478  29.886  1.00  0.00     0.022 A 
BRANCH  93  96
ATOM     96  S   UNL A   1      45.924  36.762  27.576  1.00  0.00     0.127 S 
ATOM     97  O   UNL A   1      47.085  37.501  28.069  1.00  0.00    -0.237 OA
ATOM     98  O   UNL A   1      46.136  36.071  26.304  1.00  0.00    -0.237 OA
ATOM     99  O   UNL A   1      44.647  37.457  27.678  1.00  0.00    -0.744 OA
ENDBRANCH  93  96
ENDBRANCH  66  89
ENDBRANCH  40  41
ENDBRANCH  33  35
ENDBRANCH  32  33
ENDBRANCH  31  32
ENDBRANCH   1  31
TORSDOF 19
ENDMDL
MODEL 3
REMARK VINA RESULT:     -12.3      1.273      7.441
REMARK SMILES [NH3+][C@H]1CN(C(=O)OCC2c3ccccc3-c3ccccc32)C[C@@H]1C(=O)OCCOC(=O)c1ccc(-c2c3nc(c(-c4cccc(S(=O)(=O)[O-])c4F)c4ccc([nH]4)c(-c4cccc(S(=O)(=O)[O-])c4F)c4nc(c(-c5cccc(S(=O)(=O)[O-])c5F)c5ccc2[nH]5)C=C4)C=C3)cc1
REMARK SMILES IDX 27 1 26 2 24 3 25 4 23 5 2 6 3 7 4 8 22 9 1 10 5 14 6 15
REMARK SMILES IDX 7 16 8 17 9 18 10 19 21 20 11 21 15 22 16 23 20 24 12 25
REMARK SMILES IDX 14 26 17 27 19 28 13 29 18 30 28 31 29 32 30 33 31 34 32 35
REMARK SMILES IDX 33 36 94 37 34 38 93 39 35 40 36 41 37 42 87 43 38 44 92 45
REMARK SMILES IDX 86 46 88 47 39 48 91 49 85 50 84 51 40 53 72 54 52 55 71 56
REMARK SMILES IDX 53 57 56 58 70 59 89 60 54 61 55 62 69 64 90 65 57 66 41 67
REMARK SMILES IDX 42 68 50 69 43 70 45 71 51 72 44 73 46 74 47 75 48 76 49 77
REMARK SMILES IDX 73 78 74 79 82 80 75 81 77 82 83 83 76 84 78 85 79 86 80 87
REMARK SMILES IDX 81 88 58 89 59 90 67 91 60 92 62 93 68 94 61 95 63 96 64 97
REMARK SMILES IDX 65 98 66 99
REMARK H PARENT 1 11 1 12 1 13 88 52 56 63
REMARK Flexibility Score: inf
ROOT
ATOM      1  C   UNL A   1      36.088  19.723  24.982  1.00  0.00     0.274 C 
ENDROOT
BRANCH   1   2
ATOM      2  O   UNL A   1      35.387  20.782  25.655  1.00  0.00    -0.462 OA
BRANCH   2   3
ATOM      3  C   UNL A   1      34.055  20.891  25.395  1.00  0.00     0.317 C 
ATOM      4  O   UNL A   1      33.174  20.302  26.007  1.00  0.00    -0.252 OA
BRANCH   3   5
ATOM      5  C   UNL A   1      33.796  21.926  24.319  1.00  0.00     0.178 C 
ATOM      6  C   UNL A   1      34.789  23.103  24.429  1.00  0.00     0.216 C 
ATOM      7  C   UNL A   1      34.129  24.014  25.498  1.00  0.00     0.188 C 
ATOM      8  N   UNL A   1      32.748  23.556  25.573  1.00  0.00    -0.301 N 
ATOM      9  C   UNL A   1      32.459  22.590  24.542  1.00  0.00     0.145 C 
BRANCH   6  10
ATOM     10  N   UNL A   1      34.929  23.801  23.135  1.00  0.00    -0.353 N 
ATOM     11  H   UNL A   1      35.911  24.022  22.973  1.00  0.00     0.344 HD
ATOM     12  H   UNL A   1      34.384  24.663  23.154  1.00  0.00     0.344 HD
ATOM     13  H   UNL A   1      34.587  23.199  22.386  1.00  0.00     0.344 HD
ENDBRANCH   6  10
BRANCH   8  14
ATOM     14  C   UNL A   1      31.929  23.720  26.647  1.00  0.00     0.410 C 
ATOM     15  O   UNL A   1      31.470  22.783  27.295  1.00  0.00    -0.224 OA
BRANCH  14  16
ATOM     16  O   UNL A   1      31.613  25.019  26.851  1.00  0.00    -0.448 OA
BRANCH  16  17
ATOM     17  C   UNL A   1      30.452  25.471  26.129  1.00  0.00     0.248 C 
BRANCH  17  18
ATOM     18  C   UNL A   1      30.783  26.767  25.363  1.00  0.00     0.088 C 
ATOM     19  C   UNL A   1      31.823  27.667  26.038  1.00  0.00    -0.029 A 
ATOM     20  C   UNL A   1      31.481  26.455  24.041  1.00  0.00    -0.029 A 
ATOM     21  C   UNL A   1      31.731  28.374  27.229  1.00  0.00     0.005 A 
ATOM     22  C   UNL A   1      32.981  27.768  25.237  1.00  0.00    -0.014 A 
ATOM     23  C   UNL A   1      32.764  27.036  24.008  1.00  0.00    -0.014 A 
ATOM     24  C   UNL A   1      30.988  25.730  22.965  1.00  0.00     0.005 A 
ATOM     25  C   UNL A   1      32.834  29.116  27.660  1.00  0.00     0.000 A 
ATOM     26  C   UNL A   1      34.073  28.512  25.658  1.00  0.00     0.009 A 
ATOM     27  C   UNL A   1      33.574  26.888  22.895  1.00  0.00     0.009 A 
ATOM     28  C   UNL A   1      31.805  25.577  21.846  1.00  0.00     0.000 A 
ATOM     29  C   UNL A   1      33.999  29.177  26.885  1.00  0.00     0.001 A 
ATOM     30  C   UNL A   1      33.087  26.150  21.811  1.00  0.00     0.001 A 
ENDBRANCH  17  18
ENDBRANCH  16  17
ENDBRANCH  14  16
ENDBRANCH   8  14
ENDBRANCH   3   5
ENDBRANCH   2   3
ENDBRANCH   1   2
BRANCH   1  31
ATOM     31  C   UNL A   1      37.517  20.154  24.640  1.00  0.00     0.275 C 
BRANCH  31  32
ATOM     32  O   UNL A   1      37.958  21.253  25.461  1.00  0.00    -0.458 OA
BRANCH  32  33
ATOM     33  C   UNL A   1      39.118  21.045  26.129  1.00  0.00     0.338 C 
ATOM     34  O   UNL A   1      39.719  19.988  26.247  1.00  0.00    -0.246 OA
BRANCH  33  35
ATOM     35  C   UNL A   1      39.683  22.331  26.575  1.00  0.00     0.060 A 
ATOM     36  C   UNL A   1      39.048  23.503  26.148  1.00  0.00     0.016 A 
ATOM     37  C   UNL A   1      40.844  22.399  27.343  1.00  0.00     0.016 A 
ATOM     38  C   UNL A   1      39.561  24.748  26.487  1.00  0.00     0.010 A 
ATOM     39  C   UNL A   1      41.371  23.653  27.674  1.00  0.00     0.010 A 
ATOM     40  C   UNL A   1      40.736  24.829  27.239  1.00  0.00    -0.014 A 
BRANCH  40  41
ATOM     41  C   UNL A   1      41.322  26.159  27.509  1.00  0.00     0.031 A 
ATOM     42  C   UNL A   1      42.697  26.478  27.001  1.00  0.00     0.074 A 
ATOM     43  C   UNL A   1      40.608  27.077  28.184  1.00  0.00     0.049 A 
ATOM     44  N   UNL A   1      43.399  27.567  27.158  1.00  0.00    -0.248 NA
ATOM     45  C   UNL A   1      43.365  25.435  26.205  1.00  0.00     0.031 C 
ATOM     46  C   UNL A   1      39.252  26.881  28.696  1.00  0.00     0.029 A 
ATOM     47  N   UNL A   1      40.933  28.351  28.572  1.00  0.00    -0.354 N 
ATOM     48  C   UNL A   1      44.608  27.332  26.515  1.00  0.00     0.074 A 
ATOM     49  C   UNL A   1      44.542  25.997  25.962  1.00  0.00     0.031 C 
ATOM     50  C   UNL A   1      38.869  27.988  29.354  1.00  0.00     0.029 A 
ATOM     51  C   UNL A   1      39.965  28.955  29.338  1.00  0.00     0.049 A 
ATOM     52  H   UNL A   1      41.779  28.792  28.325  1.00  0.00     0.167 HD
ATOM     53  C   UNL A   1      45.671  28.160  26.392  1.00  0.00     0.034 A 
ATOM     54  C   UNL A   1      39.974  30.140  29.977  1.00  0.00     0.034 A 
ATOM     55  C   UNL A   1      45.720  29.494  26.928  1.00  0.00     0.049 A 
ATOM     56  C   UNL A   1      41.185  31.025  29.850  1.00  0.00     0.074 A 
ATOM     57  C   UNL A   1      46.739  30.424  26.827  1.00  0.00     0.029 A 
ATOM     58  N   UNL A   1      44.711  30.083  27.674  1.00  0.00    -0.354 N 
ATOM     59  N   UNL A   1      42.281  30.831  29.156  1.00  0.00    -0.248 NA
ATOM     60  C   UNL A   1      41.151  32.305  30.573  1.00  0.00     0.031 C 
ATOM     61  C   UNL A   1      46.353  31.570  27.531  1.00  0.00     0.029 A 
ATOM     62  C   UNL A   1      45.086  31.361  28.051  1.00  0.00     0.049 A 
ATOM     63  H   UNL A   1      43.854  29.656  27.900  1.00  0.00     0.167 HD
ATOM     64  C   UNL A   1      43.052  31.974  29.333  1.00  0.00     0.074 A 
ATOM     65  C   UNL A   1      42.289  32.865  30.183  1.00  0.00     0.031 C 
ATOM     66  C   UNL A   1      44.288  32.255  28.851  1.00  0.00     0.034 A 
BRANCH  53  67
ATOM     67  C   UNL A   1      46.867  27.650  25.636  1.00  0.00     0.023 A 
ATOM     68  C   UNL A   1      46.937  27.826  24.239  1.00  0.00     0.012 A 
ATOM     69  C   UNL A   1      47.942  27.041  26.312  1.00  0.00     0.148 A 
ATOM     70  C   UNL A   1      48.047  27.381  23.523  1.00  0.00     0.002 A 
ATOM     71  C   UNL A   1      49.062  26.635  25.596  1.00  0.00     0.091 A 
ATOM     72  F   UNL A   1      47.844  26.858  27.636  1.00  0.00    -0.205 F 
ATOM     73  C   UNL A   1      49.113  26.796  24.202  1.00  0.00     0.022 A 
BRANCH  71  74
ATOM     74  S   UNL A   1      50.512  25.932  26.391  1.00  0.00     0.127 S 
ATOM     75  O   UNL A   1      50.846  26.970  27.366  1.00  0.00    -0.237 OA
ATOM     76  O   UNL A   1      49.981  24.699  26.971  1.00  0.00    -0.237 OA
ATOM     77  O   UNL A   1      51.491  25.731  25.331  1.00  0.00    -0.744 OA
ENDBRANCH  71  74
ENDBRANCH  53  67
BRANCH  54  78
ATOM     78  C   UNL A   1      38.789  30.566  30.772  1.00  0.00     0.023 A 
ATOM     79  C   UNL A   1      38.770  30.348  32.162  1.00  0.00     0.012 A 
ATOM     80  C   UNL A   1      37.693  31.210  30.162  1.00  0.00     0.148 A 
ATOM     81  C   UNL A   1      37.672  30.737  32.928  1.00  0.00     0.002 A 
ATOM     82  C   UNL A   1      36.626  31.644  30.939  1.00  0.00     0.091 A 
ATOM     83  F   UNL A   1      37.720  31.389  28.834  1.00  0.00    -0.205 F 
ATOM     84  C   UNL A   1      36.606  31.395  32.320  1.00  0.00     0.022 A 
BRANCH  82  85
ATOM     85  S   UNL A   1      35.274  32.611  30.257  1.00  0.00     0.127 S 
ATOM     86  O   UNL A   1      34.405  32.772  31.420  1.00  0.00    -0.237 OA
ATOM     87  O   UNL A   1      35.960  33.830  29.826  1.00  0.00    -0.237 OA
ATOM     88  O   UNL A   1      34.734  31.812  29.167  1.00  0.00    -0.744 OA
ENDBRANCH  82  85
ENDBRANCH  54  78
BRANCH  66  89
ATOM     89  C   UNL A   1      44.886  33.592  29.203  1.00  0.00     0.023 A 
ATOM     90  C   UNL A   1      45.686  33.718  30.354  1.00  0.00     0.012 A 
ATOM     91  C   UNL A   1      44.722  34.700  28.348  1.00  0.00     0.148 A 
ATOM     92  C   UNL A   1      46.289  34.936  30.667  1.00  0.00     0.002 A 
ATOM     93  C   UNL A   1      45.364  35.897  28.640  1.00  0.00     0.091 A 
ATOM     94  F   UNL A   1      43.939  34.564  27.266  1.00  0.00    -0.205 F 
ATOM     95  C   UNL A   1      46.140  36.020  29.805  1.00  0.00     0.022 A 
BRANCH  93  96
ATOM     96  S   UNL A   1      45.305  37.313  27.537  1.00  0.00     0.127 S 
ATOM     97  O   UNL A   1      43.866  37.470  27.332  1.00  0.00    -0.237 OA
ATOM     98  O   UNL A   1      45.924  38.365  28.343  1.00  0.00    -0.237 OA
ATOM     99  O   UNL A   1      46.069  36.931  26.356  1.00  0.00    -0.744 OA
ENDBRANCH  93  96
ENDBRANCH  66  89
ENDBRANCH  40  41
ENDBRANCH  33  35
ENDBRANCH  32  33
ENDBRANCH  31  32
ENDBRANCH   1  31
TORSDOF 19
ENDMDL
