MODEL 1
REMARK VINA RESULT:     -12.1      0.000      0.000
REMARK SMILES O=C(Nc1ccc2c(c1)OCO2)N[C@H]1C=C[C@@H](C(=O)OCCOC(=O)c2ccc(-c3c4nc(c(-c5cccc(S(=O)(=O)[O-])c5F)c5ccc([nH]5)c(-c5cccc(S(=O)(=O)[O-])c5F)c5nc(c(-c6cccc(S(=O)(=O)[O-])c6F)c6ccc3[nH]6)C=C5)C=C4)cc2)C1
REMARK SMILES IDX 22 1 21 2 20 3 18 4 19 5 17 6 14 7 15 8 89 9 16 10 13 11
REMARK SMILES IDX 1 12 2 13 3 14 4 17 5 18 9 19 6 20 8 21 7 22 10 23 12 24
REMARK SMILES IDX 11 25 23 26 24 27 25 28 26 29 27 30 88 31 28 32 87 33 29 34
REMARK SMILES IDX 30 35 31 36 81 37 32 38 86 39 80 40 82 41 33 42 85 43 79 44
REMARK SMILES IDX 78 45 34 47 66 48 46 49 65 50 47 51 50 52 64 53 83 54 48 55
REMARK SMILES IDX 49 56 63 58 84 59 51 60 35 61 36 62 44 63 37 64 39 65 45 66
REMARK SMILES IDX 38 67 40 68 41 69 42 70 43 71 67 72 68 73 76 74 69 75 71 76
REMARK SMILES IDX 77 77 70 78 72 79 73 80 74 81 75 82 52 83 53 84 61 85 54 86
REMARK SMILES IDX 56 87 62 88 55 89 57 90 58 91 59 92 60 93
REMARK H PARENT 3 15 13 16 82 46 50 57
REMARK Flexibility Score: inf
ROOT
ATOM      1  C   UNL A   1      39.244  19.641  25.922  1.00  0.00     0.275 C 
ENDROOT
BRANCH   1   2
ATOM      2  C   UNL A   1      38.377  20.472  24.970  1.00  0.00     0.274 C 
BRANCH   2   3
ATOM      3  O   UNL A   1      37.530  21.373  25.710  1.00  0.00    -0.462 OA
BRANCH   3   4
ATOM      4  C   UNL A   1      37.915  22.676  25.753  1.00  0.00     0.312 C 
ATOM      5  O   UNL A   1      38.881  23.089  26.385  1.00  0.00    -0.252 OA
BRANCH   4   6
ATOM      6  C   UNL A   1      37.011  23.607  24.952  1.00  0.00     0.124 C 
ATOM      7  C   UNL A   1      34.954  23.587  23.608  1.00  0.00     0.107 C 
ATOM      8  C   UNL A   1      34.704  24.024  25.014  1.00  0.00    -0.006 C 
ATOM      9  C   UNL A   1      36.398  23.065  23.653  1.00  0.00     0.048 C 
ATOM     10  C   UNL A   1      35.818  24.026  25.753  1.00  0.00    -0.014 C 
BRANCH   7  11
ATOM     11  N   UNL A   1      34.022  22.536  23.305  1.00  0.00    -0.332 N 
ATOM     12  O   UNL A   1      32.190  23.843  22.910  1.00  0.00    -0.248 OA
ATOM     13  C   UNL A   1      32.705  22.735  23.026  1.00  0.00     0.319 C 
ATOM     14  N   UNL A   1      31.973  21.607  22.769  1.00  0.00    -0.308 N 
ATOM     15  H   UNL A   1      31.134  21.756  22.277  1.00  0.00     0.171 HD
ATOM     16  H   UNL A   1      34.359  21.610  23.297  1.00  0.00     0.165 HD
BRANCH  14  17
ATOM     17  C   UNL A   1      32.241  20.270  23.104  1.00  0.00     0.046 A 
ATOM     18  C   UNL A   1      32.390  19.262  22.124  1.00  0.00     0.030 A 
ATOM     19  C   UNL A   1      32.378  19.950  24.458  1.00  0.00     0.076 A 
ATOM     20  C   UNL A   1      32.593  17.928  22.488  1.00  0.00     0.053 A 
ATOM     21  C   UNL A   1      32.554  18.623  24.787  1.00  0.00     0.167 A 
ATOM     22  C   UNL A   1      32.650  17.639  23.831  1.00  0.00     0.165 A 
ATOM     23  O   UNL A   1      32.627  18.122  26.051  1.00  0.00    -0.454 OA
ATOM     24  O   UNL A   1      32.798  16.400  24.371  1.00  0.00    -0.454 OA
ATOM     25  C   UNL A   1      32.698  16.707  25.776  1.00  0.00     0.468 C 
ENDBRANCH  14  17
ENDBRANCH   7  11
ENDBRANCH   4   6
ENDBRANCH   3   4
ENDBRANCH   2   3
ENDBRANCH   1   2
BRANCH   1  26
ATOM     26  O   UNL A   1      40.579  19.471  25.412  1.00  0.00    -0.458 OA
BRANCH  26  27
ATOM     27  C   UNL A   1      41.563  19.612  26.331  1.00  0.00     0.338 C 
ATOM     28  O   UNL A   1      42.296  18.740  26.765  1.00  0.00    -0.246 OA
BRANCH  27  29
ATOM     29  C   UNL A   1      41.744  21.035  26.656  1.00  0.00     0.060 A 
ATOM     30  C   UNL A   1      42.017  21.912  25.604  1.00  0.00     0.016 A 
ATOM     31  C   UNL A   1      41.737  21.490  27.976  1.00  0.00     0.016 A 
ATOM     32  C   UNL A   1      42.295  23.250  25.863  1.00  0.00     0.010 A 
ATOM     33  C   UNL A   1      42.016  22.836  28.236  1.00  0.00     0.010 A 
ATOM     34  C   UNL A   1      42.311  23.720  27.182  1.00  0.00    -0.014 A 
BRANCH  34  35
ATOM     35  C   UNL A   1      42.684  25.129  27.449  1.00  0.00     0.031 A 
ATOM     36  C   UNL A   1      44.046  25.631  27.059  1.00  0.00     0.074 A 
ATOM     37  C   UNL A   1      41.793  25.959  28.023  1.00  0.00     0.049 A 
ATOM     38  N   UNL A   1      44.576  26.810  27.249  1.00  0.00    -0.248 NA
ATOM     39  C   UNL A   1      44.927  24.680  26.361  1.00  0.00     0.031 C 
ATOM     40  C   UNL A   1      40.438  25.587  28.433  1.00  0.00     0.029 A 
ATOM     41  N   UNL A   1      41.899  27.281  28.375  1.00  0.00    -0.354 N 
ATOM     42  C   UNL A   1      45.859  26.740  26.720  1.00  0.00     0.074 A 
ATOM     43  C   UNL A   1      46.032  25.397  26.210  1.00  0.00     0.031 C 
ATOM     44  C   UNL A   1      39.845  26.652  28.999  1.00  0.00     0.029 A 
ATOM     45  C   UNL A   1      40.786  27.768  29.019  1.00  0.00     0.049 A 
ATOM     46  H   UNL A   1      42.696  27.827  28.185  1.00  0.00     0.167 HD
ATOM     47  C   UNL A   1      46.799  27.712  26.649  1.00  0.00     0.034 A 
ATOM     48  C   UNL A   1      40.560  28.972  29.580  1.00  0.00     0.034 A 
ATOM     49  C   UNL A   1      46.614  29.054  27.134  1.00  0.00     0.049 A 
ATOM     50  C   UNL A   1      41.628  30.029  29.498  1.00  0.00     0.074 A 
ATOM     51  C   UNL A   1      47.506  30.111  27.104  1.00  0.00     0.029 A 
ATOM     52  N   UNL A   1      45.454  29.525  27.730  1.00  0.00    -0.354 N 
ATOM     53  N   UNL A   1      42.806  29.969  28.923  1.00  0.00    -0.248 NA
ATOM     54  C   UNL A   1      41.327  31.329  30.115  1.00  0.00     0.031 C 
ATOM     55  C   UNL A   1      46.885  31.223  27.686  1.00  0.00     0.029 A 
ATOM     56  C   UNL A   1      45.605  30.860  28.068  1.00  0.00     0.049 A 
ATOM     57  H   UNL A   1      44.643  28.990  27.889  1.00  0.00     0.167 HD
ATOM     58  C   UNL A   1      43.373  31.227  29.087  1.00  0.00     0.074 A 
ATOM     59  C   UNL A   1      42.399  32.037  29.789  1.00  0.00     0.031 C 
ATOM     60  C   UNL A   1      44.600  31.667  28.711  1.00  0.00     0.034 A 
BRANCH  47  61
ATOM     61  C   UNL A   1      48.103  27.373  25.979  1.00  0.00     0.023 A 
ATOM     62  C   UNL A   1      49.147  26.819  26.747  1.00  0.00     0.012 A 
ATOM     63  C   UNL A   1      48.278  27.540  24.591  1.00  0.00     0.148 A 
ATOM     64  C   UNL A   1      50.354  26.458  26.149  1.00  0.00     0.002 A 
ATOM     65  C   UNL A   1      49.471  27.145  23.996  1.00  0.00     0.091 A 
ATOM     66  F   UNL A   1      47.281  28.090  23.883  1.00  0.00    -0.205 F 
ATOM     67  C   UNL A   1      50.511  26.611  24.773  1.00  0.00     0.022 A 
BRANCH  65  68
ATOM     68  S   UNL A   1      49.747  27.243  22.223  1.00  0.00     0.127 S 
ATOM     69  O   UNL A   1      51.137  26.803  22.116  1.00  0.00    -0.237 OA
ATOM     70  O   UNL A   1      48.765  26.289  21.704  1.00  0.00    -0.237 OA
ATOM     71  O   UNL A   1      49.498  28.629  21.855  1.00  0.00    -0.744 OA
ENDBRANCH  65  68
ENDBRANCH  47  61
BRANCH  48  72
ATOM     72  C   UNL A   1      39.255  29.251  30.242  1.00  0.00     0.023 A 
ATOM     73  C   UNL A   1      38.990  28.711  31.515  1.00  0.00     0.012 A 
ATOM     74  C   UNL A   1      38.283  30.065  29.627  1.00  0.00     0.148 A 
ATOM     75  C   UNL A   1      37.771  28.953  32.150  1.00  0.00     0.002 A 
ATOM     76  C   UNL A   1      37.094  30.348  30.291  1.00  0.00     0.091 A 
ATOM     77  F   UNL A   1      38.537  30.551  28.403  1.00  0.00    -0.205 F 
ATOM     78  C   UNL A   1      36.829  29.781  31.546  1.00  0.00     0.022 A 
BRANCH  76  79
ATOM     79  S   UNL A   1      35.900  31.515  29.627  1.00  0.00     0.127 S 
ATOM     80  O   UNL A   1      35.063  31.785  30.793  1.00  0.00    -0.237 OA
ATOM     81  O   UNL A   1      36.751  32.630  29.209  1.00  0.00    -0.237 OA
ATOM     82  O   UNL A   1      35.258  30.813  28.523  1.00  0.00    -0.744 OA
ENDBRANCH  76  79
ENDBRANCH  48  72
BRANCH  60  83
ATOM     83  C   UNL A   1      44.952  33.096  29.028  1.00  0.00     0.023 A 
ATOM     84  C   UNL A   1      45.555  33.403  30.263  1.00  0.00     0.012 A 
ATOM     85  C   UNL A   1      44.755  34.118  28.079  1.00  0.00     0.148 A 
ATOM     86  C   UNL A   1      45.930  34.712  30.562  1.00  0.00     0.002 A 
ATOM     87  C   UNL A   1      45.168  35.413  28.368  1.00  0.00     0.091 A 
ATOM     88  F   UNL A   1      44.160  33.808  26.918  1.00  0.00    -0.205 F 
ATOM     89  C   UNL A   1      45.747  35.715  29.612  1.00  0.00     0.022 A 
BRANCH  87  90
ATOM     90  S   UNL A   1      45.049  36.746  27.169  1.00  0.00     0.127 S 
ATOM     91  O   UNL A   1      45.961  36.290  26.123  1.00  0.00    -0.237 OA
ATOM     92  O   UNL A   1      43.632  36.711  26.801  1.00  0.00    -0.237 OA
ATOM     93  O   UNL A   1      45.454  37.953  27.876  1.00  0.00    -0.744 OA
ENDBRANCH  87  90
ENDBRANCH  60  83
ENDBRANCH  34  35
ENDBRANCH  27  29
ENDBRANCH  26  27
ENDBRANCH   1  26
TORSDOF 16
ENDMDL
MODEL 2
REMARK VINA RESULT:     -12.0      2.191      8.346
REMARK SMILES O=C(Nc1ccc2c(c1)OCO2)N[C@H]1C=C[C@@H](C(=O)OCCOC(=O)c2ccc(-c3c4nc(c(-c5cccc(S(=O)(=O)[O-])c5F)c5ccc([nH]5)c(-c5cccc(S(=O)(=O)[O-])c5F)c5nc(c(-c6cccc(S(=O)(=O)[O-])c6F)c6ccc3[nH]6)C=C5)C=C4)cc2)C1
REMARK SMILES IDX 22 1 21 2 20 3 18 4 19 5 17 6 14 7 15 8 89 9 16 10 13 11
REMARK SMILES IDX 1 12 2 13 3 14 4 17 5 18 9 19 6 20 8 21 7 22 10 23 12 24
REMARK SMILES IDX 11 25 23 26 24 27 25 28 26 29 27 30 88 31 28 32 87 33 29 34
REMARK SMILES IDX 30 35 31 36 81 37 32 38 86 39 80 40 82 41 33 42 85 43 79 44
REMARK SMILES IDX 78 45 34 47 66 48 46 49 65 50 47 51 50 52 64 53 83 54 48 55
REMARK SMILES IDX 49 56 63 58 84 59 51 60 35 61 36 62 44 63 37 64 39 65 45 66
REMARK SMILES IDX 38 67 40 68 41 69 42 70 43 71 67 72 68 73 76 74 69 75 71 76
REMARK SMILES IDX 77 77 70 78 72 79 73 80 74 81 75 82 52 83 53 84 61 85 54 86
REMARK SMILES IDX 56 87 62 88 55 89 57 90 58 91 59 92 60 93
REMARK H PARENT 3 15 13 16 82 46 50 57
REMARK Flexibility Score: inf
ROOT
ATOM      1  C   UNL A   1      38.319  19.594  25.080  1.00  0.00     0.275 C 
ENDROOT
BRANCH   1   2
ATOM      2  C   UNL A   1      36.797  19.711  24.961  1.00  0.00     0.274 C 
BRANCH   2   3
ATOM      3  O   UNL A   1      36.416  21.054  24.602  1.00  0.00    -0.462 OA
BRANCH   3   4
ATOM      4  C   UNL A   1      35.591  21.705  25.463  1.00  0.00     0.312 C 
ATOM      5  O   UNL A   1      35.942  22.624  26.195  1.00  0.00    -0.252 OA
BRANCH   4   6
ATOM      6  C   UNL A   1      34.162  21.168  25.464  1.00  0.00     0.124 C 
ATOM      7  C   UNL A   1      31.838  21.917  25.733  1.00  0.00     0.107 C 
ATOM      8  C   UNL A   1      32.228  21.796  24.296  1.00  0.00    -0.006 C 
ATOM      9  C   UNL A   1      33.176  21.768  26.475  1.00  0.00     0.048 C 
ATOM     10  C   UNL A   1      33.495  21.400  24.144  1.00  0.00    -0.014 C 
BRANCH   7  11
ATOM     11  N   UNL A   1      31.273  23.225  25.924  1.00  0.00    -0.332 N 
ATOM     12  O   UNL A   1      29.436  22.600  27.132  1.00  0.00    -0.248 OA
ATOM     13  C   UNL A   1      30.096  23.466  26.564  1.00  0.00     0.319 C 
ATOM     14  N   UNL A   1      29.717  24.779  26.640  1.00  0.00    -0.308 N 
ATOM     15  H   UNL A   1      29.061  24.985  27.345  1.00  0.00     0.171 HD
ATOM     16  H   UNL A   1      31.769  23.998  25.569  1.00  0.00     0.165 HD
BRANCH  14  17
ATOM     17  C   UNL A   1      30.125  25.876  25.863  1.00  0.00     0.046 A 
ATOM     18  C   UNL A   1      29.580  26.140  24.586  1.00  0.00     0.030 A 
ATOM     19  C   UNL A   1      31.093  26.731  26.398  1.00  0.00     0.076 A 
ATOM     20  C   UNL A   1      30.050  27.202  23.808  1.00  0.00     0.053 A 
ATOM     21  C   UNL A   1      31.554  27.755  25.598  1.00  0.00     0.167 A 
ATOM     22  C   UNL A   1      31.054  27.979  24.336  1.00  0.00     0.165 A 
ATOM     23  O   UNL A   1      32.544  28.631  25.923  1.00  0.00    -0.454 OA
ATOM     24  O   UNL A   1      31.662  29.022  23.713  1.00  0.00    -0.454 OA
ATOM     25  C   UNL A   1      32.661  29.374  24.691  1.00  0.00     0.468 C 
ENDBRANCH  14  17
ENDBRANCH   7  11
ENDBRANCH   4   6
ENDBRANCH   3   4
ENDBRANCH   2   3
ENDBRANCH   1   2
BRANCH   1  26
ATOM     26  O   UNL A   1      38.912  20.822  25.541  1.00  0.00    -0.458 OA
BRANCH  26  27
ATOM     27  C   UNL A   1      39.918  20.669  26.434  1.00  0.00     0.338 C 
ATOM     28  O   UNL A   1      40.476  19.630  26.745  1.00  0.00    -0.246 OA
BRANCH  27  29
ATOM     29  C   UNL A   1      40.377  21.986  26.903  1.00  0.00     0.060 A 
ATOM     30  C   UNL A   1      39.938  23.113  26.204  1.00  0.00     0.016 A 
ATOM     31  C   UNL A   1      41.291  22.112  27.950  1.00  0.00     0.016 A 
ATOM     32  C   UNL A   1      40.416  24.375  26.540  1.00  0.00     0.010 A 
ATOM     33  C   UNL A   1      41.772  23.381  28.288  1.00  0.00     0.010 A 
ATOM     34  C   UNL A   1      41.349  24.517  27.576  1.00  0.00    -0.014 A 
BRANCH  34  35
ATOM     35  C   UNL A   1      41.909  25.858  27.872  1.00  0.00     0.031 A 
ATOM     36  C   UNL A   1      41.055  26.894  28.547  1.00  0.00     0.074 A 
ATOM     37  C   UNL A   1      43.187  26.133  27.552  1.00  0.00     0.049 A 
ATOM     38  N   UNL A   1      41.344  28.132  28.847  1.00  0.00    -0.248 NA
ATOM     39  C   UNL A   1      39.697  26.481  28.938  1.00  0.00     0.031 C 
ATOM     40  C   UNL A   1      44.113  25.202  26.906  1.00  0.00     0.029 A 
ATOM     41  N   UNL A   1      43.921  27.281  27.712  1.00  0.00    -0.354 N 
ATOM     42  C   UNL A   1      40.201  28.658  29.437  1.00  0.00     0.074 A 
ATOM     43  C   UNL A   1      39.208  27.605  29.444  1.00  0.00     0.031 C 
ATOM     44  C   UNL A   1      45.288  25.822  26.707  1.00  0.00     0.029 A 
ATOM     45  C   UNL A   1      45.188  27.200  27.182  1.00  0.00     0.049 A 
ATOM     46  H   UNL A   1      43.575  28.085  28.162  1.00  0.00     0.167 HD
ATOM     47  C   UNL A   1      40.005  29.898  29.945  1.00  0.00     0.034 A 
ATOM     48  C   UNL A   1      46.149  28.137  27.073  1.00  0.00     0.034 A 
ATOM     49  C   UNL A   1      41.003  30.933  29.961  1.00  0.00     0.049 A 
ATOM     50  C   UNL A   1      45.898  29.511  27.634  1.00  0.00     0.074 A 
ATOM     51  C   UNL A   1      40.900  32.221  30.456  1.00  0.00     0.029 A 
ATOM     52  N   UNL A   1      42.291  30.797  29.465  1.00  0.00    -0.354 N 
ATOM     53  N   UNL A   1      44.839  29.965  28.260  1.00  0.00    -0.248 NA
ATOM     54  C   UNL A   1      46.984  30.493  27.501  1.00  0.00     0.031 C 
ATOM     55  C   UNL A   1      42.127  32.865  30.256  1.00  0.00     0.029 A 
ATOM     56  C   UNL A   1      42.995  31.975  29.646  1.00  0.00     0.049 A 
ATOM     57  H   UNL A   1      42.651  29.982  29.045  1.00  0.00     0.167 HD
ATOM     58  C   UNL A   1      45.140  31.274  28.617  1.00  0.00     0.074 A 
ATOM     59  C   UNL A   1      46.491  31.531  28.163  1.00  0.00     0.031 C 
ATOM     60  C   UNL A   1      44.361  32.191  29.243  1.00  0.00     0.034 A 
BRANCH  47  61
ATOM     61  C   UNL A   1      38.668  30.191  30.571  1.00  0.00     0.023 A 
ATOM     62  C   UNL A   1      38.414  29.755  31.886  1.00  0.00     0.012 A 
ATOM     63  C   UNL A   1      37.691  30.945  29.891  1.00  0.00     0.148 A 
ATOM     64  C   UNL A   1      37.200  30.044  32.509  1.00  0.00     0.002 A 
ATOM     65  C   UNL A   1      36.498  31.260  30.530  1.00  0.00     0.091 A 
ATOM     66  F   UNL A   1      37.944  31.330  28.631  1.00  0.00    -0.205 F 
ATOM     67  C   UNL A   1      36.247  30.804  31.835  1.00  0.00     0.022 A 
BRANCH  65  68
ATOM     68  S   UNL A   1      35.234  32.286  29.770  1.00  0.00     0.127 S 
ATOM     69  O   UNL A   1      34.320  32.508  30.890  1.00  0.00    -0.237 OA
ATOM     70  O   UNL A   1      35.998  33.467  29.364  1.00  0.00    -0.237 OA
ATOM     71  O   UNL A   1      34.694  31.506  28.666  1.00  0.00    -0.744 OA
ENDBRANCH  65  68
ENDBRANCH  47  61
BRANCH  48  72
ATOM     72  C   UNL A   1      47.451  27.797  26.433  1.00  0.00     0.023 A 
ATOM     73  C   UNL A   1      48.550  27.441  27.238  1.00  0.00     0.012 A 
ATOM     74  C   UNL A   1      47.601  27.802  25.032  1.00  0.00     0.148 A 
ATOM     75  C   UNL A   1      49.781  27.126  26.660  1.00  0.00     0.002 A 
ATOM     76  C   UNL A   1      48.814  27.432  24.462  1.00  0.00     0.091 A 
ATOM     77  F   UNL A   1      46.553  28.169  24.279  1.00  0.00    -0.205 F 
ATOM     78  C   UNL A   1      49.911  27.109  25.274  1.00  0.00     0.022 A 
BRANCH  76  79
ATOM     79  S   UNL A   1      49.004  27.258  22.684  1.00  0.00     0.127 S 
ATOM     80  O   UNL A   1      50.457  27.266  22.535  1.00  0.00    -0.237 OA
ATOM     81  O   UNL A   1      48.366  25.967  22.426  1.00  0.00    -0.237 OA
ATOM     82  O   UNL A   1      48.293  28.395  22.114  1.00  0.00    -0.744 OA
ENDBRANCH  76  79
ENDBRANCH  48  72
BRANCH  60  83
ATOM     83  C   UNL A   1      44.956  33.550  29.498  1.00  0.00     0.023 A 
ATOM     84  C   UNL A   1      45.694  33.773  30.677  1.00  0.00     0.012 A 
ATOM     85  C   UNL A   1      44.846  34.579  28.543  1.00  0.00     0.148 A 
ATOM     86  C   UNL A   1      46.290  35.010  30.916  1.00  0.00     0.002 A 
ATOM     87  C   UNL A   1      45.478  35.797  28.770  1.00  0.00     0.091 A 
ATOM     88  F   UNL A   1      44.121  34.354  27.438  1.00  0.00    -0.205 F 
ATOM     89  C   UNL A   1      46.191  36.018  29.959  1.00  0.00     0.022 A 
BRANCH  87  90
ATOM     90  S   UNL A   1      45.474  37.118  27.552  1.00  0.00     0.127 S 
ATOM     91  O   UNL A   1      44.048  37.251  27.260  1.00  0.00    -0.237 OA
ATOM     92  O   UNL A   1      46.051  38.237  28.300  1.00  0.00    -0.237 OA
ATOM     93  O   UNL A   1      46.301  36.644  26.451  1.00  0.00    -0.744 OA
ENDBRANCH  87  90
ENDBRANCH  60  83
ENDBRANCH  34  35
ENDBRANCH  27  29
ENDBRANCH  26  27
ENDBRANCH   1  26
TORSDOF 16
ENDMDL
MODEL 3
REMARK VINA RESULT:     -12.0      2.214      3.564
REMARK SMILES O=C(Nc1ccc2c(c1)OCO2)N[C@H]1C=C[C@@H](C(=O)OCCOC(=O)c2ccc(-c3c4nc(c(-c5cccc(S(=O)(=O)[O-])c5F)c5ccc([nH]5)c(-c5cccc(S(=O)(=O)[O-])c5F)c5nc(c(-c6cccc(S(=O)(=O)[O-])c6F)c6ccc3[nH]6)C=C5)C=C4)cc2)C1
REMARK SMILES IDX 22 1 21 2 20 3 18 4 19 5 17 6 14 7 15 8 89 9 16 10 13 11
REMARK SMILES IDX 1 12 2 13 3 14 4 17 5 18 9 19 6 20 8 21 7 22 10 23 12 24
REMARK SMILES IDX 11 25 23 26 24 27 25 28 26 29 27 30 88 31 28 32 87 33 29 34
REMARK SMILES IDX 30 35 31 36 81 37 32 38 86 39 80 40 82 41 33 42 85 43 79 44
REMARK SMILES IDX 78 45 34 47 66 48 46 49 65 50 47 51 50 52 64 53 83 54 48 55
REMARK SMILES IDX 49 56 63 58 84 59 51 60 35 61 36 62 44 63 37 64 39 65 45 66
REMARK SMILES IDX 38 67 40 68 41 69 42 70 43 71 67 72 68 73 76 74 69 75 71 76
REMARK SMILES IDX 77 77 70 78 72 79 73 80 74 81 75 82 52 83 53 84 61 85 54 86
REMARK SMILES IDX 56 87 62 88 55 89 57 90 58 91 59 92 60 93
REMARK H PARENT 3 15 13 16 82 46 50 57
REMARK Flexibility Score: inf
ROOT
ATOM      1  C   UNL A   1      38.764  19.853  25.470  1.00  0.00     0.275 C 
ENDROOT
BRANCH   1   2
ATOM      2  C   UNL A   1      37.718  20.797  24.873  1.00  0.00     0.274 C 
BRANCH   2   3
ATOM      3  O   UNL A   1      36.634  21.008  25.799  1.00  0.00    -0.462 OA
BRANCH   3   4
ATOM      4  C   UNL A   1      35.668  21.885  25.418  1.00  0.00     0.312 C 
ATOM      5  O   UNL A   1      35.887  23.025  25.024  1.00  0.00    -0.252 OA
BRANCH   4   6
ATOM      6  C   UNL A   1      34.253  21.330  25.551  1.00  0.00     0.124 C 
ATOM      7  C   UNL A   1      31.926  22.071  25.823  1.00  0.00     0.107 C 
ATOM      8  C   UNL A   1      32.258  21.772  24.398  1.00  0.00    -0.006 C 
ATOM      9  C   UNL A   1      33.296  22.040  26.518  1.00  0.00     0.048 C 
ATOM     10  C   UNL A   1      33.526  21.379  24.242  1.00  0.00    -0.014 C 
BRANCH   7  11
ATOM     11  N   UNL A   1      31.341  23.383  25.869  1.00  0.00    -0.332 N 
ATOM     12  O   UNL A   1      29.802  22.984  27.510  1.00  0.00    -0.248 OA
ATOM     13  C   UNL A   1      30.297  23.730  26.670  1.00  0.00     0.319 C 
ATOM     14  N   UNL A   1      29.873  25.028  26.569  1.00  0.00    -0.308 N 
ATOM     15  H   UNL A   1      29.354  25.359  27.336  1.00  0.00     0.171 HD
ATOM     16  H   UNL A   1      31.722  24.078  25.284  1.00  0.00     0.165 HD
BRANCH  14  17
ATOM     17  C   UNL A   1      30.070  25.956  25.533  1.00  0.00     0.046 A 
ATOM     18  C   UNL A   1      29.134  26.131  24.489  1.00  0.00     0.030 A 
ATOM     19  C   UNL A   1      31.231  26.734  25.565  1.00  0.00     0.076 A 
ATOM     20  C   UNL A   1      29.385  27.016  23.436  1.00  0.00     0.053 A 
ATOM     21  C   UNL A   1      31.464  27.581  24.502  1.00  0.00     0.167 A 
ATOM     22  C   UNL A   1      30.572  27.712  23.463  1.00  0.00     0.165 A 
ATOM     23  O   UNL A   1      32.573  28.351  24.329  1.00  0.00    -0.454 OA
ATOM     24  O   UNL A   1      31.005  28.580  22.511  1.00  0.00    -0.454 OA
ATOM     25  C   UNL A   1      32.309  28.914  23.027  1.00  0.00     0.468 C 
ENDBRANCH  14  17
ENDBRANCH   7  11
ENDBRANCH   4   6
ENDBRANCH   3   4
ENDBRANCH   2   3
ENDBRANCH   1   2
BRANCH   1  26
ATOM     26  O   UNL A   1      40.038  20.505  25.632  1.00  0.00    -0.458 OA
BRANCH  26  27
ATOM     27  C   UNL A   1      40.512  20.522  26.900  1.00  0.00     0.338 C 
ATOM     28  O   UNL A   1      40.767  19.560  27.605  1.00  0.00    -0.246 OA
BRANCH  27  29
ATOM     29  C   UNL A   1      40.832  21.902  27.296  1.00  0.00     0.060 A 
ATOM     30  C   UNL A   1      40.337  22.938  26.500  1.00  0.00     0.016 A 
ATOM     31  C   UNL A   1      41.676  22.177  28.373  1.00  0.00     0.016 A 
ATOM     32  C   UNL A   1      40.688  24.257  26.768  1.00  0.00     0.010 A 
ATOM     33  C   UNL A   1      42.029  23.504  28.643  1.00  0.00     0.010 A 
ATOM     34  C   UNL A   1      41.550  24.549  27.833  1.00  0.00    -0.014 A 
BRANCH  34  35
ATOM     35  C   UNL A   1      41.978  25.950  28.060  1.00  0.00     0.031 A 
ATOM     36  C   UNL A   1      43.360  26.385  27.662  1.00  0.00     0.074 A 
ATOM     37  C   UNL A   1      41.118  26.831  28.605  1.00  0.00     0.049 A 
ATOM     38  N   UNL A   1      43.936  27.547  27.820  1.00  0.00    -0.248 NA
ATOM     39  C   UNL A   1      44.205  25.380  26.997  1.00  0.00     0.031 C 
ATOM     40  C   UNL A   1      39.748  26.525  29.019  1.00  0.00     0.029 A 
ATOM     41  N   UNL A   1      41.276  28.157  28.919  1.00  0.00    -0.354 N 
ATOM     42  C   UNL A   1      45.217  27.411  27.300  1.00  0.00     0.074 A 
ATOM     43  C   UNL A   1      45.339  26.047  26.830  1.00  0.00     0.031 C 
ATOM     44  C   UNL A   1      39.196  27.628  29.551  1.00  0.00     0.029 A 
ATOM     45  C   UNL A   1      40.180  28.707  29.543  1.00  0.00     0.049 A 
ATOM     46  H   UNL A   1      42.094  28.665  28.717  1.00  0.00     0.167 HD
ATOM     47  C   UNL A   1      46.195  28.343  27.205  1.00  0.00     0.034 A 
ATOM     48  C   UNL A   1      40.000  29.934  30.067  1.00  0.00     0.034 A 
ATOM     49  C   UNL A   1      46.062  29.704  27.649  1.00  0.00     0.049 A 
ATOM     50  C   UNL A   1      41.110  30.945  29.959  1.00  0.00     0.074 A 
ATOM     51  C   UNL A   1      46.995  30.724  27.593  1.00  0.00     0.029 A 
ATOM     52  N   UNL A   1      44.919  30.239  28.225  1.00  0.00    -0.354 N 
ATOM     53  N   UNL A   1      42.286  30.822  29.393  1.00  0.00    -0.248 NA
ATOM     54  C   UNL A   1      40.858  32.274  30.536  1.00  0.00     0.031 C 
ATOM     55  C   UNL A   1      46.417  31.876  28.139  1.00  0.00     0.029 A 
ATOM     56  C   UNL A   1      45.122  31.575  28.525  1.00  0.00     0.049 A 
ATOM     57  H   UNL A   1      44.087  29.741  28.397  1.00  0.00     0.167 HD
ATOM     58  C   UNL A   1      42.903  32.061  29.521  1.00  0.00     0.074 A 
ATOM     59  C   UNL A   1      41.959  32.929  30.195  1.00  0.00     0.031 C 
ATOM     60  C   UNL A   1      44.147  32.441  29.139  1.00  0.00     0.034 A 
BRANCH  47  61
ATOM     61  C   UNL A   1      47.487  27.932  26.551  1.00  0.00     0.023 A 
ATOM     62  C   UNL A   1      48.570  27.532  27.360  1.00  0.00     0.012 A 
ATOM     63  C   UNL A   1      47.614  27.881  25.149  1.00  0.00     0.148 A 
ATOM     64  C   UNL A   1      49.767  27.109  26.784  1.00  0.00     0.002 A 
ATOM     65  C   UNL A   1      48.799  27.424  24.583  1.00  0.00     0.091 A 
ATOM     66  F   UNL A   1      46.580  28.288  24.398  1.00  0.00    -0.205 F 
ATOM     67  C   UNL A   1      49.878  27.045  25.398  1.00  0.00     0.022 A 
BRANCH  65  68
ATOM     68  S   UNL A   1      49.017  27.246  22.808  1.00  0.00     0.127 S 
ATOM     69  O   UNL A   1      50.473  27.168  22.696  1.00  0.00    -0.237 OA
ATOM     70  O   UNL A   1      48.318  25.990  22.535  1.00  0.00    -0.237 OA
ATOM     71  O   UNL A   1      48.405  28.423  22.208  1.00  0.00    -0.744 OA
ENDBRANCH  65  68
ENDBRANCH  47  61
BRANCH  48  72
ATOM     72  C   UNL A   1      38.705  30.285  30.714  1.00  0.00     0.023 A 
ATOM     73  C   UNL A   1      38.472  29.913  32.052  1.00  0.00     0.012 A 
ATOM     74  C   UNL A   1      37.711  31.002  30.019  1.00  0.00     0.148 A 
ATOM     75  C   UNL A   1      37.263  30.224  32.676  1.00  0.00     0.002 A 
ATOM     76  C   UNL A   1      36.532  31.357  30.665  1.00  0.00     0.091 A 
ATOM     77  F   UNL A   1      37.935  31.325  28.737  1.00  0.00    -0.205 F 
ATOM     78  C   UNL A   1      36.298  30.956  31.988  1.00  0.00     0.022 A 
BRANCH  76  79
ATOM     79  S   UNL A   1      35.310  32.415  29.880  1.00  0.00     0.127 S 
ATOM     80  O   UNL A   1      34.328  32.585  30.947  1.00  0.00    -0.237 OA
ATOM     81  O   UNL A   1      36.089  33.612  29.564  1.00  0.00    -0.237 OA
ATOM     82  O   UNL A   1      34.864  31.673  28.708  1.00  0.00    -0.744 OA
ENDBRANCH  76  79
ENDBRANCH  48  72
BRANCH  60  83
ATOM     83  C   UNL A   1      44.555  33.863  29.416  1.00  0.00     0.023 A 
ATOM     84  C   UNL A   1      45.265  34.164  30.595  1.00  0.00     0.012 A 
ATOM     85  C   UNL A   1      44.302  34.884  28.479  1.00  0.00     0.148 A 
ATOM     86  C   UNL A   1      45.690  35.466  30.852  1.00  0.00     0.002 A 
ATOM     87  C   UNL A   1      44.766  36.172  28.724  1.00  0.00     0.091 A 
ATOM     88  F   UNL A   1      43.607  34.582  27.374  1.00  0.00    -0.205 F 
ATOM     89  C   UNL A   1      45.451  36.467  29.913  1.00  0.00     0.022 A 
BRANCH  87  90
ATOM     90  S   UNL A   1      44.576  37.500  27.529  1.00  0.00     0.127 S 
ATOM     91  O   UNL A   1      45.641  37.200  26.576  1.00  0.00    -0.237 OA
ATOM     92  O   UNL A   1      43.220  37.275  27.022  1.00  0.00    -0.237 OA
ATOM     93  O   UNL A   1      44.735  38.737  28.283  1.00  0.00    -0.744 OA
ENDBRANCH  87  90
ENDBRANCH  60  83
ENDBRANCH  34  35
ENDBRANCH  27  29
ENDBRANCH  26  27
ENDBRANCH   1  26
TORSDOF 16
ENDMDL
