MODEL 1
REMARK VINA RESULT:      -9.4      0.000      0.000
REMARK SMILES CC(C)Cc1ccc([C@H](CF)C(=O)OCCOC(=O)c2ccc(-c3c4nc(c(-c5cccc(S(=O)(=O)[O-])c5F)c5ccc([nH]5)c(-c5cccc(S(=O)(=O)[O-])c5F)c5nc(c(-c6cccc(S(=O)(=O)[O-])c6F)c6ccc3[nH]6)C=C5)C=C4)cc2)cc1
REMARK SMILES IDX 15 1 14 2 12 3 13 4 9 5 8 6 5 7 6 8 84 9 7 10 83 11 4 12
REMARK SMILES IDX 2 13 1 14 3 15 10 16 11 17 16 18 17 19 18 20 19 21 20 22
REMARK SMILES IDX 21 23 82 24 22 25 81 26 23 27 24 28 25 29 75 30 26 31 80 32
REMARK SMILES IDX 74 33 76 34 27 35 79 36 73 37 72 38 28 40 60 41 40 42 59 43
REMARK SMILES IDX 41 44 44 45 58 46 77 47 42 48 43 49 57 51 78 52 45 53 29 54
REMARK SMILES IDX 30 55 38 56 31 57 33 58 39 59 32 60 34 61 35 62 36 63 37 64
REMARK SMILES IDX 61 65 62 66 70 67 63 68 65 69 71 70 64 71 66 72 67 73 68 74
REMARK SMILES IDX 69 75 46 76 47 77 55 78 48 79 50 80 56 81 49 82 51 83 52 84
REMARK SMILES IDX 53 85 54 86
REMARK H PARENT 76 39 44 50
REMARK Flexibility Score: inf
ROOT
ATOM      1  C   UNL A   1      33.306  35.260  29.204  1.00  0.00     0.274 C 
ENDROOT
BRANCH   1   2
ATOM      2  O   UNL A   1      32.924  34.598  30.426  1.00  0.00    -0.462 OA
BRANCH   2   3
ATOM      3  C   UNL A   1      32.831  35.401  31.520  1.00  0.00     0.316 C 
ATOM      4  O   UNL A   1      31.778  35.659  32.094  1.00  0.00    -0.251 OA
BRANCH   3   5
ATOM      5  C   UNL A   1      34.155  36.030  31.932  1.00  0.00     0.160 C 
BRANCH   5   6
ATOM      6  C   UNL A   1      34.981  35.013  32.689  1.00  0.00    -0.031 A 
ATOM      7  C   UNL A   1      36.640  33.322  34.218  1.00  0.00    -0.048 A 
ATOM      8  C   UNL A   1      35.666  34.116  34.837  1.00  0.00     0.004 A 
ATOM      9  C   UNL A   1      36.737  33.356  32.820  1.00  0.00     0.004 A 
ATOM     10  C   UNL A   1      34.846  34.949  34.084  1.00  0.00     0.005 A 
ATOM     11  C   UNL A   1      35.929  34.205  32.063  1.00  0.00     0.005 A 
BRANCH   7  12
ATOM     12  C   UNL A   1      37.530  32.486  35.111  1.00  0.00     0.038 C 
BRANCH  12  13
ATOM     13  C   UNL A   1      38.728  33.179  35.787  1.00  0.00    -0.013 C 
ATOM     14  C   UNL A   1      39.253  34.361  34.964  1.00  0.00     0.008 C 
ATOM     15  C   UNL A   1      38.319  33.676  37.176  1.00  0.00     0.008 C 
ENDBRANCH  12  13
ENDBRANCH   7  12
ENDBRANCH   5   6
BRANCH   5  16
ATOM     16  C   UNL A   1      34.010  37.391  32.599  1.00  0.00     0.234 C 
ATOM     17  F   UNL A   1      33.223  38.177  31.809  1.00  0.00    -0.250 F 
ENDBRANCH   5  16
ENDBRANCH   3   5
ENDBRANCH   2   3
ENDBRANCH   1   2
BRANCH   1  18
ATOM     18  C   UNL A   1      33.938  34.289  28.205  1.00  0.00     0.275 C 
BRANCH  18  19
ATOM     19  O   UNL A   1      34.756  33.311  28.872  1.00  0.00    -0.458 OA
BRANCH  19  20
ATOM     20  C   UNL A   1      34.807  32.096  28.275  1.00  0.00     0.338 C 
ATOM     21  O   UNL A   1      34.009  31.633  27.479  1.00  0.00    -0.246 OA
BRANCH  20  22
ATOM     22  C   UNL A   1      36.051  31.417  28.665  1.00  0.00     0.060 A 
ATOM     23  C   UNL A   1      35.975  30.115  29.160  1.00  0.00     0.016 A 
ATOM     24  C   UNL A   1      37.274  32.084  28.631  1.00  0.00     0.016 A 
ATOM     25  C   UNL A   1      37.109  29.467  29.635  1.00  0.00     0.010 A 
ATOM     26  C   UNL A   1      38.423  31.426  29.086  1.00  0.00     0.010 A 
ATOM     27  C   UNL A   1      38.345  30.117  29.602  1.00  0.00    -0.014 A 
BRANCH  27  28
ATOM     28  C   UNL A   1      39.545  29.435  30.141  1.00  0.00     0.031 A 
ATOM     29  C   UNL A   1      40.166  29.916  31.419  1.00  0.00     0.074 A 
ATOM     30  C   UNL A   1      40.074  28.390  29.477  1.00  0.00     0.049 A 
ATOM     31  N   UNL A   1      41.278  29.532  31.990  1.00  0.00    -0.248 NA
ATOM     32  C   UNL A   1      39.449  30.974  32.150  1.00  0.00     0.031 C 
ATOM     33  C   UNL A   1      39.544  27.824  28.235  1.00  0.00     0.029 A 
ATOM     34  N   UNL A   1      41.188  27.634  29.739  1.00  0.00    -0.354 N 
ATOM     35  C   UNL A   1      41.427  30.341  33.109  1.00  0.00     0.074 A 
ATOM     36  C   UNL A   1      40.283  31.227  33.149  1.00  0.00     0.031 C 
ATOM     37  C   UNL A   1      40.345  26.825  27.832  1.00  0.00     0.029 A 
ATOM     38  C   UNL A   1      41.467  26.713  28.758  1.00  0.00     0.049 A 
ATOM     39  H   UNL A   1      41.734  27.741  30.551  1.00  0.00     0.167 HD
ATOM     40  C   UNL A   1      42.425  30.337  34.023  1.00  0.00     0.034 A 
ATOM     41  C   UNL A   1      42.528  25.896  28.600  1.00  0.00     0.034 A 
ATOM     42  C   UNL A   1      43.524  29.410  34.014  1.00  0.00     0.049 A 
ATOM     43  C   UNL A   1      43.615  25.907  29.639  1.00  0.00     0.074 A 
ATOM     44  C   UNL A   1      44.548  29.282  34.935  1.00  0.00     0.029 A 
ATOM     45  N   UNL A   1      43.744  28.453  33.035  1.00  0.00    -0.354 N 
ATOM     46  N   UNL A   1      43.693  26.609  30.744  1.00  0.00    -0.248 NA
ATOM     47  C   UNL A   1      44.753  25.001  29.420  1.00  0.00     0.031 C 
ATOM     48  C   UNL A   1      45.394  28.254  34.506  1.00  0.00     0.029 A 
ATOM     49  C   UNL A   1      44.893  27.738  33.322  1.00  0.00     0.049 A 
ATOM     50  H   UNL A   1      43.167  28.304  32.251  1.00  0.00     0.167 HD
ATOM     51  C   UNL A   1      44.877  26.221  31.360  1.00  0.00     0.074 A 
ATOM     52  C   UNL A   1      45.468  25.198  30.520  1.00  0.00     0.031 C 
ATOM     53  C   UNL A   1      45.438  26.687  32.502  1.00  0.00     0.034 A 
BRANCH  40  54
ATOM     54  C   UNL A   1      42.367  31.354  35.129  1.00  0.00     0.023 A 
ATOM     55  C   UNL A   1      41.809  31.001  36.374  1.00  0.00     0.012 A 
ATOM     56  C   UNL A   1      42.924  32.636  34.956  1.00  0.00     0.148 A 
ATOM     57  C   UNL A   1      41.790  31.917  37.425  1.00  0.00     0.002 A 
ATOM     58  C   UNL A   1      42.933  33.532  36.019  1.00  0.00     0.091 A 
ATOM     59  F   UNL A   1      43.425  32.960  33.755  1.00  0.00    -0.205 F 
ATOM     60  C   UNL A   1      42.361  33.177  37.251  1.00  0.00     0.022 A 
BRANCH  58  61
ATOM     61  S   UNL A   1      43.703  35.151  35.911  1.00  0.00     0.127 S 
ATOM     62  O   UNL A   1      42.873  35.806  34.903  1.00  0.00    -0.237 OA
ATOM     63  O   UNL A   1      43.532  35.667  37.270  1.00  0.00    -0.237 OA
ATOM     64  O   UNL A   1      45.087  34.911  35.526  1.00  0.00    -0.744 OA
ENDBRANCH  58  61
ENDBRANCH  40  54
BRANCH  41  65
ATOM     65  C   UNL A   1      42.600  24.995  27.415  1.00  0.00     0.023 A 
ATOM     66  C   UNL A   1      43.250  25.437  26.247  1.00  0.00     0.012 A 
ATOM     67  C   UNL A   1      42.067  23.692  27.453  1.00  0.00     0.148 A 
ATOM     68  C   UNL A   1      43.350  24.604  25.132  1.00  0.00     0.002 A 
ATOM     69  C   UNL A   1      42.221  22.848  26.359  1.00  0.00     0.091 A 
ATOM     70  F   UNL A   1      41.425  23.296  28.562  1.00  0.00    -0.205 F 
ATOM     71  C   UNL A   1      42.849  23.306  25.192  1.00  0.00     0.022 A 
BRANCH  69  72
ATOM     72  S   UNL A   1      41.728  21.120  26.422  1.00  0.00     0.127 S 
ATOM     73  O   UNL A   1      42.083  20.755  27.790  1.00  0.00    -0.237 OA
ATOM     74  O   UNL A   1      40.289  21.198  26.160  1.00  0.00    -0.237 OA
ATOM     75  O   UNL A   1      42.489  20.468  25.364  1.00  0.00    -0.744 OA
ENDBRANCH  69  72
ENDBRANCH  41  65
BRANCH  53  76
ATOM     76  C   UNL A   1      46.757  26.094  32.919  1.00  0.00     0.023 A 
ATOM     77  C   UNL A   1      47.953  26.706  32.498  1.00  0.00     0.012 A 
ATOM     78  C   UNL A   1      46.812  24.984  33.785  1.00  0.00     0.148 A 
ATOM     79  C   UNL A   1      49.187  26.209  32.913  1.00  0.00     0.002 A 
ATOM     80  C   UNL A   1      48.046  24.520  34.228  1.00  0.00     0.091 A 
ATOM     81  F   UNL A   1      45.663  24.402  34.155  1.00  0.00    -0.205 F 
ATOM     82  C   UNL A   1      49.233  25.125  33.787  1.00  0.00     0.022 A 
BRANCH  80  83
ATOM     83  S   UNL A   1      48.190  23.185  35.422  1.00  0.00     0.127 S 
ATOM     84  O   UNL A   1      47.273  23.624  36.473  1.00  0.00    -0.237 OA
ATOM     85  O   UNL A   1      47.729  22.026  34.656  1.00  0.00    -0.237 OA
ATOM     86  O   UNL A   1      49.597  23.136  35.794  1.00  0.00    -0.744 OA
ENDBRANCH  80  83
ENDBRANCH  53  76
ENDBRANCH  27  28
ENDBRANCH  20  22
ENDBRANCH  19  20
ENDBRANCH  18  19
ENDBRANCH   1  18
TORSDOF 18
ENDMDL
MODEL 2
REMARK VINA RESULT:      -9.4      1.620      2.479
REMARK SMILES CC(C)Cc1ccc([C@H](CF)C(=O)OCCOC(=O)c2ccc(-c3c4nc(c(-c5cccc(S(=O)(=O)[O-])c5F)c5ccc([nH]5)c(-c5cccc(S(=O)(=O)[O-])c5F)c5nc(c(-c6cccc(S(=O)(=O)[O-])c6F)c6ccc3[nH]6)C=C5)C=C4)cc2)cc1
REMARK SMILES IDX 15 1 14 2 12 3 13 4 9 5 8 6 5 7 6 8 84 9 7 10 83 11 4 12
REMARK SMILES IDX 2 13 1 14 3 15 10 16 11 17 16 18 17 19 18 20 19 21 20 22
REMARK SMILES IDX 21 23 82 24 22 25 81 26 23 27 24 28 25 29 75 30 26 31 80 32
REMARK SMILES IDX 74 33 76 34 27 35 79 36 73 37 72 38 28 40 60 41 40 42 59 43
REMARK SMILES IDX 41 44 44 45 58 46 77 47 42 48 43 49 57 51 78 52 45 53 29 54
REMARK SMILES IDX 30 55 38 56 31 57 33 58 39 59 32 60 34 61 35 62 36 63 37 64
REMARK SMILES IDX 61 65 62 66 70 67 63 68 65 69 71 70 64 71 66 72 67 73 68 74
REMARK SMILES IDX 69 75 46 76 47 77 55 78 48 79 50 80 56 81 49 82 51 83 52 84
REMARK SMILES IDX 53 85 54 86
REMARK H PARENT 76 39 44 50
REMARK Flexibility Score: inf
ROOT
ATOM      1  C   UNL A   1      34.266  34.023  29.750  1.00  0.00     0.274 C 
ENDROOT
BRANCH   1   2
ATOM      2  O   UNL A   1      34.163  33.046  30.803  1.00  0.00    -0.462 OA
BRANCH   2   3
ATOM      3  C   UNL A   1      35.268  32.912  31.585  1.00  0.00     0.316 C 
ATOM      4  O   UNL A   1      35.587  31.871  32.150  1.00  0.00    -0.251 OA
BRANCH   3   5
ATOM      5  C   UNL A   1      36.049  34.207  31.768  1.00  0.00     0.160 C 
BRANCH   5   6
ATOM      6  C   UNL A   1      37.473  34.005  31.302  1.00  0.00    -0.031 A 
ATOM      7  C   UNL A   1      40.160  33.892  30.453  1.00  0.00    -0.048 A 
ATOM      8  C   UNL A   1      39.841  34.283  31.759  1.00  0.00     0.004 A 
ATOM      9  C   UNL A   1      39.117  33.517  29.596  1.00  0.00     0.004 A 
ATOM     10  C   UNL A   1      38.517  34.337  32.180  1.00  0.00     0.005 A 
ATOM     11  C   UNL A   1      37.785  33.589  30.009  1.00  0.00     0.005 A 
BRANCH   7  12
ATOM     12  C   UNL A   1      41.620  33.914  30.055  1.00  0.00     0.038 C 
BRANCH  12  13
ATOM     13  C   UNL A   1      42.278  35.284  29.801  1.00  0.00    -0.013 C 
ATOM     14  C   UNL A   1      43.541  35.483  30.645  1.00  0.00     0.008 C 
ATOM     15  C   UNL A   1      42.636  35.416  28.319  1.00  0.00     0.008 C 
ENDBRANCH  12  13
ENDBRANCH   7  12
ENDBRANCH   5   6
BRANCH   5  16
ATOM     16  C   UNL A   1      35.886  34.834  33.147  1.00  0.00     0.234 C 
ATOM     17  F   UNL A   1      34.987  35.854  33.053  1.00  0.00    -0.250 F 
ENDBRANCH   5  16
ENDBRANCH   3   5
ENDBRANCH   2   3
ENDBRANCH   1   2
BRANCH   1  18
ATOM     18  C   UNL A   1      33.788  33.465  28.408  1.00  0.00     0.275 C 
BRANCH  18  19
ATOM     19  O   UNL A   1      34.791  32.632  27.800  1.00  0.00    -0.458 OA
BRANCH  19  20
ATOM     20  C   UNL A   1      34.563  31.299  27.882  1.00  0.00     0.338 C 
ATOM     21  O   UNL A   1      33.536  30.710  27.599  1.00  0.00    -0.246 OA
BRANCH  20  22
ATOM     22  C   UNL A   1      35.802  30.622  28.292  1.00  0.00     0.060 A 
ATOM     23  C   UNL A   1      35.773  29.804  29.422  1.00  0.00     0.016 A 
ATOM     24  C   UNL A   1      37.003  30.858  27.628  1.00  0.00     0.016 A 
ATOM     25  C   UNL A   1      36.937  29.221  29.908  1.00  0.00     0.010 A 
ATOM     26  C   UNL A   1      38.174  30.253  28.100  1.00  0.00     0.010 A 
ATOM     27  C   UNL A   1      38.150  29.441  29.250  1.00  0.00    -0.014 A 
BRANCH  27  28
ATOM     28  C   UNL A   1      39.394  28.845  29.792  1.00  0.00     0.031 A 
ATOM     29  C   UNL A   1      40.051  29.455  30.996  1.00  0.00     0.074 A 
ATOM     30  C   UNL A   1      39.930  27.762  29.198  1.00  0.00     0.049 A 
ATOM     31  N   UNL A   1      41.198  29.156  31.548  1.00  0.00    -0.248 NA
ATOM     32  C   UNL A   1      39.329  30.551  31.664  1.00  0.00     0.031 C 
ATOM     33  C   UNL A   1      39.369  27.074  28.035  1.00  0.00     0.029 A 
ATOM     34  N   UNL A   1      41.079  27.066  29.476  1.00  0.00    -0.354 N 
ATOM     35  C   UNL A   1      41.366  30.064  32.584  1.00  0.00     0.074 A 
ATOM     36  C   UNL A   1      40.195  30.916  32.598  1.00  0.00     0.031 C 
ATOM     37  C   UNL A   1      40.186  26.068  27.684  1.00  0.00     0.029 A 
ATOM     38  C   UNL A   1      41.348  26.071  28.566  1.00  0.00     0.049 A 
ATOM     39  H   UNL A   1      41.655  27.260  30.250  1.00  0.00     0.167 HD
ATOM     40  C   UNL A   1      42.401  30.171  33.450  1.00  0.00     0.034 A 
ATOM     41  C   UNL A   1      42.429  25.276  28.432  1.00  0.00     0.034 A 
ATOM     42  C   UNL A   1      43.529  29.281  33.472  1.00  0.00     0.049 A 
ATOM     43  C   UNL A   1      43.557  25.411  29.417  1.00  0.00     0.074 A 
ATOM     44  C   UNL A   1      44.595  29.265  34.355  1.00  0.00     0.029 A 
ATOM     45  N   UNL A   1      43.741  28.248  32.571  1.00  0.00    -0.354 N 
ATOM     46  N   UNL A   1      43.657  26.209  30.453  1.00  0.00    -0.248 NA
ATOM     47  C   UNL A   1      44.715  24.525  29.227  1.00  0.00     0.031 C 
ATOM     48  C   UNL A   1      45.457  28.229  33.979  1.00  0.00     0.029 A 
ATOM     49  C   UNL A   1      44.924  27.596  32.868  1.00  0.00     0.049 A 
ATOM     50  H   UNL A   1      43.137  28.014  31.829  1.00  0.00     0.167 HD
ATOM     51  C   UNL A   1      44.878  25.913  31.047  1.00  0.00     0.074 A 
ATOM     52  C   UNL A   1      45.468  24.839  30.273  1.00  0.00     0.031 C 
ATOM     53  C   UNL A   1      45.470  26.494  32.118  1.00  0.00     0.034 A 
BRANCH  40  54
ATOM     54  C   UNL A   1      42.354  31.279  34.466  1.00  0.00     0.023 A 
ATOM     55  C   UNL A   1      41.944  31.001  35.785  1.00  0.00     0.012 A 
ATOM     56  C   UNL A   1      42.779  32.580  34.130  1.00  0.00     0.148 A 
ATOM     57  C   UNL A   1      41.940  32.007  36.750  1.00  0.00     0.002 A 
ATOM     58  C   UNL A   1      42.805  33.569  35.107  1.00  0.00     0.091 A 
ATOM     59  F   UNL A   1      43.139  32.828  32.863  1.00  0.00    -0.205 F 
ATOM     60  C   UNL A   1      42.380  33.286  36.415  1.00  0.00     0.022 A 
BRANCH  58  61
ATOM     61  S   UNL A   1      43.419  35.226  34.786  1.00  0.00     0.127 S 
ATOM     62  O   UNL A   1      43.689  35.707  36.140  1.00  0.00    -0.237 OA
ATOM     63  O   UNL A   1      44.614  34.965  33.983  1.00  0.00    -0.237 OA
ATOM     64  O   UNL A   1      42.352  35.918  34.076  1.00  0.00    -0.744 OA
ENDBRANCH  58  61
ENDBRANCH  40  54
BRANCH  41  65
ATOM     65  C   UNL A   1      42.482  24.278  27.327  1.00  0.00     0.023 A 
ATOM     66  C   UNL A   1      43.160  24.597  26.136  1.00  0.00     0.012 A 
ATOM     67  C   UNL A   1      41.903  23.001  27.466  1.00  0.00     0.148 A 
ATOM     68  C   UNL A   1      43.243  23.671  25.095  1.00  0.00     0.002 A 
ATOM     69  C   UNL A   1      42.040  22.063  26.449  1.00  0.00     0.091 A 
ATOM     70  F   UNL A   1      41.237  22.721  28.595  1.00  0.00    -0.205 F 
ATOM     71  C   UNL A   1      42.696  22.400  25.257  1.00  0.00     0.022 A 
BRANCH  69  72
ATOM     72  S   UNL A   1      41.485  20.365  26.649  1.00  0.00     0.127 S 
ATOM     73  O   UNL A   1      41.891  19.764  25.383  1.00  0.00    -0.237 OA
ATOM     74  O   UNL A   1      42.253  19.922  27.815  1.00  0.00    -0.237 OA
ATOM     75  O   UNL A   1      40.050  20.458  26.886  1.00  0.00    -0.744 OA
ENDBRANCH  69  72
ENDBRANCH  41  65
BRANCH  53  76
ATOM     76  C   UNL A   1      46.824  25.980  32.526  1.00  0.00     0.023 A 
ATOM     77  C   UNL A   1      47.981  26.605  32.020  1.00  0.00     0.012 A 
ATOM     78  C   UNL A   1      46.953  24.938  33.463  1.00  0.00     0.148 A 
ATOM     79  C   UNL A   1      49.247  26.184  32.422  1.00  0.00     0.002 A 
ATOM     80  C   UNL A   1      48.218  24.550  33.892  1.00  0.00     0.091 A 
ATOM     81  F   UNL A   1      45.840  24.341  33.916  1.00  0.00    -0.205 F 
ATOM     82  C   UNL A   1      49.365  25.166  33.366  1.00  0.00     0.022 A 
BRANCH  80  83
ATOM     83  S   UNL A   1      48.455  23.309  35.169  1.00  0.00     0.127 S 
ATOM     84  O   UNL A   1      49.911  23.283  35.295  1.00  0.00    -0.237 OA
ATOM     85  O   UNL A   1      47.755  23.896  36.312  1.00  0.00    -0.237 OA
ATOM     86  O   UNL A   1      47.846  22.090  34.654  1.00  0.00    -0.744 OA
ENDBRANCH  80  83
ENDBRANCH  53  76
ENDBRANCH  27  28
ENDBRANCH  20  22
ENDBRANCH  19  20
ENDBRANCH  18  19
ENDBRANCH   1  18
TORSDOF 18
ENDMDL
MODEL 3
REMARK VINA RESULT:      -9.4      5.758     10.308
REMARK SMILES CC(C)Cc1ccc([C@H](CF)C(=O)OCCOC(=O)c2ccc(-c3c4nc(c(-c5cccc(S(=O)(=O)[O-])c5F)c5ccc([nH]5)c(-c5cccc(S(=O)(=O)[O-])c5F)c5nc(c(-c6cccc(S(=O)(=O)[O-])c6F)c6ccc3[nH]6)C=C5)C=C4)cc2)cc1
REMARK SMILES IDX 15 1 14 2 12 3 13 4 9 5 8 6 5 7 6 8 84 9 7 10 83 11 4 12
REMARK SMILES IDX 2 13 1 14 3 15 10 16 11 17 16 18 17 19 18 20 19 21 20 22
REMARK SMILES IDX 21 23 82 24 22 25 81 26 23 27 24 28 25 29 75 30 26 31 80 32
REMARK SMILES IDX 74 33 76 34 27 35 79 36 73 37 72 38 28 40 60 41 40 42 59 43
REMARK SMILES IDX 41 44 44 45 58 46 77 47 42 48 43 49 57 51 78 52 45 53 29 54
REMARK SMILES IDX 30 55 38 56 31 57 33 58 39 59 32 60 34 61 35 62 36 63 37 64
REMARK SMILES IDX 61 65 62 66 70 67 63 68 65 69 71 70 64 71 66 72 67 73 68 74
REMARK SMILES IDX 69 75 46 76 47 77 55 78 48 79 50 80 56 81 49 82 51 83 52 84
REMARK SMILES IDX 53 85 54 86
REMARK H PARENT 76 39 44 50
REMARK Flexibility Score: inf
ROOT
ATOM      1  C   UNL A   1      35.468  20.297  25.176  1.00  0.00     0.274 C 
ENDROOT
BRANCH   1   2
ATOM      2  O   UNL A   1      34.851  21.532  24.764  1.00  0.00    -0.462 OA
BRANCH   2   3
ATOM      3  C   UNL A   1      33.765  21.912  25.490  1.00  0.00     0.316 C 
ATOM      4  O   UNL A   1      32.756  21.228  25.625  1.00  0.00    -0.251 OA
BRANCH   3   5
ATOM      5  C   UNL A   1      33.875  23.318  26.065  1.00  0.00     0.160 C 
BRANCH   5   6
ATOM      6  C   UNL A   1      32.765  24.179  25.504  1.00  0.00    -0.031 A 
ATOM      7  C   UNL A   1      30.530  25.650  24.614  1.00  0.00    -0.048 A 
ATOM      8  C   UNL A   1      30.978  25.763  25.936  1.00  0.00     0.004 A 
ATOM      9  C   UNL A   1      31.246  24.825  23.736  1.00  0.00     0.004 A 
ATOM     10  C   UNL A   1      32.081  25.040  26.376  1.00  0.00     0.005 A 
ATOM     11  C   UNL A   1      32.342  24.082  24.179  1.00  0.00     0.005 A 
BRANCH   7  12
ATOM     12  C   UNL A   1      29.289  26.426  24.229  1.00  0.00     0.038 C 
BRANCH  12  13
ATOM     13  C   UNL A   1      29.456  27.629  23.282  1.00  0.00    -0.013 C 
ATOM     14  C   UNL A   1      28.112  28.268  22.916  1.00  0.00     0.008 C 
ATOM     15  C   UNL A   1      30.351  28.682  23.941  1.00  0.00     0.008 C 
ENDBRANCH  12  13
ENDBRANCH   7  12
ENDBRANCH   5   6
BRANCH   5  16
ATOM     16  C   UNL A   1      35.276  23.909  25.985  1.00  0.00     0.234 C 
ATOM     17  F   UNL A   1      35.212  25.076  25.281  1.00  0.00    -0.250 F 
ENDBRANCH   5  16
ENDBRANCH   3   5
ENDBRANCH   2   3
ENDBRANCH   1   2
BRANCH   1  18
ATOM     18  C   UNL A   1      36.976  20.302  24.922  1.00  0.00     0.275 C 
BRANCH  18  19
ATOM     19  O   UNL A   1      37.633  21.323  25.694  1.00  0.00    -0.458 OA
BRANCH  19  20
ATOM     20  C   UNL A   1      38.923  21.065  26.016  1.00  0.00     0.338 C 
ATOM     21  O   UNL A   1      39.534  20.028  25.832  1.00  0.00    -0.246 OA
BRANCH  20  22
ATOM     22  C   UNL A   1      39.539  22.284  26.563  1.00  0.00     0.060 A 
ATOM     23  C   UNL A   1      39.091  23.522  26.102  1.00  0.00     0.016 A 
ATOM     24  C   UNL A   1      40.607  22.211  27.452  1.00  0.00     0.016 A 
ATOM     25  C   UNL A   1      39.706  24.698  26.513  1.00  0.00     0.010 A 
ATOM     26  C   UNL A   1      41.215  23.395  27.887  1.00  0.00     0.010 A 
ATOM     27  C   UNL A   1      40.775  24.645  27.410  1.00  0.00    -0.014 A 
BRANCH  27  28
ATOM     28  C   UNL A   1      41.450  25.900  27.819  1.00  0.00     0.031 A 
ATOM     29  C   UNL A   1      40.690  26.938  28.594  1.00  0.00     0.074 A 
ATOM     30  C   UNL A   1      42.738  26.105  27.487  1.00  0.00     0.049 A 
ATOM     31  N   UNL A   1      41.063  28.142  28.941  1.00  0.00    -0.248 NA
ATOM     32  C   UNL A   1      39.331  26.578  29.032  1.00  0.00     0.031 C 
ATOM     33  C   UNL A   1      43.580  25.160  26.751  1.00  0.00     0.029 A 
ATOM     34  N   UNL A   1      43.557  27.184  27.702  1.00  0.00    -0.354 N 
ATOM     35  C   UNL A   1      39.966  28.707  29.579  1.00  0.00     0.074 A 
ATOM     36  C   UNL A   1      38.919  27.708  29.588  1.00  0.00     0.031 C 
ATOM     37  C   UNL A   1      44.789  25.709  26.557  1.00  0.00     0.029 A 
ATOM     38  C   UNL A   1      44.792  27.059  27.111  1.00  0.00     0.049 A 
ATOM     39  H   UNL A   1      43.288  27.970  28.229  1.00  0.00     0.167 HD
ATOM     40  C   UNL A   1      39.850  29.944  30.115  1.00  0.00     0.034 A 
ATOM     41  C   UNL A   1      45.800  27.946  26.994  1.00  0.00     0.034 A 
ATOM     42  C   UNL A   1      40.916  30.907  30.160  1.00  0.00     0.049 A 
ATOM     43  C   UNL A   1      45.645  29.309  27.609  1.00  0.00     0.074 A 
ATOM     44  C   UNL A   1      40.916  32.162  30.742  1.00  0.00     0.029 A 
ATOM     45  N   UNL A   1      42.172  30.725  29.600  1.00  0.00    -0.354 N 
ATOM     46  N   UNL A   1      44.638  29.794  28.296  1.00  0.00    -0.248 NA
ATOM     47  C   UNL A   1      46.770  30.242  27.451  1.00  0.00     0.031 C 
ATOM     48  C   UNL A   1      42.170  32.743  30.524  1.00  0.00     0.029 A 
ATOM     49  C   UNL A   1      42.952  31.847  29.813  1.00  0.00     0.049 A 
ATOM     50  H   UNL A   1      42.465  29.915  29.123  1.00  0.00     0.167 HD
ATOM     51  C   UNL A   1      45.012  31.081  28.664  1.00  0.00     0.074 A 
ATOM     52  C   UNL A   1      46.352  31.289  28.152  1.00  0.00     0.031 C 
ATOM     53  C   UNL A   1      44.302  32.016  29.341  1.00  0.00     0.034 A 
BRANCH  40  54
ATOM     54  C   UNL A   1      38.526  30.325  30.719  1.00  0.00     0.023 A 
ATOM     55  C   UNL A   1      38.252  30.000  32.062  1.00  0.00     0.012 A 
ATOM     56  C   UNL A   1      37.583  31.062  29.976  1.00  0.00     0.148 A 
ATOM     57  C   UNL A   1      37.050  30.386  32.651  1.00  0.00     0.002 A 
ATOM     58  C   UNL A   1      36.401  31.474  30.581  1.00  0.00     0.091 A 
ATOM     59  F   UNL A   1      37.853  31.337  28.692  1.00  0.00    -0.205 F 
ATOM     60  C   UNL A   1      36.130  31.132  31.916  1.00  0.00     0.022 A 
BRANCH  58  61
ATOM     61  S   UNL A   1      35.188  32.494  29.735  1.00  0.00     0.127 S 
ATOM     62  O   UNL A   1      34.215  32.737  30.799  1.00  0.00    -0.237 OA
ATOM     63  O   UNL A   1      35.979  33.665  29.354  1.00  0.00    -0.237 OA
ATOM     64  O   UNL A   1      34.708  31.698  28.614  1.00  0.00    -0.744 OA
ENDBRANCH  58  61
ENDBRANCH  40  54
BRANCH  41  65
ATOM     65  C   UNL A   1      47.046  27.562  26.271  1.00  0.00     0.023 A 
ATOM     66  C   UNL A   1      48.072  26.891  26.964  1.00  0.00     0.012 A 
ATOM     67  C   UNL A   1      47.201  27.818  24.895  1.00  0.00     0.148 A 
ATOM     68  C   UNL A   1      49.238  26.502  26.304  1.00  0.00     0.002 A 
ATOM     69  C   UNL A   1      48.340  27.376  24.231  1.00  0.00     0.091 A 
ATOM     70  F   UNL A   1      46.228  28.482  24.255  1.00  0.00    -0.205 F 
ATOM     71  C   UNL A   1      49.366  26.731  24.936  1.00  0.00     0.022 A 
BRANCH  69  72
ATOM     72  S   UNL A   1      48.505  27.510  22.447  1.00  0.00     0.127 S 
ATOM     73  O   UNL A   1      49.819  28.131  22.311  1.00  0.00    -0.237 OA
ATOM     74  O   UNL A   1      48.440  26.110  22.022  1.00  0.00    -0.237 OA
ATOM     75  O   UNL A   1      47.367  28.313  22.018  1.00  0.00    -0.744 OA
ENDBRANCH  69  72
ENDBRANCH  41  65
BRANCH  53  76
ATOM     76  C   UNL A   1      44.958  33.350  29.576  1.00  0.00     0.023 A 
ATOM     77  C   UNL A   1      45.700  33.556  30.755  1.00  0.00     0.012 A 
ATOM     78  C   UNL A   1      44.905  34.366  28.602  1.00  0.00     0.148 A 
ATOM     79  C   UNL A   1      46.361  34.763  30.974  1.00  0.00     0.002 A 
ATOM     80  C   UNL A   1      45.602  35.552  28.809  1.00  0.00     0.091 A 
ATOM     81  F   UNL A   1      44.175  34.158  27.497  1.00  0.00    -0.205 F 
ATOM     82  C   UNL A   1      46.322  35.755  29.996  1.00  0.00     0.022 A 
BRANCH  80  83
ATOM     83  S   UNL A   1      45.676  36.844  27.563  1.00  0.00     0.127 S 
ATOM     84  O   UNL A   1      44.268  37.215  27.433  1.00  0.00    -0.237 OA
ATOM     85  O   UNL A   1      46.516  37.855  28.207  1.00  0.00    -0.237 OA
ATOM     86  O   UNL A   1      46.276  36.227  26.387  1.00  0.00    -0.744 OA
ENDBRANCH  80  83
ENDBRANCH  53  76
ENDBRANCH  27  28
ENDBRANCH  20  22
ENDBRANCH  19  20
ENDBRANCH  18  19
ENDBRANCH   1  18
TORSDOF 18
ENDMDL
