MODEL 1
REMARK VINA RESULT:     -13.5      0.000      0.000
REMARK SMILES Cc1cccc(C(=O)Nc2cc(C(=O)OCCOC(=O)c3ccc(-c4c5nc(c(-c6cccc(S(=O)(=O)[O-])c6F)c6ccc([nH]6)c(-c6cccc(S(=O)(=O)[O-])c6F)c6nc(c(-c7cccc(S(=O)(=O)[O-])c7F)c7ccc4[nH]7)C=C6)C=C5)cc3)ccc2N2CC[NH+](CC(=O)NC(C)(C)C)CC2)c1
REMARK SMILES IDX 16 1 15 2 13 3 14 4 12 5 10 6 11 7 86 8 85 9 84 10 9 11 7 12
REMARK SMILES IDX 8 13 6 15 1 16 2 17 3 18 101 19 4 20 5 21 87 22 88 23 100 24
REMARK SMILES IDX 89 25 99 26 90 27 91 29 92 30 93 31 94 32 95 34 96 35 97 36
REMARK SMILES IDX 98 37 17 38 18 39 19 40 20 41 21 42 22 43 83 44 23 45 82 46
REMARK SMILES IDX 24 47 25 48 26 49 76 50 27 51 81 52 75 53 77 54 28 55 80 56
REMARK SMILES IDX 74 57 73 58 29 60 61 61 41 62 60 63 42 64 45 65 59 66 78 67
REMARK SMILES IDX 43 68 44 69 58 71 79 72 46 73 30 74 31 75 39 76 32 77 34 78
REMARK SMILES IDX 40 79 33 80 35 81 36 82 37 83 38 84 62 85 63 86 71 87 64 88
REMARK SMILES IDX 66 89 72 90 65 91 67 92 68 93 69 94 70 95 47 96 48 97 56 98
REMARK SMILES IDX 49 99 51 100 57 101 50 102 52 103 53 104 54 105 55 106
REMARK H PARENT 9 14 90 28 94 33 77 59 45 70
REMARK Flexibility Score: inf
ROOT
ATOM      1  C   UNL A   1      33.834  32.200  27.598  1.00  0.00     0.275 C 
ENDROOT
BRANCH   1   2
ATOM      2  O   UNL A   1      32.875  31.167  27.773  1.00  0.00    -0.458 OA
BRANCH   2   3
ATOM      3  C   UNL A   1      32.032  30.902  26.752  1.00  0.00     0.338 C 
ATOM      4  O   UNL A   1      31.246  31.647  26.223  1.00  0.00    -0.246 OA
BRANCH   3   5
ATOM      5  C   UNL A   1      32.220  29.483  26.431  1.00  0.00     0.062 A 
ATOM      6  C   UNL A   1      32.100  27.731  24.804  1.00  0.00     0.065 A 
ATOM      7  C   UNL A   1      32.007  29.072  25.120  1.00  0.00     0.044 A 
ATOM      8  C   UNL A   1      32.360  26.754  25.836  1.00  0.00     0.061 A 
ATOM      9  C   UNL A   1      32.677  27.235  27.118  1.00  0.00     0.029 A 
ATOM     10  C   UNL A   1      32.592  28.589  27.426  1.00  0.00     0.018 A 
BRANCH   6  11
ATOM     11  N   UNL A   1      31.793  27.321  23.501  1.00  0.00    -0.320 N 
ATOM     12  C   UNL A   1      30.885  27.587  22.508  1.00  0.00     0.255 C 
ATOM     13  O   UNL A   1      31.053  26.882  21.500  1.00  0.00    -0.269 OA
ATOM     14  H   UNL A   1      32.424  26.625  23.206  1.00  0.00     0.170 HD
BRANCH  12  15
ATOM     15  C   UNL A   1      29.773  28.594  22.464  1.00  0.00     0.040 A 
ATOM     16  C   UNL A   1      28.449  31.983  21.211  1.00  0.00     0.044 C 
ATOM     17  C   UNL A   1      28.562  30.642  21.860  1.00  0.00    -0.050 A 
ATOM     18  C   UNL A   1      27.419  30.175  22.506  1.00  0.00     0.003 A 
ATOM     19  C   UNL A   1      29.739  29.842  21.821  1.00  0.00     0.017 A 
ATOM     20  C   UNL A   1      27.428  28.934  23.109  1.00  0.00     0.001 A 
ATOM     21  C   UNL A   1      28.585  28.161  23.089  1.00  0.00     0.014 A 
ENDBRANCH  12  15
ENDBRANCH   6  11
BRANCH   8  22
ATOM     22  N   UNL A   1      32.288  25.381  25.636  1.00  0.00    -0.359 N 
ATOM     23  C   UNL A   1      31.038  24.588  25.549  1.00  0.00     0.178 C 
ATOM     24  C   UNL A   1      33.395  24.531  26.023  1.00  0.00     0.178 C 
ATOM     25  C   UNL A   1      31.240  23.324  24.636  1.00  0.00     0.284 C 
ATOM     26  C   UNL A   1      33.633  23.575  24.835  1.00  0.00     0.284 C 
ATOM     27  N   UNL A   1      32.543  22.612  24.643  1.00  0.00    -0.324 N 
ATOM     28  H   UNL A   1      32.626  22.187  23.719  1.00  0.00     0.348 HD
BRANCH  27  29
ATOM     29  C   UNL A   1      32.648  21.415  25.500  1.00  0.00     0.363 C 
BRANCH  29  30
ATOM     30  C   UNL A   1      33.976  20.668  25.477  1.00  0.00     0.275 C 
ATOM     31  O   UNL A   1      34.978  21.228  25.942  1.00  0.00    -0.268 OA
ATOM     32  N   UNL A   1      34.152  19.404  24.995  1.00  0.00    -0.347 N 
ATOM     33  H   UNL A   1      35.081  19.118  25.149  1.00  0.00     0.164 HD
BRANCH  32  34
ATOM     34  C   UNL A   1      33.394  18.310  24.309  1.00  0.00     0.032 C 
ATOM     35  C   UNL A   1      34.319  17.200  23.768  1.00  0.00     0.034 C 
ATOM     36  C   UNL A   1      32.548  17.626  25.406  1.00  0.00     0.034 C 
ATOM     37  C   UNL A   1      32.424  18.769  23.215  1.00  0.00     0.034 C 
ENDBRANCH  32  34
ENDBRANCH  29  30
ENDBRANCH  27  29
ENDBRANCH   8  22
ENDBRANCH   3   5
ENDBRANCH   2   3
ENDBRANCH   1   2
BRANCH   1  38
ATOM     38  C   UNL A   1      35.150  32.099  28.392  1.00  0.00     0.275 C 
BRANCH  38  39
ATOM     39  O   UNL A   1      36.372  31.449  27.912  1.00  0.00    -0.458 OA
BRANCH  39  40
ATOM     40  C   UNL A   1      36.604  30.153  27.575  1.00  0.00     0.338 C 
ATOM     41  O   UNL A   1      35.721  29.420  27.156  1.00  0.00    -0.246 OA
BRANCH  40  42
ATOM     42  C   UNL A   1      37.945  29.645  27.904  1.00  0.00     0.060 A 
ATOM     43  C   UNL A   1      38.957  29.485  26.941  1.00  0.00     0.016 A 
ATOM     44  C   UNL A   1      38.198  29.378  29.234  1.00  0.00     0.016 A 
ATOM     45  C   UNL A   1      40.236  29.058  27.318  1.00  0.00     0.010 A 
ATOM     46  C   UNL A   1      39.491  29.188  29.621  1.00  0.00     0.010 A 
ATOM     47  C   UNL A   1      40.479  28.858  28.665  1.00  0.00    -0.014 A 
BRANCH  47  48
ATOM     48  C   UNL A   1      41.510  27.989  29.249  1.00  0.00     0.031 A 
ATOM     49  C   UNL A   1      41.598  26.535  28.999  1.00  0.00     0.074 A 
ATOM     50  C   UNL A   1      42.603  28.754  29.514  1.00  0.00     0.049 A 
ATOM     51  N   UNL A   1      42.736  25.980  28.796  1.00  0.00    -0.248 NA
ATOM     52  C   UNL A   1      40.486  25.599  28.816  1.00  0.00     0.031 C 
ATOM     53  C   UNL A   1      44.029  28.502  29.396  1.00  0.00     0.029 A 
ATOM     54  N   UNL A   1      42.570  30.081  29.968  1.00  0.00    -0.354 N 
ATOM     55  C   UNL A   1      42.545  24.684  28.375  1.00  0.00     0.074 A 
ATOM     56  C   UNL A   1      41.117  24.512  28.320  1.00  0.00     0.031 C 
ATOM     57  C   UNL A   1      44.691  29.451  30.092  1.00  0.00     0.029 A 
ATOM     58  C   UNL A   1      43.682  30.235  30.793  1.00  0.00     0.049 A 
ATOM     59  H   UNL A   1      41.897  30.765  29.746  1.00  0.00     0.167 HD
ATOM     60  C   UNL A   1      43.677  23.974  28.121  1.00  0.00     0.034 A 
ATOM     61  C   UNL A   1      43.404  30.202  32.134  1.00  0.00     0.034 A 
ATOM     62  C   UNL A   1      44.741  24.533  28.972  1.00  0.00     0.049 A 
ATOM     63  C   UNL A   1      43.907  28.905  32.754  1.00  0.00     0.074 A 
ATOM     64  C   UNL A   1      45.795  25.407  28.790  1.00  0.00     0.029 A 
ATOM     65  N   UNL A   1      44.537  24.442  30.345  1.00  0.00    -0.354 N 
ATOM     66  N   UNL A   1      44.291  27.855  32.074  1.00  0.00    -0.248 NA
ATOM     67  C   UNL A   1      44.101  28.724  34.184  1.00  0.00     0.031 C 
ATOM     68  C   UNL A   1      46.091  25.977  30.073  1.00  0.00     0.029 A 
ATOM     69  C   UNL A   1      45.243  25.421  31.024  1.00  0.00     0.049 A 
ATOM     70  H   UNL A   1      43.965  23.768  30.778  1.00  0.00     0.167 HD
ATOM     71  C   UNL A   1      44.701  26.859  32.908  1.00  0.00     0.074 A 
ATOM     72  C   UNL A   1      44.623  27.485  34.221  1.00  0.00     0.031 C 
ATOM     73  C   UNL A   1      45.024  25.600  32.465  1.00  0.00     0.034 A 
BRANCH  60  74
ATOM     74  C   UNL A   1      43.929  22.831  27.157  1.00  0.00     0.023 A 
ATOM     75  C   UNL A   1      44.768  23.137  26.055  1.00  0.00     0.012 A 
ATOM     76  C   UNL A   1      43.286  21.569  27.123  1.00  0.00     0.148 A 
ATOM     77  C   UNL A   1      44.933  22.285  24.961  1.00  0.00     0.002 A 
ATOM     78  C   UNL A   1      43.465  20.704  26.024  1.00  0.00     0.091 A 
ATOM     79  F   UNL A   1      42.476  21.219  28.128  1.00  0.00    -0.205 F 
ATOM     80  C   UNL A   1      44.276  21.071  24.941  1.00  0.00     0.022 A 
BRANCH  78  81
ATOM     81  S   UNL A   1      42.665  19.095  25.843  1.00  0.00     0.127 S 
ATOM     82  O   UNL A   1      41.326  19.467  25.382  1.00  0.00    -0.237 OA
ATOM     83  O   UNL A   1      43.493  18.443  24.829  1.00  0.00    -0.237 OA
ATOM     84  O   UNL A   1      42.701  18.469  27.156  1.00  0.00    -0.744 OA
ENDBRANCH  78  81
ENDBRANCH  60  74
BRANCH  61  85
ATOM     85  C   UNL A   1      42.088  30.921  32.420  1.00  0.00     0.023 A 
ATOM     86  C   UNL A   1      41.864  32.131  31.696  1.00  0.00     0.012 A 
ATOM     87  C   UNL A   1      40.962  30.276  32.967  1.00  0.00     0.148 A 
ATOM     88  C   UNL A   1      40.575  32.562  31.362  1.00  0.00     0.002 A 
ATOM     89  C   UNL A   1      39.671  30.747  32.673  1.00  0.00     0.091 A 
ATOM     90  F   UNL A   1      41.146  29.183  33.718  1.00  0.00    -0.205 F 
ATOM     91  C   UNL A   1      39.478  31.853  31.828  1.00  0.00     0.022 A 
BRANCH  89  92
ATOM     92  S   UNL A   1      38.205  29.889  33.281  1.00  0.00     0.127 S 
ATOM     93  O   UNL A   1      37.142  30.555  32.534  1.00  0.00    -0.237 OA
ATOM     94  O   UNL A   1      38.439  28.497  32.893  1.00  0.00    -0.237 OA
ATOM     95  O   UNL A   1      38.220  30.110  34.721  1.00  0.00    -0.744 OA
ENDBRANCH  89  92
ENDBRANCH  61  85
BRANCH  73  96
ATOM     96  C   UNL A   1      45.108  24.393  33.388  1.00  0.00     0.023 A 
ATOM     97  C   UNL A   1      44.075  23.437  33.451  1.00  0.00     0.012 A 
ATOM     98  C   UNL A   1      46.294  24.077  34.099  1.00  0.00     0.148 A 
ATOM     99  C   UNL A   1      44.151  22.303  34.261  1.00  0.00     0.002 A 
ATOM    100  C   UNL A   1      46.425  22.868  34.777  1.00  0.00     0.091 A 
ATOM    101  F   UNL A   1      47.311  24.950  34.136  1.00  0.00    -0.205 F 
ATOM    102  C   UNL A   1      45.338  22.004  34.909  1.00  0.00     0.022 A 
BRANCH 100 103
ATOM    103  S   UNL A   1      48.035  22.283  35.323  1.00  0.00     0.127 S 
ATOM    104  O   UNL A   1      47.728  20.928  35.775  1.00  0.00    -0.237 OA
ATOM    105  O   UNL A   1      48.826  22.352  34.093  1.00  0.00    -0.237 OA
ATOM    106  O   UNL A   1      48.449  23.230  36.349  1.00  0.00    -0.744 OA
ENDBRANCH 100 103
ENDBRANCH  73  96
ENDBRANCH  47  48
ENDBRANCH  40  42
ENDBRANCH  39  40
ENDBRANCH  38  39
ENDBRANCH   1  38
TORSDOF 20
ENDMDL
MODEL 2
REMARK VINA RESULT:     -13.2      4.080     10.650
REMARK SMILES Cc1cccc(C(=O)Nc2cc(C(=O)OCCOC(=O)c3ccc(-c4c5nc(c(-c6cccc(S(=O)(=O)[O-])c6F)c6ccc([nH]6)c(-c6cccc(S(=O)(=O)[O-])c6F)c6nc(c(-c7cccc(S(=O)(=O)[O-])c7F)c7ccc4[nH]7)C=C6)C=C5)cc3)ccc2N2CC[NH+](CC(=O)NC(C)(C)C)CC2)c1
REMARK SMILES IDX 16 1 15 2 13 3 14 4 12 5 10 6 11 7 86 8 85 9 84 10 9 11 7 12
REMARK SMILES IDX 8 13 6 15 1 16 2 17 3 18 101 19 4 20 5 21 87 22 88 23 100 24
REMARK SMILES IDX 89 25 99 26 90 27 91 29 92 30 93 31 94 32 95 34 96 35 97 36
REMARK SMILES IDX 98 37 17 38 18 39 19 40 20 41 21 42 22 43 83 44 23 45 82 46
REMARK SMILES IDX 24 47 25 48 26 49 76 50 27 51 81 52 75 53 77 54 28 55 80 56
REMARK SMILES IDX 74 57 73 58 29 60 61 61 41 62 60 63 42 64 45 65 59 66 78 67
REMARK SMILES IDX 43 68 44 69 58 71 79 72 46 73 30 74 31 75 39 76 32 77 34 78
REMARK SMILES IDX 40 79 33 80 35 81 36 82 37 83 38 84 62 85 63 86 71 87 64 88
REMARK SMILES IDX 66 89 72 90 65 91 67 92 68 93 69 94 70 95 47 96 48 97 56 98
REMARK SMILES IDX 49 99 51 100 57 101 50 102 52 103 53 104 54 105 55 106
REMARK H PARENT 9 14 90 28 94 33 77 59 45 70
REMARK Flexibility Score: inf
ROOT
ATOM      1  C   UNL A   1      40.593  20.218  26.141  1.00  0.00     0.275 C 
ENDROOT
BRANCH   1   2
ATOM      2  O   UNL A   1      39.386  20.956  26.025  1.00  0.00    -0.458 OA
BRANCH   2   3
ATOM      3  C   UNL A   1      38.336  20.368  25.411  1.00  0.00     0.338 C 
ATOM      4  O   UNL A   1      38.240  19.228  25.032  1.00  0.00    -0.246 OA
BRANCH   3   5
ATOM      5  C   UNL A   1      37.326  21.417  25.242  1.00  0.00     0.062 A 
ATOM      6  C   UNL A   1      35.010  22.018  25.150  1.00  0.00     0.065 A 
ATOM      7  C   UNL A   1      35.987  21.069  25.381  1.00  0.00     0.044 A 
ATOM      8  C   UNL A   1      35.371  23.346  24.713  1.00  0.00     0.061 A 
ATOM      9  C   UNL A   1      36.738  23.675  24.699  1.00  0.00     0.029 A 
ATOM     10  C   UNL A   1      37.716  22.716  24.944  1.00  0.00     0.018 A 
BRANCH   6  11
ATOM     11  N   UNL A   1      33.666  21.630  25.203  1.00  0.00    -0.320 N 
ATOM     12  C   UNL A   1      32.882  20.537  24.936  1.00  0.00     0.255 C 
ATOM     13  O   UNL A   1      31.676  20.746  25.145  1.00  0.00    -0.269 OA
ATOM     14  H   UNL A   1      33.111  22.373  25.532  1.00  0.00     0.170 HD
BRANCH  12  15
ATOM     15  C   UNL A   1      33.270  19.164  24.468  1.00  0.00     0.040 A 
ATOM     16  C   UNL A   1      35.149  15.871  25.127  1.00  0.00     0.044 C 
ATOM     17  C   UNL A   1      34.296  16.935  24.516  1.00  0.00    -0.050 A 
ATOM     18  C   UNL A   1      33.675  16.607  23.312  1.00  0.00     0.003 A 
ATOM     19  C   UNL A   1      34.078  18.211  25.108  1.00  0.00     0.017 A 
ATOM     20  C   UNL A   1      32.849  17.521  22.692  1.00  0.00     0.001 A 
ATOM     21  C   UNL A   1      32.653  18.777  23.261  1.00  0.00     0.014 A 
ENDBRANCH  12  15
ENDBRANCH   6  11
BRANCH   8  22
ATOM     22  N   UNL A   1      34.451  24.297  24.286  1.00  0.00    -0.359 N 
ATOM     23  C   UNL A   1      33.931  24.431  22.905  1.00  0.00     0.178 C 
ATOM     24  C   UNL A   1      34.323  25.554  24.995  1.00  0.00     0.178 C 
ATOM     25  C   UNL A   1      32.477  25.030  22.911  1.00  0.00     0.284 C 
ATOM     26  C   UNL A   1      32.809  25.784  25.181  1.00  0.00     0.284 C 
ATOM     27  N   UNL A   1      32.108  26.055  23.921  1.00  0.00    -0.324 N 
ATOM     28  H   UNL A   1      31.103  25.948  24.062  1.00  0.00     0.348 HD
BRANCH  27  29
ATOM     29  C   UNL A   1      32.171  27.467  23.496  1.00  0.00     0.363 C 
BRANCH  29  30
ATOM     30  C   UNL A   1      31.021  28.367  23.931  1.00  0.00     0.275 C 
ATOM     31  O   UNL A   1      29.989  28.383  23.246  1.00  0.00    -0.268 OA
ATOM     32  N   UNL A   1      31.027  29.158  25.042  1.00  0.00    -0.347 N 
ATOM     33  H   UNL A   1      30.150  29.593  25.143  1.00  0.00     0.164 HD
BRANCH  32  34
ATOM     34  C   UNL A   1      31.931  29.580  26.158  1.00  0.00     0.032 C 
ATOM     35  C   UNL A   1      31.853  28.631  27.372  1.00  0.00     0.034 C 
ATOM     36  C   UNL A   1      33.371  29.426  25.621  1.00  0.00     0.034 C 
ATOM     37  C   UNL A   1      31.775  31.035  26.614  1.00  0.00     0.034 C 
ENDBRANCH  32  34
ENDBRANCH  29  30
ENDBRANCH  27  29
ENDBRANCH   8  22
ENDBRANCH   3   5
ENDBRANCH   2   3
ENDBRANCH   1   2
BRANCH   1  38
ATOM     38  C   UNL A   1      41.919  21.000  26.095  1.00  0.00     0.275 C 
BRANCH  38  39
ATOM     39  O   UNL A   1      43.005  20.755  25.144  1.00  0.00    -0.458 OA
BRANCH  39  40
ATOM     40  C   UNL A   1      44.285  21.213  25.134  1.00  0.00     0.338 C 
ATOM     41  O   UNL A   1      45.222  20.522  24.765  1.00  0.00    -0.246 OA
BRANCH  40  42
ATOM     42  C   UNL A   1      44.488  22.533  25.752  1.00  0.00     0.060 A 
ATOM     43  C   UNL A   1      44.810  22.696  27.112  1.00  0.00     0.016 A 
ATOM     44  C   UNL A   1      44.406  23.628  24.918  1.00  0.00     0.016 A 
ATOM     45  C   UNL A   1      45.056  23.970  27.635  1.00  0.00     0.010 A 
ATOM     46  C   UNL A   1      44.867  24.827  25.375  1.00  0.00     0.010 A 
ATOM     47  C   UNL A   1      45.027  25.043  26.763  1.00  0.00    -0.014 A 
BRANCH  47  48
ATOM     48  C   UNL A   1      44.772  26.448  27.112  1.00  0.00     0.031 A 
ATOM     49  C   UNL A   1      43.442  27.087  27.026  1.00  0.00     0.074 A 
ATOM     50  C   UNL A   1      45.714  26.835  28.012  1.00  0.00     0.049 A 
ATOM     51  N   UNL A   1      43.043  27.880  27.952  1.00  0.00    -0.248 NA
ATOM     52  C   UNL A   1      42.399  26.831  26.031  1.00  0.00     0.031 C 
ATOM     53  C   UNL A   1      45.656  27.687  29.189  1.00  0.00     0.029 A 
ATOM     54  N   UNL A   1      47.055  26.424  28.006  1.00  0.00    -0.354 N 
ATOM     55  C   UNL A   1      41.711  28.171  27.764  1.00  0.00     0.074 A 
ATOM     56  C   UNL A   1      41.324  27.425  26.595  1.00  0.00     0.031 C 
ATOM     57  C   UNL A   1      46.917  28.018  29.541  1.00  0.00     0.029 A 
ATOM     58  C   UNL A   1      47.792  27.501  28.496  1.00  0.00     0.049 A 
ATOM     59  H   UNL A   1      47.405  25.550  27.716  1.00  0.00     0.167 HD
ATOM     60  C   UNL A   1      41.156  29.007  28.682  1.00  0.00     0.034 A 
ATOM     61  C   UNL A   1      48.439  28.231  27.534  1.00  0.00     0.034 A 
ATOM     62  C   UNL A   1      42.236  29.864  29.199  1.00  0.00     0.049 A 
ATOM     63  C   UNL A   1      47.768  29.585  27.347  1.00  0.00     0.074 A 
ATOM     64  C   UNL A   1      43.024  29.883  30.334  1.00  0.00     0.029 A 
ATOM     65  N   UNL A   1      42.863  30.686  28.269  1.00  0.00    -0.354 N 
ATOM     66  N   UNL A   1      46.589  29.902  27.817  1.00  0.00    -0.248 NA
ATOM     67  C   UNL A   1      48.410  30.713  26.691  1.00  0.00     0.031 C 
ATOM     68  C   UNL A   1      44.228  30.585  29.993  1.00  0.00     0.029 A 
ATOM     69  C   UNL A   1      44.146  31.014  28.673  1.00  0.00     0.049 A 
ATOM     70  H   UNL A   1      42.448  30.995  27.432  1.00  0.00     0.167 HD
ATOM     71  C   UNL A   1      46.268  31.187  27.498  1.00  0.00     0.074 A 
ATOM     72  C   UNL A   1      47.478  31.670  26.847  1.00  0.00     0.031 C 
ATOM     73  C   UNL A   1      45.033  31.732  27.748  1.00  0.00     0.034 A 
BRANCH  60  74
ATOM     74  C   UNL A   1      39.728  29.115  29.180  1.00  0.00     0.023 A 
ATOM     75  C   UNL A   1      38.749  29.349  28.180  1.00  0.00     0.012 A 
ATOM     76  C   UNL A   1      39.283  29.197  30.523  1.00  0.00     0.148 A 
ATOM     77  C   UNL A   1      37.427  29.691  28.471  1.00  0.00     0.002 A 
ATOM     78  C   UNL A   1      37.945  29.529  30.815  1.00  0.00     0.091 A 
ATOM     79  F   UNL A   1      40.157  28.993  31.515  1.00  0.00    -0.205 F 
ATOM     80  C   UNL A   1      37.026  29.788  29.789  1.00  0.00     0.022 A 
BRANCH  78  81
ATOM     81  S   UNL A   1      37.271  29.710  32.481  1.00  0.00     0.127 S 
ATOM     82  O   UNL A   1      38.195  30.675  33.083  1.00  0.00    -0.237 OA
ATOM     83  O   UNL A   1      35.931  30.236  32.224  1.00  0.00    -0.237 OA
ATOM     84  O   UNL A   1      37.303  28.386  33.082  1.00  0.00    -0.744 OA
ENDBRANCH  78  81
ENDBRANCH  60  74
BRANCH  61  85
ATOM     85  C   UNL A   1      48.992  27.309  26.451  1.00  0.00     0.023 A 
ATOM     86  C   UNL A   1      48.362  27.395  25.172  1.00  0.00     0.012 A 
ATOM     87  C   UNL A   1      50.286  26.755  26.499  1.00  0.00     0.148 A 
ATOM     88  C   UNL A   1      49.061  27.133  23.988  1.00  0.00     0.002 A 
ATOM     89  C   UNL A   1      50.961  26.443  25.307  1.00  0.00     0.091 A 
ATOM     90  F   UNL A   1      50.872  26.588  27.691  1.00  0.00    -0.205 F 
ATOM     91  C   UNL A   1      50.371  26.683  24.055  1.00  0.00     0.022 A 
BRANCH  89  92
ATOM     92  S   UNL A   1      52.654  25.818  25.331  1.00  0.00     0.127 S 
ATOM     93  O   UNL A   1      53.010  25.877  23.917  1.00  0.00    -0.237 OA
ATOM     94  O   UNL A   1      53.361  26.782  26.176  1.00  0.00    -0.237 OA
ATOM     95  O   UNL A   1      52.548  24.488  25.916  1.00  0.00    -0.744 OA
ENDBRANCH  89  92
ENDBRANCH  61  85
BRANCH  73  96
ATOM     96  C   UNL A   1      44.534  33.002  27.073  1.00  0.00     0.023 A 
ATOM     97  C   UNL A   1      44.196  33.028  25.705  1.00  0.00     0.012 A 
ATOM     98  C   UNL A   1      44.223  34.170  27.814  1.00  0.00     0.148 A 
ATOM     99  C   UNL A   1      43.700  34.172  25.077  1.00  0.00     0.002 A 
ATOM    100  C   UNL A   1      43.581  35.251  27.216  1.00  0.00     0.091 A 
ATOM    101  F   UNL A   1      44.553  34.254  29.111  1.00  0.00    -0.205 F 
ATOM    102  C   UNL A   1      43.370  35.280  25.838  1.00  0.00     0.022 A 
BRANCH 100 103
ATOM    103  S   UNL A   1      42.821  36.542  28.210  1.00  0.00     0.127 S 
ATOM    104  O   UNL A   1      43.981  37.325  28.630  1.00  0.00    -0.237 OA
ATOM    105  O   UNL A   1      41.951  37.211  27.242  1.00  0.00    -0.237 OA
ATOM    106  O   UNL A   1      42.104  35.831  29.260  1.00  0.00    -0.744 OA
ENDBRANCH 100 103
ENDBRANCH  73  96
ENDBRANCH  47  48
ENDBRANCH  40  42
ENDBRANCH  39  40
ENDBRANCH  38  39
ENDBRANCH   1  38
TORSDOF 20
ENDMDL
MODEL 3
REMARK VINA RESULT:     -12.7      2.316      3.225
REMARK SMILES Cc1cccc(C(=O)Nc2cc(C(=O)OCCOC(=O)c3ccc(-c4c5nc(c(-c6cccc(S(=O)(=O)[O-])c6F)c6ccc([nH]6)c(-c6cccc(S(=O)(=O)[O-])c6F)c6nc(c(-c7cccc(S(=O)(=O)[O-])c7F)c7ccc4[nH]7)C=C6)C=C5)cc3)ccc2N2CC[NH+](CC(=O)NC(C)(C)C)CC2)c1
REMARK SMILES IDX 16 1 15 2 13 3 14 4 12 5 10 6 11 7 86 8 85 9 84 10 9 11 7 12
REMARK SMILES IDX 8 13 6 15 1 16 2 17 3 18 101 19 4 20 5 21 87 22 88 23 100 24
REMARK SMILES IDX 89 25 99 26 90 27 91 29 92 30 93 31 94 32 95 34 96 35 97 36
REMARK SMILES IDX 98 37 17 38 18 39 19 40 20 41 21 42 22 43 83 44 23 45 82 46
REMARK SMILES IDX 24 47 25 48 26 49 76 50 27 51 81 52 75 53 77 54 28 55 80 56
REMARK SMILES IDX 74 57 73 58 29 60 61 61 41 62 60 63 42 64 45 65 59 66 78 67
REMARK SMILES IDX 43 68 44 69 58 71 79 72 46 73 30 74 31 75 39 76 32 77 34 78
REMARK SMILES IDX 40 79 33 80 35 81 36 82 37 83 38 84 62 85 63 86 71 87 64 88
REMARK SMILES IDX 66 89 72 90 65 91 67 92 68 93 69 94 70 95 47 96 48 97 56 98
REMARK SMILES IDX 49 99 51 100 57 101 50 102 52 103 53 104 54 105 55 106
REMARK H PARENT 9 14 90 28 94 33 77 59 45 70
REMARK Flexibility Score: inf
ROOT
ATOM      1  C   UNL A   1      33.256  33.179  27.595  1.00  0.00     0.275 C 
ENDROOT
BRANCH   1   2
ATOM      2  O   UNL A   1      33.066  31.775  27.506  1.00  0.00    -0.458 OA
BRANCH   2   3
ATOM      3  C   UNL A   1      32.125  31.313  26.655  1.00  0.00     0.338 C 
ATOM      4  O   UNL A   1      31.138  31.880  26.258  1.00  0.00    -0.246 OA
BRANCH   3   5
ATOM      5  C   UNL A   1      32.511  29.935  26.334  1.00  0.00     0.062 A 
ATOM      6  C   UNL A   1      32.450  28.113  24.782  1.00  0.00     0.065 A 
ATOM      7  C   UNL A   1      32.169  29.431  25.084  1.00  0.00     0.044 A 
ATOM      8  C   UNL A   1      33.041  27.246  25.775  1.00  0.00     0.061 A 
ATOM      9  C   UNL A   1      33.467  27.836  26.978  1.00  0.00     0.029 A 
ATOM     10  C   UNL A   1      33.191  29.168  27.270  1.00  0.00     0.018 A 
BRANCH   6  11
ATOM     11  N   UNL A   1      32.018  27.593  23.556  1.00  0.00    -0.320 N 
ATOM     12  C   UNL A   1      31.003  27.761  22.649  1.00  0.00     0.255 C 
ATOM     13  O   UNL A   1      31.083  26.981  21.687  1.00  0.00    -0.269 OA
ATOM     14  H   UNL A   1      32.634  26.889  23.250  1.00  0.00     0.170 HD
BRANCH  12  15
ATOM     15  C   UNL A   1      29.863  28.738  22.648  1.00  0.00     0.040 A 
ATOM     16  C   UNL A   1      28.526  32.233  21.752  1.00  0.00     0.044 C 
ATOM     17  C   UNL A   1      28.634  30.819  22.225  1.00  0.00    -0.050 A 
ATOM     18  C   UNL A   1      27.460  30.242  22.706  1.00  0.00     0.003 A 
ATOM     19  C   UNL A   1      29.837  30.060  22.176  1.00  0.00     0.017 A 
ATOM     20  C   UNL A   1      27.464  28.932  23.138  1.00  0.00     0.001 A 
ATOM     21  C   UNL A   1      28.646  28.196  23.110  1.00  0.00     0.014 A 
ENDBRANCH  12  15
ENDBRANCH   6  11
BRANCH   8  22
ATOM     22  N   UNL A   1      33.186  25.873  25.616  1.00  0.00    -0.359 N 
ATOM     23  C   UNL A   1      32.426  24.836  26.354  1.00  0.00     0.178 C 
ATOM     24  C   UNL A   1      34.434  25.326  25.125  1.00  0.00     0.178 C 
ATOM     25  C   UNL A   1      32.270  23.534  25.487  1.00  0.00     0.284 C 
ATOM     26  C   UNL A   1      34.050  24.295  24.044  1.00  0.00     0.284 C 
ATOM     27  N   UNL A   1      33.375  23.112  24.589  1.00  0.00    -0.324 N 
ATOM     28  H   UNL A   1      32.928  22.597  23.830  1.00  0.00     0.348 HD
BRANCH  27  29
ATOM     29  C   UNL A   1      34.300  22.082  25.103  1.00  0.00     0.363 C 
BRANCH  29  30
ATOM     30  C   UNL A   1      33.791  21.208  26.242  1.00  0.00     0.275 C 
ATOM     31  O   UNL A   1      33.771  21.679  27.387  1.00  0.00    -0.268 OA
ATOM     32  N   UNL A   1      33.328  19.933  26.099  1.00  0.00    -0.347 N 
ATOM     33  H   UNL A   1      32.997  19.602  26.966  1.00  0.00     0.164 HD
BRANCH  32  34
ATOM     34  C   UNL A   1      33.159  18.872  25.057  1.00  0.00     0.032 C 
ATOM     35  C   UNL A   1      32.411  19.384  23.808  1.00  0.00     0.034 C 
ATOM     36  C   UNL A   1      34.582  18.533  24.560  1.00  0.00     0.034 C 
ATOM     37  C   UNL A   1      32.532  17.562  25.548  1.00  0.00     0.034 C 
ENDBRANCH  32  34
ENDBRANCH  29  30
ENDBRANCH  27  29
ENDBRANCH   8  22
ENDBRANCH   3   5
ENDBRANCH   2   3
ENDBRANCH   1   2
BRANCH   1  38
ATOM     38  C   UNL A   1      33.313  33.807  29.000  1.00  0.00     0.275 C 
BRANCH  38  39
ATOM     39  O   UNL A   1      34.467  33.745  29.901  1.00  0.00    -0.458 OA
BRANCH  39  40
ATOM     40  C   UNL A   1      34.807  32.813  30.830  1.00  0.00     0.338 C 
ATOM     41  O   UNL A   1      34.057  32.494  31.739  1.00  0.00    -0.246 OA
BRANCH  40  42
ATOM     42  C   UNL A   1      36.199  32.339  30.768  1.00  0.00     0.060 A 
ATOM     43  C   UNL A   1      36.980  32.419  29.601  1.00  0.00     0.016 A 
ATOM     44  C   UNL A   1      36.741  31.852  31.940  1.00  0.00     0.016 A 
ATOM     45  C   UNL A   1      38.319  32.012  29.613  1.00  0.00     0.010 A 
ATOM     46  C   UNL A   1      38.092  31.676  32.003  1.00  0.00     0.010 A 
ATOM     47  C   UNL A   1      38.854  31.586  30.816  1.00  0.00    -0.014 A 
BRANCH  47  48
ATOM     48  C   UNL A   1      40.007  30.692  30.994  1.00  0.00     0.031 A 
ATOM     49  C   UNL A   1      40.000  29.261  30.627  1.00  0.00     0.074 A 
ATOM     50  C   UNL A   1      41.135  31.451  30.967  1.00  0.00     0.049 A 
ATOM     51  N   UNL A   1      41.017  28.736  30.048  1.00  0.00    -0.248 NA
ATOM     52  C   UNL A   1      38.878  28.326  30.727  1.00  0.00     0.031 C 
ATOM     53  C   UNL A   1      42.455  31.227  30.401  1.00  0.00     0.029 A 
ATOM     54  N   UNL A   1      41.254  32.743  31.501  1.00  0.00    -0.354 N 
ATOM     55  C   UNL A   1      40.695  27.470  29.615  1.00  0.00     0.074 A 
ATOM     56  C   UNL A   1      39.317  27.284  29.987  1.00  0.00     0.031 C 
ATOM     57  C   UNL A   1      43.306  32.133  30.927  1.00  0.00     0.029 A 
ATOM     58  C   UNL A   1      42.566  32.853  31.956  1.00  0.00     0.049 A 
ATOM     59  H   UNL A   1      40.551  33.432  31.544  1.00  0.00     0.167 HD
ATOM     60  C   UNL A   1      41.689  26.795  28.978  1.00  0.00     0.034 A 
ATOM     61  C   UNL A   1      42.711  32.723  33.313  1.00  0.00     0.034 A 
ATOM     62  C   UNL A   1      42.967  27.307  29.501  1.00  0.00     0.049 A 
ATOM     63  C   UNL A   1      43.368  31.392  33.655  1.00  0.00     0.074 A 
ATOM     64  C   UNL A   1      43.923  28.205  29.068  1.00  0.00     0.029 A 
ATOM     65  N   UNL A   1      43.192  27.118  30.861  1.00  0.00    -0.354 N 
ATOM     66  N   UNL A   1      43.516  30.398  32.818  1.00  0.00    -0.248 NA
ATOM     67  C   UNL A   1      43.987  31.114  34.942  1.00  0.00     0.031 C 
ATOM     68  C   UNL A   1      44.601  28.688  30.236  1.00  0.00     0.029 A 
ATOM     69  C   UNL A   1      44.080  28.055  31.359  1.00  0.00     0.049 A 
ATOM     70  H   UNL A   1      42.773  26.408  31.399  1.00  0.00     0.167 HD
ATOM     71  C   UNL A   1      44.152  29.351  33.415  1.00  0.00     0.074 A 
ATOM     72  C   UNL A   1      44.484  29.882  34.730  1.00  0.00     0.031 C 
ATOM     73  C   UNL A   1      44.313  28.131  32.807  1.00  0.00     0.034 A 
BRANCH  60  74
ATOM     74  C   UNL A   1      41.624  25.725  27.905  1.00  0.00     0.023 A 
ATOM     75  C   UNL A   1      40.362  25.097  27.747  1.00  0.00     0.012 A 
ATOM     76  C   UNL A   1      42.702  25.156  27.184  1.00  0.00     0.148 A 
ATOM     77  C   UNL A   1      40.171  23.952  26.970  1.00  0.00     0.002 A 
ATOM     78  C   UNL A   1      42.505  24.009  26.388  1.00  0.00     0.091 A 
ATOM     79  F   UNL A   1      43.921  25.696  27.293  1.00  0.00    -0.205 F 
ATOM     80  C   UNL A   1      41.244  23.403  26.296  1.00  0.00     0.022 A 
BRANCH  78  81
ATOM     81  S   UNL A   1      43.806  23.166  25.461  1.00  0.00     0.127 S 
ATOM     82  O   UNL A   1      43.044  22.181  24.690  1.00  0.00    -0.237 OA
ATOM     83  O   UNL A   1      44.376  24.249  24.660  1.00  0.00    -0.237 OA
ATOM     84  O   UNL A   1      44.709  22.595  26.448  1.00  0.00    -0.744 OA
ENDBRANCH  78  81
ENDBRANCH  60  74
BRANCH  61  85
ATOM     85  C   UNL A   1      41.552  33.403  34.037  1.00  0.00     0.023 A 
ATOM     86  C   UNL A   1      41.100  34.637  33.477  1.00  0.00     0.012 A 
ATOM     87  C   UNL A   1      40.664  32.713  34.885  1.00  0.00     0.148 A 
ATOM     88  C   UNL A   1      39.769  35.055  33.593  1.00  0.00     0.002 A 
ATOM     89  C   UNL A   1      39.345  33.169  35.041  1.00  0.00     0.091 A 
ATOM     90  F   UNL A   1      41.086  31.594  35.487  1.00  0.00    -0.205 F 
ATOM     91  C   UNL A   1      38.884  34.305  34.354  1.00  0.00     0.022 A 
BRANCH  89  92
ATOM     92  S   UNL A   1      38.156  32.258  36.047  1.00  0.00     0.127 S 
ATOM     93  O   UNL A   1      38.079  30.987  35.334  1.00  0.00    -0.237 OA
ATOM     94  O   UNL A   1      38.808  32.180  37.357  1.00  0.00    -0.237 OA
ATOM     95  O   UNL A   1      36.955  33.081  36.035  1.00  0.00    -0.744 OA
ENDBRANCH  89  92
ENDBRANCH  61  85
BRANCH  73  96
ATOM     96  C   UNL A   1      44.665  26.863  33.572  1.00  0.00     0.023 A 
ATOM     97  C   UNL A   1      45.811  26.105  33.260  1.00  0.00     0.012 A 
ATOM     98  C   UNL A   1      43.957  26.472  34.737  1.00  0.00     0.148 A 
ATOM     99  C   UNL A   1      46.171  24.961  33.975  1.00  0.00     0.002 A 
ATOM    100  C   UNL A   1      44.412  25.428  35.538  1.00  0.00     0.091 A 
ATOM    101  F   UNL A   1      42.827  27.105  35.084  1.00  0.00    -0.205 F 
ATOM    102  C   UNL A   1      45.484  24.633  35.131  1.00  0.00     0.022 A 
BRANCH 100 103
ATOM    103  S   UNL A   1      43.778  25.195  37.204  1.00  0.00     0.127 S 
ATOM    104  O   UNL A   1      42.387  24.829  36.951  1.00  0.00    -0.237 OA
ATOM    105  O   UNL A   1      44.615  24.105  37.708  1.00  0.00    -0.237 OA
ATOM    106  O   UNL A   1      44.002  26.471  37.870  1.00  0.00    -0.744 OA
ENDBRANCH 100 103
ENDBRANCH  73  96
ENDBRANCH  47  48
ENDBRANCH  40  42
ENDBRANCH  39  40
ENDBRANCH  38  39
ENDBRANCH   1  38
TORSDOF 20
ENDMDL
