MODEL 1
REMARK VINA RESULT:     -12.4      0.000      0.000
REMARK SMILES CC(C)Cc1ccc(-c2cc(Cl)cc3c2O[C@H](C(F)(F)F)C(C(=O)OCCOC(=O)c2ccc(-c4c5nc(c(-c6cccc(S(=O)(=O)[O-])c6F)c6ccc([nH]6)c(-c6cccc(S(=O)(=O)[O-])c6F)c6nc(c(-c7cccc(S(=O)(=O)[O-])c7F)c7ccc4[nH]7)C=C6)C=C5)cc2)=C3)cc1
REMARK SMILES IDX 26 1 25 2 23 3 24 4 22 5 9 6 10 7 15 8 11 9 14 10 16 11
REMARK SMILES IDX 12 12 13 13 94 14 17 15 8 16 5 17 6 18 96 19 7 20 95 21 4 22
REMARK SMILES IDX 2 23 1 24 3 25 18 26 19 27 20 28 21 29 27 30 28 31 29 32
REMARK SMILES IDX 30 33 31 34 32 35 93 36 33 37 92 38 34 39 35 40 36 41 86 42
REMARK SMILES IDX 37 43 91 44 85 45 87 46 38 47 90 48 84 49 83 50 39 52 71 53
REMARK SMILES IDX 51 54 70 55 52 56 55 57 69 58 88 59 53 60 54 61 68 63 89 64
REMARK SMILES IDX 56 65 40 66 41 67 49 68 42 69 44 70 50 71 43 72 45 73 46 74
REMARK SMILES IDX 47 75 48 76 72 77 73 78 81 79 74 80 76 81 82 82 75 83 77 84
REMARK SMILES IDX 78 85 79 86 80 87 57 88 58 89 66 90 59 91 61 92 67 93 60 94
REMARK SMILES IDX 62 95 63 96 64 97 65 98
REMARK H PARENT 87 51 55 62
REMARK Flexibility Score: inf
ROOT
ATOM      1  C   UNL A   1      35.649  23.181  24.492  1.00  0.00     0.275 C 
ENDROOT
BRANCH   1   2
ATOM      2  O   UNL A   1      35.258  23.989  25.633  1.00  0.00    -0.459 OA
BRANCH   2   3
ATOM      3  C   UNL A   1      34.351  23.374  26.437  1.00  0.00     0.338 C 
ATOM      4  O   UNL A   1      34.620  22.893  27.533  1.00  0.00    -0.246 OA
BRANCH   3   5
ATOM      5  C   UNL A   1      32.969  23.322  25.888  1.00  0.00     0.087 C 
ATOM      6  C   UNL A   1      31.471  26.727  24.308  1.00  0.00     0.026 A 
ATOM      7  C   UNL A   1      32.296  27.657  24.987  1.00  0.00     0.033 A 
ATOM      8  C   UNL A   1      31.554  25.430  24.823  1.00  0.00     0.135 A 
ATOM      9  C   UNL A   1      32.960  27.380  26.186  1.00  0.00     0.042 A 
ATOM     10  C   UNL A   1      31.988  25.245  26.164  1.00  0.00     0.019 A 
ATOM     11  O   UNL A   1      31.502  24.269  24.050  1.00  0.00    -0.475 OA
ATOM     12  Cl  UNL A   1      34.196  28.361  26.853  1.00  0.00    -0.084 Cl
ATOM     13  C   UNL A   1      32.678  26.221  26.855  1.00  0.00     0.032 A 
ATOM     14  C   UNL A   1      32.052  23.874  26.703  1.00  0.00     0.027 C 
ATOM     15  C   UNL A   1      32.610  23.296  24.413  1.00  0.00     0.316 C 
BRANCH   6  16
ATOM     16  C   UNL A   1      30.524  27.354  23.321  1.00  0.00    -0.015 A 
ATOM     17  C   UNL A   1      28.557  29.270  22.374  1.00  0.00    -0.048 A 
ATOM     18  C   UNL A   1      29.910  29.366  22.026  1.00  0.00     0.004 A 
ATOM     19  C   UNL A   1      28.182  28.155  23.130  1.00  0.00     0.004 A 
ATOM     20  C   UNL A   1      30.863  28.393  22.443  1.00  0.00     0.009 A 
ATOM     21  C   UNL A   1      29.140  27.224  23.588  1.00  0.00     0.009 A 
BRANCH  17  22
ATOM     22  C   UNL A   1      27.528  30.352  22.045  1.00  0.00     0.038 C 
BRANCH  22  23
ATOM     23  C   UNL A   1      27.762  31.759  22.647  1.00  0.00    -0.013 C 
ATOM     24  C   UNL A   1      28.665  31.708  23.879  1.00  0.00     0.008 C 
ATOM     25  C   UNL A   1      28.400  32.715  21.627  1.00  0.00     0.008 C 
ENDBRANCH  22  23
ENDBRANCH  17  22
ENDBRANCH   6  16
BRANCH  15  26
ATOM     26  C   UNL A   1      32.186  21.846  24.138  1.00  0.00     0.430 C 
ATOM     27  F   UNL A   1      31.827  21.661  22.844  1.00  0.00    -0.167 F 
ATOM     28  F   UNL A   1      33.157  20.956  24.427  1.00  0.00    -0.167 F 
ATOM     29  F   UNL A   1      31.104  21.504  24.890  1.00  0.00    -0.167 F 
ENDBRANCH  15  26
ENDBRANCH   3   5
ENDBRANCH   2   3
ENDBRANCH   1   2
BRANCH   1  30
ATOM     30  C   UNL A   1      36.123  21.771  24.863  1.00  0.00     0.275 C 
BRANCH  30  31
ATOM     31  O   UNL A   1      36.928  21.768  26.055  1.00  0.00    -0.458 OA
BRANCH  31  32
ATOM     32  C   UNL A   1      38.239  21.519  25.832  1.00  0.00     0.338 C 
ATOM     33  O   UNL A   1      38.685  20.594  25.161  1.00  0.00    -0.246 OA
BRANCH  32  34
ATOM     34  C   UNL A   1      39.106  22.588  26.389  1.00  0.00     0.060 A 
ATOM     35  C   UNL A   1      38.810  23.886  25.989  1.00  0.00     0.016 A 
ATOM     36  C   UNL A   1      40.184  22.378  27.261  1.00  0.00     0.016 A 
ATOM     37  C   UNL A   1      39.548  24.952  26.503  1.00  0.00     0.010 A 
ATOM     38  C   UNL A   1      40.916  23.476  27.785  1.00  0.00     0.010 A 
ATOM     39  C   UNL A   1      40.582  24.790  27.442  1.00  0.00    -0.014 A 
BRANCH  39  40
ATOM     40  C   UNL A   1      41.240  26.047  27.962  1.00  0.00     0.031 A 
ATOM     41  C   UNL A   1      42.594  26.427  27.433  1.00  0.00     0.074 A 
ATOM     42  C   UNL A   1      40.597  26.975  28.710  1.00  0.00     0.049 A 
ATOM     43  N   UNL A   1      43.250  27.547  27.583  1.00  0.00    -0.248 NA
ATOM     44  C   UNL A   1      43.296  25.414  26.630  1.00  0.00     0.031 C 
ATOM     45  C   UNL A   1      39.282  26.803  29.290  1.00  0.00     0.029 A 
ATOM     46  N   UNL A   1      40.907  28.282  29.038  1.00  0.00    -0.354 N 
ATOM     47  C   UNL A   1      44.450  27.369  26.921  1.00  0.00     0.074 A 
ATOM     48  C   UNL A   1      44.411  26.054  26.315  1.00  0.00     0.031 C 
ATOM     49  C   UNL A   1      38.802  27.982  29.712  1.00  0.00     0.029 A 
ATOM     50  C   UNL A   1      39.865  28.975  29.631  1.00  0.00     0.049 A 
ATOM     51  H   UNL A   1      41.790  28.684  28.865  1.00  0.00     0.167 HD
ATOM     52  C   UNL A   1      45.515  28.199  26.856  1.00  0.00     0.034 A 
ATOM     53  C   UNL A   1      39.775  30.238  30.110  1.00  0.00     0.034 A 
ATOM     54  C   UNL A   1      45.621  29.467  27.519  1.00  0.00     0.049 A 
ATOM     55  C   UNL A   1      41.013  31.097  30.115  1.00  0.00     0.074 A 
ATOM     56  C   UNL A   1      46.704  30.329  27.541  1.00  0.00     0.029 A 
ATOM     57  N   UNL A   1      44.637  30.044  28.302  1.00  0.00    -0.354 N 
ATOM     58  N   UNL A   1      42.172  30.874  29.547  1.00  0.00    -0.248 NA
ATOM     59  C   UNL A   1      40.951  32.365  30.862  1.00  0.00     0.031 C 
ATOM     60  C   UNL A   1      46.380  31.422  28.351  1.00  0.00     0.029 A 
ATOM     61  C   UNL A   1      45.073  31.269  28.781  1.00  0.00     0.049 A 
ATOM     62  H   UNL A   1      43.757  29.644  28.491  1.00  0.00     0.167 HD
ATOM     63  C   UNL A   1      42.970  31.968  29.863  1.00  0.00     0.074 A 
ATOM     64  C   UNL A   1      42.154  32.876  30.638  1.00  0.00     0.031 C 
ATOM     65  C   UNL A   1      44.270  32.182  29.550  1.00  0.00     0.034 A 
BRANCH  52  66
ATOM     66  C   UNL A   1      46.698  27.696  26.088  1.00  0.00     0.023 A 
ATOM     67  C   UNL A   1      46.783  27.911  24.699  1.00  0.00     0.012 A 
ATOM     68  C   UNL A   1      47.720  26.998  26.756  1.00  0.00     0.148 A 
ATOM     69  C   UNL A   1      47.864  27.409  23.978  1.00  0.00     0.002 A 
ATOM     70  C   UNL A   1      48.812  26.539  26.039  1.00  0.00     0.091 A 
ATOM     71  F   UNL A   1      47.588  26.776  28.071  1.00  0.00    -0.205 F 
ATOM     72  C   UNL A   1      48.881  26.732  24.649  1.00  0.00     0.022 A 
BRANCH  70  73
ATOM     73  S   UNL A   1      50.194  25.709  26.826  1.00  0.00     0.127 S 
ATOM     74  O   UNL A   1      51.127  25.570  25.710  1.00  0.00    -0.237 OA
ATOM     75  O   UNL A   1      50.595  26.682  27.842  1.00  0.00    -0.237 OA
ATOM     76  O   UNL A   1      49.665  24.460  27.355  1.00  0.00    -0.744 OA
ENDBRANCH  70  73
ENDBRANCH  52  66
BRANCH  53  77
ATOM     77  C   UNL A   1      38.508  30.772  30.715  1.00  0.00     0.023 A 
ATOM     78  C   UNL A   1      38.251  30.591  32.092  1.00  0.00     0.012 A 
ATOM     79  C   UNL A   1      37.524  31.403  29.928  1.00  0.00     0.148 A 
ATOM     80  C   UNL A   1      37.036  30.996  32.657  1.00  0.00     0.002 A 
ATOM     81  C   UNL A   1      36.356  31.882  30.513  1.00  0.00     0.091 A 
ATOM     82  F   UNL A   1      37.734  31.511  28.608  1.00  0.00    -0.205 F 
ATOM     83  C   UNL A   1      36.097  31.658  31.872  1.00  0.00     0.022 A 
BRANCH  81  84
ATOM     84  S   UNL A   1      35.175  32.880  29.599  1.00  0.00     0.127 S 
ATOM     85  O   UNL A   1      34.213  33.234  30.637  1.00  0.00    -0.237 OA
ATOM     86  O   UNL A   1      36.011  33.984  29.128  1.00  0.00    -0.237 OA
ATOM     87  O   UNL A   1      34.677  32.014  28.537  1.00  0.00    -0.744 OA
ENDBRANCH  81  84
ENDBRANCH  53  77
BRANCH  65  88
ATOM     88  C   UNL A   1      44.902  33.470  30.011  1.00  0.00     0.023 A 
ATOM     89  C   UNL A   1      45.620  33.509  31.222  1.00  0.00     0.012 A 
ATOM     90  C   UNL A   1      44.839  34.624  29.206  1.00  0.00     0.148 A 
ATOM     91  C   UNL A   1      46.247  34.685  31.636  1.00  0.00     0.002 A 
ATOM     92  C   UNL A   1      45.509  35.776  29.599  1.00  0.00     0.091 A 
ATOM     93  F   UNL A   1      44.130  34.572  28.070  1.00  0.00    -0.205 F 
ATOM     94  C   UNL A   1      46.203  35.813  30.820  1.00  0.00     0.022 A 
BRANCH  92  95
ATOM     95  S   UNL A   1      45.586  37.248  28.572  1.00  0.00     0.127 S 
ATOM     96  O   UNL A   1      46.579  38.054  29.279  1.00  0.00    -0.237 OA
ATOM     97  O   UNL A   1      46.039  36.704  27.291  1.00  0.00    -0.237 OA
ATOM     98  O   UNL A   1      44.238  37.800  28.556  1.00  0.00    -0.744 OA
ENDBRANCH  92  95
ENDBRANCH  65  88
ENDBRANCH  39  40
ENDBRANCH  32  34
ENDBRANCH  31  32
ENDBRANCH  30  31
ENDBRANCH   1  30
TORSDOF 18
ENDMDL
MODEL 2
REMARK VINA RESULT:     -12.1      1.504      7.652
REMARK SMILES CC(C)Cc1ccc(-c2cc(Cl)cc3c2O[C@H](C(F)(F)F)C(C(=O)OCCOC(=O)c2ccc(-c4c5nc(c(-c6cccc(S(=O)(=O)[O-])c6F)c6ccc([nH]6)c(-c6cccc(S(=O)(=O)[O-])c6F)c6nc(c(-c7cccc(S(=O)(=O)[O-])c7F)c7ccc4[nH]7)C=C6)C=C5)cc2)=C3)cc1
REMARK SMILES IDX 26 1 25 2 23 3 24 4 22 5 9 6 10 7 15 8 11 9 14 10 16 11
REMARK SMILES IDX 12 12 13 13 94 14 17 15 8 16 5 17 6 18 96 19 7 20 95 21 4 22
REMARK SMILES IDX 2 23 1 24 3 25 18 26 19 27 20 28 21 29 27 30 28 31 29 32
REMARK SMILES IDX 30 33 31 34 32 35 93 36 33 37 92 38 34 39 35 40 36 41 86 42
REMARK SMILES IDX 37 43 91 44 85 45 87 46 38 47 90 48 84 49 83 50 39 52 71 53
REMARK SMILES IDX 51 54 70 55 52 56 55 57 69 58 88 59 53 60 54 61 68 63 89 64
REMARK SMILES IDX 56 65 40 66 41 67 49 68 42 69 44 70 50 71 43 72 45 73 46 74
REMARK SMILES IDX 47 75 48 76 72 77 73 78 81 79 74 80 76 81 82 82 75 83 77 84
REMARK SMILES IDX 78 85 79 86 80 87 57 88 58 89 66 90 59 91 61 92 67 93 60 94
REMARK SMILES IDX 62 95 63 96 64 97 65 98
REMARK H PARENT 87 51 55 62
REMARK Flexibility Score: inf
ROOT
ATOM      1  C   UNL A   1      35.977  21.067  25.759  1.00  0.00     0.275 C 
ENDROOT
BRANCH   1   2
ATOM      2  O   UNL A   1      34.584  20.662  25.717  1.00  0.00    -0.459 OA
BRANCH   2   3
ATOM      3  C   UNL A   1      33.723  21.682  25.972  1.00  0.00     0.338 C 
ATOM      4  O   UNL A   1      33.215  21.894  27.069  1.00  0.00    -0.246 OA
BRANCH   3   5
ATOM      5  C   UNL A   1      33.428  22.553  24.802  1.00  0.00     0.087 C 
ATOM      6  C   UNL A   1      30.469  25.274  25.214  1.00  0.00     0.026 A 
ATOM      7  C   UNL A   1      29.752  24.651  26.265  1.00  0.00     0.033 A 
ATOM      8  C   UNL A   1      31.440  24.450  24.638  1.00  0.00     0.135 A 
ATOM      9  C   UNL A   1      29.834  23.287  26.564  1.00  0.00     0.042 A 
ATOM     10  C   UNL A   1      31.308  23.040  24.755  1.00  0.00     0.019 A 
ATOM     11  O   UNL A   1      32.681  24.895  24.181  1.00  0.00    -0.475 OA
ATOM     12  Cl  UNL A   1      29.234  22.577  28.003  1.00  0.00    -0.084 Cl
ATOM     13  C   UNL A   1      30.496  22.453  25.705  1.00  0.00     0.032 A 
ATOM     14  C   UNL A   1      32.327  22.180  24.126  1.00  0.00     0.027 C 
ATOM     15  C   UNL A   1      33.816  24.016  24.676  1.00  0.00     0.316 C 
BRANCH   6  16
ATOM     16  C   UNL A   1      29.905  26.605  24.792  1.00  0.00    -0.015 A 
ATOM     17  C   UNL A   1      29.509  28.888  23.041  1.00  0.00    -0.048 A 
ATOM     18  C   UNL A   1      28.565  27.858  23.139  1.00  0.00     0.004 A 
ATOM     19  C   UNL A   1      30.614  28.808  23.894  1.00  0.00     0.004 A 
ATOM     20  C   UNL A   1      28.733  26.769  24.040  1.00  0.00     0.009 A 
ATOM     21  C   UNL A   1      30.803  27.697  24.745  1.00  0.00     0.009 A 
BRANCH  17  22
ATOM     22  C   UNL A   1      29.423  30.009  22.005  1.00  0.00     0.038 C 
BRANCH  22  23
ATOM     23  C   UNL A   1      28.082  30.776  21.901  1.00  0.00    -0.013 C 
ATOM     24  C   UNL A   1      27.683  31.408  23.234  1.00  0.00     0.008 C 
ATOM     25  C   UNL A   1      28.143  31.889  20.844  1.00  0.00     0.008 C 
ENDBRANCH  22  23
ENDBRANCH  17  22
ENDBRANCH   6  16
BRANCH  15  26
ATOM     26  C   UNL A   1      34.994  24.025  23.692  1.00  0.00     0.430 C 
ATOM     27  F   UNL A   1      36.159  24.358  24.302  1.00  0.00    -0.167 F 
ATOM     28  F   UNL A   1      35.175  22.836  23.083  1.00  0.00    -0.167 F 
ATOM     29  F   UNL A   1      34.799  24.944  22.707  1.00  0.00    -0.167 F 
ENDBRANCH  15  26
ENDBRANCH   3   5
ENDBRANCH   2   3
ENDBRANCH   1   2
BRANCH   1  30
ATOM     30  C   UNL A   1      36.922  20.123  25.008  1.00  0.00     0.275 C 
BRANCH  30  31
ATOM     31  O   UNL A   1      38.183  20.745  24.710  1.00  0.00    -0.458 OA
BRANCH  31  32
ATOM     32  C   UNL A   1      39.042  20.776  25.755  1.00  0.00     0.338 C 
ATOM     33  O   UNL A   1      39.519  19.793  26.314  1.00  0.00    -0.246 OA
BRANCH  32  34
ATOM     34  C   UNL A   1      39.465  22.160  26.082  1.00  0.00     0.060 A 
ATOM     35  C   UNL A   1      40.813  22.336  26.371  1.00  0.00     0.016 A 
ATOM     36  C   UNL A   1      38.613  23.273  26.127  1.00  0.00     0.016 A 
ATOM     37  C   UNL A   1      41.299  23.614  26.644  1.00  0.00     0.010 A 
ATOM     38  C   UNL A   1      39.127  24.569  26.393  1.00  0.00     0.010 A 
ATOM     39  C   UNL A   1      40.494  24.766  26.617  1.00  0.00    -0.014 A 
BRANCH  39  40
ATOM     40  C   UNL A   1      41.180  26.090  26.861  1.00  0.00     0.031 A 
ATOM     41  C   UNL A   1      40.563  27.059  27.829  1.00  0.00     0.074 A 
ATOM     42  C   UNL A   1      42.433  26.374  26.432  1.00  0.00     0.049 A 
ATOM     43  N   UNL A   1      41.072  28.150  28.336  1.00  0.00    -0.248 NA
ATOM     44  C   UNL A   1      39.198  26.756  28.284  1.00  0.00     0.031 C 
ATOM     45  C   UNL A   1      43.199  25.555  25.516  1.00  0.00     0.029 A 
ATOM     46  N   UNL A   1      43.329  27.370  26.774  1.00  0.00    -0.354 N 
ATOM     47  C   UNL A   1      40.086  28.680  29.147  1.00  0.00     0.074 A 
ATOM     48  C   UNL A   1      38.967  27.761  29.114  1.00  0.00     0.031 C 
ATOM     49  C   UNL A   1      44.486  25.933  25.520  1.00  0.00     0.029 A 
ATOM     50  C   UNL A   1      44.608  27.170  26.280  1.00  0.00     0.049 A 
ATOM     51  H   UNL A   1      43.081  28.151  27.320  1.00  0.00     0.167 HD
ATOM     52  C   UNL A   1      40.083  29.850  29.826  1.00  0.00     0.034 A 
ATOM     53  C   UNL A   1      45.737  27.910  26.368  1.00  0.00     0.034 A 
ATOM     54  C   UNL A   1      41.136  30.824  29.807  1.00  0.00     0.049 A 
ATOM     55  C   UNL A   1      45.667  29.256  27.043  1.00  0.00     0.074 A 
ATOM     56  C   UNL A   1      41.164  32.060  30.427  1.00  0.00     0.029 A 
ATOM     57  N   UNL A   1      42.327  30.699  29.113  1.00  0.00    -0.354 N 
ATOM     58  N   UNL A   1      44.690  29.776  27.742  1.00  0.00    -0.248 NA
ATOM     59  C   UNL A   1      46.838  30.140  26.907  1.00  0.00     0.031 C 
ATOM     60  C   UNL A   1      42.368  32.691  30.096  1.00  0.00     0.029 A 
ATOM     61  C   UNL A   1      43.114  31.821  29.321  1.00  0.00     0.049 A 
ATOM     62  H   UNL A   1      42.579  29.928  28.555  1.00  0.00     0.167 HD
ATOM     63  C   UNL A   1      45.127  31.038  28.131  1.00  0.00     0.074 A 
ATOM     64  C   UNL A   1      46.473  31.193  27.626  1.00  0.00     0.031 C 
ATOM     65  C   UNL A   1      44.455  31.985  28.827  1.00  0.00     0.034 A 
BRANCH  52  66
ATOM     66  C   UNL A   1      38.834  30.167  30.589  1.00  0.00     0.023 A 
ATOM     67  C   UNL A   1      38.647  29.651  31.885  1.00  0.00     0.012 A 
ATOM     68  C   UNL A   1      37.842  30.972  30.002  1.00  0.00     0.148 A 
ATOM     69  C   UNL A   1      37.468  29.914  32.579  1.00  0.00     0.002 A 
ATOM     70  C   UNL A   1      36.691  31.263  30.715  1.00  0.00     0.091 A 
ATOM     71  F   UNL A   1      38.034  31.413  28.750  1.00  0.00    -0.205 F 
ATOM     72  C   UNL A   1      36.496  30.726  31.998  1.00  0.00     0.022 A 
BRANCH  70  73
ATOM     73  S   UNL A   1      35.414  32.345  30.070  1.00  0.00     0.127 S 
ATOM     74  O   UNL A   1      36.146  33.601  29.911  1.00  0.00    -0.237 OA
ATOM     75  O   UNL A   1      35.056  31.682  28.817  1.00  0.00    -0.237 OA
ATOM     76  O   UNL A   1      34.358  32.363  31.073  1.00  0.00    -0.744 OA
ENDBRANCH  70  73
ENDBRANCH  52  66
BRANCH  53  77
ATOM     77  C   UNL A   1      47.029  27.470  25.738  1.00  0.00     0.023 A 
ATOM     78  C   UNL A   1      47.277  27.736  24.374  1.00  0.00     0.012 A 
ATOM     79  C   UNL A   1      47.989  26.736  26.462  1.00  0.00     0.148 A 
ATOM     80  C   UNL A   1      48.430  27.253  23.745  1.00  0.00     0.002 A 
ATOM     81  C   UNL A   1      49.174  26.335  25.852  1.00  0.00     0.091 A 
ATOM     82  F   UNL A   1      47.724  26.420  27.738  1.00  0.00    -0.205 F 
ATOM     83  C   UNL A   1      49.387  26.569  24.487  1.00  0.00     0.022 A 
BRANCH  81  84
ATOM     84  S   UNL A   1      50.517  25.589  26.784  1.00  0.00     0.127 S 
ATOM     85  O   UNL A   1      51.477  25.278  25.729  1.00  0.00    -0.237 OA
ATOM     86  O   UNL A   1      50.910  26.679  27.676  1.00  0.00    -0.237 OA
ATOM     87  O   UNL A   1      49.926  24.444  27.466  1.00  0.00    -0.744 OA
ENDBRANCH  81  84
ENDBRANCH  53  77
BRANCH  65  88
ATOM     88  C   UNL A   1      45.169  33.277  29.127  1.00  0.00     0.023 A 
ATOM     89  C   UNL A   1      45.974  33.388  30.278  1.00  0.00     0.012 A 
ATOM     90  C   UNL A   1      45.093  34.360  28.229  1.00  0.00     0.148 A 
ATOM     91  C   UNL A   1      46.676  34.565  30.542  1.00  0.00     0.002 A 
ATOM     92  C   UNL A   1      45.835  35.510  28.472  1.00  0.00     0.091 A 
ATOM     93  F   UNL A   1      44.302  34.243  27.154  1.00  0.00    -0.205 F 
ATOM     94  C   UNL A   1      46.616  35.620  29.633  1.00  0.00     0.022 A 
BRANCH  92  95
ATOM     95  S   UNL A   1      45.893  36.884  27.315  1.00  0.00     0.127 S 
ATOM     96  O   UNL A   1      46.670  36.315  26.215  1.00  0.00    -0.237 OA
ATOM     97  O   UNL A   1      44.476  37.094  27.018  1.00  0.00    -0.237 OA
ATOM     98  O   UNL A   1      46.535  37.982  28.025  1.00  0.00    -0.744 OA
ENDBRANCH  92  95
ENDBRANCH  65  88
ENDBRANCH  39  40
ENDBRANCH  32  34
ENDBRANCH  31  32
ENDBRANCH  30  31
ENDBRANCH   1  30
TORSDOF 18
ENDMDL
MODEL 3
REMARK VINA RESULT:     -11.7      2.065      3.042
REMARK SMILES CC(C)Cc1ccc(-c2cc(Cl)cc3c2O[C@H](C(F)(F)F)C(C(=O)OCCOC(=O)c2ccc(-c4c5nc(c(-c6cccc(S(=O)(=O)[O-])c6F)c6ccc([nH]6)c(-c6cccc(S(=O)(=O)[O-])c6F)c6nc(c(-c7cccc(S(=O)(=O)[O-])c7F)c7ccc4[nH]7)C=C6)C=C5)cc2)=C3)cc1
REMARK SMILES IDX 26 1 25 2 23 3 24 4 22 5 9 6 10 7 15 8 11 9 14 10 16 11
REMARK SMILES IDX 12 12 13 13 94 14 17 15 8 16 5 17 6 18 96 19 7 20 95 21 4 22
REMARK SMILES IDX 2 23 1 24 3 25 18 26 19 27 20 28 21 29 27 30 28 31 29 32
REMARK SMILES IDX 30 33 31 34 32 35 93 36 33 37 92 38 34 39 35 40 36 41 86 42
REMARK SMILES IDX 37 43 91 44 85 45 87 46 38 47 90 48 84 49 83 50 39 52 71 53
REMARK SMILES IDX 51 54 70 55 52 56 55 57 69 58 88 59 53 60 54 61 68 63 89 64
REMARK SMILES IDX 56 65 40 66 41 67 49 68 42 69 44 70 50 71 43 72 45 73 46 74
REMARK SMILES IDX 47 75 48 76 72 77 73 78 81 79 74 80 76 81 82 82 75 83 77 84
REMARK SMILES IDX 78 85 79 86 80 87 57 88 58 89 66 90 59 91 61 92 67 93 60 94
REMARK SMILES IDX 62 95 63 96 64 97 65 98
REMARK H PARENT 87 51 55 62
REMARK Flexibility Score: inf
ROOT
ATOM      1  C   UNL A   1      37.722  19.613  24.881  1.00  0.00     0.275 C 
ENDROOT
BRANCH   1   2
ATOM      2  O   UNL A   1      36.547  20.465  24.888  1.00  0.00    -0.459 OA
BRANCH   2   3
ATOM      3  C   UNL A   1      35.381  19.766  24.876  1.00  0.00     0.338 C 
ATOM      4  O   UNL A   1      35.314  18.544  24.791  1.00  0.00    -0.246 OA
BRANCH   3   5
ATOM      5  C   UNL A   1      34.155  20.603  24.978  1.00  0.00     0.087 C 
ATOM      6  C   UNL A   1      34.639  24.615  24.952  1.00  0.00     0.026 A 
ATOM      7  C   UNL A   1      35.985  24.669  25.390  1.00  0.00     0.033 A 
ATOM      8  C   UNL A   1      34.057  23.351  25.096  1.00  0.00     0.135 A 
ATOM      9  C   UNL A   1      36.617  23.643  26.098  1.00  0.00     0.042 A 
ATOM     10  C   UNL A   1      34.600  22.445  26.047  1.00  0.00     0.019 A 
ATOM     11  O   UNL A   1      33.149  22.794  24.195  1.00  0.00    -0.475 OA
ATOM     12  Cl  UNL A   1      38.308  23.549  26.358  1.00  0.00    -0.084 Cl
ATOM     13  C   UNL A   1      35.872  22.593  26.562  1.00  0.00     0.032 A 
ATOM     14  C   UNL A   1      33.967  21.122  26.204  1.00  0.00     0.027 C 
ATOM     15  C   UNL A   1      33.514  21.366  23.832  1.00  0.00     0.316 C 
BRANCH   6  16
ATOM     16  C   UNL A   1      34.045  25.959  24.626  1.00  0.00    -0.015 A 
ATOM     17  C   UNL A   1      31.920  27.882  24.156  1.00  0.00    -0.048 A 
ATOM     18  C   UNL A   1      32.616  27.831  25.370  1.00  0.00     0.004 A 
ATOM     19  C   UNL A   1      32.356  27.019  23.147  1.00  0.00     0.004 A 
ATOM     20  C   UNL A   1      33.696  26.927  25.578  1.00  0.00     0.009 A 
ATOM     21  C   UNL A   1      33.391  26.086  23.377  1.00  0.00     0.009 A 
BRANCH  17  22
ATOM     22  C   UNL A   1      30.683  28.754  23.935  1.00  0.00     0.038 C 
BRANCH  22  23
ATOM     23  C   UNL A   1      29.566  28.181  23.030  1.00  0.00    -0.013 C 
ATOM     24  C   UNL A   1      28.782  27.069  23.727  1.00  0.00     0.008 C 
ATOM     25  C   UNL A   1      28.570  29.268  22.598  1.00  0.00     0.008 C 
ENDBRANCH  22  23
ENDBRANCH  17  22
ENDBRANCH   6  16
BRANCH  15  26
ATOM     26  C   UNL A   1      32.265  20.550  23.468  1.00  0.00     0.430 C 
ATOM     27  F   UNL A   1      31.404  20.452  24.510  1.00  0.00    -0.167 F 
ATOM     28  F   UNL A   1      31.589  21.071  22.424  1.00  0.00    -0.167 F 
ATOM     29  F   UNL A   1      32.599  19.276  23.124  1.00  0.00    -0.167 F 
ENDBRANCH  15  26
ENDBRANCH   3   5
ENDBRANCH   2   3
ENDBRANCH   1   2
BRANCH   1  30
ATOM     30  C   UNL A   1      38.906  20.181  25.673  1.00  0.00     0.275 C 
BRANCH  30  31
ATOM     31  O   UNL A   1      40.164  19.918  25.027  1.00  0.00    -0.458 OA
BRANCH  31  32
ATOM     32  C   UNL A   1      41.186  19.696  25.885  1.00  0.00     0.338 C 
ATOM     33  O   UNL A   1      41.714  18.609  26.100  1.00  0.00    -0.246 OA
BRANCH  32  34
ATOM     34  C   UNL A   1      41.710  20.961  26.459  1.00  0.00     0.060 A 
ATOM     35  C   UNL A   1      41.704  22.064  25.614  1.00  0.00     0.016 A 
ATOM     36  C   UNL A   1      42.208  21.109  27.762  1.00  0.00     0.016 A 
ATOM     37  C   UNL A   1      42.137  23.301  26.091  1.00  0.00     0.010 A 
ATOM     38  C   UNL A   1      42.631  22.378  28.235  1.00  0.00     0.010 A 
ATOM     39  C   UNL A   1      42.565  23.509  27.414  1.00  0.00    -0.014 A 
BRANCH  39  40
ATOM     40  C   UNL A   1      42.933  24.921  27.803  1.00  0.00     0.031 A 
ATOM     41  C   UNL A   1      44.228  25.496  27.303  1.00  0.00     0.074 A 
ATOM     42  C   UNL A   1      42.072  25.785  28.392  1.00  0.00     0.049 A 
ATOM     43  N   UNL A   1      44.649  26.732  27.343  1.00  0.00    -0.248 NA
ATOM     44  C   UNL A   1      45.168  24.555  26.675  1.00  0.00     0.031 C 
ATOM     45  C   UNL A   1      40.772  25.427  28.919  1.00  0.00     0.029 A 
ATOM     46  N   UNL A   1      42.105  27.156  28.566  1.00  0.00    -0.354 N 
ATOM     47  C   UNL A   1      45.908  26.718  26.773  1.00  0.00     0.074 A 
ATOM     48  C   UNL A   1      46.163  25.360  26.339  1.00  0.00     0.031 C 
ATOM     49  C   UNL A   1      40.048  26.530  29.160  1.00  0.00     0.029 A 
ATOM     50  C   UNL A   1      40.908  27.696  29.009  1.00  0.00     0.049 A 
ATOM     51  H   UNL A   1      42.907  27.701  28.390  1.00  0.00     0.167 HD
ATOM     52  C   UNL A   1      46.800  27.728  26.660  1.00  0.00     0.034 A 
ATOM     53  C   UNL A   1      40.547  28.963  29.318  1.00  0.00     0.034 A 
ATOM     54  C   UNL A   1      46.614  29.060  27.160  1.00  0.00     0.049 A 
ATOM     55  C   UNL A   1      41.597  30.043  29.278  1.00  0.00     0.074 A 
ATOM     56  C   UNL A   1      47.511  30.114  27.129  1.00  0.00     0.029 A 
ATOM     57  N   UNL A   1      45.482  29.519  27.810  1.00  0.00    -0.354 N 
ATOM     58  N   UNL A   1      42.817  29.988  28.806  1.00  0.00    -0.248 NA
ATOM     59  C   UNL A   1      41.240  31.351  29.854  1.00  0.00     0.031 C 
ATOM     60  C   UNL A   1      46.926  31.208  27.774  1.00  0.00     0.029 A 
ATOM     61  C   UNL A   1      45.642  30.853  28.151  1.00  0.00     0.049 A 
ATOM     62  H   UNL A   1      44.681  28.978  28.001  1.00  0.00     0.167 HD
ATOM     63  C   UNL A   1      43.368  31.245  29.021  1.00  0.00     0.074 A 
ATOM     64  C   UNL A   1      42.339  32.059  29.630  1.00  0.00     0.031 C 
ATOM     65  C   UNL A   1      44.625  31.673  28.753  1.00  0.00     0.034 A 
BRANCH  52  66
ATOM     66  C   UNL A   1      48.111  27.382  26.026  1.00  0.00     0.023 A 
ATOM     67  C   UNL A   1      49.171  26.894  26.814  1.00  0.00     0.012 A 
ATOM     68  C   UNL A   1      48.286  27.556  24.642  1.00  0.00     0.148 A 
ATOM     69  C   UNL A   1      50.403  26.609  26.231  1.00  0.00     0.002 A 
ATOM     70  C   UNL A   1      49.502  27.231  24.062  1.00  0.00     0.091 A 
ATOM     71  F   UNL A   1      47.270  28.061  23.927  1.00  0.00    -0.205 F 
ATOM     72  C   UNL A   1      50.565  26.769  24.856  1.00  0.00     0.022 A 
BRANCH  70  73
ATOM     73  S   UNL A   1      49.782  27.350  22.295  1.00  0.00     0.127 S 
ATOM     74  O   UNL A   1      48.600  26.671  21.764  1.00  0.00    -0.237 OA
ATOM     75  O   UNL A   1      49.801  28.798  22.085  1.00  0.00    -0.237 OA
ATOM     76  O   UNL A   1      51.050  26.682  22.042  1.00  0.00    -0.744 OA
ENDBRANCH  70  73
ENDBRANCH  52  66
BRANCH  53  77
ATOM     77  C   UNL A   1      39.159  29.304  29.782  1.00  0.00     0.023 A 
ATOM     78  C   UNL A   1      38.771  29.031  31.112  1.00  0.00     0.012 A 
ATOM     79  C   UNL A   1      38.198  29.840  28.902  1.00  0.00     0.148 A 
ATOM     80  C   UNL A   1      37.457  29.253  31.539  1.00  0.00     0.002 A 
ATOM     81  C   UNL A   1      36.918  30.140  29.356  1.00  0.00     0.091 A 
ATOM     82  F   UNL A   1      38.542  30.033  27.620  1.00  0.00    -0.205 F 
ATOM     83  C   UNL A   1      36.535  29.824  30.666  1.00  0.00     0.022 A 
BRANCH  81  84
ATOM     84  S   UNL A   1      35.729  31.020  28.336  1.00  0.00     0.127 S 
ATOM     85  O   UNL A   1      34.759  31.473  29.328  1.00  0.00    -0.237 OA
ATOM     86  O   UNL A   1      36.555  32.077  27.751  1.00  0.00    -0.237 OA
ATOM     87  O   UNL A   1      35.245  30.040  27.372  1.00  0.00    -0.744 OA
ENDBRANCH  81  84
ENDBRANCH  53  77
BRANCH  65  88
ATOM     88  C   UNL A   1      44.967  33.103  29.079  1.00  0.00     0.023 A 
ATOM     89  C   UNL A   1      45.470  33.436  30.351  1.00  0.00     0.012 A 
ATOM     90  C   UNL A   1      44.850  34.107  28.096  1.00  0.00     0.148 A 
ATOM     91  C   UNL A   1      45.832  34.751  30.648  1.00  0.00     0.002 A 
ATOM     92  C   UNL A   1      45.261  35.403  28.382  1.00  0.00     0.091 A 
ATOM     93  F   UNL A   1      44.346  33.773  26.901  1.00  0.00    -0.205 F 
ATOM     94  C   UNL A   1      45.740  35.730  29.661  1.00  0.00     0.022 A 
BRANCH  92  95
ATOM     95  S   UNL A   1      45.265  36.710  27.150  1.00  0.00     0.127 S 
ATOM     96  O   UNL A   1      43.852  36.774  26.779  1.00  0.00    -0.237 OA
ATOM     97  O   UNL A   1      45.747  37.856  27.921  1.00  0.00    -0.237 OA
ATOM     98  O   UNL A   1      46.163  36.265  26.093  1.00  0.00    -0.744 OA
ENDBRANCH  92  95
ENDBRANCH  65  88
ENDBRANCH  39  40
ENDBRANCH  32  34
ENDBRANCH  31  32
ENDBRANCH  30  31
ENDBRANCH   1  30
TORSDOF 18
ENDMDL
