MODEL 1
REMARK VINA RESULT:      -9.4      0.000      0.000
REMARK SMILES COC[C@H](O)CC1(C(=O)OCCOC(=O)c2ccc(-c3c4nc(c(-c5cccc(S(=O)(=O)[O-])c5F)c5ccc([nH]5)c(-c5cccc(S(=O)(=O)[O-])c5F)c5nc(c(-c6cccc(S(=O)(=O)[O-])c6F)c6ccc3[nH]6)C=C5)C=C4)cc2)CC1
REMARK SMILES IDX 11 1 10 2 8 3 9 4 7 5 79 6 80 7 6 8 4 9 3 10 2 11 1 12 5 13
REMARK SMILES IDX 12 15 13 16 14 17 15 18 16 19 17 20 78 21 18 22 77 23 19 24
REMARK SMILES IDX 20 25 21 26 71 27 22 28 76 29 70 30 72 31 23 32 75 33 69 34
REMARK SMILES IDX 68 35 24 37 56 38 36 39 55 40 37 41 40 42 54 43 73 44 38 45
REMARK SMILES IDX 39 46 53 48 74 49 41 50 25 51 26 52 34 53 27 54 29 55 35 56
REMARK SMILES IDX 28 57 30 58 31 59 32 60 33 61 57 62 58 63 66 64 59 65 61 66
REMARK SMILES IDX 67 67 60 68 62 69 63 70 64 71 65 72 42 73 43 74 51 75 44 76
REMARK SMILES IDX 46 77 52 78 45 79 47 80 48 81 49 82 50 83
REMARK H PARENT 5 14 72 36 40 47
REMARK Flexibility Score: inf
ROOT
ATOM      1  C   UNL A   1      34.012  34.397  28.414  1.00  0.00     0.274 C 
ENDROOT
BRANCH   1   2
ATOM      2  O   UNL A   1      33.345  34.473  29.685  1.00  0.00    -0.462 OA
BRANCH   2   3
ATOM      3  C   UNL A   1      32.979  35.709  30.106  1.00  0.00     0.312 C 
ATOM      4  O   UNL A   1      32.237  36.482  29.529  1.00  0.00    -0.252 OA
BRANCH   3   5
ATOM      5  C   UNL A   1      33.596  36.001  31.445  1.00  0.00     0.071 C 
ATOM      6  C   UNL A   1      32.592  36.280  32.570  1.00  0.00     0.020 C 
ATOM      7  C   UNL A   1      33.404  37.405  32.022  1.00  0.00     0.020 C 
BRANCH   5   8
ATOM      8  C   UNL A   1      34.811  35.178  31.887  1.00  0.00     0.053 C 
BRANCH   8   9
ATOM      9  C   UNL A   1      34.596  33.796  32.563  1.00  0.00     0.141 C 
BRANCH   9  10
ATOM     10  C   UNL A   1      35.249  33.403  34.040  1.00  0.00     0.191 C 
BRANCH  10  11
ATOM     11  O   UNL A   1      36.714  32.253  34.715  1.00  0.00    -0.382 OA
ATOM     12  C   UNL A   1      38.152  31.995  35.075  1.00  0.00     0.195 C 
ENDBRANCH  10  11
ENDBRANCH   9  10
BRANCH   9  13
ATOM     13  O   UNL A   1      34.293  32.715  31.693  1.00  0.00    -0.391 OA
ATOM     14  H   UNL A   1      34.963  32.666  30.993  1.00  0.00     0.211 HD
ENDBRANCH   9  13
ENDBRANCH   8   9
ENDBRANCH   5   8
ENDBRANCH   3   5
ENDBRANCH   2   3
ENDBRANCH   1   2
BRANCH   1  15
ATOM     15  C   UNL A   1      33.819  32.968  27.891  1.00  0.00     0.275 C 
BRANCH  15  16
ATOM     16  O   UNL A   1      34.628  32.062  28.679  1.00  0.00    -0.458 OA
BRANCH  16  17
ATOM     17  C   UNL A   1      34.547  30.756  28.317  1.00  0.00     0.338 C 
ATOM     18  O   UNL A   1      33.655  30.213  27.689  1.00  0.00    -0.246 OA
BRANCH  17  19
ATOM     19  C   UNL A   1      35.856  30.137  28.559  1.00  0.00     0.060 A 
ATOM     20  C   UNL A   1      36.199  29.521  30.239  1.00  0.00     0.016 A 
ATOM     21  C   UNL A   1      37.170  30.185  27.320  1.00  0.00     0.016 A 
ATOM     22  C   UNL A   1      37.886  29.003  30.683  1.00  0.00     0.010 A 
ATOM     23  C   UNL A   1      38.851  29.667  27.770  1.00  0.00     0.010 A 
ATOM     24  C   UNL A   1      39.212  29.084  29.440  1.00  0.00    -0.014 A 
BRANCH  24  25
ATOM     25  C   UNL A   1      40.592  28.674  29.803  1.00  0.00     0.031 A 
ATOM     26  C   UNL A   1      41.197  27.465  29.157  1.00  0.00     0.074 A 
ATOM     27  C   UNL A   1      41.311  29.354  30.717  1.00  0.00     0.049 A 
ATOM     28  N   UNL A   1      42.443  27.067  29.136  1.00  0.00    -0.248 NA
ATOM     29  C   UNL A   1      40.277  26.589  28.424  1.00  0.00     0.031 C 
ATOM     30  C   UNL A   1      40.848  30.500  31.496  1.00  0.00     0.029 A 
ATOM     31  N   UNL A   1      42.596  29.152  31.167  1.00  0.00    -0.354 N 
ATOM     32  C   UNL A   1      42.464  25.934  28.333  1.00  0.00     0.074 A 
ATOM     33  C   UNL A   1      41.103  25.693  27.904  1.00  0.00     0.031 C 
ATOM     34  C   UNL A   1      41.821  30.888  32.337  1.00  0.00     0.029 A 
ATOM     35  C   UNL A   1      42.978  30.012  32.171  1.00  0.00     0.049 A 
ATOM     36  H   UNL A   1      43.189  28.455  30.803  1.00  0.00     0.167 HD
ATOM     37  C   UNL A   1      43.514  25.155  27.987  1.00  0.00     0.034 A 
ATOM     38  C   UNL A   1      44.118  30.082  32.887  1.00  0.00     0.034 A 
ATOM     39  C   UNL A   1      44.834  25.287  28.539  1.00  0.00     0.049 A 
ATOM     40  C   UNL A   1      45.252  29.147  32.559  1.00  0.00     0.074 A 
ATOM     41  C   UNL A   1      45.964  24.540  28.262  1.00  0.00     0.029 A 
ATOM     42  N   UNL A   1      45.179  26.181  29.541  1.00  0.00    -0.354 N 
ATOM     43  N   UNL A   1      45.325  28.236  31.619  1.00  0.00    -0.248 NA
ATOM     44  C   UNL A   1      46.477  29.276  33.363  1.00  0.00     0.031 C 
ATOM     45  C   UNL A   1      46.981  24.949  29.133  1.00  0.00     0.029 A 
ATOM     46  C   UNL A   1      46.494  25.979  29.924  1.00  0.00     0.049 A 
ATOM     47  H   UNL A   1      44.578  26.859  29.925  1.00  0.00     0.167 HD
ATOM     48  C   UNL A   1      46.608  27.703  31.699  1.00  0.00     0.074 A 
ATOM     49  C   UNL A   1      47.287  28.412  32.764  1.00  0.00     0.031 C 
ATOM     50  C   UNL A   1      47.170  26.711  30.965  1.00  0.00     0.034 A 
BRANCH  37  51
ATOM     51  C   UNL A   1      43.268  24.092  26.952  1.00  0.00     0.023 A 
ATOM     52  C   UNL A   1      43.719  24.311  25.633  1.00  0.00     0.012 A 
ATOM     53  C   UNL A   1      42.635  22.878  27.276  1.00  0.00     0.148 A 
ATOM     54  C   UNL A   1      43.527  23.345  24.647  1.00  0.00     0.002 A 
ATOM     55  C   UNL A   1      42.472  21.908  26.293  1.00  0.00     0.091 A 
ATOM     56  F   UNL A   1      42.189  22.705  28.527  1.00  0.00    -0.205 F 
ATOM     57  C   UNL A   1      42.912  22.141  24.979  1.00  0.00     0.022 A 
BRANCH  55  58
ATOM     58  S   UNL A   1      41.732  20.307  26.625  1.00  0.00     0.127 S 
ATOM     59  O   UNL A   1      40.327  20.668  26.820  1.00  0.00    -0.237 OA
ATOM     60  O   UNL A   1      42.007  19.577  25.388  1.00  0.00    -0.237 OA
ATOM     61  O   UNL A   1      42.411  19.786  27.804  1.00  0.00    -0.744 OA
ENDBRANCH  55  58
ENDBRANCH  37  51
BRANCH  38  62
ATOM     62  C   UNL A   1      44.259  31.105  33.965  1.00  0.00     0.023 A 
ATOM     63  C   UNL A   1      44.765  32.383  33.656  1.00  0.00     0.012 A 
ATOM     64  C   UNL A   1      43.867  30.827  35.290  1.00  0.00     0.148 A 
ATOM     65  C   UNL A   1      44.899  33.355  34.649  1.00  0.00     0.002 A 
ATOM     66  C   UNL A   1      43.950  31.819  36.262  1.00  0.00     0.091 A 
ATOM     67  F   UNL A   1      43.414  29.598  35.574  1.00  0.00    -0.205 F 
ATOM     68  C   UNL A   1      44.480  33.078  35.948  1.00  0.00     0.022 A 
BRANCH  66  69
ATOM     69  S   UNL A   1      43.304  31.587  37.923  1.00  0.00     0.127 S 
ATOM     70  O   UNL A   1      44.173  30.533  38.438  1.00  0.00    -0.237 OA
ATOM     71  O   UNL A   1      43.517  32.907  38.518  1.00  0.00    -0.237 OA
ATOM     72  O   UNL A   1      41.903  31.230  37.749  1.00  0.00    -0.744 OA
ENDBRANCH  66  69
ENDBRANCH  38  62
BRANCH  50  73
ATOM     73  C   UNL A   1      48.595  26.334  31.272  1.00  0.00     0.023 A 
ATOM     74  C   UNL A   1      48.869  25.409  32.300  1.00  0.00     0.012 A 
ATOM     75  C   UNL A   1      49.658  26.843  30.501  1.00  0.00     0.148 A 
ATOM     76  C   UNL A   1      50.181  25.023  32.576  1.00  0.00     0.002 A 
ATOM     77  C   UNL A   1      50.958  26.418  30.750  1.00  0.00     0.091 A 
ATOM     78  F   UNL A   1      49.383  27.738  29.541  1.00  0.00    -0.205 F 
ATOM     79  C   UNL A   1      51.223  25.518  31.795  1.00  0.00     0.022 A 
BRANCH  77  80
ATOM     80  S   UNL A   1      52.342  26.935  29.729  1.00  0.00     0.127 S 
ATOM     81  O   UNL A   1      52.339  28.382  29.930  1.00  0.00    -0.237 OA
ATOM     82  O   UNL A   1      53.470  26.235  30.348  1.00  0.00    -0.237 OA
ATOM     83  O   UNL A   1      52.028  26.485  28.379  1.00  0.00    -0.744 OA
ENDBRANCH  77  80
ENDBRANCH  50  73
ENDBRANCH  24  25
ENDBRANCH  17  19
ENDBRANCH  16  17
ENDBRANCH  15  16
ENDBRANCH   1  15
TORSDOF 19
ENDMDL
MODEL 2
REMARK VINA RESULT:      -9.3      5.109     10.643
REMARK SMILES COC[C@H](O)CC1(C(=O)OCCOC(=O)c2ccc(-c3c4nc(c(-c5cccc(S(=O)(=O)[O-])c5F)c5ccc([nH]5)c(-c5cccc(S(=O)(=O)[O-])c5F)c5nc(c(-c6cccc(S(=O)(=O)[O-])c6F)c6ccc3[nH]6)C=C5)C=C4)cc2)CC1
REMARK SMILES IDX 11 1 10 2 8 3 9 4 7 5 79 6 80 7 6 8 4 9 3 10 2 11 1 12 5 13
REMARK SMILES IDX 12 15 13 16 14 17 15 18 16 19 17 20 78 21 18 22 77 23 19 24
REMARK SMILES IDX 20 25 21 26 71 27 22 28 76 29 70 30 72 31 23 32 75 33 69 34
REMARK SMILES IDX 68 35 24 37 56 38 36 39 55 40 37 41 40 42 54 43 73 44 38 45
REMARK SMILES IDX 39 46 53 48 74 49 41 50 25 51 26 52 34 53 27 54 29 55 35 56
REMARK SMILES IDX 28 57 30 58 31 59 32 60 33 61 57 62 58 63 66 64 59 65 61 66
REMARK SMILES IDX 67 67 60 68 62 69 63 70 64 71 65 72 42 73 43 74 51 75 44 76
REMARK SMILES IDX 46 77 52 78 45 79 47 80 48 81 49 82 50 83
REMARK H PARENT 5 14 72 36 40 47
REMARK Flexibility Score: inf
ROOT
ATOM      1  C   UNL A   1      38.760  21.482  25.535  1.00  0.00     0.274 C 
ENDROOT
BRANCH   1   2
ATOM      2  O   UNL A   1      37.335  21.299  25.535  1.00  0.00    -0.462 OA
BRANCH   2   3
ATOM      3  C   UNL A   1      36.637  21.961  24.579  1.00  0.00     0.312 C 
ATOM      4  O   UNL A   1      37.003  22.190  23.441  1.00  0.00    -0.252 OA
BRANCH   3   5
ATOM      5  C   UNL A   1      35.287  22.358  25.108  1.00  0.00     0.071 C 
ATOM      6  C   UNL A   1      35.025  23.868  25.135  1.00  0.00     0.020 C 
ATOM      7  C   UNL A   1      35.243  23.142  26.420  1.00  0.00     0.020 C 
BRANCH   5   8
ATOM      8  C   UNL A   1      34.068  21.524  24.701  1.00  0.00     0.053 C 
BRANCH   8   9
ATOM      9  C   UNL A   1      33.783  20.177  25.422  1.00  0.00     0.141 C 
BRANCH   9  10
ATOM     10  C   UNL A   1      33.267  18.816  24.621  1.00  0.00     0.191 C 
BRANCH  10  11
ATOM     11  O   UNL A   1      32.612  17.011  25.107  1.00  0.00    -0.382 OA
ATOM     12  C   UNL A   1      32.780  15.522  25.247  1.00  0.00     0.195 C 
ENDBRANCH  10  11
ENDBRANCH   9  10
BRANCH   9  13
ATOM     13  O   UNL A   1      33.461  20.264  26.803  1.00  0.00    -0.391 OA
ATOM     14  H   UNL A   1      32.527  20.505  26.903  1.00  0.00     0.211 HD
ENDBRANCH   9  13
ENDBRANCH   8   9
ENDBRANCH   5   8
ENDBRANCH   3   5
ENDBRANCH   2   3
ENDBRANCH   1   2
BRANCH   1  15
ATOM     15  C   UNL A   1      39.378  20.194  26.092  1.00  0.00     0.275 C 
BRANCH  15  16
ATOM     16  O   UNL A   1      40.575  19.878  25.340  1.00  0.00    -0.458 OA
BRANCH  16  17
ATOM     17  C   UNL A   1      41.699  19.728  26.086  1.00  0.00     0.338 C 
ATOM     18  O   UNL A   1      42.372  18.721  26.222  1.00  0.00    -0.246 OA
BRANCH  17  19
ATOM     19  C   UNL A   1      42.153  21.063  26.495  1.00  0.00     0.060 A 
ATOM     20  C   UNL A   1      42.039  21.486  28.263  1.00  0.00     0.016 A 
ATOM     21  C   UNL A   1      42.588  22.328  25.281  1.00  0.00     0.016 A 
ATOM     22  C   UNL A   1      42.314  23.202  28.800  1.00  0.00     0.010 A 
ATOM     23  C   UNL A   1      42.861  24.039  25.823  1.00  0.00     0.010 A 
ATOM     24  C   UNL A   1      42.721  24.479  27.568  1.00  0.00    -0.014 A 
BRANCH  24  25
ATOM     25  C   UNL A   1      42.934  25.883  28.001  1.00  0.00     0.031 A 
ATOM     26  C   UNL A   1      44.322  26.447  28.022  1.00  0.00     0.074 A 
ATOM     27  C   UNL A   1      41.907  26.661  28.396  1.00  0.00     0.049 A 
ATOM     28  N   UNL A   1      44.714  27.690  28.128  1.00  0.00    -0.248 NA
ATOM     29  C   UNL A   1      45.419  25.482  27.896  1.00  0.00     0.031 C 
ATOM     30  C   UNL A   1      40.510  26.248  28.511  1.00  0.00     0.029 A 
ATOM     31  N   UNL A   1      41.893  27.976  28.803  1.00  0.00    -0.354 N 
ATOM     32  C   UNL A   1      46.097  27.660  28.011  1.00  0.00     0.074 A 
ATOM     33  C   UNL A   1      46.480  26.274  27.852  1.00  0.00     0.031 C 
ATOM     34  C   UNL A   1      39.781  27.277  28.975  1.00  0.00     0.029 A 
ATOM     35  C   UNL A   1      40.655  28.423  29.205  1.00  0.00     0.049 A 
ATOM     36  H   UNL A   1      42.697  28.545  28.807  1.00  0.00     0.167 HD
ATOM     37  C   UNL A   1      46.977  28.688  28.044  1.00  0.00     0.034 A 
ATOM     38  C   UNL A   1      40.267  29.610  29.712  1.00  0.00     0.034 A 
ATOM     39  C   UNL A   1      46.625  30.042  28.368  1.00  0.00     0.049 A 
ATOM     40  C   UNL A   1      41.275  30.723  29.834  1.00  0.00     0.074 A 
ATOM     41  C   UNL A   1      47.444  31.154  28.438  1.00  0.00     0.029 A 
ATOM     42  N   UNL A   1      45.358  30.453  28.752  1.00  0.00    -0.354 N 
ATOM     43  N   UNL A   1      42.539  30.735  29.485  1.00  0.00    -0.248 NA
ATOM     44  C   UNL A   1      40.795  32.001  30.381  1.00  0.00     0.031 C 
ATOM     45  C   UNL A   1      46.682  32.228  28.913  1.00  0.00     0.029 A 
ATOM     46  C   UNL A   1      45.379  31.793  29.101  1.00  0.00     0.049 A 
ATOM     47  H   UNL A   1      44.560  29.877  28.776  1.00  0.00     0.167 HD
ATOM     48  C   UNL A   1      42.997  32.022  29.743  1.00  0.00     0.074 A 
ATOM     49  C   UNL A   1      41.868  32.771  30.255  1.00  0.00     0.031 C 
ATOM     50  C   UNL A   1      44.242  32.536  29.580  1.00  0.00     0.034 A 
BRANCH  37  51
ATOM     51  C   UNL A   1      48.410  28.375  27.711  1.00  0.00     0.023 A 
ATOM     52  C   UNL A   1      49.337  28.234  28.764  1.00  0.00     0.012 A 
ATOM     53  C   UNL A   1      48.835  28.186  26.383  1.00  0.00     0.148 A 
ATOM     54  C   UNL A   1      50.671  27.926  28.500  1.00  0.00     0.002 A 
ATOM     55  C   UNL A   1      50.161  27.853  26.129  1.00  0.00     0.091 A 
ATOM     56  F   UNL A   1      47.943  28.355  25.397  1.00  0.00    -0.205 F 
ATOM     57  C   UNL A   1      51.080  27.728  27.185  1.00  0.00     0.022 A 
BRANCH  55  58
ATOM     58  S   UNL A   1      50.781  27.534  24.475  1.00  0.00     0.127 S 
ATOM     59  O   UNL A   1      50.872  28.888  23.930  1.00  0.00    -0.237 OA
ATOM     60  O   UNL A   1      52.070  26.899  24.747  1.00  0.00    -0.237 OA
ATOM     61  O   UNL A   1      49.798  26.669  23.837  1.00  0.00    -0.744 OA
ENDBRANCH  55  58
ENDBRANCH  37  51
BRANCH  38  62
ATOM     62  C   UNL A   1      38.844  29.822  30.109  1.00  0.00     0.023 A 
ATOM     63  C   UNL A   1      38.423  29.491  31.412  1.00  0.00     0.012 A 
ATOM     64  C   UNL A   1      37.912  30.376  29.209  1.00  0.00     0.148 A 
ATOM     65  C   UNL A   1      37.098  29.686  31.804  1.00  0.00     0.002 A 
ATOM     66  C   UNL A   1      36.607  30.622  29.625  1.00  0.00     0.091 A 
ATOM     67  F   UNL A   1      38.320  30.660  27.965  1.00  0.00    -0.205 F 
ATOM     68  C   UNL A   1      36.193  30.264  30.916  1.00  0.00     0.022 A 
BRANCH  66  69
ATOM     69  S   UNL A   1      35.419  31.487  28.589  1.00  0.00     0.127 S 
ATOM     70  O   UNL A   1      34.910  30.406  27.750  1.00  0.00    -0.237 OA
ATOM     71  O   UNL A   1      34.470  31.999  29.578  1.00  0.00    -0.237 OA
ATOM     72  O   UNL A   1      36.182  32.521  27.903  1.00  0.00    -0.744 OA
ENDBRANCH  66  69
ENDBRANCH  38  62
BRANCH  50  73
ATOM     73  C   UNL A   1      44.456  33.981  29.946  1.00  0.00     0.023 A 
ATOM     74  C   UNL A   1      44.901  34.319  31.241  1.00  0.00     0.012 A 
ATOM     75  C   UNL A   1      44.281  35.000  28.990  1.00  0.00     0.148 A 
ATOM     76  C   UNL A   1      45.136  35.649  31.586  1.00  0.00     0.002 A 
ATOM     77  C   UNL A   1      44.562  36.319  29.326  1.00  0.00     0.091 A 
ATOM     78  F   UNL A   1      43.835  34.665  27.769  1.00  0.00    -0.205 F 
ATOM     79  C   UNL A   1      44.978  36.648  30.627  1.00  0.00     0.022 A 
BRANCH  77  80
ATOM     80  S   UNL A   1      44.475  37.650  28.122  1.00  0.00     0.127 S 
ATOM     81  O   UNL A   1      45.522  37.268  27.177  1.00  0.00    -0.237 OA
ATOM     82  O   UNL A   1      43.110  37.519  27.606  1.00  0.00    -0.237 OA
ATOM     83  O   UNL A   1      44.717  38.877  28.870  1.00  0.00    -0.744 OA
ENDBRANCH  77  80
ENDBRANCH  50  73
ENDBRANCH  24  25
ENDBRANCH  17  19
ENDBRANCH  16  17
ENDBRANCH  15  16
ENDBRANCH   1  15
TORSDOF 19
ENDMDL
MODEL 3
REMARK VINA RESULT:      -9.1      5.310      9.800
REMARK SMILES COC[C@H](O)CC1(C(=O)OCCOC(=O)c2ccc(-c3c4nc(c(-c5cccc(S(=O)(=O)[O-])c5F)c5ccc([nH]5)c(-c5cccc(S(=O)(=O)[O-])c5F)c5nc(c(-c6cccc(S(=O)(=O)[O-])c6F)c6ccc3[nH]6)C=C5)C=C4)cc2)CC1
REMARK SMILES IDX 11 1 10 2 8 3 9 4 7 5 79 6 80 7 6 8 4 9 3 10 2 11 1 12 5 13
REMARK SMILES IDX 12 15 13 16 14 17 15 18 16 19 17 20 78 21 18 22 77 23 19 24
REMARK SMILES IDX 20 25 21 26 71 27 22 28 76 29 70 30 72 31 23 32 75 33 69 34
REMARK SMILES IDX 68 35 24 37 56 38 36 39 55 40 37 41 40 42 54 43 73 44 38 45
REMARK SMILES IDX 39 46 53 48 74 49 41 50 25 51 26 52 34 53 27 54 29 55 35 56
REMARK SMILES IDX 28 57 30 58 31 59 32 60 33 61 57 62 58 63 66 64 59 65 61 66
REMARK SMILES IDX 67 67 60 68 62 69 63 70 64 71 65 72 42 73 43 74 51 75 44 76
REMARK SMILES IDX 46 77 52 78 45 79 47 80 48 81 49 82 50 83
REMARK H PARENT 5 14 72 36 40 47
REMARK Flexibility Score: inf
ROOT
ATOM      1  C   UNL A   1      35.982  21.160  25.022  1.00  0.00     0.274 C 
ENDROOT
BRANCH   1   2
ATOM      2  O   UNL A   1      35.764  22.580  24.986  1.00  0.00    -0.462 OA
BRANCH   2   3
ATOM      3  C   UNL A   1      35.261  23.089  23.834  1.00  0.00     0.312 C 
ATOM      4  O   UNL A   1      35.749  22.990  22.723  1.00  0.00    -0.252 OA
BRANCH   3   5
ATOM      5  C   UNL A   1      33.957  23.785  24.104  1.00  0.00     0.071 C 
ATOM      6  C   UNL A   1      34.079  25.279  24.427  1.00  0.00     0.020 C 
ATOM      7  C   UNL A   1      33.720  24.324  25.516  1.00  0.00     0.020 C 
BRANCH   5   8
ATOM      8  C   UNL A   1      32.747  23.437  23.231  1.00  0.00     0.053 C 
BRANCH   8   9
ATOM      9  C   UNL A   1      32.248  21.967  23.161  1.00  0.00     0.141 C 
BRANCH   9  10
ATOM     10  C   UNL A   1      32.484  20.874  24.390  1.00  0.00     0.191 C 
BRANCH  10  11
ATOM     11  O   UNL A   1      31.979  18.998  24.776  1.00  0.00    -0.382 OA
ATOM     12  C   UNL A   1      32.306  17.547  25.004  1.00  0.00     0.195 C 
ENDBRANCH  10  11
ENDBRANCH   9  10
BRANCH   9  13
ATOM     13  O   UNL A   1      32.066  21.431  21.858  1.00  0.00    -0.391 OA
ATOM     14  H   UNL A   1      32.201  20.471  21.881  1.00  0.00     0.211 HD
ENDBRANCH   9  13
ENDBRANCH   8   9
ENDBRANCH   5   8
ENDBRANCH   3   5
ENDBRANCH   2   3
ENDBRANCH   1   2
BRANCH   1  15
ATOM     15  C   UNL A   1      37.477  20.929  24.764  1.00  0.00     0.275 C 
BRANCH  15  16
ATOM     16  O   UNL A   1      37.992  20.007  25.754  1.00  0.00    -0.458 OA
BRANCH  16  17
ATOM     17  C   UNL A   1      39.342  20.015  25.899  1.00  0.00     0.338 C 
ATOM     18  O   UNL A   1      40.144  19.229  25.426  1.00  0.00    -0.246 OA
BRANCH  17  19
ATOM     19  C   UNL A   1      39.726  21.300  26.497  1.00  0.00     0.060 A 
ATOM     20  C   UNL A   1      39.063  22.816  25.733  1.00  0.00     0.016 A 
ATOM     21  C   UNL A   1      40.985  21.405  27.787  1.00  0.00     0.016 A 
ATOM     22  C   UNL A   1      39.714  24.438  26.236  1.00  0.00     0.010 A 
ATOM     23  C   UNL A   1      41.630  23.027  28.286  1.00  0.00     0.010 A 
ATOM     24  C   UNL A   1      41.005  24.535  27.515  1.00  0.00    -0.014 A 
BRANCH  24  25
ATOM     25  C   UNL A   1      41.548  25.858  27.920  1.00  0.00     0.031 A 
ATOM     26  C   UNL A   1      42.976  26.194  27.617  1.00  0.00     0.074 A 
ATOM     27  C   UNL A   1      40.788  26.759  28.573  1.00  0.00     0.049 A 
ATOM     28  N   UNL A   1      43.586  27.350  27.658  1.00  0.00    -0.248 NA
ATOM     29  C   UNL A   1      43.834  25.078  27.203  1.00  0.00     0.031 C 
ATOM     30  C   UNL A   1      39.409  26.564  29.014  1.00  0.00     0.029 A 
ATOM     31  N   UNL A   1      41.093  28.030  29.006  1.00  0.00    -0.354 N 
ATOM     32  C   UNL A   1      44.878  27.111  27.208  1.00  0.00     0.074 A 
ATOM     33  C   UNL A   1      44.973  25.695  26.923  1.00  0.00     0.031 C 
ATOM     34  C   UNL A   1      38.994  27.661  29.668  1.00  0.00     0.029 A 
ATOM     35  C   UNL A   1      40.078  28.637  29.708  1.00  0.00     0.049 A 
ATOM     36  H   UNL A   1      41.959  28.464  28.829  1.00  0.00     0.167 HD
ATOM     37  C   UNL A   1      45.900  27.983  27.053  1.00  0.00     0.034 A 
ATOM     38  C   UNL A   1      40.026  29.835  30.326  1.00  0.00     0.034 A 
ATOM     39  C   UNL A   1      45.868  29.351  27.488  1.00  0.00     0.049 A 
ATOM     40  C   UNL A   1      41.207  30.766  30.228  1.00  0.00     0.074 A 
ATOM     41  C   UNL A   1      46.856  30.313  27.387  1.00  0.00     0.029 A 
ATOM     42  N   UNL A   1      44.815  29.930  28.180  1.00  0.00    -0.354 N 
ATOM     43  N   UNL A   1      42.336  30.601  29.583  1.00  0.00    -0.248 NA
ATOM     44  C   UNL A   1      41.092  32.064  30.910  1.00  0.00     0.031 C 
ATOM     45  C   UNL A   1      46.419  31.460  28.061  1.00  0.00     0.029 A 
ATOM     46  C   UNL A   1      45.143  31.223  28.548  1.00  0.00     0.049 A 
ATOM     47  H   UNL A   1      43.960  29.486  28.381  1.00  0.00     0.167 HD
ATOM     48  C   UNL A   1      43.053  31.781  29.756  1.00  0.00     0.074 A 
ATOM     49  C   UNL A   1      42.218  32.662  30.547  1.00  0.00     0.031 C 
ATOM     50  C   UNL A   1      44.292  32.103  29.309  1.00  0.00     0.034 A 
BRANCH  37  51
ATOM     51  C   UNL A   1      47.141  27.472  26.373  1.00  0.00     0.023 A 
ATOM     52  C   UNL A   1      47.329  27.753  25.003  1.00  0.00     0.012 A 
ATOM     53  C   UNL A   1      48.127  26.755  27.075  1.00  0.00     0.148 A 
ATOM     54  C   UNL A   1      48.472  27.313  24.338  1.00  0.00     0.002 A 
ATOM     55  C   UNL A   1      49.277  26.344  26.412  1.00  0.00     0.091 A 
ATOM     56  F   UNL A   1      47.912  26.474  28.368  1.00  0.00    -0.205 F 
ATOM     57  C   UNL A   1      49.449  26.617  25.044  1.00  0.00     0.022 A 
BRANCH  55  58
ATOM     58  S   UNL A   1      50.616  25.478  27.238  1.00  0.00     0.127 S 
ATOM     59  O   UNL A   1      51.445  25.070  26.104  1.00  0.00    -0.237 OA
ATOM     60  O   UNL A   1      51.197  26.531  28.070  1.00  0.00    -0.237 OA
ATOM     61  O   UNL A   1      49.994  24.390  27.979  1.00  0.00    -0.744 OA
ENDBRANCH  55  58
ENDBRANCH  37  51
BRANCH  38  62
ATOM     62  C   UNL A   1      38.793  30.241  31.063  1.00  0.00     0.023 A 
ATOM     63  C   UNL A   1      38.668  29.948  32.435  1.00  0.00     0.012 A 
ATOM     64  C   UNL A   1      37.754  30.940  30.415  1.00  0.00     0.148 A 
ATOM     65  C   UNL A   1      37.525  30.324  33.142  1.00  0.00     0.002 A 
ATOM     66  C   UNL A   1      36.644  31.362  31.140  1.00  0.00     0.091 A 
ATOM     67  F   UNL A   1      37.876  31.186  29.103  1.00  0.00    -0.205 F 
ATOM     68  C   UNL A   1      36.520  31.042  32.499  1.00  0.00     0.022 A 
BRANCH  66  69
ATOM     69  S   UNL A   1      35.373  32.408  30.419  1.00  0.00     0.127 S 
ATOM     70  O   UNL A   1      34.485  32.628  31.557  1.00  0.00    -0.237 OA
ATOM     71  O   UNL A   1      36.143  33.580  30.003  1.00  0.00    -0.237 OA
ATOM     72  O   UNL A   1      34.815  31.638  29.315  1.00  0.00    -0.744 OA
ENDBRANCH  66  69
ENDBRANCH  38  62
BRANCH  50  73
ATOM     73  C   UNL A   1      44.826  33.469  29.650  1.00  0.00     0.023 A 
ATOM     74  C   UNL A   1      45.592  33.651  30.820  1.00  0.00     0.012 A 
ATOM     75  C   UNL A   1      44.628  34.558  28.779  1.00  0.00     0.148 A 
ATOM     76  C   UNL A   1      46.122  34.902  31.134  1.00  0.00     0.002 A 
ATOM     77  C   UNL A   1      45.199  35.791  29.074  1.00  0.00     0.091 A 
ATOM     78  F   UNL A   1      43.880  34.374  27.682  1.00  0.00    -0.205 F 
ATOM     79  C   UNL A   1      45.936  35.968  30.257  1.00  0.00     0.022 A 
BRANCH  77  80
ATOM     80  S   UNL A   1      45.086  37.187  27.950  1.00  0.00     0.127 S 
ATOM     81  O   UNL A   1      46.029  36.804  26.901  1.00  0.00    -0.237 OA
ATOM     82  O   UNL A   1      43.679  37.153  27.546  1.00  0.00    -0.237 OA
ATOM     83  O   UNL A   1      45.456  38.358  28.734  1.00  0.00    -0.744 OA
ENDBRANCH  77  80
ENDBRANCH  50  73
ENDBRANCH  24  25
ENDBRANCH  17  19
ENDBRANCH  16  17
ENDBRANCH  15  16
ENDBRANCH   1  15
TORSDOF 19
ENDMDL
