MODEL 1
REMARK VINA RESULT:     -11.0      0.000      0.000
REMARK SMILES CC[NH2+][C@@]1(C(=O)OCCOC(=O)c2ccc(-c3c4nc(c(-c5cccc(S(=O)(=O)[O-])c5F)c5ccc([nH]5)c(-c5cccc(S(=O)(=O)[O-])c5F)c5nc(c(-c6cccc(S(=O)(=O)[O-])c6F)c6ccc3[nH]6)C=C5)C=C4)cc2)CCC[C@@H]1CC[NH+]1CCS(=O)(=O)CC1
REMARK SMILES IDX 8 1 7 2 5 3 6 4 4 5 76 6 79 7 77 8 78 9 3 10 2 13 1 14 80 15
REMARK SMILES IDX 81 16 82 17 83 18 89 19 84 21 88 22 85 23 86 24 87 25 9 26
REMARK SMILES IDX 10 27 11 28 12 29 13 30 14 31 75 32 15 33 74 34 16 35 17 36
REMARK SMILES IDX 18 37 68 38 19 39 73 40 67 41 69 42 20 43 72 44 66 45 65 46
REMARK SMILES IDX 21 48 53 49 33 50 52 51 34 52 37 53 51 54 70 55 35 56 36 57
REMARK SMILES IDX 50 59 71 60 38 61 22 62 23 63 31 64 24 65 26 66 32 67 25 68
REMARK SMILES IDX 27 69 28 70 29 71 30 72 54 73 55 74 63 75 56 76 58 77 64 78
REMARK SMILES IDX 57 79 59 80 60 81 61 82 62 83 39 84 40 85 48 86 41 87 43 88
REMARK SMILES IDX 49 89 42 90 44 91 45 92 46 93 47 94
REMARK H PARENT 3 11 3 12 82 20 69 47 37 58
REMARK Flexibility Score: inf
ROOT
ATOM      1  C   UNL A   1      35.934  20.898  25.055  1.00  0.00     0.274 C 
ENDROOT
BRANCH   1   2
ATOM      2  O   UNL A   1      35.751  21.969  24.097  1.00  0.00    -0.457 OA
BRANCH   2   3
ATOM      3  C   UNL A   1      35.229  23.101  24.627  1.00  0.00     0.368 C 
ATOM      4  O   UNL A   1      35.886  23.856  25.344  1.00  0.00    -0.245 OA
BRANCH   3   5
ATOM      5  C   UNL A   1      33.705  23.363  24.330  1.00  0.00     0.197 C 
ATOM      6  C   UNL A   1      33.296  24.180  25.599  1.00  0.00     0.081 C 
ATOM      7  C   UNL A   1      32.615  22.259  24.405  1.00  0.00     0.068 C 
ATOM      8  C   UNL A   1      33.065  23.096  26.654  1.00  0.00     0.008 C 
ATOM      9  C   UNL A   1      32.414  21.942  25.899  1.00  0.00     0.011 C 
BRANCH   5  10
ATOM     10  N   UNL A   1      33.665  24.163  23.085  1.00  0.00    -0.332 N 
ATOM     11  H   UNL A   1      34.631  24.381  22.839  1.00  0.00     0.347 HD
ATOM     12  H   UNL A   1      33.151  23.572  22.432  1.00  0.00     0.347 HD
BRANCH  10  13
ATOM     13  C   UNL A   1      32.928  25.417  23.078  1.00  0.00     0.257 C 
ATOM     14  C   UNL A   1      31.475  25.153  22.706  1.00  0.00     0.071 C 
ENDBRANCH  10  13
ENDBRANCH   5  10
BRANCH   7  15
ATOM     15  C   UNL A   1      32.407  21.102  23.408  1.00  0.00     0.072 C 
BRANCH  15  16
ATOM     16  C   UNL A   1      32.091  19.663  23.823  1.00  0.00     0.262 C 
BRANCH  16  17
ATOM     17  N   UNL A   1      33.111  18.847  24.454  1.00  0.00    -0.333 N 
ATOM     18  C   UNL A   1      33.894  18.025  23.530  1.00  0.00     0.278 C 
ATOM     19  C   UNL A   1      32.977  18.371  25.817  1.00  0.00     0.278 C 
ATOM     20  H   UNL A   1      33.720  19.610  24.749  1.00  0.00     0.348 HD
ATOM     21  C   UNL A   1      33.571  16.544  23.502  1.00  0.00     0.198 C 
ATOM     22  C   UNL A   1      32.565  16.928  25.991  1.00  0.00     0.198 C 
ATOM     23  S   UNL A   1      33.679  15.868  25.130  1.00  0.00     0.161 S 
ATOM     24  O   UNL A   1      33.094  14.539  25.113  1.00  0.00    -0.228 OA
ATOM     25  O   UNL A   1      35.017  16.069  25.653  1.00  0.00    -0.228 OA
ENDBRANCH  16  17
ENDBRANCH  15  16
ENDBRANCH   7  15
ENDBRANCH   3   5
ENDBRANCH   2   3
ENDBRANCH   1   2
BRANCH   1  26
ATOM     26  C   UNL A   1      37.300  20.208  24.978  1.00  0.00     0.275 C 
BRANCH  26  27
ATOM     27  O   UNL A   1      38.370  21.159  25.043  1.00  0.00    -0.458 OA
BRANCH  27  28
ATOM     28  C   UNL A   1      39.331  20.912  25.962  1.00  0.00     0.338 C 
ATOM     29  O   UNL A   1      39.775  19.823  26.281  1.00  0.00    -0.246 OA
BRANCH  28  30
ATOM     30  C   UNL A   1      39.814  22.175  26.561  1.00  0.00     0.060 A 
ATOM     31  C   UNL A   1      40.800  22.195  27.547  1.00  0.00     0.016 A 
ATOM     32  C   UNL A   1      39.233  23.375  26.135  1.00  0.00     0.016 A 
ATOM     33  C   UNL A   1      41.184  23.401  28.125  1.00  0.00     0.010 A 
ATOM     34  C   UNL A   1      39.690  24.591  26.641  1.00  0.00     0.010 A 
ATOM     35  C   UNL A   1      40.682  24.614  27.631  1.00  0.00    -0.014 A 
BRANCH  35  36
ATOM     36  C   UNL A   1      41.340  25.892  28.002  1.00  0.00     0.031 A 
ATOM     37  C   UNL A   1      40.619  26.958  28.771  1.00  0.00     0.074 A 
ATOM     38  C   UNL A   1      42.593  26.094  27.544  1.00  0.00     0.049 A 
ATOM     39  N   UNL A   1      41.011  28.173  29.050  1.00  0.00    -0.248 NA
ATOM     40  C   UNL A   1      39.274  26.633  29.273  1.00  0.00     0.031 C 
ATOM     41  C   UNL A   1      43.351  25.135  26.733  1.00  0.00     0.029 A 
ATOM     42  N   UNL A   1      43.448  27.156  27.676  1.00  0.00    -0.354 N 
ATOM     43  C   UNL A   1      39.945  28.781  29.701  1.00  0.00     0.074 A 
ATOM     44  C   UNL A   1      38.892  27.792  29.797  1.00  0.00     0.031 C 
ATOM     45  C   UNL A   1      44.569  25.627  26.483  1.00  0.00     0.029 A 
ATOM     46  C   UNL A   1      44.651  26.970  27.032  1.00  0.00     0.049 A 
ATOM     47  H   UNL A   1      43.226  27.970  28.182  1.00  0.00     0.167 HD
ATOM     48  C   UNL A   1      39.862  30.050  30.167  1.00  0.00     0.034 A 
ATOM     49  C   UNL A   1      45.695  27.802  26.866  1.00  0.00     0.034 A 
ATOM     50  C   UNL A   1      40.944  30.999  30.090  1.00  0.00     0.049 A 
ATOM     51  C   UNL A   1      45.601  29.173  27.457  1.00  0.00     0.074 A 
ATOM     52  C   UNL A   1      40.988  32.299  30.565  1.00  0.00     0.029 A 
ATOM     53  N   UNL A   1      42.177  30.749  29.500  1.00  0.00    -0.354 N 
ATOM     54  N   UNL A   1      44.610  29.706  28.132  1.00  0.00    -0.248 NA
ATOM     55  C   UNL A   1      46.758  30.055  27.277  1.00  0.00     0.031 C 
ATOM     56  C   UNL A   1      42.244  32.835  30.255  1.00  0.00     0.029 A 
ATOM     57  C   UNL A   1      42.988  31.866  29.599  1.00  0.00     0.049 A 
ATOM     58  H   UNL A   1      42.435  29.901  29.072  1.00  0.00     0.167 HD
ATOM     59  C   UNL A   1      45.020  30.989  28.457  1.00  0.00     0.074 A 
ATOM     60  C   UNL A   1      46.369  31.136  27.940  1.00  0.00     0.031 C 
ATOM     61  C   UNL A   1      44.336  31.968  29.098  1.00  0.00     0.034 A 
BRANCH  48  62
ATOM     62  C   UNL A   1      38.577  30.486  30.824  1.00  0.00     0.023 A 
ATOM     63  C   UNL A   1      38.385  30.257  32.202  1.00  0.00     0.012 A 
ATOM     64  C   UNL A   1      37.589  31.185  30.100  1.00  0.00     0.148 A 
ATOM     65  C   UNL A   1      37.225  30.696  32.842  1.00  0.00     0.002 A 
ATOM     66  C   UNL A   1      36.452  31.650  30.752  1.00  0.00     0.091 A 
ATOM     67  F   UNL A   1      37.775  31.375  28.785  1.00  0.00    -0.205 F 
ATOM     68  C   UNL A   1      36.265  31.401  32.121  1.00  0.00     0.022 A 
BRANCH  66  69
ATOM     69  S   UNL A   1      35.189  32.625  29.922  1.00  0.00     0.127 S 
ATOM     70  O   UNL A   1      34.723  31.692  28.897  1.00  0.00    -0.237 OA
ATOM     71  O   UNL A   1      34.230  32.875  30.999  1.00  0.00    -0.237 OA
ATOM     72  O   UNL A   1      35.866  33.814  29.427  1.00  0.00    -0.744 OA
ENDBRANCH  66  69
ENDBRANCH  48  62
BRANCH  49  73
ATOM     73  C   UNL A   1      46.904  27.316  26.142  1.00  0.00     0.023 A 
ATOM     74  C   UNL A   1      47.079  27.655  24.787  1.00  0.00     0.012 A 
ATOM     75  C   UNL A   1      47.941  26.644  26.820  1.00  0.00     0.148 A 
ATOM     76  C   UNL A   1      48.265  27.336  24.123  1.00  0.00     0.002 A 
ATOM     77  C   UNL A   1      49.146  26.393  26.173  1.00  0.00     0.091 A 
ATOM     78  F   UNL A   1      47.751  26.306  28.103  1.00  0.00    -0.205 F 
ATOM     79  C   UNL A   1      49.305  26.727  24.820  1.00  0.00     0.022 A 
BRANCH  77  80
ATOM     80  S   UNL A   1      50.584  25.794  27.071  1.00  0.00     0.127 S 
ATOM     81  O   UNL A   1      50.155  24.456  27.467  1.00  0.00    -0.237 OA
ATOM     82  O   UNL A   1      51.630  25.827  26.048  1.00  0.00    -0.237 OA
ATOM     83  O   UNL A   1      50.782  26.753  28.149  1.00  0.00    -0.744 OA
ENDBRANCH  77  80
ENDBRANCH  49  73
BRANCH  61  84
ATOM     84  C   UNL A   1      45.044  33.282  29.265  1.00  0.00     0.023 A 
ATOM     85  C   UNL A   1      45.801  33.515  30.430  1.00  0.00     0.012 A 
ATOM     86  C   UNL A   1      44.994  34.260  28.257  1.00  0.00     0.148 A 
ATOM     87  C   UNL A   1      46.475  34.722  30.601  1.00  0.00     0.002 A 
ATOM     88  C   UNL A   1      45.701  35.444  28.417  1.00  0.00     0.091 A 
ATOM     89  F   UNL A   1      44.244  34.024  27.169  1.00  0.00    -0.205 F 
ATOM     90  C   UNL A   1      46.435  35.681  29.592  1.00  0.00     0.022 A 
BRANCH  88  91
ATOM     91  S   UNL A   1      45.764  36.697  27.133  1.00  0.00     0.127 S 
ATOM     92  O   UNL A   1      46.294  35.938  26.002  1.00  0.00    -0.237 OA
ATOM     93  O   UNL A   1      44.358  37.085  27.003  1.00  0.00    -0.237 OA
ATOM     94  O   UNL A   1      46.632  37.749  27.648  1.00  0.00    -0.744 OA
ENDBRANCH  88  91
ENDBRANCH  61  84
ENDBRANCH  35  36
ENDBRANCH  28  30
ENDBRANCH  27  28
ENDBRANCH  26  27
ENDBRANCH   1  26
TORSDOF 19
ENDMDL
MODEL 2
REMARK VINA RESULT:     -11.0      5.007     10.078
REMARK SMILES CC[NH2+][C@@]1(C(=O)OCCOC(=O)c2ccc(-c3c4nc(c(-c5cccc(S(=O)(=O)[O-])c5F)c5ccc([nH]5)c(-c5cccc(S(=O)(=O)[O-])c5F)c5nc(c(-c6cccc(S(=O)(=O)[O-])c6F)c6ccc3[nH]6)C=C5)C=C4)cc2)CCC[C@@H]1CC[NH+]1CCS(=O)(=O)CC1
REMARK SMILES IDX 8 1 7 2 5 3 6 4 4 5 76 6 79 7 77 8 78 9 3 10 2 13 1 14 80 15
REMARK SMILES IDX 81 16 82 17 83 18 89 19 84 21 88 22 85 23 86 24 87 25 9 26
REMARK SMILES IDX 10 27 11 28 12 29 13 30 14 31 75 32 15 33 74 34 16 35 17 36
REMARK SMILES IDX 18 37 68 38 19 39 73 40 67 41 69 42 20 43 72 44 66 45 65 46
REMARK SMILES IDX 21 48 53 49 33 50 52 51 34 52 37 53 51 54 70 55 35 56 36 57
REMARK SMILES IDX 50 59 71 60 38 61 22 62 23 63 31 64 24 65 26 66 32 67 25 68
REMARK SMILES IDX 27 69 28 70 29 71 30 72 54 73 55 74 63 75 56 76 58 77 64 78
REMARK SMILES IDX 57 79 59 80 60 81 61 82 62 83 39 84 40 85 48 86 41 87 43 88
REMARK SMILES IDX 49 89 42 90 44 91 45 92 46 93 47 94
REMARK H PARENT 3 11 3 12 82 20 69 47 37 58
REMARK Flexibility Score: inf
ROOT
ATOM      1  C   UNL A   1      30.878  30.597  25.026  1.00  0.00     0.274 C 
ENDROOT
BRANCH   1   2
ATOM      2  O   UNL A   1      31.936  29.765  24.493  1.00  0.00    -0.457 OA
BRANCH   2   3
ATOM      3  C   UNL A   1      31.531  28.528  24.119  1.00  0.00     0.368 C 
ATOM      4  O   UNL A   1      30.392  28.304  23.707  1.00  0.00    -0.245 OA
BRANCH   3   5
ATOM      5  C   UNL A   1      32.582  27.370  24.307  1.00  0.00     0.197 C 
ATOM      6  C   UNL A   1      33.866  28.043  23.721  1.00  0.00     0.081 C 
ATOM      7  C   UNL A   1      32.591  26.074  23.451  1.00  0.00     0.068 C 
ATOM      8  C   UNL A   1      33.700  27.860  22.211  1.00  0.00     0.008 C 
ATOM      9  C   UNL A   1      33.076  26.478  22.047  1.00  0.00     0.011 C 
BRANCH   5  10
ATOM     10  N   UNL A   1      32.665  27.128  25.764  1.00  0.00    -0.332 N 
ATOM     11  H   UNL A   1      33.125  26.226  25.892  1.00  0.00     0.347 HD
ATOM     12  H   UNL A   1      33.159  27.946  26.121  1.00  0.00     0.347 HD
BRANCH  10  13
ATOM     13  C   UNL A   1      31.436  27.094  26.543  1.00  0.00     0.257 C 
ATOM     14  C   UNL A   1      31.577  28.003  27.757  1.00  0.00     0.071 C 
ENDBRANCH  10  13
ENDBRANCH   5  10
BRANCH   7  15
ATOM     15  C   UNL A   1      31.586  24.908  23.537  1.00  0.00     0.072 C 
BRANCH  15  16
ATOM     16  C   UNL A   1      31.963  23.438  23.332  1.00  0.00     0.262 C 
BRANCH  16  17
ATOM     17  N   UNL A   1      32.520  22.671  24.430  1.00  0.00    -0.333 N 
ATOM     18  C   UNL A   1      32.634  23.404  25.692  1.00  0.00     0.278 C 
ATOM     19  C   UNL A   1      33.450  21.581  24.208  1.00  0.00     0.278 C 
ATOM     20  H   UNL A   1      31.741  22.022  24.541  1.00  0.00     0.348 HD
ATOM     21  C   UNL A   1      34.025  23.858  26.088  1.00  0.00     0.198 C 
ATOM     22  C   UNL A   1      34.910  21.876  24.462  1.00  0.00     0.198 C 
ATOM     23  S   UNL A   1      35.133  22.482  26.102  1.00  0.00     0.161 S 
ATOM     24  O   UNL A   1      36.490  22.988  26.200  1.00  0.00    -0.228 OA
ATOM     25  O   UNL A   1      34.656  21.483  27.040  1.00  0.00    -0.228 OA
ENDBRANCH  16  17
ENDBRANCH  15  16
ENDBRANCH   7  15
ENDBRANCH   3   5
ENDBRANCH   2   3
ENDBRANCH   1   2
BRANCH   1  26
ATOM     26  C   UNL A   1      31.244  31.334  26.319  1.00  0.00     0.275 C 
BRANCH  26  27
ATOM     27  O   UNL A   1      32.622  31.142  26.657  1.00  0.00    -0.458 OA
BRANCH  27  28
ATOM     28  C   UNL A   1      33.210  32.141  27.354  1.00  0.00     0.338 C 
ATOM     29  O   UNL A   1      32.748  33.247  27.576  1.00  0.00    -0.246 OA
BRANCH  28  30
ATOM     30  C   UNL A   1      34.538  31.720  27.847  1.00  0.00     0.060 A 
ATOM     31  C   UNL A   1      35.569  32.634  28.066  1.00  0.00     0.016 A 
ATOM     32  C   UNL A   1      34.760  30.357  28.070  1.00  0.00     0.016 A 
ATOM     33  C   UNL A   1      36.822  32.188  28.476  1.00  0.00     0.010 A 
ATOM     34  C   UNL A   1      35.984  29.921  28.579  1.00  0.00     0.010 A 
ATOM     35  C   UNL A   1      37.020  30.837  28.800  1.00  0.00    -0.014 A 
BRANCH  35  36
ATOM     36  C   UNL A   1      38.231  30.430  29.557  1.00  0.00     0.031 A 
ATOM     37  C   UNL A   1      39.244  29.489  28.978  1.00  0.00     0.074 A 
ATOM     38  C   UNL A   1      38.342  30.875  30.826  1.00  0.00     0.049 A 
ATOM     39  N   UNL A   1      40.276  28.937  29.561  1.00  0.00    -0.248 NA
ATOM     40  C   UNL A   1      39.071  29.094  27.570  1.00  0.00     0.031 C 
ATOM     41  C   UNL A   1      37.368  31.746  31.494  1.00  0.00     0.029 A 
ATOM     42  N   UNL A   1      39.297  30.660  31.783  1.00  0.00    -0.354 N 
ATOM     43  C   UNL A   1      40.838  28.082  28.621  1.00  0.00     0.074 A 
ATOM     44  C   UNL A   1      40.044  28.205  27.415  1.00  0.00     0.031 C 
ATOM     45  C   UNL A   1      37.798  32.030  32.728  1.00  0.00     0.029 A 
ATOM     46  C   UNL A   1      39.026  31.292  32.976  1.00  0.00     0.049 A 
ATOM     47  H   UNL A   1      40.099  30.109  31.633  1.00  0.00     0.167 HD
ATOM     48  C   UNL A   1      41.913  27.272  28.763  1.00  0.00     0.034 A 
ATOM     49  C   UNL A   1      39.670  31.255  34.156  1.00  0.00     0.034 A 
ATOM     50  C   UNL A   1      42.705  27.202  29.966  1.00  0.00     0.049 A 
ATOM     51  C   UNL A   1      40.898  30.406  34.258  1.00  0.00     0.074 A 
ATOM     52  C   UNL A   1      43.840  26.448  30.210  1.00  0.00     0.029 A 
ATOM     53  N   UNL A   1      42.445  27.917  31.128  1.00  0.00    -0.354 N 
ATOM     54  N   UNL A   1      41.454  29.658  33.334  1.00  0.00    -0.248 NA
ATOM     55  C   UNL A   1      41.592  30.395  35.549  1.00  0.00     0.031 C 
ATOM     56  C   UNL A   1      44.260  26.703  31.521  1.00  0.00     0.029 A 
ATOM     57  C   UNL A   1      43.396  27.625  32.090  1.00  0.00     0.049 A 
ATOM     58  H   UNL A   1      41.693  28.541  31.250  1.00  0.00     0.167 HD
ATOM     59  C   UNL A   1      42.565  29.084  33.930  1.00  0.00     0.074 A 
ATOM     60  C   UNL A   1      42.625  29.604  35.284  1.00  0.00     0.031 C 
ATOM     61  C   UNL A   1      43.441  28.185  33.418  1.00  0.00     0.034 A 
BRANCH  48  62
ATOM     62  C   UNL A   1      42.319  26.413  27.592  1.00  0.00     0.023 A 
ATOM     63  C   UNL A   1      43.144  26.952  26.584  1.00  0.00     0.012 A 
ATOM     64  C   UNL A   1      41.946  25.055  27.521  1.00  0.00     0.148 A 
ATOM     65  C   UNL A   1      43.573  26.162  25.516  1.00  0.00     0.002 A 
ATOM     66  C   UNL A   1      42.406  24.265  26.472  1.00  0.00     0.091 A 
ATOM     67  F   UNL A   1      41.142  24.562  28.474  1.00  0.00    -0.205 F 
ATOM     68  C   UNL A   1      43.214  24.818  25.466  1.00  0.00     0.022 A 
BRANCH  66  69
ATOM     69  S   UNL A   1      42.051  22.506  26.356  1.00  0.00     0.127 S 
ATOM     70  O   UNL A   1      40.591  22.505  26.269  1.00  0.00    -0.237 OA
ATOM     71  O   UNL A   1      42.735  22.131  25.117  1.00  0.00    -0.237 OA
ATOM     72  O   UNL A   1      42.608  21.907  27.560  1.00  0.00    -0.744 OA
ENDBRANCH  66  69
ENDBRANCH  48  62
BRANCH  49  73
ATOM     73  C   UNL A   1      39.164  32.081  35.288  1.00  0.00     0.023 A 
ATOM     74  C   UNL A   1      38.351  31.482  36.269  1.00  0.00     0.012 A 
ATOM     75  C   UNL A   1      39.593  33.410  35.472  1.00  0.00     0.148 A 
ATOM     76  C   UNL A   1      37.980  32.192  37.413  1.00  0.00     0.002 A 
ATOM     77  C   UNL A   1      39.278  34.087  36.646  1.00  0.00     0.091 A 
ATOM     78  F   UNL A   1      40.347  33.976  34.518  1.00  0.00    -0.205 F 
ATOM     79  C   UNL A   1      38.460  33.484  37.611  1.00  0.00     0.022 A 
BRANCH  77  80
ATOM     80  S   UNL A   1      40.030  35.671  37.045  1.00  0.00     0.127 S 
ATOM     81  O   UNL A   1      39.622  36.492  35.909  1.00  0.00    -0.237 OA
ATOM     82  O   UNL A   1      39.388  36.013  38.314  1.00  0.00    -0.237 OA
ATOM     83  O   UNL A   1      41.456  35.393  37.160  1.00  0.00    -0.744 OA
ENDBRANCH  77  80
ENDBRANCH  49  73
BRANCH  61  84
ATOM     84  C   UNL A   1      44.530  27.710  34.337  1.00  0.00     0.023 A 
ATOM     85  C   UNL A   1      45.727  28.447  34.426  1.00  0.00     0.012 A 
ATOM     86  C   UNL A   1      44.351  26.568  35.137  1.00  0.00     0.148 A 
ATOM     87  C   UNL A   1      46.747  28.033  35.280  1.00  0.00     0.002 A 
ATOM     88  C   UNL A   1      45.356  26.185  36.015  1.00  0.00     0.091 A 
ATOM     89  F   UNL A   1      43.213  25.869  35.014  1.00  0.00    -0.205 F 
ATOM     90  C   UNL A   1      46.558  26.910  36.082  1.00  0.00     0.022 A 
BRANCH  88  91
ATOM     91  S   UNL A   1      45.162  24.797  37.137  1.00  0.00     0.127 S 
ATOM     92  O   UNL A   1      43.976  25.191  37.896  1.00  0.00    -0.237 OA
ATOM     93  O   UNL A   1      44.954  23.677  36.217  1.00  0.00    -0.237 OA
ATOM     94  O   UNL A   1      46.402  24.726  37.898  1.00  0.00    -0.744 OA
ENDBRANCH  88  91
ENDBRANCH  61  84
ENDBRANCH  35  36
ENDBRANCH  28  30
ENDBRANCH  27  28
ENDBRANCH  26  27
ENDBRANCH   1  26
TORSDOF 19
ENDMDL
MODEL 3
REMARK VINA RESULT:     -11.0      2.015      3.949
REMARK SMILES CC[NH2+][C@@]1(C(=O)OCCOC(=O)c2ccc(-c3c4nc(c(-c5cccc(S(=O)(=O)[O-])c5F)c5ccc([nH]5)c(-c5cccc(S(=O)(=O)[O-])c5F)c5nc(c(-c6cccc(S(=O)(=O)[O-])c6F)c6ccc3[nH]6)C=C5)C=C4)cc2)CCC[C@@H]1CC[NH+]1CCS(=O)(=O)CC1
REMARK SMILES IDX 8 1 7 2 5 3 6 4 4 5 76 6 79 7 77 8 78 9 3 10 2 13 1 14 80 15
REMARK SMILES IDX 81 16 82 17 83 18 89 19 84 21 88 22 85 23 86 24 87 25 9 26
REMARK SMILES IDX 10 27 11 28 12 29 13 30 14 31 75 32 15 33 74 34 16 35 17 36
REMARK SMILES IDX 18 37 68 38 19 39 73 40 67 41 69 42 20 43 72 44 66 45 65 46
REMARK SMILES IDX 21 48 53 49 33 50 52 51 34 52 37 53 51 54 70 55 35 56 36 57
REMARK SMILES IDX 50 59 71 60 38 61 22 62 23 63 31 64 24 65 26 66 32 67 25 68
REMARK SMILES IDX 27 69 28 70 29 71 30 72 54 73 55 74 63 75 56 76 58 77 64 78
REMARK SMILES IDX 57 79 59 80 60 81 61 82 62 83 39 84 40 85 48 86 41 87 43 88
REMARK SMILES IDX 49 89 42 90 44 91 45 92 46 93 47 94
REMARK H PARENT 3 11 3 12 82 20 69 47 37 58
REMARK Flexibility Score: inf
ROOT
ATOM      1  C   UNL A   1      35.689  20.658  24.672  1.00  0.00     0.274 C 
ENDROOT
BRANCH   1   2
ATOM      2  O   UNL A   1      34.861  20.924  25.830  1.00  0.00    -0.457 OA
BRANCH   2   3
ATOM      3  C   UNL A   1      33.535  20.753  25.612  1.00  0.00     0.368 C 
ATOM      4  O   UNL A   1      33.032  19.640  25.454  1.00  0.00    -0.245 OA
BRANCH   3   5
ATOM      5  C   UNL A   1      32.678  22.070  25.502  1.00  0.00     0.197 C 
ATOM      6  C   UNL A   1      31.779  21.731  24.267  1.00  0.00     0.081 C 
ATOM      7  C   UNL A   1      33.251  23.425  25.005  1.00  0.00     0.068 C 
ATOM      8  C   UNL A   1      32.689  22.038  23.077  1.00  0.00     0.008 C 
ATOM      9  C   UNL A   1      33.476  23.278  23.489  1.00  0.00     0.011 C 
BRANCH   5  10
ATOM     10  N   UNL A   1      31.917  22.167  26.767  1.00  0.00    -0.332 N 
ATOM     11  H   UNL A   1      31.383  21.303  26.862  1.00  0.00     0.347 HD
ATOM     12  H   UNL A   1      32.634  22.338  27.472  1.00  0.00     0.347 HD
BRANCH  10  13
ATOM     13  C   UNL A   1      30.983  23.268  26.944  1.00  0.00     0.257 C 
ATOM     14  C   UNL A   1      29.570  22.719  27.093  1.00  0.00     0.071 C 
ENDBRANCH  10  13
ENDBRANCH   5  10
BRANCH   7  15
ATOM     15  C   UNL A   1      34.215  24.353  25.771  1.00  0.00     0.072 C 
BRANCH  15  16
ATOM     16  C   UNL A   1      34.227  25.878  25.629  1.00  0.00     0.262 C 
BRANCH  16  17
ATOM     17  N   UNL A   1      33.073  26.565  25.082  1.00  0.00    -0.333 N 
ATOM     18  C   UNL A   1      33.388  27.585  24.080  1.00  0.00     0.278 C 
ATOM     19  C   UNL A   1      31.851  26.737  25.843  1.00  0.00     0.278 C 
ATOM     20  H   UNL A   1      32.680  25.773  24.574  1.00  0.00     0.348 HD
ATOM     21  C   UNL A   1      33.290  29.030  24.530  1.00  0.00     0.198 C 
ATOM     22  C   UNL A   1      31.622  28.099  26.456  1.00  0.00     0.198 C 
ATOM     23  S   UNL A   1      31.691  29.346  25.213  1.00  0.00     0.161 S 
ATOM     24  O   UNL A   1      31.728  30.632  25.884  1.00  0.00    -0.228 OA
ATOM     25  O   UNL A   1      30.674  29.071  24.216  1.00  0.00    -0.228 OA
ENDBRANCH  16  17
ENDBRANCH  15  16
ENDBRANCH   7  15
ENDBRANCH   3   5
ENDBRANCH   2   3
ENDBRANCH   1   2
BRANCH   1  26
ATOM     26  C   UNL A   1      37.156  20.357  25.000  1.00  0.00     0.275 C 
BRANCH  26  27
ATOM     27  O   UNL A   1      37.770  21.449  25.693  1.00  0.00    -0.458 OA
BRANCH  27  28
ATOM     28  C   UNL A   1      39.057  21.269  26.069  1.00  0.00     0.338 C 
ATOM     29  O   UNL A   1      39.719  20.253  25.944  1.00  0.00    -0.246 OA
BRANCH  28  30
ATOM     30  C   UNL A   1      39.602  22.504  26.671  1.00  0.00     0.060 A 
ATOM     31  C   UNL A   1      40.662  22.480  27.576  1.00  0.00     0.016 A 
ATOM     32  C   UNL A   1      39.005  23.724  26.334  1.00  0.00     0.016 A 
ATOM     33  C   UNL A   1      41.106  23.661  28.163  1.00  0.00     0.010 A 
ATOM     34  C   UNL A   1      39.516  24.917  26.844  1.00  0.00     0.010 A 
ATOM     35  C   UNL A   1      40.583  24.895  27.752  1.00  0.00    -0.014 A 
BRANCH  35  36
ATOM     36  C   UNL A   1      41.285  26.152  28.114  1.00  0.00     0.031 A 
ATOM     37  C   UNL A   1      40.602  27.245  28.881  1.00  0.00     0.074 A 
ATOM     38  C   UNL A   1      42.541  26.311  27.649  1.00  0.00     0.049 A 
ATOM     39  N   UNL A   1      41.036  28.448  29.153  1.00  0.00    -0.248 NA
ATOM     40  C   UNL A   1      39.250  26.967  29.392  1.00  0.00     0.031 C 
ATOM     41  C   UNL A   1      43.263  25.323  26.839  1.00  0.00     0.029 A 
ATOM     42  N   UNL A   1      43.431  27.344  27.772  1.00  0.00    -0.354 N 
ATOM     43  C   UNL A   1      39.994  29.094  29.806  1.00  0.00     0.074 A 
ATOM     44  C   UNL A   1      38.909  28.140  29.912  1.00  0.00     0.031 C 
ATOM     45  C   UNL A   1      44.495  25.774  26.581  1.00  0.00     0.029 A 
ATOM     46  C   UNL A   1      44.624  27.117  27.123  1.00  0.00     0.049 A 
ATOM     47  H   UNL A   1      43.238  28.168  28.275  1.00  0.00     0.167 HD
ATOM     48  C   UNL A   1      39.955  30.367  30.266  1.00  0.00     0.034 A 
ATOM     49  C   UNL A   1      45.694  27.912  26.948  1.00  0.00     0.034 A 
ATOM     50  C   UNL A   1      41.068  31.280  30.179  1.00  0.00     0.049 A 
ATOM     51  C   UNL A   1      45.648  29.288  27.533  1.00  0.00     0.074 A 
ATOM     52  C   UNL A   1      41.157  32.579  30.648  1.00  0.00     0.029 A 
ATOM     53  N   UNL A   1      42.288  30.986  29.585  1.00  0.00    -0.354 N 
ATOM     54  N   UNL A   1      44.679  29.857  28.210  1.00  0.00    -0.248 NA
ATOM     55  C   UNL A   1      46.833  30.131  27.343  1.00  0.00     0.031 C 
ATOM     56  C   UNL A   1      42.428  33.072  30.330  1.00  0.00     0.029 A 
ATOM     57  C   UNL A   1      43.136  32.077  29.675  1.00  0.00     0.049 A 
ATOM     58  H   UNL A   1      42.517  30.128  29.160  1.00  0.00     0.167 HD
ATOM     59  C   UNL A   1      45.133  31.127  28.527  1.00  0.00     0.074 A 
ATOM     60  C   UNL A   1      46.483  31.228  28.002  1.00  0.00     0.031 C 
ATOM     61  C   UNL A   1      44.485  32.131  29.167  1.00  0.00     0.034 A 
BRANCH  48  62
ATOM     62  C   UNL A   1      38.688  30.848  30.928  1.00  0.00     0.023 A 
ATOM     63  C   UNL A   1      38.562  30.774  32.330  1.00  0.00     0.012 A 
ATOM     64  C   UNL A   1      37.653  31.438  30.175  1.00  0.00     0.148 A 
ATOM     65  C   UNL A   1      37.419  31.260  32.968  1.00  0.00     0.002 A 
ATOM     66  C   UNL A   1      36.532  31.951  30.820  1.00  0.00     0.091 A 
ATOM     67  F   UNL A   1      37.777  31.480  28.840  1.00  0.00    -0.205 F 
ATOM     68  C   UNL A   1      36.411  31.857  32.216  1.00  0.00     0.022 A 
BRANCH  66  69
ATOM     69  S   UNL A   1      35.210  32.797  29.944  1.00  0.00     0.127 S 
ATOM     70  O   UNL A   1      34.765  31.762  29.012  1.00  0.00    -0.237 OA
ATOM     71  O   UNL A   1      34.264  33.096  31.020  1.00  0.00    -0.237 OA
ATOM     72  O   UNL A   1      35.823  33.969  29.334  1.00  0.00    -0.744 OA
ENDBRANCH  66  69
ENDBRANCH  48  62
BRANCH  49  73
ATOM     73  C   UNL A   1      46.883  27.383  26.221  1.00  0.00     0.023 A 
ATOM     74  C   UNL A   1      47.091  27.754  24.878  1.00  0.00     0.012 A 
ATOM     75  C   UNL A   1      47.874  26.636  26.886  1.00  0.00     0.148 A 
ATOM     76  C   UNL A   1      48.265  27.392  24.216  1.00  0.00     0.002 A 
ATOM     77  C   UNL A   1      49.071  26.339  26.243  1.00  0.00     0.091 A 
ATOM     78  F   UNL A   1      47.652  26.269  28.157  1.00  0.00    -0.205 F 
ATOM     79  C   UNL A   1      49.263  26.704  24.903  1.00  0.00     0.022 A 
BRANCH  77  80
ATOM     80  S   UNL A   1      50.464  25.634  27.135  1.00  0.00     0.127 S 
ATOM     81  O   UNL A   1      49.918  24.358  27.587  1.00  0.00    -0.237 OA
ATOM     82  O   UNL A   1      51.486  25.532  26.092  1.00  0.00    -0.237 OA
ATOM     83  O   UNL A   1      50.776  26.606  28.175  1.00  0.00    -0.744 OA
ENDBRANCH  77  80
ENDBRANCH  49  73
BRANCH  61  84
ATOM     84  C   UNL A   1      45.236  33.422  29.323  1.00  0.00     0.023 A 
ATOM     85  C   UNL A   1      45.994  33.642  30.490  1.00  0.00     0.012 A 
ATOM     86  C   UNL A   1      45.225  34.390  28.304  1.00  0.00     0.148 A 
ATOM     87  C   UNL A   1      46.708  34.827  30.653  1.00  0.00     0.002 A 
ATOM     88  C   UNL A   1      45.972  35.551  28.456  1.00  0.00     0.091 A 
ATOM     89  F   UNL A   1      44.474  34.168  27.215  1.00  0.00    -0.205 F 
ATOM     90  C   UNL A   1      46.707  35.775  29.633  1.00  0.00     0.022 A 
BRANCH  88  91
ATOM     91  S   UNL A   1      46.085  36.787  27.160  1.00  0.00     0.127 S 
ATOM     92  O   UNL A   1      44.767  37.415  27.230  1.00  0.00    -0.237 OA
ATOM     93  O   UNL A   1      47.188  37.630  27.625  1.00  0.00    -0.237 OA
ATOM     94  O   UNL A   1      46.368  36.052  25.935  1.00  0.00    -0.744 OA
ENDBRANCH  88  91
ENDBRANCH  61  84
ENDBRANCH  35  36
ENDBRANCH  28  30
ENDBRANCH  27  28
ENDBRANCH  26  27
ENDBRANCH   1  26
TORSDOF 19
ENDMDL
