MODEL 1
REMARK VINA RESULT:     -12.6      0.000      0.000
REMARK SMILES CC(C)c1ccc(-c2cnc([C@@H]3[NH2+][C@H](C(=O)OCCOC(=O)c4ccc(-c5c6nc(c(-c7cccc(S(=O)(=O)[O-])c7F)c7ccc([nH]7)c(-c7cccc(S(=O)(=O)[O-])c7F)c7nc(c(-c8cccc(S(=O)(=O)[O-])c8F)c8ccc5[nH]8)C=C7)C=C6)cc4)C(C)(C)S3)s2)cc1
REMARK SMILES IDX 18 1 17 2 15 3 16 4 14 5 12 6 13 7 89 8 86 11 87 12 88 13
REMARK SMILES IDX 11 14 8 15 9 16 90 17 10 18 7 19 4 20 5 21 92 22 6 23 91 24
REMARK SMILES IDX 2 25 1 26 3 27 19 28 20 29 21 30 22 31 23 32 24 33 85 34
REMARK SMILES IDX 25 35 84 36 26 37 27 38 28 39 78 40 29 41 83 42 77 43 79 44
REMARK SMILES IDX 30 45 82 46 76 47 75 48 31 50 63 51 43 52 62 53 44 54 47 55
REMARK SMILES IDX 61 56 80 57 45 58 46 59 60 61 81 62 48 63 32 64 33 65 41 66
REMARK SMILES IDX 34 67 36 68 42 69 35 70 37 71 38 72 39 73 40 74 64 75 65 76
REMARK SMILES IDX 73 77 66 78 68 79 74 80 67 81 69 82 70 83 71 84 72 85 49 86
REMARK SMILES IDX 50 87 58 88 51 89 53 90 59 91 52 92 54 93 55 94 56 95 57 96
REMARK H PARENT 13 9 13 10 79 49 47 60
REMARK Flexibility Score: inf
ROOT
ATOM      1  C   UNL A   1      31.655  28.070  27.697  1.00  0.00     0.274 C 
ENDROOT
BRANCH   1   2
ATOM      2  O   UNL A   1      32.128  27.171  26.675  1.00  0.00    -0.458 OA
BRANCH   2   3
ATOM      3  C   UNL A   1      31.211  26.899  25.711  1.00  0.00     0.366 C 
ATOM      4  O   UNL A   1      30.545  25.863  25.690  1.00  0.00    -0.245 OA
BRANCH   3   5
ATOM      5  C   UNL A   1      31.102  27.965  24.591  1.00  0.00     0.310 C 
ATOM      6  C   UNL A   1      32.668  27.316  22.867  1.00  0.00     0.304 C 
ATOM      7  N   UNL A   1      32.464  28.237  24.005  1.00  0.00    -0.317 N 
ATOM      8  S   UNL A   1      31.055  27.315  22.001  1.00  0.00    -0.079 SA
ATOM      9  H   UNL A   1      32.516  29.203  23.680  1.00  0.00     0.348 HD
ATOM     10  H   UNL A   1      33.187  28.093  24.710  1.00  0.00     0.348 HD
ATOM     11  C   UNL A   1      30.068  27.889  23.437  1.00  0.00     0.079 C 
ATOM     12  C   UNL A   1      29.568  29.300  23.047  1.00  0.00     0.030 C 
ATOM     13  C   UNL A   1      28.808  27.048  23.679  1.00  0.00     0.030 C 
BRANCH   6  14
ATOM     14  C   UNL A   1      33.179  25.917  23.237  1.00  0.00     0.162 A 
ATOM     15  C   UNL A   1      33.419  23.479  23.570  1.00  0.00     0.055 A 
ATOM     16  C   UNL A   1      34.222  24.299  24.336  1.00  0.00     0.132 A 
ATOM     17  S   UNL A   1      32.617  24.487  22.417  1.00  0.00    -0.112 S 
ATOM     18  N   UNL A   1      34.067  25.661  24.174  1.00  0.00    -0.242 NA
BRANCH  15  19
ATOM     19  C   UNL A   1      33.223  22.021  23.739  1.00  0.00    -0.007 A 
ATOM     20  C   UNL A   1      33.048  19.164  24.104  1.00  0.00    -0.045 A 
ATOM     21  C   UNL A   1      32.203  19.865  23.222  1.00  0.00     0.004 A 
ATOM     22  C   UNL A   1      33.966  19.933  24.824  1.00  0.00     0.004 A 
ATOM     23  C   UNL A   1      32.275  21.267  23.051  1.00  0.00     0.010 A 
ATOM     24  C   UNL A   1      34.051  21.325  24.642  1.00  0.00     0.010 A 
BRANCH  20  25
ATOM     25  C   UNL A   1      33.023  17.631  24.188  1.00  0.00     0.013 C 
ATOM     26  C   UNL A   1      34.192  16.909  23.496  1.00  0.00     0.012 C 
ATOM     27  C   UNL A   1      32.915  17.070  25.610  1.00  0.00     0.012 C 
ENDBRANCH  20  25
ENDBRANCH  15  19
ENDBRANCH   6  14
ENDBRANCH   3   5
ENDBRANCH   2   3
ENDBRANCH   1   2
BRANCH   1  28
ATOM     28  C   UNL A   1      31.753  29.528  27.228  1.00  0.00     0.275 C 
BRANCH  28  29
ATOM     29  O   UNL A   1      33.110  29.859  26.866  1.00  0.00    -0.458 OA
BRANCH  29  30
ATOM     30  C   UNL A   1      33.573  31.079  27.225  1.00  0.00     0.338 C 
ATOM     31  O   UNL A   1      32.973  32.143  27.169  1.00  0.00    -0.246 OA
BRANCH  30  32
ATOM     32  C   UNL A   1      34.889  30.910  27.878  1.00  0.00     0.060 A 
ATOM     33  C   UNL A   1      35.154  29.659  28.426  1.00  0.00     0.016 A 
ATOM     34  C   UNL A   1      35.839  31.918  27.997  1.00  0.00     0.016 A 
ATOM     35  C   UNL A   1      36.370  29.371  29.043  1.00  0.00     0.010 A 
ATOM     36  C   UNL A   1      37.066  31.639  28.636  1.00  0.00     0.010 A 
ATOM     37  C   UNL A   1      37.344  30.359  29.151  1.00  0.00    -0.014 A 
BRANCH  37  38
ATOM     38  C   UNL A   1      38.602  30.066  29.890  1.00  0.00     0.031 A 
ATOM     39  C   UNL A   1      39.642  29.214  29.240  1.00  0.00     0.074 A 
ATOM     40  C   UNL A   1      38.875  30.622  31.086  1.00  0.00     0.049 A 
ATOM     41  N   UNL A   1      40.727  28.706  29.756  1.00  0.00    -0.248 NA
ATOM     42  C   UNL A   1      39.449  28.924  27.811  1.00  0.00     0.031 C 
ATOM     43  C   UNL A   1      38.066  31.651  31.710  1.00  0.00     0.029 A 
ATOM     44  N   UNL A   1      39.893  30.427  31.986  1.00  0.00    -0.354 N 
ATOM     45  C   UNL A   1      41.327  27.993  28.732  1.00  0.00     0.074 A 
ATOM     46  C   UNL A   1      40.502  28.163  27.553  1.00  0.00     0.031 C 
ATOM     47  C   UNL A   1      38.593  32.002  32.893  1.00  0.00     0.029 A 
ATOM     48  C   UNL A   1      39.746  31.154  33.151  1.00  0.00     0.049 A 
ATOM     49  H   UNL A   1      40.655  29.828  31.817  1.00  0.00     0.167 HD
ATOM     50  C   UNL A   1      42.456  27.250  28.783  1.00  0.00     0.034 A 
ATOM     51  C   UNL A   1      40.438  31.101  34.306  1.00  0.00     0.034 A 
ATOM     52  C   UNL A   1      43.255  27.089  29.967  1.00  0.00     0.049 A 
ATOM     53  C   UNL A   1      41.550  30.089  34.404  1.00  0.00     0.074 A 
ATOM     54  C   UNL A   1      44.377  26.302  30.149  1.00  0.00     0.029 A 
ATOM     55  N   UNL A   1      43.005  27.715  31.180  1.00  0.00    -0.354 N 
ATOM     56  N   UNL A   1      42.083  29.358  33.455  1.00  0.00    -0.248 NA
ATOM     57  C   UNL A   1      42.146  29.882  35.731  1.00  0.00     0.031 C 
ATOM     58  C   UNL A   1      44.782  26.423  31.484  1.00  0.00     0.029 A 
ATOM     59  C   UNL A   1      43.933  27.313  32.125  1.00  0.00     0.049 A 
ATOM     60  H   UNL A   1      42.273  28.353  31.345  1.00  0.00     0.167 HD
ATOM     61  C   UNL A   1      43.110  28.641  34.057  1.00  0.00     0.074 A 
ATOM     62  C   UNL A   1      43.123  29.028  35.454  1.00  0.00     0.031 C 
ATOM     63  C   UNL A   1      43.959  27.743  33.501  1.00  0.00     0.034 A 
BRANCH  50  64
ATOM     64  C   UNL A   1      42.830  26.506  27.533  1.00  0.00     0.023 A 
ATOM     65  C   UNL A   1      43.495  27.167  26.482  1.00  0.00     0.012 A 
ATOM     66  C   UNL A   1      42.487  25.148  27.393  1.00  0.00     0.148 A 
ATOM     67  C   UNL A   1      43.777  26.495  25.293  1.00  0.00     0.002 A 
ATOM     68  C   UNL A   1      42.807  24.475  26.222  1.00  0.00     0.091 A 
ATOM     69  F   UNL A   1      41.822  24.549  28.392  1.00  0.00    -0.205 F 
ATOM     70  C   UNL A   1      43.440  25.149  25.166  1.00  0.00     0.022 A 
BRANCH  68  71
ATOM     71  S   UNL A   1      42.463  22.728  25.996  1.00  0.00     0.127 S 
ATOM     72  O   UNL A   1      42.992  22.495  24.653  1.00  0.00    -0.237 OA
ATOM     73  O   UNL A   1      43.244  22.117  27.072  1.00  0.00    -0.237 OA
ATOM     74  O   UNL A   1      41.022  22.582  26.137  1.00  0.00    -0.744 OA
ENDBRANCH  68  71
ENDBRANCH  50  64
BRANCH  51  75
ATOM     75  C   UNL A   1      40.143  32.013  35.456  1.00  0.00     0.023 A 
ATOM     76  C   UNL A   1      40.982  33.130  35.653  1.00  0.00     0.012 A 
ATOM     77  C   UNL A   1      39.096  31.785  36.373  1.00  0.00     0.148 A 
ATOM     78  C   UNL A   1      40.807  33.980  36.746  1.00  0.00     0.002 A 
ATOM     79  C   UNL A   1      38.904  32.661  37.441  1.00  0.00     0.091 A 
ATOM     80  F   UNL A   1      38.315  30.710  36.194  1.00  0.00    -0.205 F 
ATOM     81  C   UNL A   1      39.766  33.749  37.636  1.00  0.00     0.022 A 
BRANCH  79  82
ATOM     82  S   UNL A   1      37.556  32.513  38.618  1.00  0.00     0.127 S 
ATOM     83  O   UNL A   1      37.973  33.427  39.679  1.00  0.00    -0.237 OA
ATOM     84  O   UNL A   1      36.410  32.961  37.829  1.00  0.00    -0.237 OA
ATOM     85  O   UNL A   1      37.518  31.110  38.989  1.00  0.00    -0.744 OA
ENDBRANCH  79  82
ENDBRANCH  51  75
BRANCH  63  86
ATOM     86  C   UNL A   1      45.013  27.143  34.394  1.00  0.00     0.023 A 
ATOM     87  C   UNL A   1      46.279  27.751  34.496  1.00  0.00     0.012 A 
ATOM     88  C   UNL A   1      44.716  26.022  35.194  1.00  0.00     0.148 A 
ATOM     89  C   UNL A   1      47.242  27.238  35.363  1.00  0.00     0.002 A 
ATOM     90  C   UNL A   1      45.662  25.547  36.092  1.00  0.00     0.091 A 
ATOM     91  F   UNL A   1      43.511  25.447  35.065  1.00  0.00    -0.205 F 
ATOM     92  C   UNL A   1      46.930  26.145  36.169  1.00  0.00     0.022 A 
BRANCH  90  93
ATOM     93  S   UNL A   1      45.317  24.210  37.241  1.00  0.00     0.127 S 
ATOM     94  O   UNL A   1      46.557  24.155  38.015  1.00  0.00    -0.237 OA
ATOM     95  O   UNL A   1      44.163  24.726  37.976  1.00  0.00    -0.237 OA
ATOM     96  O   UNL A   1      45.041  23.036  36.424  1.00  0.00    -0.744 OA
ENDBRANCH  90  93
ENDBRANCH  63  86
ENDBRANCH  37  38
ENDBRANCH  30  32
ENDBRANCH  29  30
ENDBRANCH  28  29
ENDBRANCH   1  28
TORSDOF 17
ENDMDL
MODEL 2
REMARK VINA RESULT:     -12.4      5.111     10.328
REMARK SMILES CC(C)c1ccc(-c2cnc([C@@H]3[NH2+][C@H](C(=O)OCCOC(=O)c4ccc(-c5c6nc(c(-c7cccc(S(=O)(=O)[O-])c7F)c7ccc([nH]7)c(-c7cccc(S(=O)(=O)[O-])c7F)c7nc(c(-c8cccc(S(=O)(=O)[O-])c8F)c8ccc5[nH]8)C=C7)C=C6)cc4)C(C)(C)S3)s2)cc1
REMARK SMILES IDX 18 1 17 2 15 3 16 4 14 5 12 6 13 7 89 8 86 11 87 12 88 13
REMARK SMILES IDX 11 14 8 15 9 16 90 17 10 18 7 19 4 20 5 21 92 22 6 23 91 24
REMARK SMILES IDX 2 25 1 26 3 27 19 28 20 29 21 30 22 31 23 32 24 33 85 34
REMARK SMILES IDX 25 35 84 36 26 37 27 38 28 39 78 40 29 41 83 42 77 43 79 44
REMARK SMILES IDX 30 45 82 46 76 47 75 48 31 50 63 51 43 52 62 53 44 54 47 55
REMARK SMILES IDX 61 56 80 57 45 58 46 59 60 61 81 62 48 63 32 64 33 65 41 66
REMARK SMILES IDX 34 67 36 68 42 69 35 70 37 71 38 72 39 73 40 74 64 75 65 76
REMARK SMILES IDX 73 77 66 78 68 79 74 80 67 81 69 82 70 83 71 84 72 85 49 86
REMARK SMILES IDX 50 87 58 88 51 89 53 90 59 91 52 92 54 93 55 94 56 95 57 96
REMARK H PARENT 13 9 13 10 79 49 47 60
REMARK Flexibility Score: inf
ROOT
ATOM      1  C   UNL A   1      36.647  22.976  23.086  1.00  0.00     0.274 C 
ENDROOT
BRANCH   1   2
ATOM      2  O   UNL A   1      35.571  23.716  23.696  1.00  0.00    -0.458 OA
BRANCH   2   3
ATOM      3  C   UNL A   1      34.336  23.224  23.420  1.00  0.00     0.366 C 
ATOM      4  O   UNL A   1      33.559  23.763  22.631  1.00  0.00    -0.245 OA
BRANCH   3   5
ATOM      5  C   UNL A   1      33.941  21.957  24.221  1.00  0.00     0.310 C 
ATOM      6  C   UNL A   1      32.782  22.727  26.198  1.00  0.00     0.304 C 
ATOM      7  N   UNL A   1      34.077  22.220  25.700  1.00  0.00    -0.317 N 
ATOM      8  S   UNL A   1      31.540  21.678  25.357  1.00  0.00    -0.079 SA
ATOM      9  H   UNL A   1      34.320  21.356  26.185  1.00  0.00     0.348 HD
ATOM     10  H   UNL A   1      34.813  22.906  25.870  1.00  0.00     0.348 HD
ATOM     11  C   UNL A   1      32.631  21.165  23.974  1.00  0.00     0.079 C 
ATOM     12  C   UNL A   1      32.855  19.647  24.177  1.00  0.00     0.030 C 
ATOM     13  C   UNL A   1      31.971  21.312  22.597  1.00  0.00     0.030 C 
BRANCH   6  14
ATOM     14  C   UNL A   1      32.551  24.233  26.019  1.00  0.00     0.162 A 
ATOM     15  C   UNL A   1      31.646  26.447  25.393  1.00  0.00     0.055 A 
ATOM     16  C   UNL A   1      32.976  26.393  25.758  1.00  0.00     0.132 A 
ATOM     17  S   UNL A   1      30.967  24.891  25.718  1.00  0.00    -0.112 S 
ATOM     18  N   UNL A   1      33.491  25.153  26.077  1.00  0.00    -0.242 NA
BRANCH  15  19
ATOM     19  C   UNL A   1      30.942  27.595  24.778  1.00  0.00    -0.007 A 
ATOM     20  C   UNL A   1      29.526  29.709  23.415  1.00  0.00    -0.045 A 
ATOM     21  C   UNL A   1      30.623  29.959  24.261  1.00  0.00     0.004 A 
ATOM     22  C   UNL A   1      29.134  28.373  23.289  1.00  0.00     0.004 A 
ATOM     23  C   UNL A   1      31.311  28.928  24.943  1.00  0.00     0.010 A 
ATOM     24  C   UNL A   1      29.828  27.345  23.952  1.00  0.00     0.010 A 
BRANCH  20  25
ATOM     25  C   UNL A   1      28.869  30.832  22.601  1.00  0.00     0.013 C 
ATOM     26  C   UNL A   1      28.333  30.426  21.218  1.00  0.00     0.012 C 
ATOM     27  C   UNL A   1      27.742  31.574  23.329  1.00  0.00     0.012 C 
ENDBRANCH  20  25
ENDBRANCH  15  19
ENDBRANCH   6  14
ENDBRANCH   3   5
ENDBRANCH   2   3
ENDBRANCH   1   2
BRANCH   1  28
ATOM     28  C   UNL A   1      37.029  21.764  23.945  1.00  0.00     0.275 C 
BRANCH  28  29
ATOM     29  O   UNL A   1      37.330  22.169  25.297  1.00  0.00    -0.458 OA
BRANCH  29  30
ATOM     30  C   UNL A   1      38.421  21.623  25.885  1.00  0.00     0.338 C 
ATOM     31  O   UNL A   1      38.774  20.454  25.846  1.00  0.00    -0.246 OA
BRANCH  30  32
ATOM     32  C   UNL A   1      39.243  22.712  26.455  1.00  0.00     0.060 A 
ATOM     33  C   UNL A   1      38.954  24.002  26.021  1.00  0.00     0.016 A 
ATOM     34  C   UNL A   1      40.283  22.517  27.357  1.00  0.00     0.016 A 
ATOM     35  C   UNL A   1      39.642  25.111  26.508  1.00  0.00     0.010 A 
ATOM     36  C   UNL A   1      40.996  23.635  27.841  1.00  0.00     0.010 A 
ATOM     37  C   UNL A   1      40.671  24.941  27.429  1.00  0.00    -0.014 A 
BRANCH  37  38
ATOM     38  C   UNL A   1      41.456  26.124  27.874  1.00  0.00     0.031 A 
ATOM     39  C   UNL A   1      40.803  27.138  28.753  1.00  0.00     0.074 A 
ATOM     40  C   UNL A   1      42.765  26.261  27.586  1.00  0.00     0.049 A 
ATOM     41  N   UNL A   1      41.244  28.309  29.123  1.00  0.00    -0.248 NA
ATOM     42  C   UNL A   1      39.497  26.768  29.319  1.00  0.00     0.031 C 
ATOM     43  C   UNL A   1      43.573  25.236  26.954  1.00  0.00     0.029 A 
ATOM     44  N   UNL A   1      43.654  27.288  27.790  1.00  0.00    -0.354 N 
ATOM     45  C   UNL A   1      40.249  28.843  29.925  1.00  0.00     0.074 A 
ATOM     46  C   UNL A   1      39.196  27.853  30.017  1.00  0.00     0.031 C 
ATOM     47  C   UNL A   1      44.835  25.668  26.801  1.00  0.00     0.029 A 
ATOM     48  C   UNL A   1      44.905  27.048  27.258  1.00  0.00     0.049 A 
ATOM     49  H   UNL A   1      43.422  28.115  28.269  1.00  0.00     0.167 HD
ATOM     50  C   UNL A   1      40.216  30.061  30.512  1.00  0.00     0.034 A 
ATOM     51  C   UNL A   1      45.965  27.867  27.115  1.00  0.00     0.034 A 
ATOM     52  C   UNL A   1      41.269  31.033  30.400  1.00  0.00     0.049 A 
ATOM     53  C   UNL A   1      45.808  29.293  27.576  1.00  0.00     0.074 A 
ATOM     54  C   UNL A   1      41.308  32.323  30.895  1.00  0.00     0.029 A 
ATOM     55  N   UNL A   1      42.467  30.826  29.730  1.00  0.00    -0.354 N 
ATOM     56  N   UNL A   1      44.839  29.828  28.279  1.00  0.00    -0.248 NA
ATOM     57  C   UNL A   1      46.879  30.231  27.215  1.00  0.00     0.031 C 
ATOM     58  C   UNL A   1      42.513  32.908  30.489  1.00  0.00     0.029 A 
ATOM     59  C   UNL A   1      43.242  31.972  29.772  1.00  0.00     0.049 A 
ATOM     60  H   UNL A   1      42.728  29.985  29.287  1.00  0.00     0.167 HD
ATOM     61  C   UNL A   1      45.205  31.151  28.488  1.00  0.00     0.074 A 
ATOM     62  C   UNL A   1      46.487  31.336  27.836  1.00  0.00     0.031 C 
ATOM     63  C   UNL A   1      44.536  32.124  29.155  1.00  0.00     0.034 A 
BRANCH  50  64
ATOM     64  C   UNL A   1      38.962  30.415  31.260  1.00  0.00     0.023 A 
ATOM     65  C   UNL A   1      38.786  29.998  32.594  1.00  0.00     0.012 A 
ATOM     66  C   UNL A   1      37.941  31.140  30.618  1.00  0.00     0.148 A 
ATOM     67  C   UNL A   1      37.592  30.263  33.264  1.00  0.00     0.002 A 
ATOM     68  C   UNL A   1      36.771  31.435  31.304  1.00  0.00     0.091 A 
ATOM     69  F   UNL A   1      38.116  31.495  29.336  1.00  0.00    -0.205 F 
ATOM     70  C   UNL A   1      36.589  30.987  32.622  1.00  0.00     0.022 A 
BRANCH  68  71
ATOM     71  S   UNL A   1      35.453  32.411  30.576  1.00  0.00     0.127 S 
ATOM     72  O   UNL A   1      36.090  33.721  30.450  1.00  0.00    -0.237 OA
ATOM     73  O   UNL A   1      35.222  31.721  29.307  1.00  0.00    -0.237 OA
ATOM     74  O   UNL A   1      34.340  32.343  31.513  1.00  0.00    -0.744 OA
ENDBRANCH  68  71
ENDBRANCH  50  64
BRANCH  51  75
ATOM     75  C   UNL A   1      47.265  27.399  26.538  1.00  0.00     0.023 A 
ATOM     76  C   UNL A   1      47.526  27.670  25.179  1.00  0.00     0.012 A 
ATOM     77  C   UNL A   1      48.219  26.668  27.277  1.00  0.00     0.148 A 
ATOM     78  C   UNL A   1      48.687  27.202  24.559  1.00  0.00     0.002 A 
ATOM     79  C   UNL A   1      49.393  26.237  26.661  1.00  0.00     0.091 A 
ATOM     80  F   UNL A   1      47.956  26.395  28.563  1.00  0.00    -0.205 F 
ATOM     81  C   UNL A   1      49.621  26.491  25.301  1.00  0.00     0.022 A 
BRANCH  79  82
ATOM     82  S   UNL A   1      50.708  25.372  27.524  1.00  0.00     0.127 S 
ATOM     83  O   UNL A   1      49.992  24.253  28.133  1.00  0.00    -0.237 OA
ATOM     84  O   UNL A   1      51.606  25.009  26.428  1.00  0.00    -0.237 OA
ATOM     85  O   UNL A   1      51.260  26.336  28.458  1.00  0.00    -0.744 OA
ENDBRANCH  79  82
ENDBRANCH  51  75
BRANCH  63  86
ATOM     86  C   UNL A   1      45.198  33.473  29.258  1.00  0.00     0.023 A 
ATOM     87  C   UNL A   1      46.057  33.755  30.338  1.00  0.00     0.012 A 
ATOM     88  C   UNL A   1      45.030  34.429  28.237  1.00  0.00     0.148 A 
ATOM     89  C   UNL A   1      46.719  34.979  30.413  1.00  0.00     0.002 A 
ATOM     90  C   UNL A   1      45.732  35.626  28.292  1.00  0.00     0.091 A 
ATOM     91  F   UNL A   1      44.192  34.146  27.229  1.00  0.00    -0.205 F 
ATOM     92  C   UNL A   1      46.568  35.908  29.385  1.00  0.00     0.022 A 
BRANCH  90  93
ATOM     93  S   UNL A   1      45.679  36.839  26.969  1.00  0.00     0.127 S 
ATOM     94  O   UNL A   1      46.191  36.069  25.837  1.00  0.00    -0.237 OA
ATOM     95  O   UNL A   1      44.252  37.152  26.897  1.00  0.00    -0.237 OA
ATOM     96  O   UNL A   1      46.522  37.946  27.401  1.00  0.00    -0.744 OA
ENDBRANCH  90  93
ENDBRANCH  63  86
ENDBRANCH  37  38
ENDBRANCH  30  32
ENDBRANCH  29  30
ENDBRANCH  28  29
ENDBRANCH   1  28
TORSDOF 17
ENDMDL
MODEL 3
REMARK VINA RESULT:     -12.4      5.004     10.324
REMARK SMILES CC(C)c1ccc(-c2cnc([C@@H]3[NH2+][C@H](C(=O)OCCOC(=O)c4ccc(-c5c6nc(c(-c7cccc(S(=O)(=O)[O-])c7F)c7ccc([nH]7)c(-c7cccc(S(=O)(=O)[O-])c7F)c7nc(c(-c8cccc(S(=O)(=O)[O-])c8F)c8ccc5[nH]8)C=C7)C=C6)cc4)C(C)(C)S3)s2)cc1
REMARK SMILES IDX 18 1 17 2 15 3 16 4 14 5 12 6 13 7 89 8 86 11 87 12 88 13
REMARK SMILES IDX 11 14 8 15 9 16 90 17 10 18 7 19 4 20 5 21 92 22 6 23 91 24
REMARK SMILES IDX 2 25 1 26 3 27 19 28 20 29 21 30 22 31 23 32 24 33 85 34
REMARK SMILES IDX 25 35 84 36 26 37 27 38 28 39 78 40 29 41 83 42 77 43 79 44
REMARK SMILES IDX 30 45 82 46 76 47 75 48 31 50 63 51 43 52 62 53 44 54 47 55
REMARK SMILES IDX 61 56 80 57 45 58 46 59 60 61 81 62 48 63 32 64 33 65 41 66
REMARK SMILES IDX 34 67 36 68 42 69 35 70 37 71 38 72 39 73 40 74 64 75 65 76
REMARK SMILES IDX 73 77 66 78 68 79 74 80 67 81 69 82 70 83 71 84 72 85 49 86
REMARK SMILES IDX 50 87 58 88 51 89 53 90 59 91 52 92 54 93 55 94 56 95 57 96
REMARK H PARENT 13 9 13 10 79 49 47 60
REMARK Flexibility Score: inf
ROOT
ATOM      1  C   UNL A   1      36.691  22.698  23.263  1.00  0.00     0.274 C 
ENDROOT
BRANCH   1   2
ATOM      2  O   UNL A   1      35.665  23.548  23.812  1.00  0.00    -0.458 OA
BRANCH   2   3
ATOM      3  C   UNL A   1      34.402  23.086  23.620  1.00  0.00     0.366 C 
ATOM      4  O   UNL A   1      33.592  23.638  22.875  1.00  0.00    -0.245 OA
BRANCH   3   5
ATOM      5  C   UNL A   1      34.026  21.836  24.456  1.00  0.00     0.310 C 
ATOM      6  C   UNL A   1      32.736  22.632  26.339  1.00  0.00     0.304 C 
ATOM      7  N   UNL A   1      34.077  22.168  25.926  1.00  0.00    -0.317 N 
ATOM      8  S   UNL A   1      31.587  21.491  25.487  1.00  0.00    -0.079 SA
ATOM      9  H   UNL A   1      34.334  21.338  26.461  1.00  0.00     0.348 HD
ATOM     10  H   UNL A   1      34.771  22.894  26.101  1.00  0.00     0.348 HD
ATOM     11  C   UNL A   1      32.768  20.973  24.182  1.00  0.00     0.079 C 
ATOM     12  C   UNL A   1      33.051  19.477  24.463  1.00  0.00     0.030 C 
ATOM     13  C   UNL A   1      32.172  21.030  22.770  1.00  0.00     0.030 C 
BRANCH   6  14
ATOM     14  C   UNL A   1      32.446  24.117  26.083  1.00  0.00     0.162 A 
ATOM     15  C   UNL A   1      31.505  26.256  25.274  1.00  0.00     0.055 A 
ATOM     16  C   UNL A   1      32.778  26.291  25.804  1.00  0.00     0.132 A 
ATOM     17  S   UNL A   1      30.878  24.671  25.564  1.00  0.00    -0.112 S 
ATOM     18  N   UNL A   1      33.317  25.093  26.227  1.00  0.00    -0.242 NA
BRANCH  15  19
ATOM     19  C   UNL A   1      30.821  27.343  24.538  1.00  0.00    -0.007 A 
ATOM     20  C   UNL A   1      29.532  29.588  23.263  1.00  0.00    -0.045 A 
ATOM     21  C   UNL A   1      29.092  28.263  23.081  1.00  0.00     0.004 A 
ATOM     22  C   UNL A   1      30.653  29.762  24.078  1.00  0.00     0.004 A 
ATOM     23  C   UNL A   1      29.730  27.158  23.692  1.00  0.00     0.010 A 
ATOM     24  C   UNL A   1      31.278  28.666  24.700  1.00  0.00     0.010 A 
BRANCH  20  25
ATOM     25  C   UNL A   1      28.755  30.777  22.679  1.00  0.00     0.013 C 
ATOM     26  C   UNL A   1      28.083  30.528  21.319  1.00  0.00     0.012 C 
ATOM     27  C   UNL A   1      27.693  31.368  23.614  1.00  0.00     0.012 C 
ENDBRANCH  20  25
ENDBRANCH  15  19
ENDBRANCH   6  14
ENDBRANCH   3   5
ENDBRANCH   2   3
ENDBRANCH   1   2
BRANCH   1  28
ATOM     28  C   UNL A   1      37.063  21.584  24.250  1.00  0.00     0.275 C 
BRANCH  28  29
ATOM     29  O   UNL A   1      37.486  22.140  25.513  1.00  0.00    -0.458 OA
BRANCH  29  30
ATOM     30  C   UNL A   1      38.646  21.683  26.040  1.00  0.00     0.338 C 
ATOM     31  O   UNL A   1      39.087  20.545  25.979  1.00  0.00    -0.246 OA
BRANCH  30  32
ATOM     32  C   UNL A   1      39.409  22.834  26.568  1.00  0.00     0.060 A 
ATOM     33  C   UNL A   1      39.063  24.087  26.075  1.00  0.00     0.016 A 
ATOM     34  C   UNL A   1      40.449  22.728  27.486  1.00  0.00     0.016 A 
ATOM     35  C   UNL A   1      39.693  25.249  26.518  1.00  0.00     0.010 A 
ATOM     36  C   UNL A   1      41.103  23.899  27.926  1.00  0.00     0.010 A 
ATOM     37  C   UNL A   1      40.720  25.169  27.454  1.00  0.00    -0.014 A 
BRANCH  37  38
ATOM     38  C   UNL A   1      41.444  26.406  27.852  1.00  0.00     0.031 A 
ATOM     39  C   UNL A   1      40.744  27.411  28.707  1.00  0.00     0.074 A 
ATOM     40  C   UNL A   1      42.740  26.605  27.546  1.00  0.00     0.049 A 
ATOM     41  N   UNL A   1      41.124  28.616  29.034  1.00  0.00    -0.248 NA
ATOM     42  C   UNL A   1      39.466  26.989  29.298  1.00  0.00     0.031 C 
ATOM     43  C   UNL A   1      43.597  25.606  26.938  1.00  0.00     0.029 A 
ATOM     44  N   UNL A   1      43.573  27.685  27.708  1.00  0.00    -0.354 N 
ATOM     45  C   UNL A   1      40.109  29.120  29.830  1.00  0.00     0.074 A 
ATOM     46  C   UNL A   1      39.113  28.078  29.965  1.00  0.00     0.031 C 
ATOM     47  C   UNL A   1      44.832  26.100  26.758  1.00  0.00     0.029 A 
ATOM     48  C   UNL A   1      44.831  27.496  27.169  1.00  0.00     0.049 A 
ATOM     49  H   UNL A   1      43.301  28.513  28.163  1.00  0.00     0.167 HD
ATOM     50  C   UNL A   1      40.015  30.353  30.379  1.00  0.00     0.034 A 
ATOM     51  C   UNL A   1      45.843  28.366  26.989  1.00  0.00     0.034 A 
ATOM     52  C   UNL A   1      41.012  31.376  30.224  1.00  0.00     0.049 A 
ATOM     53  C   UNL A   1      45.613  29.795  27.406  1.00  0.00     0.074 A 
ATOM     54  C   UNL A   1      40.985  32.682  30.677  1.00  0.00     0.029 A 
ATOM     55  N   UNL A   1      42.213  31.213  29.548  1.00  0.00    -0.354 N 
ATOM     56  N   UNL A   1      44.622  30.300  28.103  1.00  0.00    -0.248 NA
ATOM     57  C   UNL A   1      46.627  30.778  27.004  1.00  0.00     0.031 C 
ATOM     58  C   UNL A   1      42.153  33.319  30.240  1.00  0.00     0.029 A 
ATOM     59  C   UNL A   1      42.925  32.400  29.545  1.00  0.00     0.049 A 
ATOM     60  H   UNL A   1      42.516  30.374  29.129  1.00  0.00     0.167 HD
ATOM     61  C   UNL A   1      44.918  31.647  28.266  1.00  0.00     0.074 A 
ATOM     62  C   UNL A   1      46.181  31.880  27.594  1.00  0.00     0.031 C 
ATOM     63  C   UNL A   1      44.203  32.603  28.909  1.00  0.00     0.034 A 
BRANCH  50  64
ATOM     64  C   UNL A   1      38.751  30.662  31.129  1.00  0.00     0.023 A 
ATOM     65  C   UNL A   1      38.577  30.207  32.450  1.00  0.00     0.012 A 
ATOM     66  C   UNL A   1      37.718  31.383  30.500  1.00  0.00     0.148 A 
ATOM     67  C   UNL A   1      37.374  30.430  33.120  1.00  0.00     0.002 A 
ATOM     68  C   UNL A   1      36.540  31.637  31.188  1.00  0.00     0.091 A 
ATOM     69  F   UNL A   1      37.893  31.776  29.230  1.00  0.00    -0.205 F 
ATOM     70  C   UNL A   1      36.360  31.151  32.493  1.00  0.00     0.022 A 
BRANCH  68  71
ATOM     71  S   UNL A   1      35.205  32.606  30.479  1.00  0.00     0.127 S 
ATOM     72  O   UNL A   1      34.236  32.619  31.573  1.00  0.00    -0.237 OA
ATOM     73  O   UNL A   1      35.858  33.892  30.227  1.00  0.00    -0.237 OA
ATOM     74  O   UNL A   1      34.787  31.894  29.279  1.00  0.00    -0.744 OA
ENDBRANCH  68  71
ENDBRANCH  50  64
BRANCH  51  75
ATOM     75  C   UNL A   1      47.161  27.951  26.413  1.00  0.00     0.023 A 
ATOM     76  C   UNL A   1      48.240  27.746  27.298  1.00  0.00     0.012 A 
ATOM     77  C   UNL A   1      47.385  27.797  25.028  1.00  0.00     0.148 A 
ATOM     78  C   UNL A   1      49.514  27.428  26.823  1.00  0.00     0.002 A 
ATOM     79  C   UNL A   1      48.650  27.440  24.564  1.00  0.00     0.091 A 
ATOM     80  F   UNL A   1      46.361  28.013  24.190  1.00  0.00    -0.205 F 
ATOM     81  C   UNL A   1      49.717  27.270  25.458  1.00  0.00     0.022 A 
BRANCH  79  82
ATOM     82  S   UNL A   1      49.026  27.139  22.835  1.00  0.00     0.127 S 
ATOM     83  O   UNL A   1      48.317  25.887  22.580  1.00  0.00    -0.237 OA
ATOM     84  O   UNL A   1      48.452  28.318  22.188  1.00  0.00    -0.237 OA
ATOM     85  O   UNL A   1      50.473  27.058  22.760  1.00  0.00    -0.744 OA
ENDBRANCH  79  82
ENDBRANCH  51  75
BRANCH  63  86
ATOM     86  C   UNL A   1      44.792  33.989  28.962  1.00  0.00     0.023 A 
ATOM     87  C   UNL A   1      44.452  34.935  27.977  1.00  0.00     0.012 A 
ATOM     88  C   UNL A   1      45.617  34.371  30.038  1.00  0.00     0.148 A 
ATOM     89  C   UNL A   1      44.945  36.237  28.048  1.00  0.00     0.002 A 
ATOM     90  C   UNL A   1      46.063  35.683  30.130  1.00  0.00     0.091 A 
ATOM     91  F   UNL A   1      45.944  33.447  30.953  1.00  0.00    -0.205 F 
ATOM     92  C   UNL A   1      45.739  36.614  29.129  1.00  0.00     0.022 A 
BRANCH  90  93
ATOM     93  S   UNL A   1      47.006  36.286  31.534  1.00  0.00     0.127 S 
ATOM     94  O   UNL A   1      48.152  35.379  31.537  1.00  0.00    -0.237 OA
ATOM     95  O   UNL A   1      47.315  37.658  31.131  1.00  0.00    -0.237 OA
ATOM     96  O   UNL A   1      46.124  36.178  32.689  1.00  0.00    -0.744 OA
ENDBRANCH  90  93
ENDBRANCH  63  86
ENDBRANCH  37  38
ENDBRANCH  30  32
ENDBRANCH  29  30
ENDBRANCH  28  29
ENDBRANCH   1  28
TORSDOF 17
ENDMDL
