MODEL 1
REMARK VINA RESULT:     -12.5      0.000      0.000
REMARK SMILES Cc1cc2c(c(C)c1Cl)C=C(C(=O)OCCOC(=O)c1ccc(-c3c4nc(c(-c5cccc(S(=O)(=O)[O-])c5F)c5ccc([nH]5)c(-c5cccc(S(=O)(=O)[O-])c5F)c5nc(c(-c6cccc(S(=O)(=O)[O-])c6F)c6ccc3[nH]6)C=C5)C=C4)cc1)[C@@H](C(F)(F)F)O2
REMARK SMILES IDX 16 1 15 2 14 3 12 4 13 5 11 6 1 7 2 8 3 9 8 10 4 11 6 12
REMARK SMILES IDX 9 13 5 14 88 15 7 16 10 17 83 18 84 19 85 20 86 21 87 22
REMARK SMILES IDX 17 23 18 24 19 25 20 26 21 27 82 28 22 29 81 30 23 31 24 32
REMARK SMILES IDX 25 33 75 34 26 35 80 36 74 37 76 38 27 39 79 40 73 41 72 42
REMARK SMILES IDX 28 44 60 45 40 46 59 47 41 48 44 49 58 50 77 51 42 52 43 53
REMARK SMILES IDX 57 55 78 56 45 57 29 58 30 59 38 60 31 61 33 62 39 63 32 64
REMARK SMILES IDX 34 65 35 66 36 67 37 68 61 69 62 70 70 71 63 72 65 73 71 74
REMARK SMILES IDX 64 75 66 76 67 77 68 78 69 79 46 80 47 81 55 82 48 83 50 84
REMARK SMILES IDX 56 85 49 86 51 87 52 88 53 89 54 90
REMARK H PARENT 76 43 44 54
REMARK Flexibility Score: inf
ROOT
ATOM      1  C   UNL A   1      31.833  30.093  25.359  1.00  0.00     0.275 C 
ENDROOT
BRANCH   1   2
ATOM      2  C   UNL A   1      31.478  28.653  24.986  1.00  0.00     0.275 C 
BRANCH   2   3
ATOM      3  O   UNL A   1      32.458  27.722  25.495  1.00  0.00    -0.459 OA
BRANCH   3   4
ATOM      4  C   UNL A   1      33.224  27.114  24.559  1.00  0.00     0.338 C 
ATOM      5  O   UNL A   1      33.842  27.661  23.659  1.00  0.00    -0.246 OA
BRANCH   4   6
ATOM      6  C   UNL A   1      33.218  25.651  24.746  1.00  0.00     0.087 C 
ATOM      7  C   UNL A   1      34.380  19.269  24.619  1.00  0.00     0.046 C 
ATOM      8  C   UNL A   1      34.430  20.766  24.758  1.00  0.00    -0.028 A 
ATOM      9  C   UNL A   1      33.233  21.495  24.717  1.00  0.00     0.052 A 
ATOM     10  C   UNL A   1      35.646  21.454  24.931  1.00  0.00     0.047 A 
ATOM     11  C   UNL A   1      33.241  22.885  24.796  1.00  0.00     0.128 A 
ATOM     12  C   UNL A   1      35.675  22.864  25.020  1.00  0.00    -0.021 A 
ATOM     13  Cl  UNL A   1      37.114  20.527  25.019  1.00  0.00    -0.084 Cl
ATOM     14  C   UNL A   1      34.449  23.577  24.930  1.00  0.00     0.022 A 
ATOM     15  O   UNL A   1      32.010  23.481  24.746  1.00  0.00    -0.475 OA
ATOM     16  C   UNL A   1      36.975  23.614  25.198  1.00  0.00     0.047 C 
ATOM     17  C   UNL A   1      34.394  25.035  24.925  1.00  0.00     0.027 C 
ATOM     18  C   UNL A   1      31.926  24.919  24.569  1.00  0.00     0.316 C 
BRANCH  18  19
ATOM     19  C   UNL A   1      31.290  25.216  23.202  1.00  0.00     0.430 C 
ATOM     20  F   UNL A   1      30.503  24.190  22.794  1.00  0.00    -0.167 F 
ATOM     21  F   UNL A   1      30.492  26.311  23.247  1.00  0.00    -0.167 F 
ATOM     22  F   UNL A   1      32.214  25.426  22.237  1.00  0.00    -0.167 F 
ENDBRANCH  18  19
ENDBRANCH   4   6
ENDBRANCH   3   4
ENDBRANCH   2   3
ENDBRANCH   1   2
BRANCH   1  23
ATOM     23  O   UNL A   1      32.232  30.166  26.738  1.00  0.00    -0.458 OA
BRANCH  23  24
ATOM     24  C   UNL A   1      32.848  31.316  27.097  1.00  0.00     0.338 C 
ATOM     25  O   UNL A   1      32.346  32.423  27.194  1.00  0.00    -0.246 OA
BRANCH  24  26
ATOM     26  C   UNL A   1      34.244  31.047  27.472  1.00  0.00     0.060 A 
ATOM     27  C   UNL A   1      34.631  29.729  27.664  1.00  0.00     0.016 A 
ATOM     28  C   UNL A   1      35.097  32.084  27.838  1.00  0.00     0.016 A 
ATOM     29  C   UNL A   1      35.784  29.446  28.387  1.00  0.00     0.010 A 
ATOM     30  C   UNL A   1      36.335  31.784  28.427  1.00  0.00     0.010 A 
ATOM     31  C   UNL A   1      36.668  30.463  28.776  1.00  0.00    -0.014 A 
BRANCH  31  32
ATOM     32  C   UNL A   1      37.895  30.140  29.574  1.00  0.00     0.031 A 
ATOM     33  C   UNL A   1      38.991  29.276  28.989  1.00  0.00     0.074 A 
ATOM     34  C   UNL A   1      38.057  30.640  30.820  1.00  0.00     0.049 A 
ATOM     35  N   UNL A   1      40.023  28.733  29.585  1.00  0.00    -0.248 NA
ATOM     36  C   UNL A   1      38.910  28.963  27.551  1.00  0.00     0.031 C 
ATOM     37  C   UNL A   1      37.113  31.519  31.513  1.00  0.00     0.029 A 
ATOM     38  N   UNL A   1      39.079  30.488  31.728  1.00  0.00    -0.354 N 
ATOM     39  C   UNL A   1      40.659  27.953  28.623  1.00  0.00     0.074 A 
ATOM     40  C   UNL A   1      39.901  28.093  27.401  1.00  0.00     0.031 C 
ATOM     41  C   UNL A   1      37.624  31.883  32.695  1.00  0.00     0.029 A 
ATOM     42  C   UNL A   1      38.866  31.156  32.914  1.00  0.00     0.049 A 
ATOM     43  H   UNL A   1      39.886  29.952  31.548  1.00  0.00     0.167 HD
ATOM     44  C   UNL A   1      41.778  27.197  28.745  1.00  0.00     0.034 A 
ATOM     45  C   UNL A   1      39.550  31.148  34.076  1.00  0.00     0.034 A 
ATOM     46  C   UNL A   1      42.582  27.134  29.939  1.00  0.00     0.049 A 
ATOM     47  C   UNL A   1      40.772  30.285  34.194  1.00  0.00     0.074 A 
ATOM     48  C   UNL A   1      43.747  26.417  30.149  1.00  0.00     0.029 A 
ATOM     49  N   UNL A   1      42.322  27.825  31.111  1.00  0.00    -0.354 N 
ATOM     50  N   UNL A   1      41.350  29.548  33.277  1.00  0.00    -0.248 NA
ATOM     51  C   UNL A   1      41.435  30.246  35.504  1.00  0.00     0.031 C 
ATOM     52  C   UNL A   1      44.177  26.656  31.457  1.00  0.00     0.029 A 
ATOM     53  C   UNL A   1      43.300  27.548  32.050  1.00  0.00     0.049 A 
ATOM     54  H   UNL A   1      41.555  28.426  31.254  1.00  0.00     0.167 HD
ATOM     55  C   UNL A   1      42.454  28.972  33.893  1.00  0.00     0.074 A 
ATOM     56  C   UNL A   1      42.482  29.471  35.253  1.00  0.00     0.031 C 
ATOM     57  C   UNL A   1      43.348  28.088  33.385  1.00  0.00     0.034 A 
BRANCH  44  58
ATOM     58  C   UNL A   1      42.234  26.388  27.555  1.00  0.00     0.023 A 
ATOM     59  C   UNL A   1      43.127  26.948  26.620  1.00  0.00     0.012 A 
ATOM     60  C   UNL A   1      41.862  25.031  27.424  1.00  0.00     0.148 A 
ATOM     61  C   UNL A   1      43.622  26.184  25.563  1.00  0.00     0.002 A 
ATOM     62  C   UNL A   1      42.399  24.263  26.397  1.00  0.00     0.091 A 
ATOM     63  F   UNL A   1      41.001  24.516  28.313  1.00  0.00    -0.205 F 
ATOM     64  C   UNL A   1      43.271  24.841  25.460  1.00  0.00     0.022 A 
BRANCH  62  65
ATOM     65  S   UNL A   1      42.084  22.501  26.230  1.00  0.00     0.127 S 
ATOM     66  O   UNL A   1      42.815  22.185  25.003  1.00  0.00    -0.237 OA
ATOM     67  O   UNL A   1      42.687  21.966  27.452  1.00  0.00    -0.237 OA
ATOM     68  O   UNL A   1      40.638  22.355  26.147  1.00  0.00    -0.744 OA
ENDBRANCH  62  65
ENDBRANCH  44  58
BRANCH  45  69
ATOM     69  C   UNL A   1      39.080  31.988  35.219  1.00  0.00     0.023 A 
ATOM     70  C   UNL A   1      38.174  31.444  36.149  1.00  0.00     0.012 A 
ATOM     71  C   UNL A   1      39.573  33.293  35.426  1.00  0.00     0.148 A 
ATOM     72  C   UNL A   1      37.760  32.187  37.257  1.00  0.00     0.002 A 
ATOM     73  C   UNL A   1      39.216  33.998  36.569  1.00  0.00     0.091 A 
ATOM     74  F   UNL A   1      40.414  33.807  34.517  1.00  0.00    -0.205 F 
ATOM     75  C   UNL A   1      38.296  33.454  37.477  1.00  0.00     0.022 A 
BRANCH  73  76
ATOM     76  S   UNL A   1      39.984  35.559  37.016  1.00  0.00     0.127 S 
ATOM     77  O   UNL A   1      39.649  36.397  35.867  1.00  0.00    -0.237 OA
ATOM     78  O   UNL A   1      39.279  35.898  38.254  1.00  0.00    -0.237 OA
ATOM     79  O   UNL A   1      41.399  35.266  37.194  1.00  0.00    -0.744 OA
ENDBRANCH  73  76
ENDBRANCH  45  69
BRANCH  57  80
ATOM     80  C   UNL A   1      44.455  27.611  34.287  1.00  0.00     0.023 A 
ATOM     81  C   UNL A   1      45.672  28.319  34.332  1.00  0.00     0.012 A 
ATOM     82  C   UNL A   1      44.253  26.525  35.162  1.00  0.00     0.148 A 
ATOM     83  C   UNL A   1      46.680  27.942  35.218  1.00  0.00     0.002 A 
ATOM     84  C   UNL A   1      45.240  26.189  36.080  1.00  0.00     0.091 A 
ATOM     85  F   UNL A   1      43.093  25.856  35.092  1.00  0.00    -0.205 F 
ATOM     86  C   UNL A   1      46.458  26.887  36.100  1.00  0.00     0.022 A 
BRANCH  84  87
ATOM     87  S   UNL A   1      45.008  24.917  37.328  1.00  0.00     0.127 S 
ATOM     88  O   UNL A   1      43.762  25.347  37.962  1.00  0.00    -0.237 OA
ATOM     89  O   UNL A   1      44.892  23.706  36.515  1.00  0.00    -0.237 OA
ATOM     90  O   UNL A   1      46.188  24.967  38.180  1.00  0.00    -0.744 OA
ENDBRANCH  84  87
ENDBRANCH  57  80
ENDBRANCH  31  32
ENDBRANCH  24  26
ENDBRANCH  23  24
ENDBRANCH   1  23
TORSDOF 15
ENDMDL
MODEL 2
REMARK VINA RESULT:     -12.5      4.886      9.966
REMARK SMILES Cc1cc2c(c(C)c1Cl)C=C(C(=O)OCCOC(=O)c1ccc(-c3c4nc(c(-c5cccc(S(=O)(=O)[O-])c5F)c5ccc([nH]5)c(-c5cccc(S(=O)(=O)[O-])c5F)c5nc(c(-c6cccc(S(=O)(=O)[O-])c6F)c6ccc3[nH]6)C=C5)C=C4)cc1)[C@@H](C(F)(F)F)O2
REMARK SMILES IDX 16 1 15 2 14 3 12 4 13 5 11 6 1 7 2 8 3 9 8 10 4 11 6 12
REMARK SMILES IDX 9 13 5 14 88 15 7 16 10 17 83 18 84 19 85 20 86 21 87 22
REMARK SMILES IDX 17 23 18 24 19 25 20 26 21 27 82 28 22 29 81 30 23 31 24 32
REMARK SMILES IDX 25 33 75 34 26 35 80 36 74 37 76 38 27 39 79 40 73 41 72 42
REMARK SMILES IDX 28 44 60 45 40 46 59 47 41 48 44 49 58 50 77 51 42 52 43 53
REMARK SMILES IDX 57 55 78 56 45 57 29 58 30 59 38 60 31 61 33 62 39 63 32 64
REMARK SMILES IDX 34 65 35 66 36 67 37 68 61 69 62 70 70 71 63 72 65 73 71 74
REMARK SMILES IDX 64 75 66 76 67 77 68 78 69 79 46 80 47 81 55 82 48 83 50 84
REMARK SMILES IDX 56 85 49 86 51 87 52 88 53 89 54 90
REMARK H PARENT 76 43 44 54
REMARK Flexibility Score: inf
ROOT
ATOM      1  C   UNL A   1      36.354  20.592  24.989  1.00  0.00     0.275 C 
ENDROOT
BRANCH   1   2
ATOM      2  C   UNL A   1      35.012  21.232  25.342  1.00  0.00     0.275 C 
BRANCH   2   3
ATOM      3  O   UNL A   1      35.068  22.671  25.227  1.00  0.00    -0.459 OA
BRANCH   3   4
ATOM      4  C   UNL A   1      34.258  23.354  26.070  1.00  0.00     0.338 C 
ATOM      5  O   UNL A   1      34.078  23.119  27.254  1.00  0.00    -0.246 OA
BRANCH   4   6
ATOM      6  C   UNL A   1      33.576  24.454  25.364  1.00  0.00     0.087 C 
ATOM      7  C   UNL A   1      30.131  29.682  23.660  1.00  0.00     0.046 C 
ATOM      8  C   UNL A   1      31.101  28.692  24.244  1.00  0.00    -0.028 A 
ATOM      9  C   UNL A   1      31.202  27.416  23.671  1.00  0.00     0.052 A 
ATOM     10  C   UNL A   1      31.912  29.012  25.350  1.00  0.00     0.047 A 
ATOM     11  C   UNL A   1      32.054  26.456  24.211  1.00  0.00     0.128 A 
ATOM     12  C   UNL A   1      32.787  28.055  25.909  1.00  0.00    -0.021 A 
ATOM     13  Cl  UNL A   1      31.799  30.612  26.020  1.00  0.00    -0.084 Cl
ATOM     14  C   UNL A   1      32.834  26.756  25.333  1.00  0.00     0.022 A 
ATOM     15  O   UNL A   1      32.065  25.252  23.561  1.00  0.00    -0.475 OA
ATOM     16  C   UNL A   1      33.657  28.384  27.101  1.00  0.00     0.047 C 
ATOM     17  C   UNL A   1      33.643  25.681  25.896  1.00  0.00     0.027 C 
ATOM     18  C   UNL A   1      32.720  24.117  24.185  1.00  0.00     0.316 C 
BRANCH  18  19
ATOM     19  C   UNL A   1      31.659  23.062  24.540  1.00  0.00     0.430 C 
ATOM     20  F   UNL A   1      31.312  23.138  25.849  1.00  0.00    -0.167 F 
ATOM     21  F   UNL A   1      30.517  23.243  23.834  1.00  0.00    -0.167 F 
ATOM     22  F   UNL A   1      32.086  21.801  24.307  1.00  0.00    -0.167 F 
ENDBRANCH  18  19
ENDBRANCH   4   6
ENDBRANCH   3   4
ENDBRANCH   2   3
ENDBRANCH   1   2
BRANCH   1  23
ATOM     23  O   UNL A   1      37.395  21.585  24.989  1.00  0.00    -0.458 OA
BRANCH  23  24
ATOM     24  C   UNL A   1      38.523  21.234  25.647  1.00  0.00     0.338 C 
ATOM     25  O   UNL A   1      39.111  20.167  25.587  1.00  0.00    -0.246 OA
BRANCH  24  26
ATOM     26  C   UNL A   1      39.042  22.379  26.408  1.00  0.00     0.060 A 
ATOM     27  C   UNL A   1      38.527  23.638  26.135  1.00  0.00     0.016 A 
ATOM     28  C   UNL A   1      40.165  22.247  27.220  1.00  0.00     0.016 A 
ATOM     29  C   UNL A   1      39.235  24.772  26.518  1.00  0.00     0.010 A 
ATOM     30  C   UNL A   1      40.784  23.396  27.733  1.00  0.00     0.010 A 
ATOM     31  C   UNL A   1      40.373  24.681  27.333  1.00  0.00    -0.014 A 
BRANCH  31  32
ATOM     32  C   UNL A   1      41.135  25.913  27.715  1.00  0.00     0.031 A 
ATOM     33  C   UNL A   1      40.496  26.978  28.579  1.00  0.00     0.074 A 
ATOM     34  C   UNL A   1      42.417  26.079  27.319  1.00  0.00     0.049 A 
ATOM     35  N   UNL A   1      40.921  28.187  28.851  1.00  0.00    -0.248 NA
ATOM     36  C   UNL A   1      39.203  26.655  29.207  1.00  0.00     0.031 C 
ATOM     37  C   UNL A   1      43.190  25.128  26.517  1.00  0.00     0.029 A 
ATOM     38  N   UNL A   1      43.305  27.105  27.543  1.00  0.00    -0.354 N 
ATOM     39  C   UNL A   1      39.916  28.791  29.601  1.00  0.00     0.074 A 
ATOM     40  C   UNL A   1      38.859  27.817  29.748  1.00  0.00     0.031 C 
ATOM     41  C   UNL A   1      44.443  25.575  26.376  1.00  0.00     0.029 A 
ATOM     42  C   UNL A   1      44.535  26.909  26.953  1.00  0.00     0.049 A 
ATOM     43  H   UNL A   1      43.084  27.904  28.075  1.00  0.00     0.167 HD
ATOM     44  C   UNL A   1      39.882  30.039  30.128  1.00  0.00     0.034 A 
ATOM     45  C   UNL A   1      45.603  27.722  26.828  1.00  0.00     0.034 A 
ATOM     46  C   UNL A   1      40.976  30.974  30.059  1.00  0.00     0.049 A 
ATOM     47  C   UNL A   1      45.531  29.108  27.399  1.00  0.00     0.074 A 
ATOM     48  C   UNL A   1      41.045  32.252  30.585  1.00  0.00     0.029 A 
ATOM     49  N   UNL A   1      42.195  30.728  29.448  1.00  0.00    -0.354 N 
ATOM     50  N   UNL A   1      44.570  29.662  28.096  1.00  0.00    -0.248 NA
ATOM     51  C   UNL A   1      46.688  29.984  27.167  1.00  0.00     0.031 C 
ATOM     52  C   UNL A   1      42.296  32.788  30.271  1.00  0.00     0.029 A 
ATOM     53  C   UNL A   1      43.020  31.832  29.579  1.00  0.00     0.049 A 
ATOM     54  H   UNL A   1      42.438  29.891  28.989  1.00  0.00     0.167 HD
ATOM     55  C   UNL A   1      45.010  30.944  28.400  1.00  0.00     0.074 A 
ATOM     56  C   UNL A   1      46.340  31.073  27.839  1.00  0.00     0.031 C 
ATOM     57  C   UNL A   1      44.360  31.933  29.061  1.00  0.00     0.034 A 
BRANCH  44  58
ATOM     58  C   UNL A   1      38.636  30.479  30.859  1.00  0.00     0.023 A 
ATOM     59  C   UNL A   1      38.550  30.339  32.258  1.00  0.00     0.012 A 
ATOM     60  C   UNL A   1      37.592  31.134  30.168  1.00  0.00     0.148 A 
ATOM     61  C   UNL A   1      37.441  30.818  32.955  1.00  0.00     0.002 A 
ATOM     62  C   UNL A   1      36.513  31.653  30.875  1.00  0.00     0.091 A 
ATOM     63  F   UNL A   1      37.681  31.247  28.835  1.00  0.00    -0.205 F 
ATOM     64  C   UNL A   1      36.432  31.487  32.267  1.00  0.00     0.022 A 
BRANCH  62  65
ATOM     65  S   UNL A   1      35.207  32.612  30.096  1.00  0.00     0.127 S 
ATOM     66  O   UNL A   1      34.732  31.684  29.071  1.00  0.00    -0.237 OA
ATOM     67  O   UNL A   1      34.277  32.821  31.207  1.00  0.00    -0.237 OA
ATOM     68  O   UNL A   1      35.840  33.823  29.593  1.00  0.00    -0.744 OA
ENDBRANCH  62  65
ENDBRANCH  44  58
BRANCH  45  69
ATOM     69  C   UNL A   1      46.828  27.235  26.124  1.00  0.00     0.023 A 
ATOM     70  C   UNL A   1      47.004  27.532  24.759  1.00  0.00     0.012 A 
ATOM     71  C   UNL A   1      47.844  26.539  26.810  1.00  0.00     0.148 A 
ATOM     72  C   UNL A   1      48.163  27.137  24.089  1.00  0.00     0.002 A 
ATOM     73  C   UNL A   1      49.027  26.215  26.157  1.00  0.00     0.091 A 
ATOM     74  F   UNL A   1      47.650  26.240  28.102  1.00  0.00    -0.205 F 
ATOM     75  C   UNL A   1      49.182  26.497  24.792  1.00  0.00     0.022 A 
BRANCH  73  76
ATOM     76  S   UNL A   1      50.452  25.545  27.022  1.00  0.00     0.127 S 
ATOM     77  O   UNL A   1      50.750  26.610  27.978  1.00  0.00    -0.237 OA
ATOM     78  O   UNL A   1      49.900  24.324  27.611  1.00  0.00    -0.237 OA
ATOM     79  O   UNL A   1      51.462  25.314  25.999  1.00  0.00    -0.744 OA
ENDBRANCH  73  76
ENDBRANCH  45  69
BRANCH  57  80
ATOM     80  C   UNL A   1      45.076  33.246  29.242  1.00  0.00     0.023 A 
ATOM     81  C   UNL A   1      45.933  33.425  30.346  1.00  0.00     0.012 A 
ATOM     82  C   UNL A   1      44.981  34.259  28.267  1.00  0.00     0.148 A 
ATOM     83  C   UNL A   1      46.666  34.602  30.490  1.00  0.00     0.002 A 
ATOM     84  C   UNL A   1      45.755  35.405  28.389  1.00  0.00     0.091 A 
ATOM     85  F   UNL A   1      44.149  34.073  27.233  1.00  0.00    -0.205 F 
ATOM     86  C   UNL A   1      46.588  35.584  29.506  1.00  0.00     0.022 A 
BRANCH  84  87
ATOM     87  S   UNL A   1      45.806  36.678  27.122  1.00  0.00     0.127 S 
ATOM     88  O   UNL A   1      46.765  37.625  27.689  1.00  0.00    -0.237 OA
ATOM     89  O   UNL A   1      46.297  35.935  25.960  1.00  0.00    -0.237 OA
ATOM     90  O   UNL A   1      44.444  37.175  26.993  1.00  0.00    -0.744 OA
ENDBRANCH  84  87
ENDBRANCH  57  80
ENDBRANCH  31  32
ENDBRANCH  24  26
ENDBRANCH  23  24
ENDBRANCH   1  23
TORSDOF 15
ENDMDL
MODEL 3
REMARK VINA RESULT:     -12.3      5.791     11.634
REMARK SMILES Cc1cc2c(c(C)c1Cl)C=C(C(=O)OCCOC(=O)c1ccc(-c3c4nc(c(-c5cccc(S(=O)(=O)[O-])c5F)c5ccc([nH]5)c(-c5cccc(S(=O)(=O)[O-])c5F)c5nc(c(-c6cccc(S(=O)(=O)[O-])c6F)c6ccc3[nH]6)C=C5)C=C4)cc1)[C@@H](C(F)(F)F)O2
REMARK SMILES IDX 16 1 15 2 14 3 12 4 13 5 11 6 1 7 2 8 3 9 8 10 4 11 6 12
REMARK SMILES IDX 9 13 5 14 88 15 7 16 10 17 83 18 84 19 85 20 86 21 87 22
REMARK SMILES IDX 17 23 18 24 19 25 20 26 21 27 82 28 22 29 81 30 23 31 24 32
REMARK SMILES IDX 25 33 75 34 26 35 80 36 74 37 76 38 27 39 79 40 73 41 72 42
REMARK SMILES IDX 28 44 60 45 40 46 59 47 41 48 44 49 58 50 77 51 42 52 43 53
REMARK SMILES IDX 57 55 78 56 45 57 29 58 30 59 38 60 31 61 33 62 39 63 32 64
REMARK SMILES IDX 34 65 35 66 36 67 37 68 61 69 62 70 70 71 63 72 65 73 71 74
REMARK SMILES IDX 64 75 66 76 67 77 68 78 69 79 46 80 47 81 55 82 48 83 50 84
REMARK SMILES IDX 56 85 49 86 51 87 52 88 53 89 54 90
REMARK H PARENT 76 43 44 54
REMARK Flexibility Score: inf
ROOT
ATOM      1  C   UNL A   1      40.673  19.997  25.906  1.00  0.00     0.275 C 
ENDROOT
BRANCH   1   2
ATOM      2  C   UNL A   1      42.149  20.085  26.292  1.00  0.00     0.275 C 
BRANCH   2   3
ATOM      3  O   UNL A   1      42.669  21.416  26.086  1.00  0.00    -0.459 OA
BRANCH   3   4
ATOM      4  C   UNL A   1      43.932  21.479  25.602  1.00  0.00     0.338 C 
ATOM      5  O   UNL A   1      44.353  20.932  24.595  1.00  0.00    -0.246 OA
BRANCH   4   6
ATOM      6  C   UNL A   1      44.786  22.307  26.474  1.00  0.00     0.087 C 
ATOM      7  C   UNL A   1      47.222  26.604  30.681  1.00  0.00     0.046 C 
ATOM      8  C   UNL A   1      46.475  25.508  29.972  1.00  0.00    -0.028 A 
ATOM      9  C   UNL A   1      46.923  25.080  28.715  1.00  0.00     0.052 A 
ATOM     10  C   UNL A   1      45.338  24.899  30.539  1.00  0.00     0.047 A 
ATOM     11  C   UNL A   1      46.232  24.100  28.006  1.00  0.00     0.128 A 
ATOM     12  C   UNL A   1      44.627  23.899  29.839  1.00  0.00    -0.021 A 
ATOM     13  Cl  UNL A   1      44.824  25.417  32.116  1.00  0.00    -0.084 Cl
ATOM     14  C   UNL A   1      45.081  23.518  28.547  1.00  0.00     0.022 A 
ATOM     15  O   UNL A   1      46.770  23.768  26.793  1.00  0.00    -0.475 OA
ATOM     16  C   UNL A   1      43.402  23.242  30.433  1.00  0.00     0.047 C 
ATOM     17  C   UNL A   1      44.360  22.558  27.718  1.00  0.00     0.027 C 
ATOM     18  C   UNL A   1      45.997  22.950  25.875  1.00  0.00     0.316 C 
BRANCH  18  19
ATOM     19  C   UNL A   1      45.639  23.790  24.639  1.00  0.00     0.430 C 
ATOM     20  F   UNL A   1      46.183  25.031  24.716  1.00  0.00    -0.167 F 
ATOM     21  F   UNL A   1      46.118  23.236  23.499  1.00  0.00    -0.167 F 
ATOM     22  F   UNL A   1      44.304  23.944  24.488  1.00  0.00    -0.167 F 
ENDBRANCH  18  19
ENDBRANCH   4   6
ENDBRANCH   3   4
ENDBRANCH   2   3
ENDBRANCH   1   2
BRANCH   1  23
ATOM     23  O   UNL A   1      39.879  20.813  26.784  1.00  0.00    -0.458 OA
BRANCH  23  24
ATOM     24  C   UNL A   1      39.243  21.846  26.188  1.00  0.00     0.338 C 
ATOM     25  O   UNL A   1      38.448  21.791  25.265  1.00  0.00    -0.246 OA
BRANCH  24  26
ATOM     26  C   UNL A   1      39.560  23.104  26.881  1.00  0.00     0.060 A 
ATOM     27  C   UNL A   1      39.110  24.293  26.325  1.00  0.00     0.016 A 
ATOM     28  C   UNL A   1      40.465  23.128  27.938  1.00  0.00     0.016 A 
ATOM     29  C   UNL A   1      39.698  25.496  26.698  1.00  0.00     0.010 A 
ATOM     30  C   UNL A   1      40.937  24.360  28.414  1.00  0.00     0.010 A 
ATOM     31  C   UNL A   1      40.617  25.561  27.756  1.00  0.00    -0.014 A 
BRANCH  31  32
ATOM     32  C   UNL A   1      41.257  26.864  28.127  1.00  0.00     0.031 A 
ATOM     33  C   UNL A   1      40.491  27.903  28.918  1.00  0.00     0.074 A 
ATOM     34  C   UNL A   1      42.541  27.121  27.789  1.00  0.00     0.049 A 
ATOM     35  N   UNL A   1      40.804  29.150  29.163  1.00  0.00    -0.248 NA
ATOM     36  C   UNL A   1      39.197  27.496  29.493  1.00  0.00     0.031 C 
ATOM     37  C   UNL A   1      43.427  26.209  27.062  1.00  0.00     0.029 A 
ATOM     38  N   UNL A   1      43.331  28.223  28.016  1.00  0.00    -0.354 N 
ATOM     39  C   UNL A   1      39.716  29.696  29.840  1.00  0.00     0.074 A 
ATOM     40  C   UNL A   1      38.734  28.644  29.972  1.00  0.00     0.031 C 
ATOM     41  C   UNL A   1      44.646  26.752  26.965  1.00  0.00     0.029 A 
ATOM     42  C   UNL A   1      44.601  28.108  27.495  1.00  0.00     0.049 A 
ATOM     43  H   UNL A   1      43.020  29.020  28.505  1.00  0.00     0.167 HD
ATOM     44  C   UNL A   1      39.555  30.955  30.316  1.00  0.00     0.034 A 
ATOM     45  C   UNL A   1      45.606  29.001  27.391  1.00  0.00     0.034 A 
ATOM     46  C   UNL A   1      40.573  31.973  30.264  1.00  0.00     0.049 A 
ATOM     47  C   UNL A   1      45.395  30.395  27.904  1.00  0.00     0.074 A 
ATOM     48  C   UNL A   1      40.512  33.270  30.744  1.00  0.00     0.029 A 
ATOM     49  N   UNL A   1      41.838  31.807  29.724  1.00  0.00    -0.354 N 
ATOM     50  N   UNL A   1      44.357  30.892  28.531  1.00  0.00    -0.248 NA
ATOM     51  C   UNL A   1      46.488  31.354  27.694  1.00  0.00     0.031 C 
ATOM     52  C   UNL A   1      41.731  33.895  30.471  1.00  0.00     0.029 A 
ATOM     53  C   UNL A   1      42.564  32.978  29.852  1.00  0.00     0.049 A 
ATOM     54  H   UNL A   1      42.170  30.977  29.309  1.00  0.00     0.167 HD
ATOM     55  C   UNL A   1      44.677  32.216  28.806  1.00  0.00     0.074 A 
ATOM     56  C   UNL A   1      46.019  32.434  28.306  1.00  0.00     0.031 C 
ATOM     57  C   UNL A   1      43.917  33.171  29.396  1.00  0.00     0.034 A 
BRANCH  44  58
ATOM     58  C   UNL A   1      38.241  31.316  30.967  1.00  0.00     0.023 A 
ATOM     59  C   UNL A   1      38.070  31.145  32.355  1.00  0.00     0.012 A 
ATOM     60  C   UNL A   1      37.213  31.929  30.217  1.00  0.00     0.148 A 
ATOM     61  C   UNL A   1      36.893  31.554  32.983  1.00  0.00     0.002 A 
ATOM     62  C   UNL A   1      36.064  32.379  30.858  1.00  0.00     0.091 A 
ATOM     63  F   UNL A   1      37.385  32.072  28.895  1.00  0.00    -0.205 F 
ATOM     64  C   UNL A   1      35.899  32.183  32.239  1.00  0.00     0.022 A 
BRANCH  62  65
ATOM     65  S   UNL A   1      34.764  33.284  30.008  1.00  0.00     0.127 S 
ATOM     66  O   UNL A   1      34.174  32.238  29.173  1.00  0.00    -0.237 OA
ATOM     67  O   UNL A   1      33.920  33.725  31.120  1.00  0.00    -0.237 OA
ATOM     68  O   UNL A   1      35.428  34.358  29.281  1.00  0.00    -0.744 OA
ENDBRANCH  62  65
ENDBRANCH  44  58
BRANCH  45  69
ATOM     69  C   UNL A   1      46.901  28.592  26.766  1.00  0.00     0.023 A 
ATOM     70  C   UNL A   1      48.000  28.287  27.591  1.00  0.00     0.012 A 
ATOM     71  C   UNL A   1      47.030  28.441  25.371  1.00  0.00     0.148 A 
ATOM     72  C   UNL A   1      49.205  27.849  27.038  1.00  0.00     0.002 A 
ATOM     73  C   UNL A   1      48.206  27.934  24.832  1.00  0.00     0.091 A 
ATOM     74  F   UNL A   1      45.983  28.762  24.597  1.00  0.00    -0.205 F 
ATOM     75  C   UNL A   1      49.301  27.655  25.662  1.00  0.00     0.022 A 
BRANCH  73  76
ATOM     76  S   UNL A   1      48.359  27.494  23.097  1.00  0.00     0.127 S 
ATOM     77  O   UNL A   1      47.228  28.207  22.506  1.00  0.00    -0.237 OA
ATOM     78  O   UNL A   1      49.675  28.041  22.762  1.00  0.00    -0.237 OA
ATOM     79  O   UNL A   1      48.284  26.041  23.050  1.00  0.00    -0.744 OA
ENDBRANCH  73  76
ENDBRANCH  45  69
BRANCH  57  80
ATOM     80  C   UNL A   1      44.515  34.543  29.562  1.00  0.00     0.023 A 
ATOM     81  C   UNL A   1      45.213  34.861  30.744  1.00  0.00     0.012 A 
ATOM     82  C   UNL A   1      44.475  35.478  28.508  1.00  0.00     0.148 A 
ATOM     83  C   UNL A   1      45.842  36.097  30.884  1.00  0.00     0.002 A 
ATOM     84  C   UNL A   1      45.150  36.685  28.634  1.00  0.00     0.091 A 
ATOM     85  F   UNL A   1      43.793  35.160  27.399  1.00  0.00    -0.205 F 
ATOM     86  C   UNL A   1      45.823  37.001  29.826  1.00  0.00     0.022 A 
BRANCH  84  87
ATOM     87  S   UNL A   1      45.273  37.869  27.289  1.00  0.00     0.127 S 
ATOM     88  O   UNL A   1      46.082  37.133  26.318  1.00  0.00    -0.237 OA
ATOM     89  O   UNL A   1      43.872  38.047  26.906  1.00  0.00    -0.237 OA
ATOM     90  O   UNL A   1      45.905  39.055  27.851  1.00  0.00    -0.744 OA
ENDBRANCH  84  87
ENDBRANCH  57  80
ENDBRANCH  31  32
ENDBRANCH  24  26
ENDBRANCH  23  24
ENDBRANCH   1  23
TORSDOF 15
ENDMDL
