MODEL 1
REMARK VINA RESULT:      -9.6      0.000      0.000
REMARK SMILES [NH3+][C@H](Cc1cc(Br)c(O)c(Br)c1)C(=O)OCCOC(=O)c1ccc(-c2c3nc(c(-c4cccc(S(=O)(=O)[O-])c4F)c4ccc([nH]4)c(-c4cccc(S(=O)(=O)[O-])c4F)c4nc(c(-c5cccc(S(=O)(=O)[O-])c5F)c5ccc2[nH]5)C=C4)C=C3)cc1
REMARK SMILES IDX 16 1 15 2 13 3 14 4 2 5 1 6 3 10 4 11 5 12 12 13 6 14 10 15
REMARK SMILES IDX 7 16 8 17 11 18 9 19 17 21 18 22 19 23 20 24 21 25 22 26
REMARK SMILES IDX 83 27 23 28 82 29 24 30 25 31 26 32 76 33 27 34 81 35 75 36
REMARK SMILES IDX 77 37 28 38 80 39 74 40 73 41 29 43 61 44 41 45 60 46 42 47
REMARK SMILES IDX 45 48 59 49 78 50 43 51 44 52 58 54 79 55 46 56 30 57 31 58
REMARK SMILES IDX 39 59 32 60 34 61 40 62 33 63 35 64 36 65 37 66 38 67 62 68
REMARK SMILES IDX 63 69 71 70 64 71 66 72 72 73 65 74 67 75 68 76 69 77 70 78
REMARK SMILES IDX 47 79 48 80 56 81 49 82 51 83 57 84 50 85 52 86 53 87 54 88
REMARK SMILES IDX 55 89
REMARK H PARENT 1 7 1 8 1 9 9 20 77 42 45 53
REMARK Flexibility Score: inf
ROOT
ATOM      1  C   UNL A   1      41.906  19.281  26.333  1.00  0.00     0.274 C 
ENDROOT
BRANCH   1   2
ATOM      2  O   UNL A   1      42.666  19.878  25.264  1.00  0.00    -0.458 OA
BRANCH   2   3
ATOM      3  C   UNL A   1      43.920  19.385  25.075  1.00  0.00     0.365 C 
ATOM      4  O   UNL A   1      44.204  18.196  25.185  1.00  0.00    -0.245 OA
BRANCH   3   5
ATOM      5  C   UNL A   1      44.949  20.467  24.663  1.00  0.00     0.296 C 
BRANCH   5   6
ATOM      6  N   UNL A   1      46.200  20.255  25.432  1.00  0.00    -0.346 N 
ATOM      7  H   UNL A   1      46.848  21.020  25.244  1.00  0.00     0.345 HD
ATOM      8  H   UNL A   1      46.627  19.371  25.151  1.00  0.00     0.345 HD
ATOM      9  H   UNL A   1      45.987  20.227  26.429  1.00  0.00     0.345 HD
ENDBRANCH   5   6
BRANCH   5  10
ATOM     10  C   UNL A   1      44.410  21.920  24.580  1.00  0.00     0.113 C 
BRANCH  10  11
ATOM     11  C   UNL A   1      44.917  22.819  25.683  1.00  0.00    -0.039 A 
ATOM     12  C   UNL A   1      46.050  23.621  25.492  1.00  0.00     0.023 A 
ATOM     13  C   UNL A   1      44.321  22.751  26.950  1.00  0.00     0.023 A 
ATOM     14  C   UNL A   1      46.601  24.310  26.571  1.00  0.00     0.061 A 
ATOM     15  C   UNL A   1      44.882  23.435  28.029  1.00  0.00     0.061 A 
ATOM     16  Br  UNL A   1      48.160  25.353  26.289  1.00  0.00    -0.047 Br
ATOM     17  C   UNL A   1      46.031  24.206  27.845  1.00  0.00     0.143 A 
ATOM     18  Br  UNL A   1      44.075  23.234  29.732  1.00  0.00    -0.047 Br
BRANCH  17  19
ATOM     19  O   UNL A   1      46.601  24.835  28.921  1.00  0.00    -0.506 OA
ATOM     20  H   UNL A   1      46.240  24.717  29.779  1.00  0.00     0.293 HD
ENDBRANCH  17  19
ENDBRANCH  10  11
ENDBRANCH   5  10
ENDBRANCH   3   5
ENDBRANCH   2   3
ENDBRANCH   1   2
BRANCH   1  21
ATOM     21  C   UNL A   1      40.804  20.228  26.821  1.00  0.00     0.275 C 
BRANCH  21  22
ATOM     22  O   UNL A   1      40.829  21.497  26.141  1.00  0.00    -0.458 OA
BRANCH  22  23
ATOM     23  C   UNL A   1      39.708  22.245  26.271  1.00  0.00     0.338 C 
ATOM     24  O   UNL A   1      38.554  21.875  26.125  1.00  0.00    -0.246 OA
BRANCH  23  25
ATOM     25  C   UNL A   1      40.051  23.584  26.770  1.00  0.00     0.060 A 
ATOM     26  C   UNL A   1      39.914  24.659  25.893  1.00  0.00     0.016 A 
ATOM     27  C   UNL A   1      40.589  23.775  28.041  1.00  0.00     0.016 A 
ATOM     28  C   UNL A   1      40.358  25.923  26.249  1.00  0.00     0.010 A 
ATOM     29  C   UNL A   1      40.987  25.062  28.424  1.00  0.00     0.010 A 
ATOM     30  C   UNL A   1      40.883  26.140  27.526  1.00  0.00    -0.014 A 
BRANCH  30  31
ATOM     31  C   UNL A   1      41.284  27.510  27.921  1.00  0.00     0.031 A 
ATOM     32  C   UNL A   1      42.725  27.922  27.868  1.00  0.00     0.074 A 
ATOM     33  C   UNL A   1      40.339  28.371  28.347  1.00  0.00     0.049 A 
ATOM     34  N   UNL A   1      43.279  29.027  28.292  1.00  0.00    -0.248 NA
ATOM     35  C   UNL A   1      43.671  26.968  27.266  1.00  0.00     0.031 C 
ATOM     36  C   UNL A   1      38.906  28.078  28.425  1.00  0.00     0.029 A 
ATOM     37  N   UNL A   1      40.442  29.654  28.820  1.00  0.00    -0.354 N 
ATOM     38  C   UNL A   1      44.640  28.878  28.069  1.00  0.00     0.074 A 
ATOM     39  C   UNL A   1      44.832  27.583  27.451  1.00  0.00     0.031 C 
ATOM     40  C   UNL A   1      38.267  29.141  28.936  1.00  0.00     0.029 A 
ATOM     41  C   UNL A   1      39.249  30.163  29.277  1.00  0.00     0.049 A 
ATOM     42  H   UNL A   1      41.287  30.160  28.833  1.00  0.00     0.167 HD
ATOM     43  C   UNL A   1      45.637  29.747  28.354  1.00  0.00     0.034 A 
ATOM     44  C   UNL A   1      38.981  31.303  29.942  1.00  0.00     0.034 A 
ATOM     45  C   UNL A   1      45.428  31.057  28.909  1.00  0.00     0.049 A 
ATOM     46  C   UNL A   1      40.111  32.243  30.250  1.00  0.00     0.074 A 
ATOM     47  C   UNL A   1      46.363  32.048  29.149  1.00  0.00     0.029 A 
ATOM     48  N   UNL A   1      44.202  31.555  29.320  1.00  0.00    -0.354 N 
ATOM     49  N   UNL A   1      41.378  32.139  29.930  1.00  0.00    -0.248 NA
ATOM     50  C   UNL A   1      39.778  33.462  31.000  1.00  0.00     0.031 C 
ATOM     51  C   UNL A   1      45.704  33.139  29.724  1.00  0.00     0.029 A 
ATOM     52  C   UNL A   1      44.358  32.830  29.834  1.00  0.00     0.049 A 
ATOM     53  H   UNL A   1      43.346  31.072  29.255  1.00  0.00     0.167 HD
ATOM     54  C   UNL A   1      41.991  33.282  30.427  1.00  0.00     0.074 A 
ATOM     55  C   UNL A   1      40.950  34.080  31.043  1.00  0.00     0.031 C 
ATOM     56  C   UNL A   1      43.301  33.627  30.401  1.00  0.00     0.034 A 
BRANCH  43  57
ATOM     57  C   UNL A   1      47.049  29.327  28.053  1.00  0.00     0.023 A 
ATOM     58  C   UNL A   1      47.709  29.852  26.925  1.00  0.00     0.012 A 
ATOM     59  C   UNL A   1      47.746  28.479  28.934  1.00  0.00     0.148 A 
ATOM     60  C   UNL A   1      49.040  29.526  26.670  1.00  0.00     0.002 A 
ATOM     61  C   UNL A   1      49.083  28.184  28.691  1.00  0.00     0.091 A 
ATOM     62  F   UNL A   1      47.089  27.972  29.987  1.00  0.00    -0.205 F 
ATOM     63  C   UNL A   1      49.730  28.703  27.557  1.00  0.00     0.022 A 
BRANCH  61  64
ATOM     64  S   UNL A   1      50.071  27.183  29.809  1.00  0.00     0.127 S 
ATOM     65  O   UNL A   1      51.359  27.153  29.115  1.00  0.00    -0.237 OA
ATOM     66  O   UNL A   1      50.058  27.982  31.034  1.00  0.00    -0.237 OA
ATOM     67  O   UNL A   1      49.387  25.902  29.912  1.00  0.00    -0.744 OA
ENDBRANCH  61  64
ENDBRANCH  43  57
BRANCH  44  68
ATOM     68  C   UNL A   1      37.585  31.603  30.364  1.00  0.00     0.023 A 
ATOM     69  C   UNL A   1      37.148  31.218  31.645  1.00  0.00     0.012 A 
ATOM     70  C   UNL A   1      36.703  32.308  29.521  1.00  0.00     0.148 A 
ATOM     71  C   UNL A   1      35.852  31.515  32.071  1.00  0.00     0.002 A 
ATOM     72  C   UNL A   1      35.433  32.649  29.973  1.00  0.00     0.091 A 
ATOM     73  F   UNL A   1      37.123  32.642  28.292  1.00  0.00    -0.205 F 
ATOM     74  C   UNL A   1      35.000  32.242  31.242  1.00  0.00     0.022 A 
BRANCH  72  75
ATOM     75  S   UNL A   1      34.346  33.707  29.008  1.00  0.00     0.127 S 
ATOM     76  O   UNL A   1      33.433  34.212  30.029  1.00  0.00    -0.237 OA
ATOM     77  O   UNL A   1      35.275  34.702  28.468  1.00  0.00    -0.237 OA
ATOM     78  O   UNL A   1      33.765  32.832  27.998  1.00  0.00    -0.744 OA
ENDBRANCH  72  75
ENDBRANCH  44  68
BRANCH  56  79
ATOM     79  C   UNL A   1      43.688  34.925  31.054  1.00  0.00     0.023 A 
ATOM     80  C   UNL A   1      44.089  34.922  32.405  1.00  0.00     0.012 A 
ATOM     81  C   UNL A   1      43.739  36.123  30.316  1.00  0.00     0.148 A 
ATOM     82  C   UNL A   1      44.517  36.098  33.018  1.00  0.00     0.002 A 
ATOM     83  C   UNL A   1      44.208  37.282  30.922  1.00  0.00     0.091 A 
ATOM     84  F   UNL A   1      43.335  36.105  29.038  1.00  0.00    -0.205 F 
ATOM     85  C   UNL A   1      44.589  37.273  32.274  1.00  0.00     0.022 A 
BRANCH  83  86
ATOM     86  S   UNL A   1      44.418  38.821  30.019  1.00  0.00     0.127 S 
ATOM     87  O   UNL A   1      43.043  39.129  29.632  1.00  0.00    -0.237 OA
ATOM     88  O   UNL A   1      44.979  39.707  31.039  1.00  0.00    -0.237 OA
ATOM     89  O   UNL A   1      45.325  38.518  28.920  1.00  0.00    -0.744 OA
ENDBRANCH  83  86
ENDBRANCH  56  79
ENDBRANCH  30  31
ENDBRANCH  23  25
ENDBRANCH  22  23
ENDBRANCH  21  22
ENDBRANCH   1  21
TORSDOF 18
ENDMDL
MODEL 2
REMARK VINA RESULT:      -9.6      4.625     11.711
REMARK SMILES [NH3+][C@H](Cc1cc(Br)c(O)c(Br)c1)C(=O)OCCOC(=O)c1ccc(-c2c3nc(c(-c4cccc(S(=O)(=O)[O-])c4F)c4ccc([nH]4)c(-c4cccc(S(=O)(=O)[O-])c4F)c4nc(c(-c5cccc(S(=O)(=O)[O-])c5F)c5ccc2[nH]5)C=C4)C=C3)cc1
REMARK SMILES IDX 16 1 15 2 13 3 14 4 2 5 1 6 3 10 4 11 5 12 12 13 6 14 10 15
REMARK SMILES IDX 7 16 8 17 11 18 9 19 17 21 18 22 19 23 20 24 21 25 22 26
REMARK SMILES IDX 83 27 23 28 82 29 24 30 25 31 26 32 76 33 27 34 81 35 75 36
REMARK SMILES IDX 77 37 28 38 80 39 74 40 73 41 29 43 61 44 41 45 60 46 42 47
REMARK SMILES IDX 45 48 59 49 78 50 43 51 44 52 58 54 79 55 46 56 30 57 31 58
REMARK SMILES IDX 39 59 32 60 34 61 40 62 33 63 35 64 36 65 37 66 38 67 62 68
REMARK SMILES IDX 63 69 71 70 64 71 66 72 72 73 65 74 67 75 68 76 69 77 70 78
REMARK SMILES IDX 47 79 48 80 56 81 49 82 51 83 57 84 50 85 52 86 53 87 54 88
REMARK SMILES IDX 55 89
REMARK H PARENT 1 7 1 8 1 9 9 20 77 42 45 53
REMARK Flexibility Score: inf
ROOT
ATOM      1  C   UNL A   1      34.468  34.633  29.291  1.00  0.00     0.274 C 
ENDROOT
BRANCH   1   2
ATOM      2  O   UNL A   1      33.519  34.527  30.370  1.00  0.00    -0.458 OA
BRANCH   2   3
ATOM      3  C   UNL A   1      34.027  34.649  31.627  1.00  0.00     0.365 C 
ATOM      4  O   UNL A   1      34.294  35.727  32.147  1.00  0.00    -0.245 OA
BRANCH   3   5
ATOM      5  C   UNL A   1      34.195  33.293  32.354  1.00  0.00     0.296 C 
BRANCH   5   6
ATOM      6  N   UNL A   1      33.895  33.482  33.796  1.00  0.00    -0.346 N 
ATOM      7  H   UNL A   1      33.160  34.181  33.901  1.00  0.00     0.345 HD
ATOM      8  H   UNL A   1      34.737  33.798  34.279  1.00  0.00     0.345 HD
ATOM      9  H   UNL A   1      33.584  32.597  34.198  1.00  0.00     0.345 HD
ENDBRANCH   5   6
BRANCH   5  10
ATOM     10  C   UNL A   1      35.472  32.486  32.001  1.00  0.00     0.113 C 
BRANCH  10  11
ATOM     11  C   UNL A   1      36.751  33.275  32.156  1.00  0.00    -0.039 A 
ATOM     12  C   UNL A   1      37.518  33.626  31.037  1.00  0.00     0.023 A 
ATOM     13  C   UNL A   1      37.237  33.546  33.443  1.00  0.00     0.023 A 
ATOM     14  C   UNL A   1      38.776  34.201  31.212  1.00  0.00     0.061 A 
ATOM     15  C   UNL A   1      38.501  34.112  33.612  1.00  0.00     0.061 A 
ATOM     16  Br  UNL A   1      39.808  34.625  29.678  1.00  0.00    -0.047 Br
ATOM     17  C   UNL A   1      39.279  34.429  32.498  1.00  0.00     0.143 A 
ATOM     18  Br  UNL A   1      39.132  34.374  35.380  1.00  0.00    -0.047 Br
BRANCH  17  19
ATOM     19  O   UNL A   1      40.538  34.941  32.677  1.00  0.00    -0.506 OA
ATOM     20  H   UNL A   1      40.683  35.618  33.310  1.00  0.00     0.293 HD
ENDBRANCH  17  19
ENDBRANCH  10  11
ENDBRANCH   5  10
ENDBRANCH   3   5
ENDBRANCH   2   3
ENDBRANCH   1   2
BRANCH   1  21
ATOM     21  C   UNL A   1      33.998  33.841  28.066  1.00  0.00     0.275 C 
BRANCH  21  22
ATOM     22  O   UNL A   1      34.973  32.878  27.626  1.00  0.00    -0.458 OA
BRANCH  22  23
ATOM     23  C   UNL A   1      34.732  31.600  28.000  1.00  0.00     0.338 C 
ATOM     24  O   UNL A   1      33.684  30.983  27.890  1.00  0.00    -0.246 OA
BRANCH  23  25
ATOM     25  C   UNL A   1      35.978  30.963  28.447  1.00  0.00     0.060 A 
ATOM     26  C   UNL A   1      35.877  29.811  29.226  1.00  0.00     0.016 A 
ATOM     27  C   UNL A   1      37.224  31.535  28.193  1.00  0.00     0.016 A 
ATOM     28  C   UNL A   1      37.005  29.246  29.803  1.00  0.00     0.010 A 
ATOM     29  C   UNL A   1      38.369  30.933  28.728  1.00  0.00     0.010 A 
ATOM     30  C   UNL A   1      38.264  29.792  29.544  1.00  0.00    -0.014 A 
BRANCH  30  31
ATOM     31  C   UNL A   1      39.467  29.135  30.104  1.00  0.00     0.031 A 
ATOM     32  C   UNL A   1      40.094  29.651  31.365  1.00  0.00     0.074 A 
ATOM     33  C   UNL A   1      40.001  28.083  29.453  1.00  0.00     0.049 A 
ATOM     34  N   UNL A   1      41.214  29.290  31.932  1.00  0.00    -0.248 NA
ATOM     35  C   UNL A   1      39.373  30.716  32.082  1.00  0.00     0.031 C 
ATOM     36  C   UNL A   1      39.464  27.491  28.226  1.00  0.00     0.029 A 
ATOM     37  N   UNL A   1      41.125  27.342  29.715  1.00  0.00    -0.354 N 
ATOM     38  C   UNL A   1      41.367  30.122  33.033  1.00  0.00     0.074 A 
ATOM     39  C   UNL A   1      40.213  30.995  33.070  1.00  0.00     0.031 C 
ATOM     40  C   UNL A   1      40.269  26.494  27.829  1.00  0.00     0.029 A 
ATOM     41  C   UNL A   1      41.406  26.417  28.738  1.00  0.00     0.049 A 
ATOM     42  H   UNL A   1      41.676  27.462  30.522  1.00  0.00     0.167 HD
ATOM     43  C   UNL A   1      42.380  30.149  33.930  1.00  0.00     0.034 A 
ATOM     44  C   UNL A   1      42.484  25.629  28.563  1.00  0.00     0.034 A 
ATOM     45  C   UNL A   1      43.488  29.233  33.920  1.00  0.00     0.049 A 
ATOM     46  C   UNL A   1      43.595  25.688  29.572  1.00  0.00     0.074 A 
ATOM     47  C   UNL A   1      44.517  29.118  34.838  1.00  0.00     0.029 A 
ATOM     48  N   UNL A   1      43.718  28.281  32.939  1.00  0.00    -0.354 N 
ATOM     49  N   UNL A   1      43.671  26.400  30.670  1.00  0.00    -0.248 NA
ATOM     50  C   UNL A   1      44.763  24.831  29.328  1.00  0.00     0.031 C 
ATOM     51  C   UNL A   1      45.381  28.110  34.401  1.00  0.00     0.029 A 
ATOM     52  C   UNL A   1      44.885  27.591  33.215  1.00  0.00     0.049 A 
ATOM     53  H   UNL A   1      43.137  28.121  32.160  1.00  0.00     0.167 HD
ATOM     54  C   UNL A   1      44.886  26.069  31.255  1.00  0.00     0.074 A 
ATOM     55  C   UNL A   1      45.500  25.069  30.405  1.00  0.00     0.031 C 
ATOM     56  C   UNL A   1      45.456  26.566  32.379  1.00  0.00     0.034 A 
BRANCH  43  57
ATOM     57  C   UNL A   1      42.334  31.186  35.017  1.00  0.00     0.023 A 
ATOM     58  C   UNL A   1      41.872  30.834  36.300  1.00  0.00     0.012 A 
ATOM     59  C   UNL A   1      42.825  32.485  34.787  1.00  0.00     0.148 A 
ATOM     60  C   UNL A   1      41.887  31.766  37.337  1.00  0.00     0.002 A 
ATOM     61  C   UNL A   1      42.868  33.399  35.834  1.00  0.00     0.091 A 
ATOM     62  F   UNL A   1      43.236  32.804  33.552  1.00  0.00    -0.205 F 
ATOM     63  C   UNL A   1      42.395  33.043  37.108  1.00  0.00     0.022 A 
BRANCH  61  64
ATOM     64  S   UNL A   1      43.559  35.047  35.652  1.00  0.00     0.127 S 
ATOM     65  O   UNL A   1      44.929  34.746  35.238  1.00  0.00    -0.237 OA
ATOM     66  O   UNL A   1      42.718  35.622  34.602  1.00  0.00    -0.237 OA
ATOM     67  O   UNL A   1      43.425  35.684  36.955  1.00  0.00    -0.744 OA
ENDBRANCH  61  64
ENDBRANCH  43  57
BRANCH  44  68
ATOM     68  C   UNL A   1      42.559  24.729  27.379  1.00  0.00     0.023 A 
ATOM     69  C   UNL A   1      43.205  25.172  26.209  1.00  0.00     0.012 A 
ATOM     70  C   UNL A   1      42.036  23.421  27.421  1.00  0.00     0.148 A 
ATOM     71  C   UNL A   1      43.312  24.334  25.098  1.00  0.00     0.002 A 
ATOM     72  C   UNL A   1      42.196  22.574  26.331  1.00  0.00     0.091 A 
ATOM     73  F   UNL A   1      41.398  23.023  28.531  1.00  0.00    -0.205 F 
ATOM     74  C   UNL A   1      42.820  23.032  25.162  1.00  0.00     0.022 A 
BRANCH  72  75
ATOM     75  S   UNL A   1      41.714  20.844  26.409  1.00  0.00     0.127 S 
ATOM     76  O   UNL A   1      40.288  20.915  26.105  1.00  0.00    -0.237 OA
ATOM     77  O   UNL A   1      42.536  20.241  25.357  1.00  0.00    -0.237 OA
ATOM     78  O   UNL A   1      42.067  20.413  27.755  1.00  0.00    -0.744 OA
ENDBRANCH  72  75
ENDBRANCH  44  68
BRANCH  56  79
ATOM     79  C   UNL A   1      46.812  26.039  32.760  1.00  0.00     0.023 A 
ATOM     80  C   UNL A   1      47.963  26.732  32.336  1.00  0.00     0.012 A 
ATOM     81  C   UNL A   1      46.945  24.919  33.603  1.00  0.00     0.148 A 
ATOM     82  C   UNL A   1      49.230  26.305  32.730  1.00  0.00     0.002 A 
ATOM     83  C   UNL A   1      48.209  24.525  34.026  1.00  0.00     0.091 A 
ATOM     84  F   UNL A   1      45.836  24.265  33.978  1.00  0.00    -0.205 F 
ATOM     85  C   UNL A   1      49.351  25.212  33.584  1.00  0.00     0.022 A 
BRANCH  83  86
ATOM     86  S   UNL A   1      48.456  23.184  35.195  1.00  0.00     0.127 S 
ATOM     87  O   UNL A   1      49.914  23.109  35.259  1.00  0.00    -0.237 OA
ATOM     88  O   UNL A   1      47.817  23.703  36.405  1.00  0.00    -0.237 OA
ATOM     89  O   UNL A   1      47.794  22.022  34.617  1.00  0.00    -0.744 OA
ENDBRANCH  83  86
ENDBRANCH  56  79
ENDBRANCH  30  31
ENDBRANCH  23  25
ENDBRANCH  22  23
ENDBRANCH  21  22
ENDBRANCH   1  21
TORSDOF 18
ENDMDL
MODEL 3
REMARK VINA RESULT:      -9.3      4.221      9.790
REMARK SMILES [NH3+][C@H](Cc1cc(Br)c(O)c(Br)c1)C(=O)OCCOC(=O)c1ccc(-c2c3nc(c(-c4cccc(S(=O)(=O)[O-])c4F)c4ccc([nH]4)c(-c4cccc(S(=O)(=O)[O-])c4F)c4nc(c(-c5cccc(S(=O)(=O)[O-])c5F)c5ccc2[nH]5)C=C4)C=C3)cc1
REMARK SMILES IDX 16 1 15 2 13 3 14 4 2 5 1 6 3 10 4 11 5 12 12 13 6 14 10 15
REMARK SMILES IDX 7 16 8 17 11 18 9 19 17 21 18 22 19 23 20 24 21 25 22 26
REMARK SMILES IDX 83 27 23 28 82 29 24 30 25 31 26 32 76 33 27 34 81 35 75 36
REMARK SMILES IDX 77 37 28 38 80 39 74 40 73 41 29 43 61 44 41 45 60 46 42 47
REMARK SMILES IDX 45 48 59 49 78 50 43 51 44 52 58 54 79 55 46 56 30 57 31 58
REMARK SMILES IDX 39 59 32 60 34 61 40 62 33 63 35 64 36 65 37 66 38 67 62 68
REMARK SMILES IDX 63 69 71 70 64 71 66 72 72 73 65 74 67 75 68 76 69 77 70 78
REMARK SMILES IDX 47 79 48 80 56 81 49 82 51 83 57 84 50 85 52 86 53 87 54 88
REMARK SMILES IDX 55 89
REMARK H PARENT 1 7 1 8 1 9 9 20 77 42 45 53
REMARK Flexibility Score: inf
ROOT
ATOM      1  C   UNL A   1      35.371  21.078  24.905  1.00  0.00     0.274 C 
ENDROOT
BRANCH   1   2
ATOM      2  O   UNL A   1      35.080  22.126  23.959  1.00  0.00    -0.458 OA
BRANCH   2   3
ATOM      3  C   UNL A   1      34.554  23.269  24.477  1.00  0.00     0.365 C 
ATOM      4  O   UNL A   1      34.972  23.805  25.498  1.00  0.00    -0.245 OA
BRANCH   3   5
ATOM      5  C   UNL A   1      33.400  23.853  23.625  1.00  0.00     0.296 C 
BRANCH   5   6
ATOM      6  N   UNL A   1      32.774  22.753  22.849  1.00  0.00    -0.346 N 
ATOM      7  H   UNL A   1      32.323  22.100  23.488  1.00  0.00     0.345 HD
ATOM      8  H   UNL A   1      33.493  22.264  22.313  1.00  0.00     0.345 HD
ATOM      9  H   UNL A   1      32.079  23.140  22.210  1.00  0.00     0.345 HD
ENDBRANCH   5   6
BRANCH   5  10
ATOM     10  C   UNL A   1      33.717  25.164  22.858  1.00  0.00     0.113 C 
BRANCH  10  11
ATOM     11  C   UNL A   1      33.095  26.394  23.476  1.00  0.00    -0.039 A 
ATOM     12  C   UNL A   1      32.089  27.103  22.807  1.00  0.00     0.023 A 
ATOM     13  C   UNL A   1      33.623  26.901  24.673  1.00  0.00     0.023 A 
ATOM     14  C   UNL A   1      31.651  28.327  23.312  1.00  0.00     0.061 A 
ATOM     15  C   UNL A   1      33.188  28.130  25.168  1.00  0.00     0.061 A 
ATOM     16  Br  UNL A   1      30.318  29.284  22.360  1.00  0.00    -0.047 Br
ATOM     17  C   UNL A   1      32.210  28.853  24.482  1.00  0.00     0.143 A 
ATOM     18  Br  UNL A   1      34.002  28.796  26.745  1.00  0.00    -0.047 Br
BRANCH  17  19
ATOM     19  O   UNL A   1      31.825  30.081  24.952  1.00  0.00    -0.506 OA
ATOM     20  H   UNL A   1      31.172  30.143  25.622  1.00  0.00     0.293 HD
ENDBRANCH  17  19
ENDBRANCH  10  11
ENDBRANCH   5  10
ENDBRANCH   3   5
ENDBRANCH   2   3
ENDBRANCH   1   2
BRANCH   1  21
ATOM     21  C   UNL A   1      36.881  20.840  25.015  1.00  0.00     0.275 C 
BRANCH  21  22
ATOM     22  O   UNL A   1      37.551  21.888  25.740  1.00  0.00    -0.458 OA
BRANCH  22  23
ATOM     23  C   UNL A   1      38.827  21.615  26.102  1.00  0.00     0.338 C 
ATOM     24  O   UNL A   1      39.450  20.586  25.893  1.00  0.00    -0.246 OA
BRANCH  23  25
ATOM     25  C   UNL A   1      39.453  22.813  26.679  1.00  0.00     0.060 A 
ATOM     26  C   UNL A   1      39.065  24.055  26.179  1.00  0.00     0.016 A 
ATOM     27  C   UNL A   1      40.472  22.721  27.626  1.00  0.00     0.016 A 
ATOM     28  C   UNL A   1      39.720  25.212  26.574  1.00  0.00     0.010 A 
ATOM     29  C   UNL A   1      41.096  23.893  28.067  1.00  0.00     0.010 A 
ATOM     30  C   UNL A   1      40.731  25.144  27.536  1.00  0.00    -0.014 A 
BRANCH  30  31
ATOM     31  C   UNL A   1      41.370  26.394  28.004  1.00  0.00     0.031 A 
ATOM     32  C   UNL A   1      40.567  27.428  28.736  1.00  0.00     0.074 A 
ATOM     33  C   UNL A   1      42.677  26.597  27.745  1.00  0.00     0.049 A 
ATOM     34  N   UNL A   1      40.919  28.630  29.107  1.00  0.00    -0.248 NA
ATOM     35  C   UNL A   1      39.184  27.069  29.093  1.00  0.00     0.031 C 
ATOM     36  C   UNL A   1      43.556  25.652  27.053  1.00  0.00     0.029 A 
ATOM     37  N   UNL A   1      43.487  27.672  28.008  1.00  0.00    -0.354 N 
ATOM     38  C   UNL A   1      39.790  29.195  29.683  1.00  0.00     0.074 A 
ATOM     39  C   UNL A   1      38.742  28.197  29.633  1.00  0.00     0.031 C 
ATOM     40  C   UNL A   1      44.775  26.196  26.925  1.00  0.00     0.029 A 
ATOM     41  C   UNL A   1      44.747  27.547  27.472  1.00  0.00     0.049 A 
ATOM     42  H   UNL A   1      43.195  28.456  28.527  1.00  0.00     0.167 HD
ATOM     43  C   UNL A   1      39.646  30.434  30.206  1.00  0.00     0.034 A 
ATOM     44  C   UNL A   1      45.753  28.439  27.383  1.00  0.00     0.034 A 
ATOM     45  C   UNL A   1      40.713  31.393  30.308  1.00  0.00     0.049 A 
ATOM     46  C   UNL A   1      45.558  29.809  27.967  1.00  0.00     0.074 A 
ATOM     47  C   UNL A   1      40.692  32.641  30.905  1.00  0.00     0.029 A 
ATOM     48  N   UNL A   1      41.987  31.216  29.793  1.00  0.00    -0.354 N 
ATOM     49  N   UNL A   1      44.522  30.289  28.610  1.00  0.00    -0.248 NA
ATOM     50  C   UNL A   1      46.672  30.757  27.826  1.00  0.00     0.031 C 
ATOM     51  C   UNL A   1      41.949  33.228  30.733  1.00  0.00     0.029 A 
ATOM     52  C   UNL A   1      42.755  32.341  30.036  1.00  0.00     0.049 A 
ATOM     53  H   UNL A   1      42.299  30.409  29.323  1.00  0.00     0.167 HD
ATOM     54  C   UNL A   1      44.861  31.589  28.961  1.00  0.00     0.074 A 
ATOM     55  C   UNL A   1      46.212  31.811  28.485  1.00  0.00     0.031 C 
ATOM     56  C   UNL A   1      44.113  32.525  29.595  1.00  0.00     0.034 A 
BRANCH  43  57
ATOM     57  C   UNL A   1      38.294  30.827  30.733  1.00  0.00     0.023 A 
ATOM     58  C   UNL A   1      37.969  30.574  32.081  1.00  0.00     0.012 A 
ATOM     59  C   UNL A   1      37.380  31.518  29.915  1.00  0.00     0.148 A 
ATOM     60  C   UNL A   1      36.745  30.993  32.602  1.00  0.00     0.002 A 
ATOM     61  C   UNL A   1      36.176  31.961  30.450  1.00  0.00     0.091 A 
ATOM     62  F   UNL A   1      37.702  31.723  28.630  1.00  0.00    -0.205 F 
ATOM     63  C   UNL A   1      35.855  31.695  31.792  1.00  0.00     0.022 A 
BRANCH  61  64
ATOM     64  S   UNL A   1      34.993  32.925  29.504  1.00  0.00     0.127 S 
ATOM     65  O   UNL A   1      34.028  33.302  30.536  1.00  0.00    -0.237 OA
ATOM     66  O   UNL A   1      35.817  34.028  29.009  1.00  0.00    -0.237 OA
ATOM     67  O   UNL A   1      34.486  32.034  28.469  1.00  0.00    -0.744 OA
ENDBRANCH  61  64
ENDBRANCH  43  57
BRANCH  44  68
ATOM     68  C   UNL A   1      47.023  28.056  26.707  1.00  0.00     0.023 A 
ATOM     69  C   UNL A   1      48.121  27.633  27.478  1.00  0.00     0.012 A 
ATOM     70  C   UNL A   1      47.134  28.065  25.302  1.00  0.00     0.148 A 
ATOM     71  C   UNL A   1      49.312  27.242  26.863  1.00  0.00     0.002 A 
ATOM     72  C   UNL A   1      48.303  27.621  24.695  1.00  0.00     0.091 A 
ATOM     73  F   UNL A   1      46.090  28.498  24.581  1.00  0.00    -0.205 F 
ATOM     74  C   UNL A   1      49.399  27.223  25.473  1.00  0.00     0.022 A 
BRANCH  72  75
ATOM     75  S   UNL A   1      48.422  27.436  22.910  1.00  0.00     0.127 S 
ATOM     76  O   UNL A   1      49.758  27.959  22.642  1.00  0.00    -0.237 OA
ATOM     77  O   UNL A   1      48.282  25.990  22.735  1.00  0.00    -0.237 OA
ATOM     78  O   UNL A   1      47.308  28.208  22.375  1.00  0.00    -0.744 OA
ENDBRANCH  72  75
ENDBRANCH  44  68
BRANCH  56  79
ATOM     79  C   UNL A   1      44.735  33.876  29.814  1.00  0.00     0.023 A 
ATOM     80  C   UNL A   1      45.486  34.106  30.984  1.00  0.00     0.012 A 
ATOM     81  C   UNL A   1      44.650  34.882  28.833  1.00  0.00     0.148 A 
ATOM     82  C   UNL A   1      46.130  35.326  31.182  1.00  0.00     0.002 A 
ATOM     83  C   UNL A   1      45.329  36.081  29.019  1.00  0.00     0.091 A 
ATOM     84  F   UNL A   1      43.914  34.648  27.738  1.00  0.00    -0.205 F 
ATOM     85  C   UNL A   1      46.062  36.306  30.196  1.00  0.00     0.022 A 
BRANCH  83  86
ATOM     86  S   UNL A   1      45.372  37.366  27.764  1.00  0.00     0.127 S 
ATOM     87  O   UNL A   1      46.222  38.372  28.396  1.00  0.00    -0.237 OA
ATOM     88  O   UNL A   1      45.984  36.674  26.630  1.00  0.00    -0.237 OA
ATOM     89  O   UNL A   1      43.986  37.762  27.551  1.00  0.00    -0.744 OA
ENDBRANCH  83  86
ENDBRANCH  56  79
ENDBRANCH  30  31
ENDBRANCH  23  25
ENDBRANCH  22  23
ENDBRANCH  21  22
ENDBRANCH   1  21
TORSDOF 18
ENDMDL
