MODEL 1
REMARK VINA RESULT:     -13.9      0.000      0.000
REMARK SMILES NS(=O)(=O)c1ccc(-c2cc(Cl)cc3c2O[C@H](C(F)(F)F)C(C(=O)OCCOC(=O)c2ccc(-c4c5nc(c(-c6cccc(S(=O)(=O)[O-])c6F)c6ccc([nH]6)c(-c6cccc(S(=O)(=O)[O-])c6F)c6nc(c(-c7cccc(S(=O)(=O)[O-])c7F)c7ccc4[nH]7)C=C6)C=C5)cc2)=C3)cc1
REMARK SMILES IDX 26 1 25 2 23 3 24 4 22 5 9 6 10 7 15 8 11 9 14 10 16 11
REMARK SMILES IDX 12 12 13 13 94 14 17 15 8 16 5 17 6 18 96 19 7 20 95 21 2 22
REMARK SMILES IDX 3 23 4 24 1 25 18 28 19 29 20 30 21 31 27 32 28 33 29 34
REMARK SMILES IDX 30 35 31 36 32 37 93 38 33 39 92 40 34 41 35 42 36 43 86 44
REMARK SMILES IDX 37 45 91 46 85 47 87 48 38 49 90 50 84 51 83 52 39 54 71 55
REMARK SMILES IDX 51 56 70 57 52 58 55 59 69 60 88 61 53 62 54 63 68 65 89 66
REMARK SMILES IDX 56 67 40 68 41 69 49 70 42 71 44 72 50 73 43 74 45 75 46 76
REMARK SMILES IDX 47 77 48 78 72 79 73 80 81 81 74 82 76 83 82 84 75 85 77 86
REMARK SMILES IDX 78 87 79 88 80 89 57 90 58 91 66 92 59 93 61 94 67 95 60 96
REMARK SMILES IDX 62 97 63 98 64 99 65 100
REMARK H PARENT 1 26 1 27 87 53 55 64
REMARK Flexibility Score: inf
ROOT
ATOM      1  C   UNL A   1      31.335  28.814  25.768  1.00  0.00     0.275 C 
ENDROOT
BRANCH   1   2
ATOM      2  O   UNL A   1      30.912  28.412  24.442  1.00  0.00    -0.459 OA
BRANCH   2   3
ATOM      3  C   UNL A   1      30.658  27.082  24.356  1.00  0.00     0.338 C 
ATOM      4  O   UNL A   1      29.541  26.586  24.459  1.00  0.00    -0.246 OA
BRANCH   3   5
ATOM      5  C   UNL A   1      31.846  26.259  24.036  1.00  0.00     0.087 C 
ATOM      6  C   UNL A   1      32.095  22.190  24.503  1.00  0.00     0.026 A 
ATOM      7  C   UNL A   1      31.148  21.953  25.532  1.00  0.00     0.033 A 
ATOM      8  C   UNL A   1      32.347  23.546  24.269  1.00  0.00     0.135 A 
ATOM      9  C   UNL A   1      30.613  22.944  26.362  1.00  0.00     0.042 A 
ATOM     10  C   UNL A   1      32.030  24.481  25.289  1.00  0.00     0.019 A 
ATOM     11  O   UNL A   1      32.752  24.103  23.060  1.00  0.00    -0.475 OA
ATOM     12  Cl  UNL A   1      29.336  22.677  27.472  1.00  0.00    -0.084 Cl
ATOM     13  C   UNL A   1      31.138  24.205  26.306  1.00  0.00     0.032 A 
ATOM     14  C   UNL A   1      32.495  25.871  25.142  1.00  0.00     0.027 C 
ATOM     15  C   UNL A   1      32.064  25.429  22.785  1.00  0.00     0.316 C 
BRANCH   6  16
ATOM     16  C   UNL A   1      32.798  20.944  24.030  1.00  0.00    -0.015 A 
ATOM     17  C   UNL A   1      33.691  18.209  24.022  1.00  0.00     0.082 A 
ATOM     18  C   UNL A   1      32.619  18.614  23.227  1.00  0.00     0.022 A 
ATOM     19  C   UNL A   1      34.355  19.161  24.792  1.00  0.00     0.022 A 
ATOM     20  C   UNL A   1      32.215  19.972  23.197  1.00  0.00     0.010 A 
ATOM     21  C   UNL A   1      33.912  20.502  24.788  1.00  0.00     0.010 A 
BRANCH  17  22
ATOM     22  S   UNL A   1      34.076  16.479  24.182  1.00  0.00     0.238 S 
ATOM     23  O   UNL A   1      35.057  16.303  25.215  1.00  0.00    -0.207 OA
ATOM     24  O   UNL A   1      34.189  15.893  22.862  1.00  0.00    -0.207 OA
BRANCH  22  25
ATOM     25  N   UNL A   1      32.663  15.795  24.791  1.00  0.00    -0.225 NA
ATOM     26  H   UNL A   1      32.046  15.544  24.019  1.00  0.00     0.137 HD
ATOM     27  H   UNL A   1      32.193  16.469  25.396  1.00  0.00     0.137 HD
ENDBRANCH  22  25
ENDBRANCH  17  22
ENDBRANCH   6  16
BRANCH  15  28
ATOM     28  C   UNL A   1      32.920  26.317  21.870  1.00  0.00     0.430 C 
ATOM     29  F   UNL A   1      32.842  25.928  20.574  1.00  0.00    -0.167 F 
ATOM     30  F   UNL A   1      32.569  27.619  21.931  1.00  0.00    -0.167 F 
ATOM     31  F   UNL A   1      34.234  26.249  22.217  1.00  0.00    -0.167 F 
ENDBRANCH  15  28
ENDBRANCH   3   5
ENDBRANCH   2   3
ENDBRANCH   1   2
BRANCH   1  32
ATOM     32  C   UNL A   1      31.726  30.293  25.851  1.00  0.00     0.275 C 
BRANCH  32  33
ATOM     33  O   UNL A   1      33.131  30.457  26.117  1.00  0.00    -0.458 OA
BRANCH  33  34
ATOM     34  C   UNL A   1      33.401  31.387  27.068  1.00  0.00     0.338 C 
ATOM     35  O   UNL A   1      32.606  32.213  27.496  1.00  0.00    -0.246 OA
BRANCH  34  36
ATOM     36  C   UNL A   1      34.763  31.223  27.642  1.00  0.00     0.060 A 
ATOM     37  C   UNL A   1      35.133  29.923  27.967  1.00  0.00     0.016 A 
ATOM     38  C   UNL A   1      35.663  32.266  27.908  1.00  0.00     0.016 A 
ATOM     39  C   UNL A   1      36.393  29.678  28.512  1.00  0.00     0.010 A 
ATOM     40  C   UNL A   1      36.954  31.996  28.438  1.00  0.00     0.010 A 
ATOM     41  C   UNL A   1      37.355  30.685  28.717  1.00  0.00    -0.014 A 
BRANCH  41  42
ATOM     42  C   UNL A   1      38.652  30.256  29.363  1.00  0.00     0.031 A 
ATOM     43  C   UNL A   1      38.782  30.531  30.834  1.00  0.00     0.074 A 
ATOM     44  C   UNL A   1      39.611  29.495  28.781  1.00  0.00     0.049 A 
ATOM     45  N   UNL A   1      39.576  29.987  31.714  1.00  0.00    -0.248 NA
ATOM     46  C   UNL A   1      37.869  31.549  31.380  1.00  0.00     0.031 C 
ATOM     47  C   UNL A   1      39.674  29.159  27.371  1.00  0.00     0.029 A 
ATOM     48  N   UNL A   1      40.679  28.783  29.304  1.00  0.00    -0.354 N 
ATOM     49  C   UNL A   1      39.285  30.617  32.912  1.00  0.00     0.074 A 
ATOM     50  C   UNL A   1      38.192  31.534  32.662  1.00  0.00     0.031 C 
ATOM     51  C   UNL A   1      40.555  28.168  27.163  1.00  0.00     0.029 A 
ATOM     52  C   UNL A   1      41.273  27.907  28.402  1.00  0.00     0.049 A 
ATOM     53  H   UNL A   1      40.991  28.889  30.232  1.00  0.00     0.167 HD
ATOM     54  C   UNL A   1      39.907  30.499  34.106  1.00  0.00     0.034 A 
ATOM     55  C   UNL A   1      42.285  27.014  28.537  1.00  0.00     0.034 A 
ATOM     56  C   UNL A   1      41.069  29.690  34.346  1.00  0.00     0.049 A 
ATOM     57  C   UNL A   1      42.995  26.953  29.871  1.00  0.00     0.074 A 
ATOM     58  C   UNL A   1      41.810  29.590  35.510  1.00  0.00     0.029 A 
ATOM     59  N   UNL A   1      41.689  28.881  33.406  1.00  0.00    -0.354 N 
ATOM     60  N   UNL A   1      42.691  27.552  30.997  1.00  0.00    -0.248 NA
ATOM     61  C   UNL A   1      44.191  26.100  29.957  1.00  0.00     0.031 C 
ATOM     62  C   UNL A   1      42.925  28.788  35.249  1.00  0.00     0.029 A 
ATOM     63  C   UNL A   1      42.835  28.322  33.947  1.00  0.00     0.049 A 
ATOM     64  H   UNL A   1      41.363  28.727  32.490  1.00  0.00     0.167 HD
ATOM     65  C   UNL A   1      43.610  27.096  31.939  1.00  0.00     0.074 A 
ATOM     66  C   UNL A   1      44.489  26.178  31.248  1.00  0.00     0.031 C 
ATOM     67  C   UNL A   1      43.711  27.407  33.257  1.00  0.00     0.034 A 
BRANCH  54  68
ATOM     68  C   UNL A   1      39.398  31.385  35.207  1.00  0.00     0.023 A 
ATOM     69  C   UNL A   1      38.430  30.910  36.113  1.00  0.00     0.012 A 
ATOM     70  C   UNL A   1      39.860  32.712  35.306  1.00  0.00     0.148 A 
ATOM     71  C   UNL A   1      37.901  31.760  37.084  1.00  0.00     0.002 A 
ATOM     72  C   UNL A   1      39.363  33.536  36.305  1.00  0.00     0.091 A 
ATOM     73  F   UNL A   1      40.749  33.149  34.403  1.00  0.00    -0.205 F 
ATOM     74  C   UNL A   1      38.373  33.067  37.186  1.00  0.00     0.022 A 
BRANCH  72  75
ATOM     75  S   UNL A   1      39.950  35.213  36.550  1.00  0.00     0.127 S 
ATOM     76  O   UNL A   1      39.436  35.882  35.356  1.00  0.00    -0.237 OA
ATOM     77  O   UNL A   1      39.283  35.588  37.797  1.00  0.00    -0.237 OA
ATOM     78  O   UNL A   1      41.401  35.127  36.636  1.00  0.00    -0.744 OA
ENDBRANCH  72  75
ENDBRANCH  54  68
BRANCH  55  79
ATOM     79  C   UNL A   1      42.689  26.067  27.428  1.00  0.00     0.023 A 
ATOM     80  C   UNL A   1      43.586  26.498  26.423  1.00  0.00     0.012 A 
ATOM     81  C   UNL A   1      42.189  24.756  27.321  1.00  0.00     0.148 A 
ATOM     82  C   UNL A   1      43.969  25.680  25.357  1.00  0.00     0.002 A 
ATOM     83  C   UNL A   1      42.618  23.917  26.288  1.00  0.00     0.091 A 
ATOM     84  F   UNL A   1      41.286  24.344  28.221  1.00  0.00    -0.205 F 
ATOM     85  C   UNL A   1      43.496  24.379  25.299  1.00  0.00     0.022 A 
BRANCH  83  86
ATOM     86  S   UNL A   1      42.148  22.185  26.198  1.00  0.00     0.127 S 
ATOM     87  O   UNL A   1      42.922  21.723  25.050  1.00  0.00    -0.237 OA
ATOM     88  O   UNL A   1      42.606  21.677  27.493  1.00  0.00    -0.237 OA
ATOM     89  O   UNL A   1      40.701  22.185  26.035  1.00  0.00    -0.744 OA
ENDBRANCH  83  86
ENDBRANCH  55  79
BRANCH  67  90
ATOM     90  C   UNL A   1      44.816  26.756  34.059  1.00  0.00     0.023 A 
ATOM     91  C   UNL A   1      46.042  27.424  34.253  1.00  0.00     0.012 A 
ATOM     92  C   UNL A   1      44.610  25.509  34.685  1.00  0.00     0.148 A 
ATOM     93  C   UNL A   1      47.061  26.841  35.007  1.00  0.00     0.002 A 
ATOM     94  C   UNL A   1      45.603  24.964  35.489  1.00  0.00     0.091 A 
ATOM     95  F   UNL A   1      43.446  24.872  34.481  1.00  0.00    -0.205 F 
ATOM     96  C   UNL A   1      46.837  25.619  35.635  1.00  0.00     0.022 A 
BRANCH  94  97
ATOM     97  S   UNL A   1      45.361  23.455  36.432  1.00  0.00     0.127 S 
ATOM     98  O   UNL A   1      44.902  23.978  37.719  1.00  0.00    -0.237 OA
ATOM     99  O   UNL A   1      44.334  22.763  35.653  1.00  0.00    -0.237 OA
ATOM    100  O   UNL A   1      46.653  22.784  36.460  1.00  0.00    -0.744 OA
ENDBRANCH  94  97
ENDBRANCH  67  90
ENDBRANCH  41  42
ENDBRANCH  34  36
ENDBRANCH  33  34
ENDBRANCH  32  33
ENDBRANCH   1  32
TORSDOF 18
ENDMDL
MODEL 2
REMARK VINA RESULT:     -12.8      2.076      2.552
REMARK SMILES NS(=O)(=O)c1ccc(-c2cc(Cl)cc3c2O[C@H](C(F)(F)F)C(C(=O)OCCOC(=O)c2ccc(-c4c5nc(c(-c6cccc(S(=O)(=O)[O-])c6F)c6ccc([nH]6)c(-c6cccc(S(=O)(=O)[O-])c6F)c6nc(c(-c7cccc(S(=O)(=O)[O-])c7F)c7ccc4[nH]7)C=C6)C=C5)cc2)=C3)cc1
REMARK SMILES IDX 26 1 25 2 23 3 24 4 22 5 9 6 10 7 15 8 11 9 14 10 16 11
REMARK SMILES IDX 12 12 13 13 94 14 17 15 8 16 5 17 6 18 96 19 7 20 95 21 2 22
REMARK SMILES IDX 3 23 4 24 1 25 18 28 19 29 20 30 21 31 27 32 28 33 29 34
REMARK SMILES IDX 30 35 31 36 32 37 93 38 33 39 92 40 34 41 35 42 36 43 86 44
REMARK SMILES IDX 37 45 91 46 85 47 87 48 38 49 90 50 84 51 83 52 39 54 71 55
REMARK SMILES IDX 51 56 70 57 52 58 55 59 69 60 88 61 53 62 54 63 68 65 89 66
REMARK SMILES IDX 56 67 40 68 41 69 49 70 42 71 44 72 50 73 43 74 45 75 46 76
REMARK SMILES IDX 47 77 48 78 72 79 73 80 81 81 74 82 76 83 82 84 75 85 77 86
REMARK SMILES IDX 78 87 79 88 80 89 57 90 58 91 66 92 59 93 61 94 67 95 60 96
REMARK SMILES IDX 62 97 63 98 64 99 65 100
REMARK H PARENT 1 26 1 27 87 53 55 64
REMARK Flexibility Score: inf
ROOT
ATOM      1  C   UNL A   1      31.386  29.028  25.399  1.00  0.00     0.275 C 
ENDROOT
BRANCH   1   2
ATOM      2  O   UNL A   1      32.345  27.982  25.693  1.00  0.00    -0.459 OA
BRANCH   2   3
ATOM      3  C   UNL A   1      32.994  27.542  24.585  1.00  0.00     0.338 C 
ATOM      4  O   UNL A   1      34.017  28.048  24.138  1.00  0.00    -0.246 OA
BRANCH   3   5
ATOM      5  C   UNL A   1      32.407  26.321  23.987  1.00  0.00     0.087 C 
ATOM      6  C   UNL A   1      33.386  22.475  25.027  1.00  0.00     0.026 A 
ATOM      7  C   UNL A   1      34.707  22.630  25.520  1.00  0.00     0.033 A 
ATOM      8  C   UNL A   1      32.869  23.627  24.425  1.00  0.00     0.135 A 
ATOM      9  C   UNL A   1      35.506  23.757  25.305  1.00  0.00     0.042 A 
ATOM     10  C   UNL A   1      33.775  24.621  23.971  1.00  0.00     0.019 A 
ATOM     11  O   UNL A   1      31.524  23.974  24.350  1.00  0.00    -0.475 OA
ATOM     12  Cl  UNL A   1      37.024  24.013  26.059  1.00  0.00    -0.084 Cl
ATOM     13  C   UNL A   1      35.072  24.718  24.436  1.00  0.00     0.032 A 
ATOM     14  C   UNL A   1      33.258  25.723  23.142  1.00  0.00     0.027 C 
ATOM     15  C   UNL A   1      31.306  25.460  24.576  1.00  0.00     0.316 C 
BRANCH   6  16
ATOM     16  C   UNL A   1      32.895  21.050  25.050  1.00  0.00    -0.015 A 
ATOM     17  C   UNL A   1      32.965  18.186  24.779  1.00  0.00     0.082 A 
ATOM     18  C   UNL A   1      33.069  18.789  26.033  1.00  0.00     0.022 A 
ATOM     19  C   UNL A   1      32.783  18.993  23.658  1.00  0.00     0.022 A 
ATOM     20  C   UNL A   1      32.984  20.199  26.165  1.00  0.00     0.010 A 
ATOM     21  C   UNL A   1      32.747  20.397  23.799  1.00  0.00     0.010 A 
BRANCH  17  22
ATOM     22  S   UNL A   1      33.245  16.437  24.608  1.00  0.00     0.238 S 
ATOM     23  O   UNL A   1      33.578  16.139  23.244  1.00  0.00    -0.207 OA
ATOM     24  O   UNL A   1      32.239  15.719  25.363  1.00  0.00    -0.207 OA
BRANCH  22  25
ATOM     25  N   UNL A   1      34.658  16.157  25.480  1.00  0.00    -0.225 NA
ATOM     26  H   UNL A   1      35.235  15.478  24.984  1.00  0.00     0.137 HD
ATOM     27  H   UNL A   1      34.420  15.792  26.403  1.00  0.00     0.137 HD
ENDBRANCH  22  25
ENDBRANCH  17  22
ENDBRANCH   6  16
BRANCH  15  28
ATOM     28  C   UNL A   1      30.021  25.943  23.887  1.00  0.00     0.430 C 
ATOM     29  F   UNL A   1      30.263  26.964  23.029  1.00  0.00    -0.167 F 
ATOM     30  F   UNL A   1      29.400  24.964  23.198  1.00  0.00    -0.167 F 
ATOM     31  F   UNL A   1      29.126  26.408  24.800  1.00  0.00    -0.167 F 
ENDBRANCH  15  28
ENDBRANCH   3   5
ENDBRANCH   2   3
ENDBRANCH   1   2
BRANCH   1  32
ATOM     32  C   UNL A   1      31.942  30.435  25.638  1.00  0.00     0.275 C 
BRANCH  32  33
ATOM     33  O   UNL A   1      32.160  30.690  27.039  1.00  0.00    -0.458 OA
BRANCH  33  34
ATOM     34  C   UNL A   1      33.066  31.671  27.280  1.00  0.00     0.338 C 
ATOM     35  O   UNL A   1      32.859  32.871  27.160  1.00  0.00    -0.246 OA
BRANCH  34  36
ATOM     36  C   UNL A   1      34.336  31.136  27.837  1.00  0.00     0.060 A 
ATOM     37  C   UNL A   1      35.270  32.084  28.242  1.00  0.00     0.016 A 
ATOM     38  C   UNL A   1      34.666  29.776  27.946  1.00  0.00     0.016 A 
ATOM     39  C   UNL A   1      36.490  31.670  28.776  1.00  0.00     0.010 A 
ATOM     40  C   UNL A   1      35.903  29.371  28.517  1.00  0.00     0.010 A 
ATOM     41  C   UNL A   1      36.825  30.317  28.977  1.00  0.00    -0.014 A 
BRANCH  41  42
ATOM     42  C   UNL A   1      38.208  30.040  29.520  1.00  0.00     0.031 A 
ATOM     43  C   UNL A   1      38.438  30.392  30.962  1.00  0.00     0.074 A 
ATOM     44  C   UNL A   1      39.183  29.345  28.882  1.00  0.00     0.049 A 
ATOM     45  N   UNL A   1      39.353  29.964  31.786  1.00  0.00    -0.248 NA
ATOM     46  C   UNL A   1      37.481  31.346  31.549  1.00  0.00     0.031 C 
ATOM     47  C   UNL A   1      39.155  28.953  27.486  1.00  0.00     0.029 A 
ATOM     48  N   UNL A   1      40.355  28.759  29.333  1.00  0.00    -0.354 N 
ATOM     49  C   UNL A   1      39.108  30.619  32.982  1.00  0.00     0.074 A 
ATOM     50  C   UNL A   1      37.914  31.418  32.797  1.00  0.00     0.031 C 
ATOM     51  C   UNL A   1      40.106  28.039  27.236  1.00  0.00     0.029 A 
ATOM     52  C   UNL A   1      40.950  27.902  28.415  1.00  0.00     0.049 A 
ATOM     53  H   UNL A   1      40.733  28.935  30.225  1.00  0.00     0.167 HD
ATOM     54  C   UNL A   1      39.838  30.613  34.118  1.00  0.00     0.034 A 
ATOM     55  C   UNL A   1      42.051  27.113  28.491  1.00  0.00     0.034 A 
ATOM     56  C   UNL A   1      41.088  29.926  34.282  1.00  0.00     0.049 A 
ATOM     57  C   UNL A   1      42.876  27.178  29.757  1.00  0.00     0.074 A 
ATOM     58  C   UNL A   1      41.933  29.948  35.377  1.00  0.00     0.029 A 
ATOM     59  N   UNL A   1      41.700  29.136  33.321  1.00  0.00    -0.354 N 
ATOM     60  N   UNL A   1      42.613  27.797  30.883  1.00  0.00    -0.248 NA
ATOM     61  C   UNL A   1      44.151  26.444  29.767  1.00  0.00     0.031 C 
ATOM     62  C   UNL A   1      43.093  29.241  35.047  1.00  0.00     0.029 A 
ATOM     63  C   UNL A   1      42.937  28.711  33.777  1.00  0.00     0.049 A 
ATOM     64  H   UNL A   1      41.313  28.911  32.445  1.00  0.00     0.167 HD
ATOM     65  C   UNL A   1      43.650  27.471  31.754  1.00  0.00     0.074 A 
ATOM     66  C   UNL A   1      44.550  26.607  31.021  1.00  0.00     0.031 C 
ATOM     67  C   UNL A   1      43.834  27.850  33.045  1.00  0.00     0.034 A 
BRANCH  54  68
ATOM     68  C   UNL A   1      39.344  31.497  35.227  1.00  0.00     0.023 A 
ATOM     69  C   UNL A   1      38.405  31.013  36.159  1.00  0.00     0.012 A 
ATOM     70  C   UNL A   1      39.788  32.831  35.308  1.00  0.00     0.148 A 
ATOM     71  C   UNL A   1      37.888  31.861  37.139  1.00  0.00     0.002 A 
ATOM     72  C   UNL A   1      39.303  33.653  36.315  1.00  0.00     0.091 A 
ATOM     73  F   UNL A   1      40.647  33.277  34.381  1.00  0.00    -0.205 F 
ATOM     74  C   UNL A   1      38.342  33.175  37.222  1.00  0.00     0.022 A 
BRANCH  72  75
ATOM     75  S   UNL A   1      39.871  35.340  36.537  1.00  0.00     0.127 S 
ATOM     76  O   UNL A   1      39.252  35.693  37.813  1.00  0.00    -0.237 OA
ATOM     77  O   UNL A   1      41.322  35.167  36.587  1.00  0.00    -0.237 OA
ATOM     78  O   UNL A   1      39.384  36.087  35.385  1.00  0.00    -0.744 OA
ENDBRANCH  72  75
ENDBRANCH  54  68
BRANCH  55  79
ATOM     79  C   UNL A   1      42.447  26.157  27.385  1.00  0.00     0.023 A 
ATOM     80  C   UNL A   1      43.261  26.609  26.321  1.00  0.00     0.012 A 
ATOM     81  C   UNL A   1      42.017  24.818  27.341  1.00  0.00     0.148 A 
ATOM     82  C   UNL A   1      43.631  25.782  25.257  1.00  0.00     0.002 A 
ATOM     83  C   UNL A   1      42.436  23.975  26.308  1.00  0.00     0.091 A 
ATOM     84  F   UNL A   1      41.190  24.384  28.302  1.00  0.00    -0.205 F 
ATOM     85  C   UNL A   1      43.231  24.456  25.259  1.00  0.00     0.022 A 
BRANCH  83  86
ATOM     86  S   UNL A   1      42.062  22.218  26.291  1.00  0.00     0.127 S 
ATOM     87  O   UNL A   1      40.613  22.221  26.107  1.00  0.00    -0.237 OA
ATOM     88  O   UNL A   1      42.827  21.754  25.132  1.00  0.00    -0.237 OA
ATOM     89  O   UNL A   1      42.543  21.707  27.567  1.00  0.00    -0.744 OA
ENDBRANCH  83  86
ENDBRANCH  55  79
BRANCH  67  90
ATOM     90  C   UNL A   1      45.061  27.341  33.768  1.00  0.00     0.023 A 
ATOM     91  C   UNL A   1      45.010  26.132  34.491  1.00  0.00     0.012 A 
ATOM     92  C   UNL A   1      46.290  28.027  33.667  1.00  0.00     0.148 A 
ATOM     93  C   UNL A   1      46.142  25.645  35.146  1.00  0.00     0.002 A 
ATOM     94  C   UNL A   1      47.429  27.501  34.266  1.00  0.00     0.091 A 
ATOM     95  F   UNL A   1      46.326  29.185  32.990  1.00  0.00    -0.205 F 
ATOM     96  C   UNL A   1      47.352  26.321  35.023  1.00  0.00     0.022 A 
BRANCH  94  97
ATOM     97  S   UNL A   1      49.054  28.238  34.061  1.00  0.00     0.127 S 
ATOM     98  O   UNL A   1      48.985  29.372  34.983  1.00  0.00    -0.237 OA
ATOM     99  O   UNL A   1      49.941  27.156  34.490  1.00  0.00    -0.237 OA
ATOM    100  O   UNL A   1      49.164  28.588  32.652  1.00  0.00    -0.744 OA
ENDBRANCH  94  97
ENDBRANCH  67  90
ENDBRANCH  41  42
ENDBRANCH  34  36
ENDBRANCH  33  34
ENDBRANCH  32  33
ENDBRANCH   1  32
TORSDOF 18
ENDMDL
MODEL 3
REMARK VINA RESULT:     -12.1      1.884      2.345
REMARK SMILES NS(=O)(=O)c1ccc(-c2cc(Cl)cc3c2O[C@H](C(F)(F)F)C(C(=O)OCCOC(=O)c2ccc(-c4c5nc(c(-c6cccc(S(=O)(=O)[O-])c6F)c6ccc([nH]6)c(-c6cccc(S(=O)(=O)[O-])c6F)c6nc(c(-c7cccc(S(=O)(=O)[O-])c7F)c7ccc4[nH]7)C=C6)C=C5)cc2)=C3)cc1
REMARK SMILES IDX 26 1 25 2 23 3 24 4 22 5 9 6 10 7 15 8 11 9 14 10 16 11
REMARK SMILES IDX 12 12 13 13 94 14 17 15 8 16 5 17 6 18 96 19 7 20 95 21 2 22
REMARK SMILES IDX 3 23 4 24 1 25 18 28 19 29 20 30 21 31 27 32 28 33 29 34
REMARK SMILES IDX 30 35 31 36 32 37 93 38 33 39 92 40 34 41 35 42 36 43 86 44
REMARK SMILES IDX 37 45 91 46 85 47 87 48 38 49 90 50 84 51 83 52 39 54 71 55
REMARK SMILES IDX 51 56 70 57 52 58 55 59 69 60 88 61 53 62 54 63 68 65 89 66
REMARK SMILES IDX 56 67 40 68 41 69 49 70 42 71 44 72 50 73 43 74 45 75 46 76
REMARK SMILES IDX 47 77 48 78 72 79 73 80 81 81 74 82 76 83 82 84 75 85 77 86
REMARK SMILES IDX 78 87 79 88 80 89 57 90 58 91 66 92 59 93 61 94 67 95 60 96
REMARK SMILES IDX 62 97 63 98 64 99 65 100
REMARK H PARENT 1 26 1 27 87 53 55 64
REMARK Flexibility Score: inf
ROOT
ATOM      1  C   UNL A   1      31.662  29.202  25.970  1.00  0.00     0.275 C 
ENDROOT
BRANCH   1   2
ATOM      2  O   UNL A   1      31.942  27.903  26.547  1.00  0.00    -0.459 OA
BRANCH   2   3
ATOM      3  C   UNL A   1      33.029  27.309  25.994  1.00  0.00     0.338 C 
ATOM      4  O   UNL A   1      34.186  27.540  26.327  1.00  0.00    -0.246 OA
BRANCH   3   5
ATOM      5  C   UNL A   1      32.704  26.270  24.990  1.00  0.00     0.087 C 
ATOM      6  C   UNL A   1      34.266  22.477  24.924  1.00  0.00     0.026 A 
ATOM      7  C   UNL A   1      35.504  22.656  25.592  1.00  0.00     0.033 A 
ATOM      8  C   UNL A   1      33.598  23.673  24.643  1.00  0.00     0.135 A 
ATOM      9  C   UNL A   1      36.108  23.896  25.824  1.00  0.00     0.042 A 
ATOM     10  C   UNL A   1      34.345  24.879  24.621  1.00  0.00     0.019 A 
ATOM     11  O   UNL A   1      32.220  23.828  24.520  1.00  0.00    -0.475 OA
ATOM     12  Cl  UNL A   1      37.505  24.115  26.792  1.00  0.00    -0.084 Cl
ATOM     13  C   UNL A   1      35.572  25.010  25.242  1.00  0.00     0.032 A 
ATOM     14  C   UNL A   1      33.700  26.101  24.110  1.00  0.00     0.027 C 
ATOM     15  C   UNL A   1      31.733  25.118  25.157  1.00  0.00     0.316 C 
BRANCH   6  16
ATOM     16  C   UNL A   1      34.030  21.063  24.457  1.00  0.00    -0.015 A 
ATOM     17  C   UNL A   1      33.576  18.227  24.620  1.00  0.00     0.082 A 
ATOM     18  C   UNL A   1      32.521  19.107  24.377  1.00  0.00     0.022 A 
ATOM     19  C   UNL A   1      34.866  18.739  24.743  1.00  0.00     0.022 A 
ATOM     20  C   UNL A   1      32.759  20.499  24.248  1.00  0.00     0.010 A 
ATOM     21  C   UNL A   1      35.080  20.132  24.658  1.00  0.00     0.010 A 
BRANCH  17  22
ATOM     22  S   UNL A   1      33.242  16.510  24.950  1.00  0.00     0.238 S 
ATOM     23  O   UNL A   1      33.907  16.120  26.161  1.00  0.00    -0.207 OA
ATOM     24  O   UNL A   1      33.327  15.763  23.712  1.00  0.00    -0.207 OA
BRANCH  22  25
ATOM     25  N   UNL A   1      31.599  16.470  25.315  1.00  0.00    -0.225 NA
ATOM     26  H   UNL A   1      31.327  15.519  25.558  1.00  0.00     0.137 HD
ATOM     27  H   UNL A   1      31.063  16.780  24.503  1.00  0.00     0.137 HD
ENDBRANCH  22  25
ENDBRANCH  17  22
ENDBRANCH   6  16
BRANCH  15  28
ATOM     28  C   UNL A   1      30.432  25.603  24.502  1.00  0.00     0.430 C 
ATOM     29  F   UNL A   1      30.047  24.792  23.485  1.00  0.00    -0.167 F 
ATOM     30  F   UNL A   1      29.407  25.684  25.374  1.00  0.00    -0.167 F 
ATOM     31  F   UNL A   1      30.591  26.844  23.967  1.00  0.00    -0.167 F 
ENDBRANCH  15  28
ENDBRANCH   3   5
ENDBRANCH   2   3
ENDBRANCH   1   2
BRANCH   1  32
ATOM     32  C   UNL A   1      32.837  30.178  26.092  1.00  0.00     0.275 C 
BRANCH  32  33
ATOM     33  O   UNL A   1      32.782  30.926  27.321  1.00  0.00    -0.458 OA
BRANCH  33  34
ATOM     34  C   UNL A   1      33.777  31.840  27.448  1.00  0.00     0.338 C 
ATOM     35  O   UNL A   1      33.671  33.038  27.218  1.00  0.00    -0.246 OA
BRANCH  34  36
ATOM     36  C   UNL A   1      35.012  31.248  28.026  1.00  0.00     0.060 A 
ATOM     37  C   UNL A   1      36.132  32.071  28.039  1.00  0.00     0.016 A 
ATOM     38  C   UNL A   1      35.132  29.938  28.513  1.00  0.00     0.016 A 
ATOM     39  C   UNL A   1      37.334  31.596  28.563  1.00  0.00     0.010 A 
ATOM     40  C   UNL A   1      36.357  29.478  29.069  1.00  0.00     0.010 A 
ATOM     41  C   UNL A   1      37.475  30.318  29.136  1.00  0.00    -0.014 A 
BRANCH  41  42
ATOM     42  C   UNL A   1      38.859  29.942  29.613  1.00  0.00     0.031 A 
ATOM     43  C   UNL A   1      39.211  30.349  31.015  1.00  0.00     0.074 A 
ATOM     44  C   UNL A   1      39.724  29.125  28.962  1.00  0.00     0.049 A 
ATOM     45  N   UNL A   1      40.134  29.882  31.809  1.00  0.00    -0.248 NA
ATOM     46  C   UNL A   1      38.383  31.418  31.599  1.00  0.00     0.031 C 
ATOM     47  C   UNL A   1      39.572  28.662  27.595  1.00  0.00     0.029 A 
ATOM     48  N   UNL A   1      40.865  28.457  29.378  1.00  0.00    -0.354 N 
ATOM     49  C   UNL A   1      40.025  30.620  32.975  1.00  0.00     0.074 A 
ATOM     50  C   UNL A   1      38.899  31.517  32.813  1.00  0.00     0.031 C 
ATOM     51  C   UNL A   1      40.419  27.651  27.346  1.00  0.00     0.029 A 
ATOM     52  C   UNL A   1      41.321  27.499  28.479  1.00  0.00     0.049 A 
ATOM     53  H   UNL A   1      41.314  28.645  30.234  1.00  0.00     0.167 HD
ATOM     54  C   UNL A   1      40.823  30.607  34.066  1.00  0.00     0.034 A 
ATOM     55  C   UNL A   1      42.348  26.616  28.538  1.00  0.00     0.034 A 
ATOM     56  C   UNL A   1      42.014  29.817  34.197  1.00  0.00     0.049 A 
ATOM     57  C   UNL A   1      43.255  26.672  29.747  1.00  0.00     0.074 A 
ATOM     58  C   UNL A   1      42.926  29.818  35.237  1.00  0.00     0.029 A 
ATOM     59  N   UNL A   1      42.490  28.922  33.251  1.00  0.00    -0.354 N 
ATOM     60  N   UNL A   1      43.121  27.373  30.847  1.00  0.00    -0.248 NA
ATOM     61  C   UNL A   1      44.456  25.824  29.726  1.00  0.00     0.031 C 
ATOM     62  C   UNL A   1      43.994  28.989  34.883  1.00  0.00     0.029 A 
ATOM     63  C   UNL A   1      43.710  28.408  33.658  1.00  0.00     0.049 A 
ATOM     64  H   UNL A   1      42.029  28.687  32.413  1.00  0.00     0.167 HD
ATOM     65  C   UNL A   1      44.178  26.999  31.675  1.00  0.00     0.074 A 
ATOM     66  C   UNL A   1      44.948  26.016  30.943  1.00  0.00     0.031 C 
ATOM     67  C   UNL A   1      44.477  27.428  32.928  1.00  0.00     0.034 A 
BRANCH  54  68
ATOM     68  C   UNL A   1      40.482  31.593  35.146  1.00  0.00     0.023 A 
ATOM     69  C   UNL A   1      41.259  32.755  35.321  1.00  0.00     0.012 A 
ATOM     70  C   UNL A   1      39.406  31.332  36.016  1.00  0.00     0.148 A 
ATOM     71  C   UNL A   1      40.989  33.628  36.375  1.00  0.00     0.002 A 
ATOM     72  C   UNL A   1      39.116  32.231  37.033  1.00  0.00     0.091 A 
ATOM     73  F   UNL A   1      38.712  30.198  35.853  1.00  0.00    -0.205 F 
ATOM     74  C   UNL A   1      39.915  33.371  37.223  1.00  0.00     0.022 A 
BRANCH  72  75
ATOM     75  S   UNL A   1      37.719  32.015  38.138  1.00  0.00     0.127 S 
ATOM     76  O   UNL A   1      38.302  32.393  39.425  1.00  0.00    -0.237 OA
ATOM     77  O   UNL A   1      36.755  32.972  37.598  1.00  0.00    -0.237 OA
ATOM     78  O   UNL A   1      37.324  30.618  38.023  1.00  0.00    -0.744 OA
ENDBRANCH  72  75
ENDBRANCH  54  68
BRANCH  55  79
ATOM     79  C   UNL A   1      42.585  25.569  27.470  1.00  0.00     0.023 A 
ATOM     80  C   UNL A   1      43.475  25.838  26.404  1.00  0.00     0.012 A 
ATOM     81  C   UNL A   1      41.933  24.322  27.463  1.00  0.00     0.148 A 
ATOM     82  C   UNL A   1      43.707  24.924  25.372  1.00  0.00     0.002 A 
ATOM     83  C   UNL A   1      42.211  23.384  26.465  1.00  0.00     0.091 A 
ATOM     84  F   UNL A   1      41.035  24.069  28.425  1.00  0.00    -0.205 F 
ATOM     85  C   UNL A   1      43.086  23.686  25.413  1.00  0.00     0.022 A 
BRANCH  83  86
ATOM     86  S   UNL A   1      41.542  21.718  26.499  1.00  0.00     0.127 S 
ATOM     87  O   UNL A   1      42.483  20.999  25.644  1.00  0.00    -0.237 OA
ATOM     88  O   UNL A   1      41.626  21.384  27.921  1.00  0.00    -0.237 OA
ATOM     89  O   UNL A   1      40.182  21.836  25.993  1.00  0.00    -0.744 OA
ENDBRANCH  83  86
ENDBRANCH  55  79
BRANCH  67  90
ATOM     90  C   UNL A   1      45.697  26.847  33.606  1.00  0.00     0.023 A 
ATOM     91  C   UNL A   1      46.954  27.468  33.464  1.00  0.00     0.012 A 
ATOM     92  C   UNL A   1      45.581  25.722  34.450  1.00  0.00     0.148 A 
ATOM     93  C   UNL A   1      48.082  26.949  34.102  1.00  0.00     0.002 A 
ATOM     94  C   UNL A   1      46.695  25.251  35.135  1.00  0.00     0.091 A 
ATOM     95  F   UNL A   1      44.384  25.127  34.567  1.00  0.00    -0.205 F 
ATOM     96  C   UNL A   1      47.950  25.851  34.946  1.00  0.00     0.022 A 
BRANCH  94  97
ATOM     97  S   UNL A   1      46.597  23.918  36.335  1.00  0.00     0.127 S 
ATOM     98  O   UNL A   1      45.815  22.919  35.607  1.00  0.00    -0.237 OA
ATOM     99  O   UNL A   1      48.005  23.568  36.526  1.00  0.00    -0.237 OA
ATOM    100  O   UNL A   1      45.949  24.479  37.511  1.00  0.00    -0.744 OA
ENDBRANCH  94  97
ENDBRANCH  67  90
ENDBRANCH  41  42
ENDBRANCH  34  36
ENDBRANCH  33  34
ENDBRANCH  32  33
ENDBRANCH   1  32
TORSDOF 18
ENDMDL
