MODEL 1
REMARK VINA RESULT:     -12.8      0.000      0.000
REMARK SMILES Cc1c(Cl)cc2c(c1C)O[C@H](C(F)(F)F)C(C(=O)OCCOC(=O)c1ccc(-c3c4nc(c(-c5cccc(S(=O)(=O)[O-])c5F)c5ccc([nH]5)c(-c5cccc(S(=O)(=O)[O-])c5F)c5nc(c(-c6cccc(S(=O)(=O)[O-])c6F)c6ccc3[nH]6)C=C5)C=C4)cc1)=C2
REMARK SMILES IDX 21 1 20 2 19 3 17 4 18 5 16 6 1 7 2 8 3 9 8 10 4 11 5 12
REMARK SMILES IDX 7 13 9 14 6 15 10 16 88 17 11 18 12 19 13 20 14 21 15 22
REMARK SMILES IDX 22 23 23 24 24 25 25 26 26 27 87 28 27 29 86 30 28 31 29 32
REMARK SMILES IDX 30 33 80 34 31 35 85 36 79 37 81 38 32 39 84 40 78 41 77 42
REMARK SMILES IDX 33 44 65 45 45 46 64 47 46 48 49 49 63 50 82 51 47 52 48 53
REMARK SMILES IDX 62 55 83 56 50 57 34 58 35 59 43 60 36 61 38 62 44 63 37 64
REMARK SMILES IDX 39 65 40 66 41 67 42 68 66 69 67 70 75 71 68 72 70 73 76 74
REMARK SMILES IDX 69 75 71 76 72 77 73 78 74 79 51 80 52 81 60 82 53 83 55 84
REMARK SMILES IDX 61 85 54 86 56 87 57 88 58 89 59 90
REMARK H PARENT 81 43 49 54
REMARK Flexibility Score: inf
ROOT
ATOM      1  C   UNL A   1      36.700  20.360  25.004  1.00  0.00     0.275 C 
ENDROOT
BRANCH   1   2
ATOM      2  C   UNL A   1      35.271  20.896  24.897  1.00  0.00     0.275 C 
BRANCH   2   3
ATOM      3  O   UNL A   1      35.251  22.333  24.757  1.00  0.00    -0.459 OA
BRANCH   3   4
ATOM      4  C   UNL A   1      34.559  22.997  25.712  1.00  0.00     0.338 C 
ATOM      5  O   UNL A   1      34.486  22.702  26.895  1.00  0.00    -0.246 OA
BRANCH   4   6
ATOM      6  C   UNL A   1      33.879  24.177  25.144  1.00  0.00     0.087 C 
ATOM      7  C   UNL A   1      30.605  29.749  24.236  1.00  0.00     0.046 C 
ATOM      8  C   UNL A   1      31.501  28.602  24.631  1.00  0.00    -0.026 A 
ATOM      9  C   UNL A   1      32.316  28.685  25.776  1.00  0.00     0.045 A 
ATOM     10  C   UNL A   1      31.559  27.424  23.834  1.00  0.00    -0.004 A 
ATOM     11  Cl  UNL A   1      32.371  30.087  26.787  1.00  0.00    -0.084 Cl
ATOM     12  C   UNL A   1      33.124  27.615  26.153  1.00  0.00     0.032 A 
ATOM     13  C   UNL A   1      32.377  26.346  24.235  1.00  0.00     0.131 A 
ATOM     14  C   UNL A   1      30.756  27.265  22.567  1.00  0.00     0.049 C 
ATOM     15  C   UNL A   1      33.139  26.444  25.395  1.00  0.00     0.019 A 
ATOM     16  O   UNL A   1      32.396  25.231  23.436  1.00  0.00    -0.475 OA
ATOM     17  C   UNL A   1      33.924  25.315  25.842  1.00  0.00     0.027 C 
ATOM     18  C   UNL A   1      33.043  24.016  23.913  1.00  0.00     0.316 C 
BRANCH  18  19
ATOM     19  C   UNL A   1      31.975  22.928  24.105  1.00  0.00     0.430 C 
ATOM     20  F   UNL A   1      30.821  23.255  23.474  1.00  0.00    -0.167 F 
ATOM     21  F   UNL A   1      32.369  21.740  23.586  1.00  0.00    -0.167 F 
ATOM     22  F   UNL A   1      31.677  22.722  25.409  1.00  0.00    -0.167 F 
ENDBRANCH  18  19
ENDBRANCH   4   6
ENDBRANCH   3   4
ENDBRANCH   2   3
ENDBRANCH   1   2
BRANCH   1  23
ATOM     23  O   UNL A   1      37.642  21.440  25.123  1.00  0.00    -0.458 OA
BRANCH  23  24
ATOM     24  C   UNL A   1      38.779  21.130  25.783  1.00  0.00     0.338 C 
ATOM     25  O   UNL A   1      39.398  20.080  25.734  1.00  0.00    -0.246 OA
BRANCH  24  26
ATOM     26  C   UNL A   1      39.277  22.297  26.526  1.00  0.00     0.060 A 
ATOM     27  C   UNL A   1      38.746  23.539  26.211  1.00  0.00     0.016 A 
ATOM     28  C   UNL A   1      40.403  22.206  27.336  1.00  0.00     0.016 A 
ATOM     29  C   UNL A   1      39.450  24.695  26.527  1.00  0.00     0.010 A 
ATOM     30  C   UNL A   1      41.003  23.380  27.810  1.00  0.00     0.010 A 
ATOM     31  C   UNL A   1      40.573  24.642  27.362  1.00  0.00    -0.014 A 
BRANCH  31  32
ATOM     32  C   UNL A   1      41.281  25.898  27.755  1.00  0.00     0.031 A 
ATOM     33  C   UNL A   1      40.583  26.948  28.586  1.00  0.00     0.074 A 
ATOM     34  C   UNL A   1      42.559  26.102  27.366  1.00  0.00     0.049 A 
ATOM     35  N   UNL A   1      40.966  28.168  28.865  1.00  0.00    -0.248 NA
ATOM     36  C   UNL A   1      39.278  26.590  29.167  1.00  0.00     0.031 C 
ATOM     37  C   UNL A   1      43.369  25.163  26.584  1.00  0.00     0.029 A 
ATOM     38  N   UNL A   1      43.406  27.165  27.570  1.00  0.00    -0.354 N 
ATOM     39  C   UNL A   1      39.923  28.745  29.582  1.00  0.00     0.074 A 
ATOM     40  C   UNL A   1      38.888  27.741  29.698  1.00  0.00     0.031 C 
ATOM     41  C   UNL A   1      44.601  25.662  26.420  1.00  0.00     0.029 A 
ATOM     42  C   UNL A   1      44.638  27.009  26.972  1.00  0.00     0.049 A 
ATOM     43  H   UNL A   1      43.158  27.961  28.093  1.00  0.00     0.167 HD
ATOM     44  C   UNL A   1      39.841  29.992  30.106  1.00  0.00     0.034 A 
ATOM     45  C   UNL A   1      45.669  27.863  26.827  1.00  0.00     0.034 A 
ATOM     46  C   UNL A   1      40.907  30.959  30.046  1.00  0.00     0.049 A 
ATOM     47  C   UNL A   1      45.542  29.247  27.393  1.00  0.00     0.074 A 
ATOM     48  C   UNL A   1      40.934  32.238  30.570  1.00  0.00     0.029 A 
ATOM     49  N   UNL A   1      42.136  30.749  29.441  1.00  0.00    -0.354 N 
ATOM     50  N   UNL A   1      44.556  29.768  28.080  1.00  0.00    -0.248 NA
ATOM     51  C   UNL A   1      46.672  30.160  27.173  1.00  0.00     0.031 C 
ATOM     52  C   UNL A   1      42.168  32.815  30.255  1.00  0.00     0.029 A 
ATOM     53  C   UNL A   1      42.926  31.880  29.570  1.00  0.00     0.049 A 
ATOM     54  H   UNL A   1      42.409  29.920  28.986  1.00  0.00     0.167 HD
ATOM     55  C   UNL A   1      44.951  31.061  28.395  1.00  0.00     0.074 A 
ATOM     56  C   UNL A   1      46.282  31.235  27.846  1.00  0.00     0.031 C 
ATOM     57  C   UNL A   1      44.268  32.022  29.061  1.00  0.00     0.034 A 
BRANCH  44  58
ATOM     58  C   UNL A   1      38.569  30.391  30.816  1.00  0.00     0.023 A 
ATOM     59  C   UNL A   1      38.421  30.130  32.193  1.00  0.00     0.012 A 
ATOM     60  C   UNL A   1      37.563  31.113  30.140  1.00  0.00     0.148 A 
ATOM     61  C   UNL A   1      37.283  30.555  32.879  1.00  0.00     0.002 A 
ATOM     62  C   UNL A   1      36.456  31.578  30.841  1.00  0.00     0.091 A 
ATOM     63  F   UNL A   1      37.713  31.341  28.827  1.00  0.00    -0.205 F 
ATOM     64  C   UNL A   1      36.307  31.290  32.207  1.00  0.00     0.022 A 
BRANCH  62  65
ATOM     65  S   UNL A   1      35.190  32.610  30.092  1.00  0.00     0.127 S 
ATOM     66  O   UNL A   1      34.684  31.736  29.034  1.00  0.00    -0.237 OA
ATOM     67  O   UNL A   1      34.265  32.818  31.206  1.00  0.00    -0.237 OA
ATOM     68  O   UNL A   1      35.869  33.812  29.629  1.00  0.00    -0.744 OA
ENDBRANCH  62  65
ENDBRANCH  44  58
BRANCH  45  69
ATOM     69  C   UNL A   1      46.906  27.416  26.123  1.00  0.00     0.023 A 
ATOM     70  C   UNL A   1      47.782  26.523  26.769  1.00  0.00     0.012 A 
ATOM     71  C   UNL A   1      47.184  27.808  24.797  1.00  0.00     0.148 A 
ATOM     72  C   UNL A   1      48.915  26.038  26.113  1.00  0.00     0.002 A 
ATOM     73  C   UNL A   1      48.274  27.267  24.127  1.00  0.00     0.091 A 
ATOM     74  F   UNL A   1      46.349  28.673  24.203  1.00  0.00    -0.205 F 
ATOM     75  C   UNL A   1      49.151  26.396  24.788  1.00  0.00     0.022 A 
BRANCH  73  76
ATOM     76  S   UNL A   1      48.568  27.546  22.375  1.00  0.00     0.127 S 
ATOM     77  O   UNL A   1      49.831  28.278  22.396  1.00  0.00    -0.237 OA
ATOM     78  O   UNL A   1      48.656  26.177  21.865  1.00  0.00    -0.237 OA
ATOM     79  O   UNL A   1      47.413  28.293  21.894  1.00  0.00    -0.744 OA
ENDBRANCH  73  76
ENDBRANCH  45  69
BRANCH  57  80
ATOM     80  C   UNL A   1      44.947  33.350  29.269  1.00  0.00     0.023 A 
ATOM     81  C   UNL A   1      45.750  33.554  30.408  1.00  0.00     0.012 A 
ATOM     82  C   UNL A   1      44.872  34.356  28.284  1.00  0.00     0.148 A 
ATOM     83  C   UNL A   1      46.449  34.748  30.577  1.00  0.00     0.002 A 
ATOM     84  C   UNL A   1      45.616  35.519  28.431  1.00  0.00     0.091 A 
ATOM     85  F   UNL A   1      44.087  34.147  27.217  1.00  0.00    -0.205 F 
ATOM     86  C   UNL A   1      46.395  35.722  29.582  1.00  0.00     0.022 A 
BRANCH  84  87
ATOM     87  S   UNL A   1      45.698  36.782  27.156  1.00  0.00     0.127 S 
ATOM     88  O   UNL A   1      44.293  37.161  27.022  1.00  0.00    -0.237 OA
ATOM     89  O   UNL A   1      46.547  37.796  27.782  1.00  0.00    -0.237 OA
ATOM     90  O   UNL A   1      46.283  36.139  25.987  1.00  0.00    -0.744 OA
ENDBRANCH  84  87
ENDBRANCH  57  80
ENDBRANCH  31  32
ENDBRANCH  24  26
ENDBRANCH  23  24
ENDBRANCH   1  23
TORSDOF 15
ENDMDL
MODEL 2
REMARK VINA RESULT:     -12.7      5.216     10.091
REMARK SMILES Cc1c(Cl)cc2c(c1C)O[C@H](C(F)(F)F)C(C(=O)OCCOC(=O)c1ccc(-c3c4nc(c(-c5cccc(S(=O)(=O)[O-])c5F)c5ccc([nH]5)c(-c5cccc(S(=O)(=O)[O-])c5F)c5nc(c(-c6cccc(S(=O)(=O)[O-])c6F)c6ccc3[nH]6)C=C5)C=C4)cc1)=C2
REMARK SMILES IDX 21 1 20 2 19 3 17 4 18 5 16 6 1 7 2 8 3 9 8 10 4 11 5 12
REMARK SMILES IDX 7 13 9 14 6 15 10 16 88 17 11 18 12 19 13 20 14 21 15 22
REMARK SMILES IDX 22 23 23 24 24 25 25 26 26 27 87 28 27 29 86 30 28 31 29 32
REMARK SMILES IDX 30 33 80 34 31 35 85 36 79 37 81 38 32 39 84 40 78 41 77 42
REMARK SMILES IDX 33 44 65 45 45 46 64 47 46 48 49 49 63 50 82 51 47 52 48 53
REMARK SMILES IDX 62 55 83 56 50 57 34 58 35 59 43 60 36 61 38 62 44 63 37 64
REMARK SMILES IDX 39 65 40 66 41 67 42 68 66 69 67 70 75 71 68 72 70 73 76 74
REMARK SMILES IDX 69 75 71 76 72 77 73 78 74 79 51 80 52 81 60 82 53 83 55 84
REMARK SMILES IDX 61 85 54 86 56 87 57 88 58 89 59 90
REMARK H PARENT 81 43 49 54
REMARK Flexibility Score: inf
ROOT
ATOM      1  C   UNL A   1      31.401  30.447  25.520  1.00  0.00     0.275 C 
ENDROOT
BRANCH   1   2
ATOM      2  C   UNL A   1      31.194  29.307  24.521  1.00  0.00     0.275 C 
BRANCH   2   3
ATOM      3  O   UNL A   1      31.764  28.069  25.000  1.00  0.00    -0.459 OA
BRANCH   3   4
ATOM      4  C   UNL A   1      32.661  27.487  24.171  1.00  0.00     0.338 C 
ATOM      5  O   UNL A   1      33.273  28.031  23.264  1.00  0.00    -0.246 OA
BRANCH   4   6
ATOM      6  C   UNL A   1      32.835  26.060  24.502  1.00  0.00     0.087 C 
ATOM      7  C   UNL A   1      34.919  19.892  24.962  1.00  0.00     0.046 C 
ATOM      8  C   UNL A   1      34.697  21.383  24.897  1.00  0.00    -0.026 A 
ATOM      9  C   UNL A   1      35.786  22.271  24.812  1.00  0.00     0.045 A 
ATOM     10  C   UNL A   1      33.379  21.920  24.952  1.00  0.00    -0.004 A 
ATOM     11  Cl  UNL A   1      37.431  21.737  24.798  1.00  0.00    -0.084 Cl
ATOM     12  C   UNL A   1      35.578  23.645  24.727  1.00  0.00     0.032 A 
ATOM     13  C   UNL A   1      33.186  23.314  24.856  1.00  0.00     0.131 A 
ATOM     14  C   UNL A   1      32.157  21.047  25.088  1.00  0.00     0.049 C 
ATOM     15  C   UNL A   1      34.282  24.162  24.731  1.00  0.00     0.019 A 
ATOM     16  O   UNL A   1      31.898  23.783  24.908  1.00  0.00    -0.475 OA
ATOM     17  C   UNL A   1      34.082  25.584  24.564  1.00  0.00     0.027 C 
ATOM     18  C   UNL A   1      31.627  25.180  24.594  1.00  0.00     0.316 C 
BRANCH  18  19
ATOM     19  C   UNL A   1      30.793  25.245  23.305  1.00  0.00     0.430 C 
ATOM     20  F   UNL A   1      30.076  24.109  23.125  1.00  0.00    -0.167 F 
ATOM     21  F   UNL A   1      29.895  26.260  23.341  1.00  0.00    -0.167 F 
ATOM     22  F   UNL A   1      31.558  25.419  22.204  1.00  0.00    -0.167 F 
ENDBRANCH  18  19
ENDBRANCH   4   6
ENDBRANCH   3   4
ENDBRANCH   2   3
ENDBRANCH   1   2
BRANCH   1  23
ATOM     23  O   UNL A   1      32.537  30.186  26.362  1.00  0.00    -0.458 OA
BRANCH  23  24
ATOM     24  C   UNL A   1      33.049  31.276  26.976  1.00  0.00     0.338 C 
ATOM     25  O   UNL A   1      32.464  32.309  27.255  1.00  0.00    -0.246 OA
BRANCH  24  26
ATOM     26  C   UNL A   1      34.438  31.029  27.389  1.00  0.00     0.060 A 
ATOM     27  C   UNL A   1      34.830  29.712  27.584  1.00  0.00     0.016 A 
ATOM     28  C   UNL A   1      35.260  32.070  27.806  1.00  0.00     0.016 A 
ATOM     29  C   UNL A   1      35.937  29.429  28.375  1.00  0.00     0.010 A 
ATOM     30  C   UNL A   1      36.473  31.773  28.441  1.00  0.00     0.010 A 
ATOM     31  C   UNL A   1      36.799  30.450  28.792  1.00  0.00    -0.014 A 
BRANCH  31  32
ATOM     32  C   UNL A   1      38.025  30.128  29.582  1.00  0.00     0.031 A 
ATOM     33  C   UNL A   1      39.099  29.235  29.008  1.00  0.00     0.074 A 
ATOM     34  C   UNL A   1      38.181  30.636  30.824  1.00  0.00     0.049 A 
ATOM     35  N   UNL A   1      40.133  28.698  29.605  1.00  0.00    -0.248 NA
ATOM     36  C   UNL A   1      38.993  28.884  27.581  1.00  0.00     0.031 C 
ATOM     37  C   UNL A   1      37.239  31.536  31.498  1.00  0.00     0.029 A 
ATOM     38  N   UNL A   1      39.185  30.472  31.748  1.00  0.00    -0.354 N 
ATOM     39  C   UNL A   1      40.751  27.890  28.656  1.00  0.00     0.074 A 
ATOM     40  C   UNL A   1      39.977  28.006  27.439  1.00  0.00     0.031 C 
ATOM     41  C   UNL A   1      37.729  31.883  32.694  1.00  0.00     0.029 A 
ATOM     42  C   UNL A   1      38.956  31.137  32.933  1.00  0.00     0.049 A 
ATOM     43  H   UNL A   1      39.990  29.931  31.580  1.00  0.00     0.167 HD
ATOM     44  C   UNL A   1      41.867  27.132  28.783  1.00  0.00     0.034 A 
ATOM     45  C   UNL A   1      39.617  31.115  34.106  1.00  0.00     0.034 A 
ATOM     46  C   UNL A   1      42.669  27.081  29.978  1.00  0.00     0.049 A 
ATOM     47  C   UNL A   1      40.835  30.246  34.230  1.00  0.00     0.074 A 
ATOM     48  C   UNL A   1      43.833  26.366  30.200  1.00  0.00     0.029 A 
ATOM     49  N   UNL A   1      42.402  27.780  31.146  1.00  0.00    -0.354 N 
ATOM     50  N   UNL A   1      41.411  29.503  33.317  1.00  0.00    -0.248 NA
ATOM     51  C   UNL A   1      41.500  30.217  35.539  1.00  0.00     0.031 C 
ATOM     52  C   UNL A   1      44.253  26.609  31.510  1.00  0.00     0.029 A 
ATOM     53  C   UNL A   1      43.374  27.507  32.094  1.00  0.00     0.049 A 
ATOM     54  H   UNL A   1      41.636  28.382  31.281  1.00  0.00     0.167 HD
ATOM     55  C   UNL A   1      42.519  28.935  33.933  1.00  0.00     0.074 A 
ATOM     56  C   UNL A   1      42.548  29.443  35.290  1.00  0.00     0.031 C 
ATOM     57  C   UNL A   1      43.418  28.058  33.425  1.00  0.00     0.034 A 
BRANCH  44  58
ATOM     58  C   UNL A   1      42.315  26.308  27.600  1.00  0.00     0.023 A 
ATOM     59  C   UNL A   1      43.233  26.845  26.676  1.00  0.00     0.012 A 
ATOM     60  C   UNL A   1      41.901  24.966  27.459  1.00  0.00     0.148 A 
ATOM     61  C   UNL A   1      43.712  26.072  25.617  1.00  0.00     0.002 A 
ATOM     62  C   UNL A   1      42.421  24.187  26.431  1.00  0.00     0.091 A 
ATOM     63  F   UNL A   1      41.016  24.475  28.338  1.00  0.00    -0.205 F 
ATOM     64  C   UNL A   1      43.316  24.741  25.502  1.00  0.00     0.022 A 
BRANCH  62  65
ATOM     65  S   UNL A   1      42.048  22.438  26.249  1.00  0.00     0.127 S 
ATOM     66  O   UNL A   1      42.744  22.116  25.005  1.00  0.00    -0.237 OA
ATOM     67  O   UNL A   1      42.655  21.869  27.452  1.00  0.00    -0.237 OA
ATOM     68  O   UNL A   1      40.596  22.338  26.191  1.00  0.00    -0.744 OA
ENDBRANCH  62  65
ENDBRANCH  44  58
BRANCH  45  69
ATOM     69  C   UNL A   1      39.138  31.954  35.242  1.00  0.00     0.023 A 
ATOM     70  C   UNL A   1      38.259  31.395  36.190  1.00  0.00     0.012 A 
ATOM     71  C   UNL A   1      39.601  33.273  35.433  1.00  0.00     0.148 A 
ATOM     72  C   UNL A   1      37.843  32.136  37.298  1.00  0.00     0.002 A 
ATOM     73  C   UNL A   1      39.238  33.979  36.574  1.00  0.00     0.091 A 
ATOM     74  F   UNL A   1      40.423  33.796  34.512  1.00  0.00    -0.205 F 
ATOM     75  C   UNL A   1      38.345  33.419  37.498  1.00  0.00     0.022 A 
BRANCH  73  76
ATOM     76  S   UNL A   1      39.958  35.571  36.995  1.00  0.00     0.127 S 
ATOM     77  O   UNL A   1      39.277  35.885  38.248  1.00  0.00    -0.237 OA
ATOM     78  O   UNL A   1      41.375  35.233  37.130  1.00  0.00    -0.237 OA
ATOM     79  O   UNL A   1      39.654  36.452  35.874  1.00  0.00    -0.744 OA
ENDBRANCH  73  76
ENDBRANCH  45  69
BRANCH  57  80
ATOM     80  C   UNL A   1      44.538  27.603  34.323  1.00  0.00     0.023 A 
ATOM     81  C   UNL A   1      45.716  28.368  34.414  1.00  0.00     0.012 A 
ATOM     82  C   UNL A   1      44.378  26.475  35.154  1.00  0.00     0.148 A 
ATOM     83  C   UNL A   1      46.731  28.006  35.299  1.00  0.00     0.002 A 
ATOM     84  C   UNL A   1      45.367  26.152  36.073  1.00  0.00     0.091 A 
ATOM     85  F   UNL A   1      43.256  25.750  35.038  1.00  0.00    -0.205 F 
ATOM     86  C   UNL A   1      46.549  26.909  36.138  1.00  0.00     0.022 A 
BRANCH  84  87
ATOM     87  S   UNL A   1      45.179  24.826  37.270  1.00  0.00     0.127 S 
ATOM     88  O   UNL A   1      46.477  24.845  37.942  1.00  0.00    -0.237 OA
ATOM     89  O   UNL A   1      44.062  25.305  38.086  1.00  0.00    -0.237 OA
ATOM     90  O   UNL A   1      44.894  23.623  36.499  1.00  0.00    -0.744 OA
ENDBRANCH  84  87
ENDBRANCH  57  80
ENDBRANCH  31  32
ENDBRANCH  24  26
ENDBRANCH  23  24
ENDBRANCH   1  23
TORSDOF 15
ENDMDL
MODEL 3
REMARK VINA RESULT:     -12.7      1.349      1.651
REMARK SMILES Cc1c(Cl)cc2c(c1C)O[C@H](C(F)(F)F)C(C(=O)OCCOC(=O)c1ccc(-c3c4nc(c(-c5cccc(S(=O)(=O)[O-])c5F)c5ccc([nH]5)c(-c5cccc(S(=O)(=O)[O-])c5F)c5nc(c(-c6cccc(S(=O)(=O)[O-])c6F)c6ccc3[nH]6)C=C5)C=C4)cc1)=C2
REMARK SMILES IDX 21 1 20 2 19 3 17 4 18 5 16 6 1 7 2 8 3 9 8 10 4 11 5 12
REMARK SMILES IDX 7 13 9 14 6 15 10 16 88 17 11 18 12 19 13 20 14 21 15 22
REMARK SMILES IDX 22 23 23 24 24 25 25 26 26 27 87 28 27 29 86 30 28 31 29 32
REMARK SMILES IDX 30 33 80 34 31 35 85 36 79 37 81 38 32 39 84 40 78 41 77 42
REMARK SMILES IDX 33 44 65 45 45 46 64 47 46 48 49 49 63 50 82 51 47 52 48 53
REMARK SMILES IDX 62 55 83 56 50 57 34 58 35 59 43 60 36 61 38 62 44 63 37 64
REMARK SMILES IDX 39 65 40 66 41 67 42 68 66 69 67 70 75 71 68 72 70 73 76 74
REMARK SMILES IDX 69 75 71 76 72 77 73 78 74 79 51 80 52 81 60 82 53 83 55 84
REMARK SMILES IDX 61 85 54 86 56 87 57 88 58 89 59 90
REMARK H PARENT 81 43 49 54
REMARK Flexibility Score: inf
ROOT
ATOM      1  C   UNL A   1      36.826  20.117  24.823  1.00  0.00     0.275 C 
ENDROOT
BRANCH   1   2
ATOM      2  C   UNL A   1      35.382  20.587  25.006  1.00  0.00     0.275 C 
BRANCH   2   3
ATOM      3  O   UNL A   1      35.280  22.027  24.950  1.00  0.00    -0.459 OA
BRANCH   3   4
ATOM      4  C   UNL A   1      34.379  22.576  25.797  1.00  0.00     0.338 C 
ATOM      5  O   UNL A   1      34.072  22.157  26.902  1.00  0.00    -0.246 OA
BRANCH   4   6
ATOM      6  C   UNL A   1      33.789  23.798  25.218  1.00  0.00     0.087 C 
ATOM      7  C   UNL A   1      30.673  29.445  24.223  1.00  0.00     0.046 C 
ATOM      8  C   UNL A   1      31.503  28.266  24.666  1.00  0.00    -0.026 A 
ATOM      9  C   UNL A   1      32.136  28.263  25.924  1.00  0.00     0.045 A 
ATOM     10  C   UNL A   1      31.684  27.146  23.806  1.00  0.00    -0.004 A 
ATOM     11  Cl  UNL A   1      32.034  29.590  27.027  1.00  0.00    -0.084 Cl
ATOM     12  C   UNL A   1      32.881  27.163  26.341  1.00  0.00     0.032 A 
ATOM     13  C   UNL A   1      32.435  26.037  24.248  1.00  0.00     0.131 A 
ATOM     14  C   UNL A   1      31.080  27.083  22.425  1.00  0.00     0.049 C 
ATOM     15  C   UNL A   1      33.014  26.048  25.513  1.00  0.00     0.019 A 
ATOM     16  O   UNL A   1      32.577  24.980  23.384  1.00  0.00    -0.475 OA
ATOM     17  C   UNL A   1      33.725  24.884  25.993  1.00  0.00     0.027 C 
ATOM     18  C   UNL A   1      33.149  23.730  23.867  1.00  0.00     0.316 C 
BRANCH  18  19
ATOM     19  C   UNL A   1      32.067  22.639  23.819  1.00  0.00     0.430 C 
ATOM     20  F   UNL A   1      32.576  21.460  23.389  1.00  0.00    -0.167 F 
ATOM     21  F   UNL A   1      31.540  22.402  25.045  1.00  0.00    -0.167 F 
ATOM     22  F   UNL A   1      31.045  22.963  22.994  1.00  0.00    -0.167 F 
ENDBRANCH  18  19
ENDBRANCH   4   6
ENDBRANCH   3   4
ENDBRANCH   2   3
ENDBRANCH   1   2
BRANCH   1  23
ATOM     23  O   UNL A   1      37.746  21.202  25.034  1.00  0.00    -0.458 OA
BRANCH  23  24
ATOM     24  C   UNL A   1      38.837  20.886  25.767  1.00  0.00     0.338 C 
ATOM     25  O   UNL A   1      39.429  19.820  25.786  1.00  0.00    -0.246 OA
BRANCH  24  26
ATOM     26  C   UNL A   1      39.324  22.064  26.499  1.00  0.00     0.060 A 
ATOM     27  C   UNL A   1      38.813  23.304  26.143  1.00  0.00     0.016 A 
ATOM     28  C   UNL A   1      40.425  21.980  27.344  1.00  0.00     0.016 A 
ATOM     29  C   UNL A   1      39.518  24.460  26.456  1.00  0.00     0.010 A 
ATOM     30  C   UNL A   1      41.022  23.159  27.811  1.00  0.00     0.010 A 
ATOM     31  C   UNL A   1      40.616  24.415  27.323  1.00  0.00    -0.014 A 
BRANCH  31  32
ATOM     32  C   UNL A   1      41.324  25.672  27.711  1.00  0.00     0.031 A 
ATOM     33  C   UNL A   1      40.622  26.732  28.527  1.00  0.00     0.074 A 
ATOM     34  C   UNL A   1      42.605  25.870  27.330  1.00  0.00     0.049 A 
ATOM     35  N   UNL A   1      41.005  27.953  28.797  1.00  0.00    -0.248 NA
ATOM     36  C   UNL A   1      39.312  26.382  29.101  1.00  0.00     0.031 C 
ATOM     37  C   UNL A   1      43.419  24.923  26.563  1.00  0.00     0.029 A 
ATOM     38  N   UNL A   1      43.454  26.933  27.531  1.00  0.00    -0.354 N 
ATOM     39  C   UNL A   1      39.958  28.540  29.501  1.00  0.00     0.074 A 
ATOM     40  C   UNL A   1      38.920  27.539  29.618  1.00  0.00     0.031 C 
ATOM     41  C   UNL A   1      44.653  25.418  26.404  1.00  0.00     0.029 A 
ATOM     42  C   UNL A   1      44.689  26.769  26.944  1.00  0.00     0.049 A 
ATOM     43  H   UNL A   1      43.203  27.735  28.045  1.00  0.00     0.167 HD
ATOM     44  C   UNL A   1      39.875  29.791  30.014  1.00  0.00     0.034 A 
ATOM     45  C   UNL A   1      45.723  27.620  26.799  1.00  0.00     0.034 A 
ATOM     46  C   UNL A   1      40.943  30.755  29.953  1.00  0.00     0.049 A 
ATOM     47  C   UNL A   1      45.596  29.009  27.351  1.00  0.00     0.074 A 
ATOM     48  C   UNL A   1      40.970  32.039  30.466  1.00  0.00     0.029 A 
ATOM     49  N   UNL A   1      42.177  30.537  29.359  1.00  0.00    -0.354 N 
ATOM     50  N   UNL A   1      44.605  29.538  28.026  1.00  0.00    -0.248 NA
ATOM     51  C   UNL A   1      46.729  29.918  27.132  1.00  0.00     0.031 C 
ATOM     52  C   UNL A   1      42.207  32.610  30.156  1.00  0.00     0.029 A 
ATOM     53  C   UNL A   1      42.969  31.667  29.484  1.00  0.00     0.049 A 
ATOM     54  H   UNL A   1      42.452  29.704  28.914  1.00  0.00     0.167 HD
ATOM     55  C   UNL A   1      45.001  30.833  28.332  1.00  0.00     0.074 A 
ATOM     56  C   UNL A   1      46.336  30.999  27.792  1.00  0.00     0.031 C 
ATOM     57  C   UNL A   1      44.314  31.802  28.985  1.00  0.00     0.034 A 
BRANCH  44  58
ATOM     58  C   UNL A   1      38.599  30.200  30.710  1.00  0.00     0.023 A 
ATOM     59  C   UNL A   1      38.438  29.948  32.088  1.00  0.00     0.012 A 
ATOM     60  C   UNL A   1      37.601  30.920  30.021  1.00  0.00     0.148 A 
ATOM     61  C   UNL A   1      37.296  30.382  32.761  1.00  0.00     0.002 A 
ATOM     62  C   UNL A   1      36.490  31.393  30.709  1.00  0.00     0.091 A 
ATOM     63  F   UNL A   1      37.763  31.138  28.708  1.00  0.00    -0.205 F 
ATOM     64  C   UNL A   1      36.329  31.115  32.076  1.00  0.00     0.022 A 
BRANCH  62  65
ATOM     65  S   UNL A   1      35.233  32.425  29.943  1.00  0.00     0.127 S 
ATOM     66  O   UNL A   1      34.321  32.660  31.061  1.00  0.00    -0.237 OA
ATOM     67  O   UNL A   1      36.007  33.595  29.530  1.00  0.00    -0.237 OA
ATOM     68  O   UNL A   1      34.680  31.641  28.846  1.00  0.00    -0.744 OA
ENDBRANCH  62  65
ENDBRANCH  44  58
BRANCH  45  69
ATOM     69  C   UNL A   1      46.965  27.164  26.109  1.00  0.00     0.023 A 
ATOM     70  C   UNL A   1      47.159  27.489  24.753  1.00  0.00     0.012 A 
ATOM     71  C   UNL A   1      47.985  26.479  26.802  1.00  0.00     0.148 A 
ATOM     72  C   UNL A   1      48.339  27.132  24.098  1.00  0.00     0.002 A 
ATOM     73  C   UNL A   1      49.184  26.188  26.163  1.00  0.00     0.091 A 
ATOM     74  F   UNL A   1      47.776  26.162  28.087  1.00  0.00    -0.205 F 
ATOM     75  C   UNL A   1      49.357  26.497  24.806  1.00  0.00     0.022 A 
BRANCH  73  76
ATOM     76  S   UNL A   1      50.606  25.518  27.034  1.00  0.00     0.127 S 
ATOM     77  O   UNL A   1      50.044  24.317  27.646  1.00  0.00    -0.237 OA
ATOM     78  O   UNL A   1      51.542  25.271  25.937  1.00  0.00    -0.237 OA
ATOM     79  O   UNL A   1      51.029  26.559  27.962  1.00  0.00    -0.744 OA
ENDBRANCH  73  76
ENDBRANCH  45  69
BRANCH  57  80
ATOM     80  C   UNL A   1      44.995  33.130  29.186  1.00  0.00     0.023 A 
ATOM     81  C   UNL A   1      45.779  33.348  30.335  1.00  0.00     0.012 A 
ATOM     82  C   UNL A   1      44.942  34.122  28.186  1.00  0.00     0.148 A 
ATOM     83  C   UNL A   1      46.480  34.541  30.500  1.00  0.00     0.002 A 
ATOM     84  C   UNL A   1      45.687  35.285  28.329  1.00  0.00     0.091 A 
ATOM     85  F   UNL A   1      44.175  33.902  27.108  1.00  0.00    -0.205 F 
ATOM     86  C   UNL A   1      46.446  35.501  29.491  1.00  0.00     0.022 A 
BRANCH  84  87
ATOM     87  S   UNL A   1      45.796  36.529  27.038  1.00  0.00     0.127 S 
ATOM     88  O   UNL A   1      44.417  37.007  26.968  1.00  0.00    -0.237 OA
ATOM     89  O   UNL A   1      46.745  37.485  27.612  1.00  0.00    -0.237 OA
ATOM     90  O   UNL A   1      46.276  35.837  25.849  1.00  0.00    -0.744 OA
ENDBRANCH  84  87
ENDBRANCH  57  80
ENDBRANCH  31  32
ENDBRANCH  24  26
ENDBRANCH  23  24
ENDBRANCH   1  23
TORSDOF 15
ENDMDL
