MODEL 1
REMARK VINA RESULT:     -12.6      0.000      0.000
REMARK SMILES Cc1ccc([C@H](C)NC(=O)[C@H]2[C@@H]3CC[C@@H](C3)[C@@H]2C(=O)OCCOC(=O)c2ccc(-c3c4nc(c(-c5cccc(S(=O)(=O)[O-])c5F)c5ccc([nH]5)c(-c5cccc(S(=O)(=O)[O-])c5F)c5nc(c(-c6cccc(S(=O)(=O)[O-])c6F)c6ccc3[nH]6)C=C5)C=C4)cc2)cc1
REMARK SMILES IDX 21 1 20 2 18 3 19 4 17 5 11 6 12 7 13 8 16 9 15 10 14 11
REMARK SMILES IDX 9 12 8 13 10 15 6 16 7 17 5 18 1 19 2 20 3 21 90 22 4 23
REMARK SMILES IDX 89 24 22 25 23 26 24 27 25 28 26 29 27 30 88 31 28 32 87 33
REMARK SMILES IDX 29 34 30 35 31 36 81 37 32 38 86 39 80 40 82 41 33 42 85 43
REMARK SMILES IDX 79 44 78 45 34 47 66 48 46 49 65 50 47 51 50 52 64 53 83 54
REMARK SMILES IDX 48 55 49 56 63 58 84 59 51 60 35 61 36 62 44 63 37 64 39 65
REMARK SMILES IDX 45 66 38 67 40 68 41 69 42 70 43 71 67 72 68 73 76 74 69 75
REMARK SMILES IDX 71 76 77 77 70 78 72 79 73 80 74 81 75 82 52 83 53 84 61 85
REMARK SMILES IDX 54 86 56 87 62 88 55 89 57 90 58 91 59 92 60 93
REMARK H PARENT 8 14 82 46 50 57
REMARK Flexibility Score: inf
ROOT
ATOM      1  C   UNL A   1      36.977  23.615  25.748  1.00  0.00     0.274 C 
ENDROOT
BRANCH   1   2
ATOM      2  O   UNL A   1      36.724  23.942  24.382  1.00  0.00    -0.462 OA
BRANCH   2   3
ATOM      3  C   UNL A   1      35.324  23.904  23.890  1.00  0.00     0.310 C 
ATOM      4  O   UNL A   1      35.363  23.101  22.921  1.00  0.00    -0.252 OA
BRANCH   3   5
ATOM      5  C   UNL A   1      33.695  25.014  24.883  1.00  0.00     0.115 C 
ATOM      6  C   UNL A   1      32.061  25.593  24.280  1.00  0.00     0.096 C 
ATOM      7  C   UNL A   1      31.748  26.928  25.001  1.00  0.00     0.002 C 
ATOM      8  C   UNL A   1      32.661  28.036  24.438  1.00  0.00     0.005 C 
ATOM      9  C   UNL A   1      32.299  26.765  26.392  1.00  0.00     0.009 C 
ATOM     10  C   UNL A   1      33.747  26.493  25.942  1.00  0.00     0.004 C 
ATOM     11  C   UNL A   1      33.937  27.865  25.255  1.00  0.00     0.005 C 
BRANCH   6  12
ATOM     12  C   UNL A   1      30.771  24.716  24.189  1.00  0.00     0.224 C 
ATOM     13  N   UNL A   1      30.295  23.810  25.067  1.00  0.00    -0.349 N 
ATOM     14  H   UNL A   1      29.448  23.391  24.788  1.00  0.00     0.164 HD
ATOM     15  O   UNL A   1      30.016  24.930  23.222  1.00  0.00    -0.275 OA
BRANCH  13  16
ATOM     16  C   UNL A   1      30.789  23.340  26.335  1.00  0.00     0.109 C 
ATOM     17  C   UNL A   1      29.702  22.705  27.202  1.00  0.00     0.036 C 
BRANCH  16  18
ATOM     18  C   UNL A   1      31.955  22.406  26.217  1.00  0.00    -0.026 A 
ATOM     19  C   UNL A   1      35.390  20.175  25.094  1.00  0.00     0.044 C 
ATOM     20  C   UNL A   1      34.210  20.937  25.556  1.00  0.00    -0.051 A 
ATOM     21  C   UNL A   1      33.112  20.920  24.711  1.00  0.00     0.004 A 
ATOM     22  C   UNL A   1      34.153  21.593  26.786  1.00  0.00     0.004 A 
ATOM     23  C   UNL A   1      32.007  21.661  25.037  1.00  0.00     0.006 A 
ATOM     24  C   UNL A   1      33.021  22.335  27.120  1.00  0.00     0.006 A 
ENDBRANCH  16  18
ENDBRANCH  13  16
ENDBRANCH   6  12
ENDBRANCH   3   5
ENDBRANCH   2   3
ENDBRANCH   1   2
BRANCH   1  25
ATOM     25  C   UNL A   1      38.414  23.965  26.155  1.00  0.00     0.275 C 
BRANCH  25  26
ATOM     26  O   UNL A   1      39.128  22.961  26.905  1.00  0.00    -0.458 OA
BRANCH  26  27
ATOM     27  C   UNL A   1      39.916  22.030  26.291  1.00  0.00     0.338 C 
ATOM     28  O   UNL A   1      39.511  20.910  26.017  1.00  0.00    -0.246 OA
BRANCH  27  29
ATOM     29  C   UNL A   1      41.369  22.286  26.482  1.00  0.00     0.060 A 
ATOM     30  C   UNL A   1      42.286  23.432  25.456  1.00  0.00     0.016 A 
ATOM     31  C   UNL A   1      41.766  22.136  28.216  1.00  0.00     0.016 A 
ATOM     32  C   UNL A   1      43.471  24.604  26.263  1.00  0.00     0.010 A 
ATOM     33  C   UNL A   1      42.938  23.240  28.973  1.00  0.00     0.010 A 
ATOM     34  C   UNL A   1      43.684  24.580  28.061  1.00  0.00    -0.014 A 
BRANCH  34  35
ATOM     35  C   UNL A   1      43.684  25.884  28.857  1.00  0.00     0.031 A 
ATOM     36  C   UNL A   1      42.423  26.652  28.980  1.00  0.00     0.074 A 
ATOM     37  C   UNL A   1      44.812  26.430  29.425  1.00  0.00     0.049 A 
ATOM     38  N   UNL A   1      42.361  27.904  29.282  1.00  0.00    -0.248 NA
ATOM     39  C   UNL A   1      41.122  26.084  28.664  1.00  0.00     0.031 C 
ATOM     40  C   UNL A   1      44.944  27.549  30.375  1.00  0.00     0.029 A 
ATOM     41  N   UNL A   1      46.162  26.152  29.146  1.00  0.00    -0.354 N 
ATOM     42  C   UNL A   1      41.034  28.274  29.330  1.00  0.00     0.074 A 
ATOM     43  C   UNL A   1      40.314  27.123  28.869  1.00  0.00     0.031 C 
ATOM     44  C   UNL A   1      46.207  28.018  30.362  1.00  0.00     0.029 A 
ATOM     45  C   UNL A   1      46.924  27.311  29.326  1.00  0.00     0.049 A 
ATOM     46  H   UNL A   1      46.516  25.276  28.867  1.00  0.00     0.167 HD
ATOM     47  C   UNL A   1      40.700  29.492  29.833  1.00  0.00     0.034 A 
ATOM     48  C   UNL A   1      47.651  27.876  28.315  1.00  0.00     0.034 A 
ATOM     49  C   UNL A   1      41.920  30.296  30.044  1.00  0.00     0.049 A 
ATOM     50  C   UNL A   1      47.206  29.301  28.004  1.00  0.00     0.074 A 
ATOM     51  C   UNL A   1      42.823  30.380  31.089  1.00  0.00     0.029 A 
ATOM     52  N   UNL A   1      42.558  30.863  28.950  1.00  0.00    -0.354 N 
ATOM     53  N   UNL A   1      46.165  29.883  28.545  1.00  0.00    -0.248 NA
ATOM     54  C   UNL A   1      47.898  30.191  27.078  1.00  0.00     0.031 C 
ATOM     55  C   UNL A   1      44.040  30.927  30.580  1.00  0.00     0.029 A 
ATOM     56  C   UNL A   1      43.869  31.251  29.242  1.00  0.00     0.049 A 
ATOM     57  H   UNL A   1      42.135  30.981  28.069  1.00  0.00     0.167 HD
ATOM     58  C   UNL A   1      45.943  31.117  27.981  1.00  0.00     0.074 A 
ATOM     59  C   UNL A   1      47.122  31.289  27.137  1.00  0.00     0.031 C 
ATOM     60  C   UNL A   1      44.766  31.817  28.195  1.00  0.00     0.034 A 
BRANCH  47  61
ATOM     61  C   UNL A   1      39.318  29.893  30.357  1.00  0.00     0.023 A 
ATOM     62  C   UNL A   1      38.680  28.942  31.184  1.00  0.00     0.012 A 
ATOM     63  C   UNL A   1      38.539  31.041  30.041  1.00  0.00     0.148 A 
ATOM     64  C   UNL A   1      37.349  29.071  31.603  1.00  0.00     0.002 A 
ATOM     65  C   UNL A   1      37.204  31.170  30.452  1.00  0.00     0.091 A 
ATOM     66  F   UNL A   1      39.059  32.046  29.341  1.00  0.00    -0.205 F 
ATOM     67  C   UNL A   1      36.603  30.175  31.224  1.00  0.00     0.022 A 
BRANCH  65  68
ATOM     68  S   UNL A   1      36.152  32.570  29.999  1.00  0.00     0.127 S 
ATOM     69  O   UNL A   1      36.627  33.617  30.906  1.00  0.00    -0.237 OA
ATOM     70  O   UNL A   1      36.501  32.785  28.595  1.00  0.00    -0.237 OA
ATOM     71  O   UNL A   1      34.775  32.152  30.228  1.00  0.00    -0.744 OA
ENDBRANCH  65  68
ENDBRANCH  47  61
BRANCH  48  72
ATOM     72  C   UNL A   1      48.262  26.870  27.375  1.00  0.00     0.023 A 
ATOM     73  C   UNL A   1      47.500  26.546  26.220  1.00  0.00     0.012 A 
ATOM     74  C   UNL A   1      49.635  26.562  27.365  1.00  0.00     0.148 A 
ATOM     75  C   UNL A   1      48.115  26.136  25.032  1.00  0.00     0.002 A 
ATOM     76  C   UNL A   1      50.245  26.137  26.176  1.00  0.00     0.091 A 
ATOM     77  F   UNL A   1      50.353  26.801  28.468  1.00  0.00    -0.205 F 
ATOM     78  C   UNL A   1      49.494  25.961  25.003  1.00  0.00     0.022 A 
BRANCH  76  79
ATOM     79  S   UNL A   1      52.035  25.958  26.046  1.00  0.00     0.127 S 
ATOM     80  O   UNL A   1      52.330  26.588  24.759  1.00  0.00    -0.237 OA
ATOM     81  O   UNL A   1      52.518  26.710  27.195  1.00  0.00    -0.237 OA
ATOM     82  O   UNL A   1      52.256  24.519  26.082  1.00  0.00    -0.744 OA
ENDBRANCH  76  79
ENDBRANCH  48  72
BRANCH  60  83
ATOM     83  C   UNL A   1      44.276  33.011  27.338  1.00  0.00     0.023 A 
ATOM     84  C   UNL A   1      44.138  32.950  25.937  1.00  0.00     0.012 A 
ATOM     85  C   UNL A   1      43.820  34.228  27.923  1.00  0.00     0.148 A 
ATOM     86  C   UNL A   1      43.609  33.996  25.166  1.00  0.00     0.002 A 
ATOM     87  C   UNL A   1      43.205  35.229  27.168  1.00  0.00     0.091 A 
ATOM     88  F   UNL A   1      44.000  34.457  29.228  1.00  0.00    -0.205 F 
ATOM     89  C   UNL A   1      43.119  35.129  25.784  1.00  0.00     0.022 A 
BRANCH  87  90
ATOM     90  S   UNL A   1      42.408  36.648  27.939  1.00  0.00     0.127 S 
ATOM     91  O   UNL A   1      41.921  37.380  26.773  1.00  0.00    -0.237 OA
ATOM     92  O   UNL A   1      41.362  36.012  28.743  1.00  0.00    -0.237 OA
ATOM     93  O   UNL A   1      43.449  37.300  28.720  1.00  0.00    -0.744 OA
ENDBRANCH  87  90
ENDBRANCH  60  83
ENDBRANCH  34  35
ENDBRANCH  27  29
ENDBRANCH  26  27
ENDBRANCH  25  26
ENDBRANCH   1  25
TORSDOF 17
ENDMDL
MODEL 2
REMARK VINA RESULT:     -12.2      1.686      3.277
REMARK SMILES Cc1ccc([C@H](C)NC(=O)[C@H]2[C@@H]3CC[C@@H](C3)[C@@H]2C(=O)OCCOC(=O)c2ccc(-c3c4nc(c(-c5cccc(S(=O)(=O)[O-])c5F)c5ccc([nH]5)c(-c5cccc(S(=O)(=O)[O-])c5F)c5nc(c(-c6cccc(S(=O)(=O)[O-])c6F)c6ccc3[nH]6)C=C5)C=C4)cc2)cc1
REMARK SMILES IDX 21 1 20 2 18 3 19 4 17 5 11 6 12 7 13 8 16 9 15 10 14 11
REMARK SMILES IDX 9 12 8 13 10 15 6 16 7 17 5 18 1 19 2 20 3 21 90 22 4 23
REMARK SMILES IDX 89 24 22 25 23 26 24 27 25 28 26 29 27 30 88 31 28 32 87 33
REMARK SMILES IDX 29 34 30 35 31 36 81 37 32 38 86 39 80 40 82 41 33 42 85 43
REMARK SMILES IDX 79 44 78 45 34 47 66 48 46 49 65 50 47 51 50 52 64 53 83 54
REMARK SMILES IDX 48 55 49 56 63 58 84 59 51 60 35 61 36 62 44 63 37 64 39 65
REMARK SMILES IDX 45 66 38 67 40 68 41 69 42 70 43 71 67 72 68 73 76 74 69 75
REMARK SMILES IDX 71 76 77 77 70 78 72 79 73 80 74 81 75 82 52 83 53 84 61 85
REMARK SMILES IDX 54 86 56 87 62 88 55 89 57 90 58 91 59 92 60 93
REMARK H PARENT 8 14 82 46 50 57
REMARK Flexibility Score: inf
ROOT
ATOM      1  C   UNL A   1      38.415  22.691  26.280  1.00  0.00     0.274 C 
ENDROOT
BRANCH   1   2
ATOM      2  O   UNL A   1      37.159  22.430  25.652  1.00  0.00    -0.462 OA
BRANCH   2   3
ATOM      3  C   UNL A   1      36.099  23.465  25.728  1.00  0.00     0.310 C 
ATOM      4  O   UNL A   1      36.703  24.490  26.143  1.00  0.00    -0.252 OA
BRANCH   3   5
ATOM      5  C   UNL A   1      34.023  23.076  25.088  1.00  0.00     0.115 C 
ATOM      6  C   UNL A   1      32.519  22.602  26.027  1.00  0.00     0.096 C 
ATOM      7  C   UNL A   1      31.669  21.688  25.109  1.00  0.00     0.002 C 
ATOM      8  C   UNL A   1      32.360  20.316  24.979  1.00  0.00     0.005 C 
ATOM      9  C   UNL A   1      31.846  22.245  23.722  1.00  0.00     0.009 C 
ATOM     10  C   UNL A   1      33.380  22.090  23.700  1.00  0.00     0.004 C 
ATOM     11  C   UNL A   1      33.364  20.552  23.856  1.00  0.00     0.005 C 
BRANCH   6  12
ATOM     12  C   UNL A   1      31.593  23.591  26.806  1.00  0.00     0.224 C 
ATOM     13  N   UNL A   1      31.432  24.919  26.635  1.00  0.00    -0.349 N 
ATOM     14  H   UNL A   1      30.776  25.323  27.248  1.00  0.00     0.164 HD
ATOM     15  O   UNL A   1      30.825  23.092  27.649  1.00  0.00    -0.275 OA
BRANCH  13  16
ATOM     16  C   UNL A   1      32.035  25.857  25.725  1.00  0.00     0.109 C 
ATOM     17  C   UNL A   1      31.161  26.156  24.507  1.00  0.00     0.036 C 
BRANCH  16  18
ATOM     18  C   UNL A   1      32.458  27.139  26.375  1.00  0.00    -0.026 A 
ATOM     19  C   UNL A   1      34.012  30.954  27.409  1.00  0.00     0.044 C 
ATOM     20  C   UNL A   1      33.421  29.634  27.102  1.00  0.00    -0.051 A 
ATOM     21  C   UNL A   1      34.301  28.671  26.635  1.00  0.00     0.004 A 
ATOM     22  C   UNL A   1      32.077  29.326  27.316  1.00  0.00     0.004 A 
ATOM     23  C   UNL A   1      33.816  27.446  26.263  1.00  0.00     0.006 A 
ATOM     24  C   UNL A   1      31.589  28.073  26.948  1.00  0.00     0.006 A 
ENDBRANCH  16  18
ENDBRANCH  13  16
ENDBRANCH   6  12
ENDBRANCH   3   5
ENDBRANCH   2   3
ENDBRANCH   1   2
BRANCH   1  25
ATOM     25  C   UNL A   1      39.427  21.572  26.003  1.00  0.00     0.275 C 
BRANCH  25  26
ATOM     26  O   UNL A   1      40.819  21.914  26.169  1.00  0.00    -0.458 OA
BRANCH  26  27
ATOM     27  C   UNL A   1      41.817  21.125  25.674  1.00  0.00     0.338 C 
ATOM     28  O   UNL A   1      41.753  19.905  25.689  1.00  0.00    -0.246 OA
BRANCH  27  29
ATOM     29  C   UNL A   1      43.134  21.816  25.635  1.00  0.00     0.060 A 
ATOM     30  C   UNL A   1      43.448  23.229  24.581  1.00  0.00     0.016 A 
ATOM     31  C   UNL A   1      43.885  21.733  27.252  1.00  0.00     0.016 A 
ATOM     32  C   UNL A   1      44.358  24.682  25.279  1.00  0.00     0.010 A 
ATOM     33  C   UNL A   1      44.795  23.119  27.898  1.00  0.00     0.010 A 
ATOM     34  C   UNL A   1      44.913  24.658  27.003  1.00  0.00    -0.014 A 
BRANCH  34  35
ATOM     35  C   UNL A   1      44.675  25.867  27.908  1.00  0.00     0.031 A 
ATOM     36  C   UNL A   1      43.317  26.454  27.982  1.00  0.00     0.074 A 
ATOM     37  C   UNL A   1      45.671  26.490  28.623  1.00  0.00     0.049 A 
ATOM     38  N   UNL A   1      43.065  27.652  28.386  1.00  0.00    -0.248 NA
ATOM     39  C   UNL A   1      42.133  25.762  27.499  1.00  0.00     0.031 C 
ATOM     40  C   UNL A   1      45.576  27.516  29.678  1.00  0.00     0.029 A 
ATOM     41  N   UNL A   1      47.064  26.413  28.447  1.00  0.00    -0.354 N 
ATOM     42  C   UNL A   1      41.701  27.846  28.345  1.00  0.00     0.074 A 
ATOM     43  C   UNL A   1      41.180  26.666  27.720  1.00  0.00     0.031 C 
ATOM     44  C   UNL A   1      46.762  28.139  29.821  1.00  0.00     0.029 A 
ATOM     45  C   UNL A   1      47.648  27.634  28.798  1.00  0.00     0.049 A 
ATOM     46  H   UNL A   1      47.553  25.621  28.125  1.00  0.00     0.167 HD
ATOM     47  C   UNL A   1      41.167  28.956  28.921  1.00  0.00     0.034 A 
ATOM     48  C   UNL A   1      48.371  28.385  27.912  1.00  0.00     0.034 A 
ATOM     49  C   UNL A   1      42.248  29.882  29.314  1.00  0.00     0.049 A 
ATOM     50  C   UNL A   1      47.766  29.767  27.688  1.00  0.00     0.074 A 
ATOM     51  C   UNL A   1      43.046  29.974  30.441  1.00  0.00     0.029 A 
ATOM     52  N   UNL A   1      42.890  30.631  28.337  1.00  0.00    -0.354 N 
ATOM     53  N   UNL A   1      46.616  30.156  28.181  1.00  0.00    -0.248 NA
ATOM     54  C   UNL A   1      48.404  30.824  26.912  1.00  0.00     0.031 C 
ATOM     55  C   UNL A   1      44.216  30.717  30.096  1.00  0.00     0.029 A 
ATOM     56  C   UNL A   1      44.110  31.149  28.782  1.00  0.00     0.049 A 
ATOM     57  H   UNL A   1      42.527  30.781  27.435  1.00  0.00     0.167 HD
ATOM     58  C   UNL A   1      46.277  31.403  27.711  1.00  0.00     0.074 A 
ATOM     59  C   UNL A   1      47.486  31.805  26.997  1.00  0.00     0.031 C 
ATOM     60  C   UNL A   1      45.004  31.924  27.877  1.00  0.00     0.034 A 
BRANCH  47  61
ATOM     61  C   UNL A   1      39.707  29.126  29.350  1.00  0.00     0.023 A 
ATOM     62  C   UNL A   1      38.772  29.248  28.298  1.00  0.00     0.012 A 
ATOM     63  C   UNL A   1      39.172  29.291  30.658  1.00  0.00     0.148 A 
ATOM     64  C   UNL A   1      37.429  29.585  28.510  1.00  0.00     0.002 A 
ATOM     65  C   UNL A   1      37.829  29.634  30.874  1.00  0.00     0.091 A 
ATOM     66  F   UNL A   1      39.935  29.114  31.734  1.00  0.00    -0.205 F 
ATOM     67  C   UNL A   1      36.959  29.795  29.796  1.00  0.00     0.022 A 
BRANCH  65  68
ATOM     68  S   UNL A   1      37.129  29.938  32.515  1.00  0.00     0.127 S 
ATOM     69  O   UNL A   1      37.155  28.601  33.110  1.00  0.00    -0.237 OA
ATOM     70  O   UNL A   1      38.087  30.876  33.098  1.00  0.00    -0.237 OA
ATOM     71  O   UNL A   1      35.793  30.480  32.306  1.00  0.00    -0.744 OA
ENDBRANCH  65  68
ENDBRANCH  47  61
BRANCH  48  72
ATOM     72  C   UNL A   1      49.184  27.561  26.946  1.00  0.00     0.023 A 
ATOM     73  C   UNL A   1      48.676  27.463  25.623  1.00  0.00     0.012 A 
ATOM     74  C   UNL A   1      50.539  27.247  27.156  1.00  0.00     0.148 A 
ATOM     75  C   UNL A   1      49.526  27.271  24.529  1.00  0.00     0.002 A 
ATOM     76  C   UNL A   1      51.385  27.041  26.057  1.00  0.00     0.091 A 
ATOM     77  F   UNL A   1      51.016  27.272  28.405  1.00  0.00    -0.205 F 
ATOM     78  C   UNL A   1      50.887  27.091  24.745  1.00  0.00     0.022 A 
BRANCH  76  79
ATOM     79  S   UNL A   1      53.169  26.871  26.259  1.00  0.00     0.127 S 
ATOM     80  O   UNL A   1      53.634  26.704  24.882  1.00  0.00    -0.237 OA
ATOM     81  O   UNL A   1      53.548  28.142  26.858  1.00  0.00    -0.237 OA
ATOM     82  O   UNL A   1      53.325  25.693  27.099  1.00  0.00    -0.744 OA
ENDBRANCH  76  79
ENDBRANCH  48  72
BRANCH  60  83
ATOM     83  C   UNL A   1      44.428  33.127  27.087  1.00  0.00     0.023 A 
ATOM     84  C   UNL A   1      44.239  33.114  25.691  1.00  0.00     0.012 A 
ATOM     85  C   UNL A   1      43.944  34.299  27.737  1.00  0.00     0.148 A 
ATOM     86  C   UNL A   1      43.634  34.163  24.983  1.00  0.00     0.002 A 
ATOM     87  C   UNL A   1      43.256  35.300  27.047  1.00  0.00     0.091 A 
ATOM     88  F   UNL A   1      44.165  34.486  29.043  1.00  0.00    -0.205 F 
ATOM     89  C   UNL A   1      43.120  35.248  25.664  1.00  0.00     0.022 A 
BRANCH  87  90
ATOM     90  S   UNL A   1      42.429  36.650  27.904  1.00  0.00     0.127 S 
ATOM     91  O   UNL A   1      41.451  35.928  28.714  1.00  0.00    -0.237 OA
ATOM     92  O   UNL A   1      43.528  37.249  28.663  1.00  0.00    -0.237 OA
ATOM     93  O   UNL A   1      41.892  37.504  26.854  1.00  0.00    -0.744 OA
ENDBRANCH  87  90
ENDBRANCH  60  83
ENDBRANCH  34  35
ENDBRANCH  27  29
ENDBRANCH  26  27
ENDBRANCH  25  26
ENDBRANCH   1  25
TORSDOF 17
ENDMDL
MODEL 3
REMARK VINA RESULT:     -12.1      4.903     10.360
REMARK SMILES Cc1ccc([C@H](C)NC(=O)[C@H]2[C@@H]3CC[C@@H](C3)[C@@H]2C(=O)OCCOC(=O)c2ccc(-c3c4nc(c(-c5cccc(S(=O)(=O)[O-])c5F)c5ccc([nH]5)c(-c5cccc(S(=O)(=O)[O-])c5F)c5nc(c(-c6cccc(S(=O)(=O)[O-])c6F)c6ccc3[nH]6)C=C5)C=C4)cc2)cc1
REMARK SMILES IDX 21 1 20 2 18 3 19 4 17 5 11 6 12 7 13 8 16 9 15 10 14 11
REMARK SMILES IDX 9 12 8 13 10 15 6 16 7 17 5 18 1 19 2 20 3 21 90 22 4 23
REMARK SMILES IDX 89 24 22 25 23 26 24 27 25 28 26 29 27 30 88 31 28 32 87 33
REMARK SMILES IDX 29 34 30 35 31 36 81 37 32 38 86 39 80 40 82 41 33 42 85 43
REMARK SMILES IDX 79 44 78 45 34 47 66 48 46 49 65 50 47 51 50 52 64 53 83 54
REMARK SMILES IDX 48 55 49 56 63 58 84 59 51 60 35 61 36 62 44 63 37 64 39 65
REMARK SMILES IDX 45 66 38 67 40 68 41 69 42 70 43 71 67 72 68 73 76 74 69 75
REMARK SMILES IDX 71 76 77 77 70 78 72 79 73 80 74 81 75 82 52 83 53 84 61 85
REMARK SMILES IDX 54 86 56 87 62 88 55 89 57 90 58 91 59 92 60 93
REMARK H PARENT 8 14 82 46 50 57
REMARK Flexibility Score: inf
ROOT
ATOM      1  C   UNL A   1      33.434  29.537  26.526  1.00  0.00     0.274 C 
ENDROOT
BRANCH   1   2
ATOM      2  O   UNL A   1      33.979  28.263  26.183  1.00  0.00    -0.462 OA
BRANCH   2   3
ATOM      3  C   UNL A   1      33.793  27.761  24.799  1.00  0.00     0.310 C 
ATOM      4  O   UNL A   1      33.762  28.806  24.098  1.00  0.00    -0.252 OA
BRANCH   3   5
ATOM      5  C   UNL A   1      33.730  25.606  24.325  1.00  0.00     0.115 C 
ATOM      6  C   UNL A   1      32.500  24.301  24.712  1.00  0.00     0.096 C 
ATOM      7  C   UNL A   1      33.278  22.977  24.916  1.00  0.00     0.002 C 
ATOM      8  C   UNL A   1      34.047  23.040  26.252  1.00  0.00     0.005 C 
ATOM      9  C   UNL A   1      34.405  23.023  23.920  1.00  0.00     0.009 C 
ATOM     10  C   UNL A   1      35.020  24.329  24.458  1.00  0.00     0.004 C 
ATOM     11  C   UNL A   1      35.332  23.764  25.864  1.00  0.00     0.005 C 
BRANCH   6  12
ATOM     12  C   UNL A   1      31.186  24.034  23.911  1.00  0.00     0.224 C 
ATOM     13  N   UNL A   1      30.045  24.753  23.884  1.00  0.00    -0.349 N 
ATOM     14  H   UNL A   1      29.354  24.383  23.287  1.00  0.00     0.164 HD
ATOM     15  O   UNL A   1      31.201  23.078  23.114  1.00  0.00    -0.275 OA
BRANCH  13  16
ATOM     16  C   UNL A   1      29.646  25.959  24.561  1.00  0.00     0.109 C 
ATOM     17  C   UNL A   1      30.551  26.309  25.742  1.00  0.00     0.036 C 
BRANCH  16  18
ATOM     18  C   UNL A   1      29.514  27.143  23.652  1.00  0.00    -0.026 A 
ATOM     19  C   UNL A   1      28.739  30.880  21.790  1.00  0.00     0.044 C 
ATOM     20  C   UNL A   1      29.065  29.569  22.391  1.00  0.00    -0.051 A 
ATOM     21  C   UNL A   1      27.992  28.853  22.896  1.00  0.00     0.004 A 
ATOM     22  C   UNL A   1      30.352  29.032  22.411  1.00  0.00     0.004 A 
ATOM     23  C   UNL A   1      28.223  27.663  23.532  1.00  0.00     0.006 A 
ATOM     24  C   UNL A   1      30.582  27.813  23.047  1.00  0.00     0.006 A 
ENDBRANCH  16  18
ENDBRANCH  13  16
ENDBRANCH   6  12
ENDBRANCH   3   5
ENDBRANCH   2   3
ENDBRANCH   1   2
BRANCH   1  25
ATOM     25  C   UNL A   1      34.519  30.497  27.032  1.00  0.00     0.275 C 
BRANCH  25  26
ATOM     26  O   UNL A   1      34.330  31.032  28.359  1.00  0.00    -0.458 OA
BRANCH  26  27
ATOM     27  C   UNL A   1      33.978  32.336  28.564  1.00  0.00     0.338 C 
ATOM     28  O   UNL A   1      33.449  33.014  27.696  1.00  0.00    -0.246 OA
BRANCH  27  29
ATOM     29  C   UNL A   1      34.749  32.976  29.664  1.00  0.00     0.060 A 
ATOM     30  C   UNL A   1      34.954  32.207  31.268  1.00  0.00     0.016 A 
ATOM     31  C   UNL A   1      36.083  33.931  28.962  1.00  0.00     0.016 A 
ATOM     32  C   UNL A   1      36.626  32.227  32.063  1.00  0.00     0.010 A 
ATOM     33  C   UNL A   1      37.675  33.979  29.756  1.00  0.00     0.010 A 
ATOM     34  C   UNL A   1      38.021  33.013  31.215  1.00  0.00    -0.014 A 
BRANCH  34  35
ATOM     35  C   UNL A   1      39.371  32.303  31.125  1.00  0.00     0.031 A 
ATOM     36  C   UNL A   1      39.470  31.045  30.350  1.00  0.00     0.074 A 
ATOM     37  C   UNL A   1      40.503  32.731  31.779  1.00  0.00     0.049 A 
ATOM     38  N   UNL A   1      40.409  30.173  30.497  1.00  0.00    -0.248 NA
ATOM     39  C   UNL A   1      38.447  30.616  29.410  1.00  0.00     0.031 C 
ATOM     40  C   UNL A   1      41.901  32.287  31.636  1.00  0.00     0.029 A 
ATOM     41  N   UNL A   1      40.612  33.624  32.860  1.00  0.00    -0.354 N 
ATOM     42  C   UNL A   1      40.196  29.149  29.599  1.00  0.00     0.074 A 
ATOM     43  C   UNL A   1      38.927  29.442  29.001  1.00  0.00     0.031 C 
ATOM     44  C   UNL A   1      42.613  32.658  32.717  1.00  0.00     0.029 A 
ATOM     45  C   UNL A   1      41.697  33.255  33.662  1.00  0.00     0.049 A 
ATOM     46  H   UNL A   1      40.015  34.389  33.028  1.00  0.00     0.167 HD
ATOM     47  C   UNL A   1      41.164  28.213  29.412  1.00  0.00     0.034 A 
ATOM     48  C   UNL A   1      41.556  32.914  34.979  1.00  0.00     0.034 A 
ATOM     49  C   UNL A   1      42.224  28.384  30.427  1.00  0.00     0.049 A 
ATOM     50  C   UNL A   1      42.019  31.490  35.265  1.00  0.00     0.074 A 
ATOM     51  C   UNL A   1      43.349  29.187  30.487  1.00  0.00     0.029 A 
ATOM     52  N   UNL A   1      41.992  27.963  31.729  1.00  0.00    -0.354 N 
ATOM     53  N   UNL A   1      42.388  30.635  34.343  1.00  0.00    -0.248 NA
ATOM     54  C   UNL A   1      42.119  30.915  36.601  1.00  0.00     0.031 C 
ATOM     55  C   UNL A   1      43.733  29.309  31.857  1.00  0.00     0.029 A 
ATOM     56  C   UNL A   1      42.896  28.525  32.637  1.00  0.00     0.049 A 
ATOM     57  H   UNL A   1      41.275  27.339  31.984  1.00  0.00     0.167 HD
ATOM     58  C   UNL A   1      42.634  29.398  34.889  1.00  0.00     0.074 A 
ATOM     59  C   UNL A   1      42.540  29.667  36.321  1.00  0.00     0.031 C 
ATOM     60  C   UNL A   1      42.789  28.269  34.100  1.00  0.00     0.034 A 
BRANCH  47  61
ATOM     61  C   UNL A   1      41.295  27.293  28.196  1.00  0.00     0.023 A 
ATOM     62  C   UNL A   1      40.104  26.657  27.779  1.00  0.00     0.012 A 
ATOM     63  C   UNL A   1      42.469  26.901  27.492  1.00  0.00     0.148 A 
ATOM     64  C   UNL A   1      40.079  25.655  26.802  1.00  0.00     0.002 A 
ATOM     65  C   UNL A   1      42.449  25.893  26.517  1.00  0.00     0.091 A 
ATOM     66  F   UNL A   1      43.637  27.490  27.734  1.00  0.00    -0.205 F 
ATOM     67  C   UNL A   1      41.253  25.258  26.181  1.00  0.00     0.022 A 
BRANCH  65  68
ATOM     68  S   UNL A   1      43.931  25.303  25.661  1.00  0.00     0.127 S 
ATOM     69  O   UNL A   1      44.703  24.715  26.757  1.00  0.00    -0.237 OA
ATOM     70  O   UNL A   1      43.383  24.329  24.718  1.00  0.00    -0.237 OA
ATOM     71  O   UNL A   1      44.550  26.469  25.045  1.00  0.00    -0.744 OA
ENDBRANCH  65  68
ENDBRANCH  47  61
BRANCH  48  72
ATOM     72  C   UNL A   1      40.494  33.706  35.696  1.00  0.00     0.023 A 
ATOM     73  C   UNL A   1      39.184  33.155  35.683  1.00  0.00     0.012 A 
ATOM     74  C   UNL A   1      40.787  34.683  36.665  1.00  0.00     0.148 A 
ATOM     75  C   UNL A   1      38.277  33.407  36.718  1.00  0.00     0.002 A 
ATOM     76  C   UNL A   1      39.868  34.943  37.692  1.00  0.00     0.091 A 
ATOM     77  F   UNL A   1      41.994  35.258  36.649  1.00  0.00    -0.205 F 
ATOM     78  C   UNL A   1      38.633  34.279  37.740  1.00  0.00     0.022 A 
BRANCH  76  79
ATOM     79  S   UNL A   1      40.290  36.008  39.086  1.00  0.00     0.127 S 
ATOM     80  O   UNL A   1      41.175  35.159  39.883  1.00  0.00    -0.237 OA
ATOM     81  O   UNL A   1      40.966  37.126  38.444  1.00  0.00    -0.237 OA
ATOM     82  O   UNL A   1      39.009  36.304  39.712  1.00  0.00    -0.744 OA
ENDBRANCH  76  79
ENDBRANCH  48  72
BRANCH  60  83
ATOM     83  C   UNL A   1      42.703  26.810  34.614  1.00  0.00     0.023 A 
ATOM     84  C   UNL A   1      41.594  26.305  35.321  1.00  0.00     0.012 A 
ATOM     85  C   UNL A   1      43.700  25.838  34.308  1.00  0.00     0.148 A 
ATOM     86  C   UNL A   1      41.471  24.962  35.708  1.00  0.00     0.002 A 
ATOM     87  C   UNL A   1      43.533  24.484  34.608  1.00  0.00     0.091 A 
ATOM     88  F   UNL A   1      44.853  26.211  33.742  1.00  0.00    -0.205 F 
ATOM     89  C   UNL A   1      42.430  24.044  35.331  1.00  0.00     0.022 A 
BRANCH  87  90
ATOM     90  S   UNL A   1      44.671  23.229  34.001  1.00  0.00     0.127 S 
ATOM     91  O   UNL A   1      44.512  23.363  32.555  1.00  0.00    -0.237 OA
ATOM     92  O   UNL A   1      45.955  23.702  34.521  1.00  0.00    -0.237 OA
ATOM     93  O   UNL A   1      44.214  21.976  34.585  1.00  0.00    -0.744 OA
ENDBRANCH  87  90
ENDBRANCH  60  83
ENDBRANCH  34  35
ENDBRANCH  27  29
ENDBRANCH  26  27
ENDBRANCH  25  26
ENDBRANCH   1  25
TORSDOF 17
ENDMDL
