MODEL 1
REMARK VINA RESULT:     -12.4      0.000      0.000
REMARK SMILES COC(=O)c1ccc(NC(=O)[C@@H]2CC=CC[C@@H]2C(=O)OCCOC(=O)c2ccc(-c3c4nc(c(-c5cccc(S(=O)(=O)[O-])c5F)c5ccc([nH]5)c(-c5cccc(S(=O)(=O)[O-])c5F)c5nc(c(-c6cccc(S(=O)(=O)[O-])c6F)c6ccc3[nH]6)C=C5)C=C4)cc2)c(C)c1
REMARK SMILES IDX 21 1 20 2 18 3 19 4 17 5 12 6 13 7 14 8 16 9 15 10 10 11
REMARK SMILES IDX 9 12 11 14 8 15 5 16 6 17 91 18 7 19 89 20 90 21 3 22 4 23
REMARK SMILES IDX 2 24 1 25 22 26 23 27 24 28 25 29 26 30 27 31 88 32 28 33
REMARK SMILES IDX 87 34 29 35 30 36 31 37 81 38 32 39 86 40 80 41 82 42 33 43
REMARK SMILES IDX 85 44 79 45 78 46 34 48 66 49 46 50 65 51 47 52 50 53 64 54
REMARK SMILES IDX 83 55 48 56 49 57 63 59 84 60 51 61 35 62 36 63 44 64 37 65
REMARK SMILES IDX 39 66 45 67 38 68 40 69 41 70 42 71 43 72 67 73 68 74 76 75
REMARK SMILES IDX 69 76 71 77 77 78 70 79 72 80 73 81 74 82 75 83 52 84 53 85
REMARK SMILES IDX 61 86 54 87 56 88 62 89 55 90 57 91 58 92 59 93 60 94
REMARK H PARENT 9 13 82 47 50 58
REMARK Flexibility Score: inf
ROOT
ATOM      1  C   UNL A   1      32.617  29.436  25.944  1.00  0.00     0.274 C 
ENDROOT
BRANCH   1   2
ATOM      2  O   UNL A   1      31.402  28.669  25.973  1.00  0.00    -0.462 OA
BRANCH   2   3
ATOM      3  C   UNL A   1      31.480  27.321  26.049  1.00  0.00     0.310 C 
ATOM      4  O   UNL A   1      31.599  26.710  27.107  1.00  0.00    -0.252 OA
BRANCH   3   5
ATOM      5  C   UNL A   1      31.070  26.633  24.748  1.00  0.00     0.116 C 
ATOM      6  C   UNL A   1      31.886  26.687  23.434  1.00  0.00     0.097 C 
ATOM      7  C   UNL A   1      31.557  27.876  22.524  1.00  0.00     0.041 C 
ATOM      8  C   UNL A   1      30.092  28.143  22.419  1.00  0.00    -0.030 C 
ATOM      9  C   UNL A   1      29.554  26.846  24.492  1.00  0.00     0.043 C 
ATOM     10  C   UNL A   1      29.196  27.669  23.291  1.00  0.00    -0.030 C 
BRANCH   6  11
ATOM     11  C   UNL A   1      33.405  26.499  23.516  1.00  0.00     0.228 C 
ATOM     12  N   UNL A   1      33.967  25.229  23.482  1.00  0.00    -0.326 N 
ATOM     13  H   UNL A   1      34.923  25.215  23.252  1.00  0.00     0.169 HD
ATOM     14  O   UNL A   1      34.143  27.489  23.549  1.00  0.00    -0.274 OA
BRANCH  12  15
ATOM     15  C   UNL A   1      33.401  23.944  23.721  1.00  0.00     0.044 A 
ATOM     16  C   UNL A   1      32.682  21.224  24.038  1.00  0.00     0.060 A 
ATOM     17  C   UNL A   1      32.451  21.868  22.832  1.00  0.00     0.018 A 
ATOM     18  C   UNL A   1      33.158  21.961  25.120  1.00  0.00     0.021 A 
ATOM     19  C   UNL A   1      32.766  23.223  22.701  1.00  0.00     0.027 A 
ATOM     20  C   UNL A   1      33.448  23.339  24.993  1.00  0.00    -0.027 A 
ATOM     21  C   UNL A   1      33.818  24.033  26.274  1.00  0.00     0.046 C 
BRANCH  16  22
ATOM     22  C   UNL A   1      32.362  19.779  24.149  1.00  0.00     0.337 C 
ATOM     23  O   UNL A   1      32.117  19.240  25.218  1.00  0.00    -0.246 OA
BRANCH  22  24
ATOM     24  O   UNL A   1      32.378  19.101  22.972  1.00  0.00    -0.465 OA
ATOM     25  C   UNL A   1      32.809  17.737  23.039  1.00  0.00     0.282 C 
ENDBRANCH  22  24
ENDBRANCH  16  22
ENDBRANCH  12  15
ENDBRANCH   6  11
ENDBRANCH   3   5
ENDBRANCH   2   3
ENDBRANCH   1   2
BRANCH   1  26
ATOM     26  C   UNL A   1      33.291  29.989  27.222  1.00  0.00     0.275 C 
BRANCH  26  27
ATOM     27  O   UNL A   1      34.672  30.430  27.287  1.00  0.00    -0.458 OA
BRANCH  27  28
ATOM     28  C   UNL A   1      35.420  30.811  28.352  1.00  0.00     0.338 C 
ATOM     29  O   UNL A   1      35.088  31.668  29.140  1.00  0.00    -0.246 OA
BRANCH  28  30
ATOM     30  C   UNL A   1      36.701  30.126  28.472  1.00  0.00     0.060 A 
ATOM     31  C   UNL A   1      36.953  29.351  29.609  1.00  0.00     0.016 A 
ATOM     32  C   UNL A   1      37.569  30.166  27.384  1.00  0.00     0.016 A 
ATOM     33  C   UNL A   1      38.044  28.492  29.601  1.00  0.00     0.010 A 
ATOM     34  C   UNL A   1      38.616  29.272  27.360  1.00  0.00     0.010 A 
ATOM     35  C   UNL A   1      38.835  28.414  28.454  1.00  0.00    -0.014 A 
BRANCH  35  36
ATOM     36  C   UNL A   1      40.104  27.703  28.440  1.00  0.00     0.031 A 
ATOM     37  C   UNL A   1      40.244  26.248  28.221  1.00  0.00     0.074 A 
ATOM     38  C   UNL A   1      41.152  28.516  28.691  1.00  0.00     0.049 A 
ATOM     39  N   UNL A   1      41.222  25.560  28.704  1.00  0.00    -0.248 NA
ATOM     40  C   UNL A   1      39.285  25.432  27.477  1.00  0.00     0.031 C 
ATOM     41  C   UNL A   1      42.573  28.280  28.551  1.00  0.00     0.029 A 
ATOM     42  N   UNL A   1      41.068  29.744  29.368  1.00  0.00    -0.354 N 
ATOM     43  C   UNL A   1      41.169  24.294  28.154  1.00  0.00     0.074 A 
ATOM     44  C   UNL A   1      39.903  24.240  27.459  1.00  0.00     0.031 C 
ATOM     45  C   UNL A   1      43.221  29.161  29.339  1.00  0.00     0.029 A 
ATOM     46  C   UNL A   1      42.213  29.840  30.151  1.00  0.00     0.049 A 
ATOM     47  H   UNL A   1      40.342  30.404  29.302  1.00  0.00     0.167 HD
ATOM     48  C   UNL A   1      42.278  23.500  28.210  1.00  0.00     0.034 A 
ATOM     49  C   UNL A   1      42.175  29.899  31.516  1.00  0.00     0.034 A 
ATOM     50  C   UNL A   1      43.356  24.191  28.919  1.00  0.00     0.049 A 
ATOM     51  C   UNL A   1      43.051  28.840  32.145  1.00  0.00     0.074 A 
ATOM     52  C   UNL A   1      44.332  25.054  28.449  1.00  0.00     0.029 A 
ATOM     53  N   UNL A   1      43.344  24.307  30.301  1.00  0.00    -0.354 N 
ATOM     54  N   UNL A   1      43.375  27.729  31.552  1.00  0.00    -0.248 NA
ATOM     55  C   UNL A   1      43.557  28.921  33.511  1.00  0.00     0.031 C 
ATOM     56  C   UNL A   1      44.854  25.762  29.555  1.00  0.00     0.029 A 
ATOM     57  C   UNL A   1      44.228  25.298  30.698  1.00  0.00     0.049 A 
ATOM     58  H   UNL A   1      42.790  23.764  30.909  1.00  0.00     0.167 HD
ATOM     59  C   UNL A   1      44.042  26.921  32.433  1.00  0.00     0.074 A 
ATOM     60  C   UNL A   1      44.169  27.731  33.633  1.00  0.00     0.031 C 
ATOM     61  C   UNL A   1      44.388  25.641  32.103  1.00  0.00     0.034 A 
BRANCH  48  62
ATOM     62  C   UNL A   1      42.556  22.303  27.311  1.00  0.00     0.023 A 
ATOM     63  C   UNL A   1      41.885  21.098  27.643  1.00  0.00     0.012 A 
ATOM     64  C   UNL A   1      43.454  22.234  26.223  1.00  0.00     0.148 A 
ATOM     65  C   UNL A   1      42.160  19.876  27.025  1.00  0.00     0.002 A 
ATOM     66  C   UNL A   1      43.753  21.000  25.621  1.00  0.00     0.091 A 
ATOM     67  F   UNL A   1      43.991  23.363  25.745  1.00  0.00    -0.205 F 
ATOM     68  C   UNL A   1      43.117  19.822  26.031  1.00  0.00     0.022 A 
BRANCH  66  69
ATOM     69  S   UNL A   1      45.010  20.797  24.345  1.00  0.00     0.127 S 
ATOM     70  O   UNL A   1      44.804  19.406  23.934  1.00  0.00    -0.237 OA
ATOM     71  O   UNL A   1      44.613  21.787  23.346  1.00  0.00    -0.237 OA
ATOM     72  O   UNL A   1      46.292  21.047  24.992  1.00  0.00    -0.744 OA
ENDBRANCH  66  69
ENDBRANCH  48  62
BRANCH  49  73
ATOM     73  C   UNL A   1      40.866  30.307  32.134  1.00  0.00     0.023 A 
ATOM     74  C   UNL A   1      39.965  29.322  32.608  1.00  0.00     0.012 A 
ATOM     75  C   UNL A   1      40.632  31.638  32.507  1.00  0.00     0.148 A 
ATOM     76  C   UNL A   1      38.943  29.645  33.514  1.00  0.00     0.002 A 
ATOM     77  C   UNL A   1      39.607  31.949  33.398  1.00  0.00     0.091 A 
ATOM     78  F   UNL A   1      41.439  32.606  32.050  1.00  0.00    -0.205 F 
ATOM     79  C   UNL A   1      38.774  30.961  33.925  1.00  0.00     0.022 A 
BRANCH  77  80
ATOM     80  S   UNL A   1      39.433  33.641  33.916  1.00  0.00     0.127 S 
ATOM     81  O   UNL A   1      39.351  34.397  32.664  1.00  0.00    -0.237 OA
ATOM     82  O   UNL A   1      38.187  33.636  34.669  1.00  0.00    -0.237 OA
ATOM     83  O   UNL A   1      40.666  33.862  34.666  1.00  0.00    -0.744 OA
ENDBRANCH  77  80
ENDBRANCH  49  73
BRANCH  61  84
ATOM     84  C   UNL A   1      44.960  24.613  33.048  1.00  0.00     0.023 A 
ATOM     85  C   UNL A   1      44.279  23.424  33.368  1.00  0.00     0.012 A 
ATOM     86  C   UNL A   1      46.280  24.751  33.548  1.00  0.00     0.148 A 
ATOM     87  C   UNL A   1      44.843  22.457  34.207  1.00  0.00     0.002 A 
ATOM     88  C   UNL A   1      46.877  23.737  34.290  1.00  0.00     0.091 A 
ATOM     89  F   UNL A   1      46.966  25.883  33.331  1.00  0.00    -0.205 F 
ATOM     90  C   UNL A   1      46.150  22.602  34.652  1.00  0.00     0.022 A 
BRANCH  88  91
ATOM     91  S   UNL A   1      48.632  23.801  34.674  1.00  0.00     0.127 S 
ATOM     92  O   UNL A   1      48.680  24.822  35.718  1.00  0.00    -0.237 OA
ATOM     93  O   UNL A   1      48.905  22.440  35.142  1.00  0.00    -0.237 OA
ATOM     94  O   UNL A   1      49.277  24.135  33.412  1.00  0.00    -0.744 OA
ENDBRANCH  88  91
ENDBRANCH  61  84
ENDBRANCH  35  36
ENDBRANCH  28  30
ENDBRANCH  27  28
ENDBRANCH  26  27
ENDBRANCH   1  26
TORSDOF 18
ENDMDL
MODEL 2
REMARK VINA RESULT:     -12.3      3.890     10.448
REMARK SMILES COC(=O)c1ccc(NC(=O)[C@@H]2CC=CC[C@@H]2C(=O)OCCOC(=O)c2ccc(-c3c4nc(c(-c5cccc(S(=O)(=O)[O-])c5F)c5ccc([nH]5)c(-c5cccc(S(=O)(=O)[O-])c5F)c5nc(c(-c6cccc(S(=O)(=O)[O-])c6F)c6ccc3[nH]6)C=C5)C=C4)cc2)c(C)c1
REMARK SMILES IDX 21 1 20 2 18 3 19 4 17 5 12 6 13 7 14 8 16 9 15 10 10 11
REMARK SMILES IDX 9 12 11 14 8 15 5 16 6 17 91 18 7 19 89 20 90 21 3 22 4 23
REMARK SMILES IDX 2 24 1 25 22 26 23 27 24 28 25 29 26 30 27 31 88 32 28 33
REMARK SMILES IDX 87 34 29 35 30 36 31 37 81 38 32 39 86 40 80 41 82 42 33 43
REMARK SMILES IDX 85 44 79 45 78 46 34 48 66 49 46 50 65 51 47 52 50 53 64 54
REMARK SMILES IDX 83 55 48 56 49 57 63 59 84 60 51 61 35 62 36 63 44 64 37 65
REMARK SMILES IDX 39 66 45 67 38 68 40 69 41 70 42 71 43 72 67 73 68 74 76 75
REMARK SMILES IDX 69 76 71 77 77 78 70 79 72 80 73 81 74 82 75 83 52 84 53 85
REMARK SMILES IDX 61 86 54 87 56 88 62 89 55 90 57 91 58 92 59 93 60 94
REMARK H PARENT 9 13 82 47 50 58
REMARK Flexibility Score: inf
ROOT
ATOM      1  C   UNL A   1      36.355  22.105  25.600  1.00  0.00     0.274 C 
ENDROOT
BRANCH   1   2
ATOM      2  O   UNL A   1      35.591  22.788  24.591  1.00  0.00    -0.462 OA
BRANCH   2   3
ATOM      3  C   UNL A   1      34.721  23.752  24.968  1.00  0.00     0.310 C 
ATOM      4  O   UNL A   1      35.069  24.815  25.473  1.00  0.00    -0.252 OA
BRANCH   3   5
ATOM      5  C   UNL A   1      33.319  23.534  24.400  1.00  0.00     0.116 C 
ATOM      6  C   UNL A   1      32.093  23.100  25.237  1.00  0.00     0.097 C 
ATOM      7  C   UNL A   1      31.914  21.585  25.376  1.00  0.00     0.041 C 
ATOM      8  C   UNL A   1      32.151  20.850  24.098  1.00  0.00    -0.030 C 
ATOM      9  C   UNL A   1      33.407  22.753  23.062  1.00  0.00     0.043 C 
ATOM     10  C   UNL A   1      32.805  21.379  23.059  1.00  0.00    -0.030 C 
BRANCH   6  11
ATOM     11  C   UNL A   1      31.866  23.778  26.594  1.00  0.00     0.228 C 
ATOM     12  N   UNL A   1      31.246  25.018  26.675  1.00  0.00    -0.326 N 
ATOM     13  H   UNL A   1      30.890  25.236  27.566  1.00  0.00     0.169 HD
ATOM     14  O   UNL A   1      32.182  23.187  27.632  1.00  0.00    -0.274 OA
BRANCH  12  15
ATOM     15  C   UNL A   1      31.034  26.028  25.694  1.00  0.00     0.044 A 
ATOM     16  C   UNL A   1      30.267  28.182  24.023  1.00  0.00     0.060 A 
ATOM     17  C   UNL A   1      29.666  26.940  23.877  1.00  0.00     0.018 A 
ATOM     18  C   UNL A   1      31.329  28.321  24.914  1.00  0.00     0.021 A 
ATOM     19  C   UNL A   1      30.085  25.873  24.675  1.00  0.00     0.027 A 
ATOM     20  C   UNL A   1      31.770  27.230  25.699  1.00  0.00    -0.027 A 
ATOM     21  C   UNL A   1      33.010  27.489  26.508  1.00  0.00     0.046 C 
BRANCH  16  22
ATOM     22  C   UNL A   1      29.792  29.308  23.182  1.00  0.00     0.337 C 
ATOM     23  O   UNL A   1      29.571  29.189  21.986  1.00  0.00    -0.246 OA
BRANCH  22  24
ATOM     24  O   UNL A   1      29.638  30.485  23.842  1.00  0.00    -0.465 OA
ATOM     25  C   UNL A   1      28.651  31.378  23.314  1.00  0.00     0.282 C 
ENDBRANCH  22  24
ENDBRANCH  16  22
ENDBRANCH  12  15
ENDBRANCH   6  11
ENDBRANCH   3   5
ENDBRANCH   2   3
ENDBRANCH   1   2
BRANCH   1  26
ATOM     26  C   UNL A   1      37.887  22.261  25.741  1.00  0.00     0.275 C 
BRANCH  26  27
ATOM     27  O   UNL A   1      38.549  23.499  26.110  1.00  0.00    -0.458 OA
BRANCH  27  28
ATOM     28  C   UNL A   1      39.633  23.712  26.895  1.00  0.00     0.338 C 
ATOM     29  O   UNL A   1      40.491  22.883  27.104  1.00  0.00    -0.246 OA
BRANCH  28  30
ATOM     30  C   UNL A   1      39.683  25.029  27.518  1.00  0.00     0.060 A 
ATOM     31  C   UNL A   1      40.221  26.101  26.798  1.00  0.00     0.016 A 
ATOM     32  C   UNL A   1      39.071  25.191  28.758  1.00  0.00     0.016 A 
ATOM     33  C   UNL A   1      40.024  27.390  27.275  1.00  0.00     0.010 A 
ATOM     34  C   UNL A   1      38.831  26.474  29.197  1.00  0.00     0.010 A 
ATOM     35  C   UNL A   1      39.279  27.573  28.441  1.00  0.00    -0.014 A 
BRANCH  35  36
ATOM     36  C   UNL A   1      39.207  28.860  29.115  1.00  0.00     0.031 A 
ATOM     37  C   UNL A   1      38.239  29.925  28.778  1.00  0.00     0.074 A 
ATOM     38  C   UNL A   1      40.153  28.997  30.067  1.00  0.00     0.049 A 
ATOM     39  N   UNL A   1      38.483  31.177  28.972  1.00  0.00    -0.248 NA
ATOM     40  C   UNL A   1      36.934  29.687  28.162  1.00  0.00     0.031 C 
ATOM     41  C   UNL A   1      40.298  29.995  31.106  1.00  0.00     0.029 A 
ATOM     42  N   UNL A   1      41.359  28.277  30.105  1.00  0.00    -0.354 N 
ATOM     43  C   UNL A   1      37.316  31.881  28.747  1.00  0.00     0.074 A 
ATOM     44  C   UNL A   1      36.403  30.920  28.171  1.00  0.00     0.031 C 
ATOM     45  C   UNL A   1      41.590  30.009  31.492  1.00  0.00     0.029 A 
ATOM     46  C   UNL A   1      42.330  29.161  30.561  1.00  0.00     0.049 A 
ATOM     47  H   UNL A   1      41.489  27.333  29.859  1.00  0.00     0.167 HD
ATOM     48  C   UNL A   1      37.205  33.153  29.232  1.00  0.00     0.034 A 
ATOM     49  C   UNL A   1      43.407  29.533  29.805  1.00  0.00     0.034 A 
ATOM     50  C   UNL A   1      38.444  33.543  29.906  1.00  0.00     0.049 A 
ATOM     51  C   UNL A   1      43.522  31.037  29.699  1.00  0.00     0.074 A 
ATOM     52  C   UNL A   1      38.845  33.368  31.221  1.00  0.00     0.029 A 
ATOM     53  N   UNL A   1      39.572  33.895  29.182  1.00  0.00    -0.354 N 
ATOM     54  N   UNL A   1      42.514  31.846  29.837  1.00  0.00    -0.248 NA
ATOM     55  C   UNL A   1      44.760  31.726  29.354  1.00  0.00     0.031 C 
ATOM     56  C   UNL A   1      40.246  33.533  31.273  1.00  0.00     0.029 A 
ATOM     57  C   UNL A   1      40.691  33.849  30.001  1.00  0.00     0.049 A 
ATOM     58  H   UNL A   1      39.578  34.142  28.229  1.00  0.00     0.167 HD
ATOM     59  C   UNL A   1      42.911  33.122  29.535  1.00  0.00     0.074 A 
ATOM     60  C   UNL A   1      44.337  33.000  29.282  1.00  0.00     0.031 C 
ATOM     61  C   UNL A   1      42.015  34.151  29.479  1.00  0.00     0.034 A 
BRANCH  48  62
ATOM     62  C   UNL A   1      35.900  33.899  29.471  1.00  0.00     0.023 A 
ATOM     63  C   UNL A   1      35.247  34.408  28.319  1.00  0.00     0.012 A 
ATOM     64  C   UNL A   1      35.295  34.199  30.711  1.00  0.00     0.148 A 
ATOM     65  C   UNL A   1      34.137  35.253  28.382  1.00  0.00     0.002 A 
ATOM     66  C   UNL A   1      34.197  35.074  30.777  1.00  0.00     0.091 A 
ATOM     67  F   UNL A   1      35.754  33.612  31.822  1.00  0.00    -0.205 F 
ATOM     68  C   UNL A   1      33.629  35.611  29.615  1.00  0.00     0.022 A 
BRANCH  66  69
ATOM     69  S   UNL A   1      33.474  35.645  32.327  1.00  0.00     0.127 S 
ATOM     70  O   UNL A   1      32.478  36.612  31.859  1.00  0.00    -0.237 OA
ATOM     71  O   UNL A   1      32.909  34.418  32.885  1.00  0.00    -0.237 OA
ATOM     72  O   UNL A   1      34.566  36.231  33.094  1.00  0.00    -0.744 OA
ENDBRANCH  66  69
ENDBRANCH  48  62
BRANCH  49  73
ATOM     73  C   UNL A   1      43.760  28.634  28.652  1.00  0.00     0.023 A 
ATOM     74  C   UNL A   1      43.319  28.948  27.343  1.00  0.00     0.012 A 
ATOM     75  C   UNL A   1      44.744  27.645  28.789  1.00  0.00     0.148 A 
ATOM     76  C   UNL A   1      43.926  28.376  26.214  1.00  0.00     0.002 A 
ATOM     77  C   UNL A   1      45.332  27.076  27.660  1.00  0.00     0.091 A 
ATOM     78  F   UNL A   1      45.164  27.292  30.011  1.00  0.00    -0.205 F 
ATOM     79  C   UNL A   1      44.949  27.450  26.372  1.00  0.00     0.022 A 
BRANCH  77  80
ATOM     80  S   UNL A   1      46.651  25.909  27.902  1.00  0.00     0.127 S 
ATOM     81  O   UNL A   1      47.587  26.598  28.793  1.00  0.00    -0.237 OA
ATOM     82  O   UNL A   1      45.986  24.775  28.531  1.00  0.00    -0.237 OA
ATOM     83  O   UNL A   1      47.149  25.720  26.543  1.00  0.00    -0.744 OA
ENDBRANCH  77  80
ENDBRANCH  49  73
BRANCH  61  84
ATOM     84  C   UNL A   1      42.309  35.548  28.987  1.00  0.00     0.023 A 
ATOM     85  C   UNL A   1      41.649  36.108  27.878  1.00  0.00     0.012 A 
ATOM     86  C   UNL A   1      43.176  36.400  29.716  1.00  0.00     0.148 A 
ATOM     87  C   UNL A   1      41.895  37.421  27.463  1.00  0.00     0.002 A 
ATOM     88  C   UNL A   1      43.332  37.737  29.365  1.00  0.00     0.091 A 
ATOM     89  F   UNL A   1      43.881  35.916  30.749  1.00  0.00    -0.205 F 
ATOM     90  C   UNL A   1      42.721  38.243  28.218  1.00  0.00     0.022 A 
BRANCH  88  91
ATOM     91  S   UNL A   1      44.205  38.869  30.455  1.00  0.00     0.127 S 
ATOM     92  O   UNL A   1      45.600  38.519  30.207  1.00  0.00    -0.237 OA
ATOM     93  O   UNL A   1      43.806  40.180  29.936  1.00  0.00    -0.237 OA
ATOM     94  O   UNL A   1      43.690  38.577  31.785  1.00  0.00    -0.744 OA
ENDBRANCH  88  91
ENDBRANCH  61  84
ENDBRANCH  35  36
ENDBRANCH  28  30
ENDBRANCH  27  28
ENDBRANCH  26  27
ENDBRANCH   1  26
TORSDOF 18
ENDMDL
MODEL 3
REMARK VINA RESULT:     -12.2      3.754     10.106
REMARK SMILES COC(=O)c1ccc(NC(=O)[C@@H]2CC=CC[C@@H]2C(=O)OCCOC(=O)c2ccc(-c3c4nc(c(-c5cccc(S(=O)(=O)[O-])c5F)c5ccc([nH]5)c(-c5cccc(S(=O)(=O)[O-])c5F)c5nc(c(-c6cccc(S(=O)(=O)[O-])c6F)c6ccc3[nH]6)C=C5)C=C4)cc2)c(C)c1
REMARK SMILES IDX 21 1 20 2 18 3 19 4 17 5 12 6 13 7 14 8 16 9 15 10 10 11
REMARK SMILES IDX 9 12 11 14 8 15 5 16 6 17 91 18 7 19 89 20 90 21 3 22 4 23
REMARK SMILES IDX 2 24 1 25 22 26 23 27 24 28 25 29 26 30 27 31 88 32 28 33
REMARK SMILES IDX 87 34 29 35 30 36 31 37 81 38 32 39 86 40 80 41 82 42 33 43
REMARK SMILES IDX 85 44 79 45 78 46 34 48 66 49 46 50 65 51 47 52 50 53 64 54
REMARK SMILES IDX 83 55 48 56 49 57 63 59 84 60 51 61 35 62 36 63 44 64 37 65
REMARK SMILES IDX 39 66 45 67 38 68 40 69 41 70 42 71 43 72 67 73 68 74 76 75
REMARK SMILES IDX 69 76 71 77 77 78 70 79 72 80 73 81 74 82 75 83 52 84 53 85
REMARK SMILES IDX 61 86 54 87 56 88 62 89 55 90 57 91 58 92 59 93 60 94
REMARK H PARENT 9 13 82 47 50 58
REMARK Flexibility Score: inf
ROOT
ATOM      1  C   UNL A   1      36.104  22.347  25.788  1.00  0.00     0.274 C 
ENDROOT
BRANCH   1   2
ATOM      2  O   UNL A   1      35.307  22.913  24.734  1.00  0.00    -0.462 OA
BRANCH   2   3
ATOM      3  C   UNL A   1      34.460  23.926  25.025  1.00  0.00     0.310 C 
ATOM      4  O   UNL A   1      34.827  25.002  25.485  1.00  0.00    -0.252 OA
BRANCH   3   5
ATOM      5  C   UNL A   1      33.073  23.726  24.415  1.00  0.00     0.116 C 
ATOM      6  C   UNL A   1      31.789  23.446  25.233  1.00  0.00     0.097 C 
ATOM      7  C   UNL A   1      31.517  21.964  25.513  1.00  0.00     0.041 C 
ATOM      8  C   UNL A   1      31.765  21.091  24.328  1.00  0.00    -0.030 C 
ATOM      9  C   UNL A   1      33.170  22.808  23.168  1.00  0.00     0.043 C 
ATOM     10  C   UNL A   1      32.491  21.476  23.273  1.00  0.00    -0.030 C 
BRANCH   6  11
ATOM     11  C   UNL A   1      31.545  24.270  26.503  1.00  0.00     0.228 C 
ATOM     12  N   UNL A   1      30.892  25.494  26.442  1.00  0.00    -0.326 N 
ATOM     13  H   UNL A   1      30.531  25.804  27.303  1.00  0.00     0.169 HD
ATOM     14  O   UNL A   1      31.876  23.812  27.601  1.00  0.00    -0.274 OA
BRANCH  12  15
ATOM     15  C   UNL A   1      30.653  26.379  25.352  1.00  0.00     0.044 A 
ATOM     16  C   UNL A   1      29.886  28.356  23.475  1.00  0.00     0.060 A 
ATOM     17  C   UNL A   1      29.156  27.182  23.586  1.00  0.00     0.018 A 
ATOM     18  C   UNL A   1      31.063  28.494  24.208  1.00  0.00     0.021 A 
ATOM     19  C   UNL A   1      29.570  26.193  24.482  1.00  0.00     0.027 A 
ATOM     20  C   UNL A   1      31.495  27.478  25.092  1.00  0.00    -0.027 A 
ATOM     21  C   UNL A   1      32.848  27.704  25.707  1.00  0.00     0.046 C 
BRANCH  16  22
ATOM     22  C   UNL A   1      29.417  29.403  22.534  1.00  0.00     0.337 C 
ATOM     23  O   UNL A   1      29.984  29.642  21.479  1.00  0.00    -0.246 OA
BRANCH  22  24
ATOM     24  O   UNL A   1      28.317  30.085  22.946  1.00  0.00    -0.465 OA
ATOM     25  C   UNL A   1      28.562  31.277  23.701  1.00  0.00     0.282 C 
ENDBRANCH  22  24
ENDBRANCH  16  22
ENDBRANCH  12  15
ENDBRANCH   6  11
ENDBRANCH   3   5
ENDBRANCH   2   3
ENDBRANCH   1   2
BRANCH   1  26
ATOM     26  C   UNL A   1      37.647  22.273  25.727  1.00  0.00     0.275 C 
BRANCH  26  27
ATOM     27  O   UNL A   1      38.521  23.428  25.822  1.00  0.00    -0.458 OA
BRANCH  27  28
ATOM     28  C   UNL A   1      39.716  23.572  26.446  1.00  0.00     0.338 C 
ATOM     29  O   UNL A   1      40.624  22.774  26.363  1.00  0.00    -0.246 OA
BRANCH  28  30
ATOM     30  C   UNL A   1      39.830  24.766  27.274  1.00  0.00     0.060 A 
ATOM     31  C   UNL A   1      40.484  25.890  26.759  1.00  0.00     0.016 A 
ATOM     32  C   UNL A   1      39.165  24.781  28.497  1.00  0.00     0.016 A 
ATOM     33  C   UNL A   1      40.358  27.100  27.429  1.00  0.00     0.010 A 
ATOM     34  C   UNL A   1      38.996  25.994  29.126  1.00  0.00     0.010 A 
ATOM     35  C   UNL A   1      39.565  27.157  28.577  1.00  0.00    -0.014 A 
BRANCH  35  36
ATOM     36  C   UNL A   1      39.552  28.324  29.445  1.00  0.00     0.031 A 
ATOM     37  C   UNL A   1      38.646  29.480  29.276  1.00  0.00     0.074 A 
ATOM     38  C   UNL A   1      40.491  28.258  30.412  1.00  0.00     0.049 A 
ATOM     39  N   UNL A   1      38.953  30.670  29.666  1.00  0.00    -0.248 NA
ATOM     40  C   UNL A   1      37.340  29.413  28.623  1.00  0.00     0.031 C 
ATOM     41  C   UNL A   1      40.674  29.071  31.595  1.00  0.00     0.029 A 
ATOM     42  N   UNL A   1      41.657  27.477  30.342  1.00  0.00    -0.354 N 
ATOM     43  C   UNL A   1      37.828  31.464  29.549  1.00  0.00     0.074 A 
ATOM     44  C   UNL A   1      36.874  30.657  28.824  1.00  0.00     0.031 C 
ATOM     45  C   UNL A   1      41.959  28.954  31.986  1.00  0.00     0.029 A 
ATOM     46  C   UNL A   1      42.667  28.224  30.936  1.00  0.00     0.049 A 
ATOM     47  H   UNL A   1      41.740  26.578  29.950  1.00  0.00     0.167 HD
ATOM     48  C   UNL A   1      37.778  32.647  30.229  1.00  0.00     0.034 A 
ATOM     49  C   UNL A   1      43.772  28.652  30.254  1.00  0.00     0.034 A 
ATOM     50  C   UNL A   1      39.026  32.859  30.962  1.00  0.00     0.049 A 
ATOM     51  C   UNL A   1      43.968  30.145  30.388  1.00  0.00     0.074 A 
ATOM     52  C   UNL A   1      39.400  32.458  32.235  1.00  0.00     0.029 A 
ATOM     53  N   UNL A   1      40.182  33.259  30.309  1.00  0.00    -0.354 N 
ATOM     54  N   UNL A   1      43.002  30.976  30.646  1.00  0.00    -0.248 NA
ATOM     55  C   UNL A   1      45.245  30.812  30.162  1.00  0.00     0.031 C 
ATOM     56  C   UNL A   1      40.807  32.536  32.319  1.00  0.00     0.029 A 
ATOM     57  C   UNL A   1      41.284  33.024  31.116  1.00  0.00     0.049 A 
ATOM     58  H   UNL A   1      40.214  33.652  29.407  1.00  0.00     0.167 HD
ATOM     59  C   UNL A   1      43.469  32.260  30.552  1.00  0.00     0.074 A 
ATOM     60  C   UNL A   1      44.891  32.102  30.290  1.00  0.00     0.031 C 
ATOM     61  C   UNL A   1      42.630  33.332  30.655  1.00  0.00     0.034 A 
BRANCH  48  62
ATOM     62  C   UNL A   1      36.511  33.416  30.576  1.00  0.00     0.023 A 
ATOM     63  C   UNL A   1      36.070  33.328  31.921  1.00  0.00     0.012 A 
ATOM     64  C   UNL A   1      35.688  34.158  29.700  1.00  0.00     0.148 A 
ATOM     65  C   UNL A   1      34.843  33.834  32.357  1.00  0.00     0.002 A 
ATOM     66  C   UNL A   1      34.439  34.640  30.129  1.00  0.00     0.091 A 
ATOM     67  F   UNL A   1      36.123  34.428  28.464  1.00  0.00    -0.205 F 
ATOM     68  C   UNL A   1      34.013  34.466  31.452  1.00  0.00     0.022 A 
BRANCH  66  69
ATOM     69  S   UNL A   1      33.255  35.443  29.033  1.00  0.00     0.127 S 
ATOM     70  O   UNL A   1      34.124  36.295  28.218  1.00  0.00    -0.237 OA
ATOM     71  O   UNL A   1      32.669  34.313  28.314  1.00  0.00    -0.237 OA
ATOM     72  O   UNL A   1      32.335  36.176  29.895  1.00  0.00    -0.744 OA
ENDBRANCH  66  69
ENDBRANCH  48  62
BRANCH  49  73
ATOM     73  C   UNL A   1      44.093  27.928  28.975  1.00  0.00     0.023 A 
ATOM     74  C   UNL A   1      43.877  28.559  27.726  1.00  0.00     0.012 A 
ATOM     75  C   UNL A   1      44.858  26.753  28.988  1.00  0.00     0.148 A 
ATOM     76  C   UNL A   1      44.502  28.095  26.558  1.00  0.00     0.002 A 
ATOM     77  C   UNL A   1      45.465  26.295  27.820  1.00  0.00     0.091 A 
ATOM     78  F   UNL A   1      45.056  26.104  30.144  1.00  0.00    -0.205 F 
ATOM     79  C   UNL A   1      45.314  26.969  26.608  1.00  0.00     0.022 A 
BRANCH  77  80
ATOM     80  S   UNL A   1      46.511  24.862  27.927  1.00  0.00     0.127 S 
ATOM     81  O   UNL A   1      45.625  23.800  28.412  1.00  0.00    -0.237 OA
ATOM     82  O   UNL A   1      46.951  24.663  26.553  1.00  0.00    -0.237 OA
ATOM     83  O   UNL A   1      47.518  25.286  28.895  1.00  0.00    -0.744 OA
ENDBRANCH  77  80
ENDBRANCH  49  73
BRANCH  61  84
ATOM     84  C   UNL A   1      43.004  34.771  30.392  1.00  0.00     0.023 A 
ATOM     85  C   UNL A   1      43.405  35.644  31.419  1.00  0.00     0.012 A 
ATOM     86  C   UNL A   1      43.090  35.260  29.064  1.00  0.00     0.148 A 
ATOM     87  C   UNL A   1      43.796  36.961  31.155  1.00  0.00     0.002 A 
ATOM     88  C   UNL A   1      43.585  36.533  28.798  1.00  0.00     0.091 A 
ATOM     89  F   UNL A   1      42.670  34.503  28.040  1.00  0.00    -0.205 F 
ATOM     90  C   UNL A   1      43.906  37.400  29.842  1.00  0.00     0.022 A 
BRANCH  88  91
ATOM     91  S   UNL A   1      43.954  37.033  27.111  1.00  0.00     0.127 S 
ATOM     92  O   UNL A   1      42.642  36.955  26.475  1.00  0.00    -0.237 OA
ATOM     93  O   UNL A   1      44.463  38.395  27.288  1.00  0.00    -0.237 OA
ATOM     94  O   UNL A   1      44.955  36.080  26.651  1.00  0.00    -0.744 OA
ENDBRANCH  88  91
ENDBRANCH  61  84
ENDBRANCH  35  36
ENDBRANCH  28  30
ENDBRANCH  27  28
ENDBRANCH  26  27
ENDBRANCH   1  26
TORSDOF 18
ENDMDL
