MODEL 1
REMARK VINA RESULT:     -12.2      0.000      0.000
REMARK SMILES C[C@@H]1[C@@H](C(=O)OCCOC(=O)c2ccc(-c3c4nc(c(-c5cccc(S(=O)(=O)[O-])c5F)c5ccc([nH]5)c(-c5cccc(S(=O)(=O)[O-])c5F)c5nc(c(-c6cccc(S(=O)(=O)[O-])c6F)c6ccc3[nH]6)C=C5)C=C4)cc2)CC[N@H+]1Cc1c(F)cccc1Cl
REMARK SMILES IDX 8 1 7 2 6 3 4 4 5 5 3 6 1 7 2 8 77 9 75 10 76 11 78 13 79 14
REMARK SMILES IDX 80 15 85 16 81 17 82 18 84 19 86 20 83 21 9 22 10 23 11 24
REMARK SMILES IDX 12 25 13 26 74 27 14 28 73 29 15 30 16 31 17 32 67 33 18 34
REMARK SMILES IDX 72 35 66 36 68 37 19 38 71 39 65 40 64 41 20 43 52 44 32 45
REMARK SMILES IDX 51 46 33 47 36 48 50 49 69 50 34 51 35 52 49 54 70 55 37 56
REMARK SMILES IDX 21 57 22 58 30 59 23 60 25 61 31 62 24 63 26 64 27 65 28 66
REMARK SMILES IDX 29 67 53 68 54 69 62 70 55 71 57 72 63 73 56 74 58 75 59 76
REMARK SMILES IDX 60 77 61 78 38 79 39 80 47 81 40 82 42 83 48 84 41 85 43 86
REMARK SMILES IDX 44 87 45 88 46 89
REMARK H PARENT 77 12 68 42 36 53
REMARK Flexibility Score: inf
ROOT
ATOM      1  C   UNL A   1      36.213  20.439  25.001  1.00  0.00     0.275 C 
ENDROOT
BRANCH   1   2
ATOM      2  C   UNL A   1      34.754  20.716  25.366  1.00  0.00     0.274 C 
BRANCH   2   3
ATOM      3  O   UNL A   1      34.023  21.261  24.251  1.00  0.00    -0.462 OA
BRANCH   3   4
ATOM      4  C   UNL A   1      32.663  21.321  24.388  1.00  0.00     0.315 C 
ATOM      5  O   UNL A   1      31.999  20.576  25.083  1.00  0.00    -0.252 OA
BRANCH   4   6
ATOM      6  C   UNL A   1      32.115  22.420  23.493  1.00  0.00     0.162 C 
ATOM      7  C   UNL A   1      33.245  23.425  21.439  1.00  0.00     0.076 C 
ATOM      8  C   UNL A   1      33.200  23.398  22.968  1.00  0.00     0.195 C 
ATOM      9  N   UNL A   1      32.734  24.671  23.517  1.00  0.00    -0.328 N 
ATOM     10  C   UNL A   1      31.199  23.298  24.351  1.00  0.00     0.083 C 
ATOM     11  C   UNL A   1      32.130  24.409  24.803  1.00  0.00     0.263 C 
ATOM     12  H   UNL A   1      32.029  25.020  22.867  1.00  0.00     0.348 HD
BRANCH   9  13
ATOM     13  C   UNL A   1      33.462  25.907  23.312  1.00  0.00     0.303 C 
BRANCH  13  14
ATOM     14  C   UNL A   1      32.469  27.053  23.339  1.00  0.00     0.061 A 
ATOM     15  C   UNL A   1      31.451  27.099  22.380  1.00  0.00     0.133 A 
ATOM     16  C   UNL A   1      32.413  27.993  24.383  1.00  0.00     0.052 A 
ATOM     17  F   UNL A   1      31.479  26.265  21.331  1.00  0.00    -0.206 F 
ATOM     18  C   UNL A   1      30.361  27.961  22.502  1.00  0.00     0.040 A 
ATOM     19  C   UNL A   1      31.312  28.847  24.522  1.00  0.00     0.021 A 
ATOM     20  Cl  UNL A   1      33.675  28.184  25.549  1.00  0.00    -0.084 Cl
ATOM     21  C   UNL A   1      30.275  28.818  23.594  1.00  0.00     0.005 A 
ENDBRANCH  13  14
ENDBRANCH   9  13
ENDBRANCH   4   6
ENDBRANCH   3   4
ENDBRANCH   2   3
ENDBRANCH   1   2
BRANCH   1  22
ATOM     22  O   UNL A   1      37.075  21.509  25.424  1.00  0.00    -0.458 OA
BRANCH  22  23
ATOM     23  C   UNL A   1      38.335  21.139  25.739  1.00  0.00     0.338 C 
ATOM     24  O   UNL A   1      38.886  20.079  25.464  1.00  0.00    -0.246 OA
BRANCH  23  25
ATOM     25  C   UNL A   1      39.056  22.278  26.318  1.00  0.00     0.060 A 
ATOM     26  C   UNL A   1      38.543  23.548  26.059  1.00  0.00     0.016 A 
ATOM     27  C   UNL A   1      40.250  22.134  27.020  1.00  0.00     0.016 A 
ATOM     28  C   UNL A   1      39.220  24.690  26.467  1.00  0.00     0.010 A 
ATOM     29  C   UNL A   1      40.928  23.282  27.449  1.00  0.00     0.010 A 
ATOM     30  C   UNL A   1      40.427  24.567  27.160  1.00  0.00    -0.014 A 
BRANCH  30  31
ATOM     31  C   UNL A   1      41.194  25.787  27.516  1.00  0.00     0.031 A 
ATOM     32  C   UNL A   1      40.542  26.856  28.349  1.00  0.00     0.074 A 
ATOM     33  C   UNL A   1      42.473  25.929  27.118  1.00  0.00     0.049 A 
ATOM     34  N   UNL A   1      40.985  28.045  28.661  1.00  0.00    -0.248 NA
ATOM     35  C   UNL A   1      39.214  26.541  28.903  1.00  0.00     0.031 C 
ATOM     36  C   UNL A   1      43.236  24.940  26.355  1.00  0.00     0.029 A 
ATOM     37  N   UNL A   1      43.352  26.969  27.290  1.00  0.00    -0.354 N 
ATOM     38  C   UNL A   1      39.972  28.643  29.401  1.00  0.00     0.074 A 
ATOM     39  C   UNL A   1      38.894  27.681  29.499  1.00  0.00     0.031 C 
ATOM     40  C   UNL A   1      44.465  25.425  26.116  1.00  0.00     0.029 A 
ATOM     41  C   UNL A   1      44.560  26.777  26.661  1.00  0.00     0.049 A 
ATOM     42  H   UNL A   1      43.138  27.775  27.813  1.00  0.00     0.167 HD
ATOM     43  C   UNL A   1      39.947  29.878  29.956  1.00  0.00     0.034 A 
ATOM     44  C   UNL A   1      45.609  27.609  26.510  1.00  0.00     0.034 A 
ATOM     45  C   UNL A   1      41.038  30.811  29.899  1.00  0.00     0.049 A 
ATOM     46  C   UNL A   1      45.540  28.989  27.111  1.00  0.00     0.074 A 
ATOM     47  C   UNL A   1      41.111  32.084  30.436  1.00  0.00     0.029 A 
ATOM     48  N   UNL A   1      42.254  30.570  29.278  1.00  0.00    -0.354 N 
ATOM     49  N   UNL A   1      44.593  29.526  27.840  1.00  0.00    -0.248 NA
ATOM     50  C   UNL A   1      46.694  29.871  26.881  1.00  0.00     0.031 C 
ATOM     51  C   UNL A   1      42.370  32.616  30.133  1.00  0.00     0.029 A 
ATOM     52  C   UNL A   1      43.084  31.667  29.418  1.00  0.00     0.049 A 
ATOM     53  H   UNL A   1      42.491  29.739  28.805  1.00  0.00     0.167 HD
ATOM     54  C   UNL A   1      45.046  30.797  28.178  1.00  0.00     0.074 A 
ATOM     55  C   UNL A   1      46.364  30.939  27.594  1.00  0.00     0.031 C 
ATOM     56  C   UNL A   1      44.419  31.768  28.886  1.00  0.00     0.034 A 
BRANCH  43  57
ATOM     57  C   UNL A   1      38.701  30.284  30.694  1.00  0.00     0.023 A 
ATOM     58  C   UNL A   1      38.560  29.955  32.057  1.00  0.00     0.012 A 
ATOM     59  C   UNL A   1      37.694  31.032  30.055  1.00  0.00     0.148 A 
ATOM     60  C   UNL A   1      37.423  30.343  32.766  1.00  0.00     0.002 A 
ATOM     61  C   UNL A   1      36.581  31.447  30.777  1.00  0.00     0.091 A 
ATOM     62  F   UNL A   1      37.835  31.312  28.751  1.00  0.00    -0.205 F 
ATOM     63  C   UNL A   1      36.440  31.097  32.130  1.00  0.00     0.022 A 
BRANCH  61  64
ATOM     64  S   UNL A   1      35.296  32.480  30.063  1.00  0.00     0.127 S 
ATOM     65  O   UNL A   1      36.066  33.639  29.612  1.00  0.00    -0.237 OA
ATOM     66  O   UNL A   1      34.783  31.634  28.985  1.00  0.00    -0.237 OA
ATOM     67  O   UNL A   1      34.347  32.737  31.136  1.00  0.00    -0.744 OA
ENDBRANCH  61  64
ENDBRANCH  43  57
BRANCH  44  68
ATOM     68  C   UNL A   1      46.823  27.160  25.771  1.00  0.00     0.023 A 
ATOM     69  C   UNL A   1      47.729  26.282  26.398  1.00  0.00     0.012 A 
ATOM     70  C   UNL A   1      47.080  27.584  24.452  1.00  0.00     0.148 A 
ATOM     71  C   UNL A   1      48.882  25.858  25.736  1.00  0.00     0.002 A 
ATOM     72  C   UNL A   1      48.202  27.113  23.779  1.00  0.00     0.091 A 
ATOM     73  F   UNL A   1      46.224  28.441  23.881  1.00  0.00    -0.205 F 
ATOM     74  C   UNL A   1      49.112  26.262  24.424  1.00  0.00     0.022 A 
BRANCH  72  75
ATOM     75  S   UNL A   1      48.501  27.485  22.047  1.00  0.00     0.127 S 
ATOM     76  O   UNL A   1      49.733  28.266  22.116  1.00  0.00    -0.237 OA
ATOM     77  O   UNL A   1      48.649  26.150  21.466  1.00  0.00    -0.237 OA
ATOM     78  O   UNL A   1      47.315  28.203  21.596  1.00  0.00    -0.744 OA
ENDBRANCH  72  75
ENDBRANCH  44  68
BRANCH  56  79
ATOM     79  C   UNL A   1      45.158  33.061  29.104  1.00  0.00     0.023 A 
ATOM     80  C   UNL A   1      45.969  33.216  30.244  1.00  0.00     0.012 A 
ATOM     81  C   UNL A   1      45.111  34.090  28.142  1.00  0.00     0.148 A 
ATOM     82  C   UNL A   1      46.704  34.384  30.439  1.00  0.00     0.002 A 
ATOM     83  C   UNL A   1      45.880  35.235  28.321  1.00  0.00     0.091 A 
ATOM     84  F   UNL A   1      44.318  33.932  27.073  1.00  0.00    -0.205 F 
ATOM     85  C   UNL A   1      46.669  35.387  29.473  1.00  0.00     0.022 A 
BRANCH  83  86
ATOM     86  S   UNL A   1      45.966  36.535  27.084  1.00  0.00     0.127 S 
ATOM     87  O   UNL A   1      44.585  37.012  27.056  1.00  0.00    -0.237 OA
ATOM     88  O   UNL A   1      46.921  37.470  27.679  1.00  0.00    -0.237 OA
ATOM     89  O   UNL A   1      46.434  35.894  25.863  1.00  0.00    -0.744 OA
ENDBRANCH  83  86
ENDBRANCH  56  79
ENDBRANCH  30  31
ENDBRANCH  23  25
ENDBRANCH  22  23
ENDBRANCH   1  22
TORSDOF 16
ENDMDL
MODEL 2
REMARK VINA RESULT:     -12.1      1.634      1.972
REMARK SMILES C[C@@H]1[C@@H](C(=O)OCCOC(=O)c2ccc(-c3c4nc(c(-c5cccc(S(=O)(=O)[O-])c5F)c5ccc([nH]5)c(-c5cccc(S(=O)(=O)[O-])c5F)c5nc(c(-c6cccc(S(=O)(=O)[O-])c6F)c6ccc3[nH]6)C=C5)C=C4)cc2)CC[N@H+]1Cc1c(F)cccc1Cl
REMARK SMILES IDX 8 1 7 2 6 3 4 4 5 5 3 6 1 7 2 8 77 9 75 10 76 11 78 13 79 14
REMARK SMILES IDX 80 15 85 16 81 17 82 18 84 19 86 20 83 21 9 22 10 23 11 24
REMARK SMILES IDX 12 25 13 26 74 27 14 28 73 29 15 30 16 31 17 32 67 33 18 34
REMARK SMILES IDX 72 35 66 36 68 37 19 38 71 39 65 40 64 41 20 43 52 44 32 45
REMARK SMILES IDX 51 46 33 47 36 48 50 49 69 50 34 51 35 52 49 54 70 55 37 56
REMARK SMILES IDX 21 57 22 58 30 59 23 60 25 61 31 62 24 63 26 64 27 65 28 66
REMARK SMILES IDX 29 67 53 68 54 69 62 70 55 71 57 72 63 73 56 74 58 75 59 76
REMARK SMILES IDX 60 77 61 78 38 79 39 80 47 81 40 82 42 83 48 84 41 85 43 86
REMARK SMILES IDX 44 87 45 88 46 89
REMARK H PARENT 77 12 68 42 36 53
REMARK Flexibility Score: inf
ROOT
ATOM      1  C   UNL A   1      36.022  20.711  25.131  1.00  0.00     0.275 C 
ENDROOT
BRANCH   1   2
ATOM      2  C   UNL A   1      34.592  20.761  25.670  1.00  0.00     0.274 C 
BRANCH   2   3
ATOM      3  O   UNL A   1      34.517  21.489  26.910  1.00  0.00    -0.462 OA
BRANCH   3   4
ATOM      4  C   UNL A   1      33.469  22.359  27.041  1.00  0.00     0.315 C 
ATOM      5  O   UNL A   1      32.754  22.445  28.020  1.00  0.00    -0.252 OA
BRANCH   4   6
ATOM      6  C   UNL A   1      33.306  23.149  25.752  1.00  0.00     0.162 C 
ATOM      7  C   UNL A   1      35.148  24.322  24.435  1.00  0.00     0.076 C 
ATOM      8  C   UNL A   1      34.233  24.391  25.659  1.00  0.00     0.195 C 
ATOM      9  N   UNL A   1      33.257  25.474  25.544  1.00  0.00    -0.328 N 
ATOM     10  C   UNL A   1      31.891  23.734  25.747  1.00  0.00     0.083 C 
ATOM     11  C   UNL A   1      32.100  25.119  26.334  1.00  0.00     0.263 C 
ATOM     12  H   UNL A   1      33.003  25.523  24.557  1.00  0.00     0.348 HD
BRANCH   9  13
ATOM     13  C   UNL A   1      33.660  26.863  25.458  1.00  0.00     0.303 C 
BRANCH  13  14
ATOM     14  C   UNL A   1      32.677  27.587  24.559  1.00  0.00     0.061 A 
ATOM     15  C   UNL A   1      32.593  27.231  23.209  1.00  0.00     0.133 A 
ATOM     16  C   UNL A   1      31.718  28.493  25.046  1.00  0.00     0.052 A 
ATOM     17  F   UNL A   1      33.510  26.414  22.672  1.00  0.00    -0.206 F 
ATOM     18  C   UNL A   1      31.543  27.660  22.396  1.00  0.00     0.040 A 
ATOM     19  C   UNL A   1      30.651  28.912  24.242  1.00  0.00     0.021 A 
ATOM     20  Cl  UNL A   1      31.779  29.166  26.637  1.00  0.00    -0.084 Cl
ATOM     21  C   UNL A   1      30.550  28.480  22.923  1.00  0.00     0.005 A 
ENDBRANCH  13  14
ENDBRANCH   9  13
ENDBRANCH   4   6
ENDBRANCH   3   4
ENDBRANCH   2   3
ENDBRANCH   1   2
BRANCH   1  22
ATOM     22  O   UNL A   1      36.841  21.742  25.710  1.00  0.00    -0.458 OA
BRANCH  22  23
ATOM     23  C   UNL A   1      38.151  21.437  25.824  1.00  0.00     0.338 C 
ATOM     24  O   UNL A   1      38.723  20.449  25.377  1.00  0.00    -0.246 OA
BRANCH  23  25
ATOM     25  C   UNL A   1      38.873  22.568  26.417  1.00  0.00     0.060 A 
ATOM     26  C   UNL A   1      38.410  23.846  26.108  1.00  0.00     0.016 A 
ATOM     27  C   UNL A   1      40.025  22.406  27.182  1.00  0.00     0.016 A 
ATOM     28  C   UNL A   1      39.097  24.977  26.528  1.00  0.00     0.010 A 
ATOM     29  C   UNL A   1      40.713  23.544  27.623  1.00  0.00     0.010 A 
ATOM     30  C   UNL A   1      40.263  24.836  27.285  1.00  0.00    -0.014 A 
BRANCH  30  31
ATOM     31  C   UNL A   1      41.045  26.041  27.655  1.00  0.00     0.031 A 
ATOM     32  C   UNL A   1      40.397  27.122  28.476  1.00  0.00     0.074 A 
ATOM     33  C   UNL A   1      42.334  26.160  27.283  1.00  0.00     0.049 A 
ATOM     34  N   UNL A   1      40.855  28.303  28.797  1.00  0.00    -0.248 NA
ATOM     35  C   UNL A   1      39.053  26.832  29.004  1.00  0.00     0.031 C 
ATOM     36  C   UNL A   1      43.094  25.158  26.535  1.00  0.00     0.029 A 
ATOM     37  N   UNL A   1      43.228  27.184  27.472  1.00  0.00    -0.354 N 
ATOM     38  C   UNL A   1      39.838  28.919  29.517  1.00  0.00     0.074 A 
ATOM     39  C   UNL A   1      38.742  27.977  29.594  1.00  0.00     0.031 C 
ATOM     40  C   UNL A   1      44.336  25.620  26.320  1.00  0.00     0.029 A 
ATOM     41  C   UNL A   1      44.445  26.970  26.867  1.00  0.00     0.049 A 
ATOM     42  H   UNL A   1      43.019  27.993  27.991  1.00  0.00     0.167 HD
ATOM     43  C   UNL A   1      39.825  30.154  30.072  1.00  0.00     0.034 A 
ATOM     44  C   UNL A   1      45.511  27.782  26.737  1.00  0.00     0.034 A 
ATOM     45  C   UNL A   1      40.935  31.068  30.037  1.00  0.00     0.049 A 
ATOM     46  C   UNL A   1      45.456  29.163  27.337  1.00  0.00     0.074 A 
ATOM     47  C   UNL A   1      41.020  32.339  30.576  1.00  0.00     0.029 A 
ATOM     48  N   UNL A   1      42.157  30.804  29.439  1.00  0.00    -0.354 N 
ATOM     49  N   UNL A   1      44.505  29.718  28.047  1.00  0.00    -0.248 NA
ATOM     50  C   UNL A   1      46.630  30.025  27.130  1.00  0.00     0.031 C 
ATOM     51  C   UNL A   1      42.294  32.848  30.297  1.00  0.00     0.029 A 
ATOM     52  C   UNL A   1      43.004  31.887  29.596  1.00  0.00     0.049 A 
ATOM     53  H   UNL A   1      42.389  29.969  28.971  1.00  0.00     0.167 HD
ATOM     54  C   UNL A   1      44.974  30.980  28.394  1.00  0.00     0.074 A 
ATOM     55  C   UNL A   1      46.306  31.098  27.836  1.00  0.00     0.031 C 
ATOM     56  C   UNL A   1      44.351  31.962  29.090  1.00  0.00     0.034 A 
BRANCH  43  57
ATOM     57  C   UNL A   1      38.572  30.583  30.786  1.00  0.00     0.023 A 
ATOM     58  C   UNL A   1      38.426  30.310  32.161  1.00  0.00     0.012 A 
ATOM     59  C   UNL A   1      37.565  31.297  30.110  1.00  0.00     0.148 A 
ATOM     60  C   UNL A   1      37.283  30.720  32.846  1.00  0.00     0.002 A 
ATOM     61  C   UNL A   1      36.446  31.736  30.808  1.00  0.00     0.091 A 
ATOM     62  F   UNL A   1      37.712  31.524  28.796  1.00  0.00    -0.205 F 
ATOM     63  C   UNL A   1      36.299  31.441  32.173  1.00  0.00     0.022 A 
BRANCH  61  64
ATOM     64  S   UNL A   1      35.158  32.730  30.044  1.00  0.00     0.127 S 
ATOM     65  O   UNL A   1      34.256  32.960  31.172  1.00  0.00    -0.237 OA
ATOM     66  O   UNL A   1      35.899  33.912  29.606  1.00  0.00    -0.237 OA
ATOM     67  O   UNL A   1      34.616  31.919  28.963  1.00  0.00    -0.744 OA
ENDBRANCH  61  64
ENDBRANCH  43  57
BRANCH  44  68
ATOM     68  C   UNL A   1      46.732  27.311  26.021  1.00  0.00     0.023 A 
ATOM     69  C   UNL A   1      46.832  27.500  24.629  1.00  0.00     0.012 A 
ATOM     70  C   UNL A   1      47.794  26.692  26.708  1.00  0.00     0.148 A 
ATOM     71  C   UNL A   1      47.955  27.055  23.930  1.00  0.00     0.002 A 
ATOM     72  C   UNL A   1      48.934  26.302  26.014  1.00  0.00     0.091 A 
ATOM     73  F   UNL A   1      47.671  26.494  28.027  1.00  0.00    -0.205 F 
ATOM     74  C   UNL A   1      49.011  26.468  24.623  1.00  0.00     0.022 A 
BRANCH  72  75
ATOM     75  S   UNL A   1      50.386  25.656  26.852  1.00  0.00     0.127 S 
ATOM     76  O   UNL A   1      49.857  24.453  27.487  1.00  0.00    -0.237 OA
ATOM     77  O   UNL A   1      51.302  25.412  25.736  1.00  0.00    -0.237 OA
ATOM     78  O   UNL A   1      50.816  26.718  27.754  1.00  0.00    -0.744 OA
ENDBRANCH  72  75
ENDBRANCH  44  68
BRANCH  56  79
ATOM     79  C   UNL A   1      45.109  33.243  29.323  1.00  0.00     0.023 A 
ATOM     80  C   UNL A   1      45.933  33.367  30.458  1.00  0.00     0.012 A 
ATOM     81  C   UNL A   1      45.067  34.288  28.380  1.00  0.00     0.148 A 
ATOM     82  C   UNL A   1      46.685  34.522  30.665  1.00  0.00     0.002 A 
ATOM     83  C   UNL A   1      45.853  35.419  28.570  1.00  0.00     0.091 A 
ATOM     84  F   UNL A   1      44.261  34.159  27.315  1.00  0.00    -0.205 F 
ATOM     85  C   UNL A   1      46.654  35.542  29.717  1.00  0.00     0.022 A 
BRANCH  83  86
ATOM     86  S   UNL A   1      45.944  36.740  27.355  1.00  0.00     0.127 S 
ATOM     87  O   UNL A   1      46.359  36.014  26.156  1.00  0.00    -0.237 OA
ATOM     88  O   UNL A   1      44.566  37.232  27.323  1.00  0.00    -0.237 OA
ATOM     89  O   UNL A   1      46.911  37.695  27.877  1.00  0.00    -0.744 OA
ENDBRANCH  83  86
ENDBRANCH  56  79
ENDBRANCH  30  31
ENDBRANCH  23  25
ENDBRANCH  22  23
ENDBRANCH   1  22
TORSDOF 16
ENDMDL
MODEL 3
REMARK VINA RESULT:     -12.0      5.387     10.155
REMARK SMILES C[C@@H]1[C@@H](C(=O)OCCOC(=O)c2ccc(-c3c4nc(c(-c5cccc(S(=O)(=O)[O-])c5F)c5ccc([nH]5)c(-c5cccc(S(=O)(=O)[O-])c5F)c5nc(c(-c6cccc(S(=O)(=O)[O-])c6F)c6ccc3[nH]6)C=C5)C=C4)cc2)CC[N@H+]1Cc1c(F)cccc1Cl
REMARK SMILES IDX 8 1 7 2 6 3 4 4 5 5 3 6 1 7 2 8 77 9 75 10 76 11 78 13 79 14
REMARK SMILES IDX 80 15 85 16 81 17 82 18 84 19 86 20 83 21 9 22 10 23 11 24
REMARK SMILES IDX 12 25 13 26 74 27 14 28 73 29 15 30 16 31 17 32 67 33 18 34
REMARK SMILES IDX 72 35 66 36 68 37 19 38 71 39 65 40 64 41 20 43 52 44 32 45
REMARK SMILES IDX 51 46 33 47 36 48 50 49 69 50 34 51 35 52 49 54 70 55 37 56
REMARK SMILES IDX 21 57 22 58 30 59 23 60 25 61 31 62 24 63 26 64 27 65 28 66
REMARK SMILES IDX 29 67 53 68 54 69 62 70 55 71 57 72 63 73 56 74 58 75 59 76
REMARK SMILES IDX 60 77 61 78 38 79 39 80 47 81 40 82 42 83 48 84 41 85 43 86
REMARK SMILES IDX 44 87 45 88 46 89
REMARK H PARENT 77 12 68 42 36 53
REMARK Flexibility Score: inf
ROOT
ATOM      1  C   UNL A   1      31.650  29.697  25.566  1.00  0.00     0.275 C 
ENDROOT
BRANCH   1   2
ATOM      2  C   UNL A   1      31.601  28.278  24.998  1.00  0.00     0.274 C 
BRANCH   2   3
ATOM      3  O   UNL A   1      32.263  27.337  25.864  1.00  0.00    -0.462 OA
BRANCH   3   4
ATOM      4  C   UNL A   1      31.520  26.264  26.275  1.00  0.00     0.315 C 
ATOM      5  O   UNL A   1      30.348  26.309  26.593  1.00  0.00    -0.252 OA
BRANCH   4   6
ATOM      6  C   UNL A   1      32.405  25.029  26.328  1.00  0.00     0.162 C 
ATOM      7  C   UNL A   1      34.890  24.903  25.765  1.00  0.00     0.076 C 
ATOM      8  C   UNL A   1      33.470  24.973  25.199  1.00  0.00     0.195 C 
ATOM      9  N   UNL A   1      33.100  23.737  24.511  1.00  0.00    -0.328 N 
ATOM     10  C   UNL A   1      31.513  23.812  26.064  1.00  0.00     0.083 C 
ATOM     11  C   UNL A   1      31.662  23.607  24.567  1.00  0.00     0.263 C 
ATOM     12  H   UNL A   1      33.538  22.979  25.034  1.00  0.00     0.348 HD
BRANCH   9  13
ATOM     13  C   UNL A   1      33.810  23.271  23.338  1.00  0.00     0.303 C 
BRANCH  13  14
ATOM     14  C   UNL A   1      34.827  22.235  23.780  1.00  0.00     0.061 A 
ATOM     15  C   UNL A   1      36.190  22.539  23.708  1.00  0.00     0.133 A 
ATOM     16  C   UNL A   1      34.467  21.035  24.418  1.00  0.00     0.052 A 
ATOM     17  F   UNL A   1      36.599  23.641  23.064  1.00  0.00    -0.206 F 
ATOM     18  C   UNL A   1      37.155  21.752  24.336  1.00  0.00     0.040 A 
ATOM     19  C   UNL A   1      35.429  20.251  25.067  1.00  0.00     0.021 A 
ATOM     20  Cl  UNL A   1      32.849  20.427  24.444  1.00  0.00    -0.084 Cl
ATOM     21  C   UNL A   1      36.771  20.619  25.045  1.00  0.00     0.005 A 
ENDBRANCH  13  14
ENDBRANCH   9  13
ENDBRANCH   4   6
ENDBRANCH   3   4
ENDBRANCH   2   3
ENDBRANCH   1   2
BRANCH   1  22
ATOM     22  O   UNL A   1      33.004  30.144  25.754  1.00  0.00    -0.458 OA
BRANCH  22  23
ATOM     23  C   UNL A   1      33.176  31.050  26.739  1.00  0.00     0.338 C 
ATOM     24  O   UNL A   1      32.339  31.827  27.186  1.00  0.00    -0.246 OA
BRANCH  23  25
ATOM     25  C   UNL A   1      34.492  30.862  27.361  1.00  0.00     0.060 A 
ATOM     26  C   UNL A   1      34.885  29.550  27.623  1.00  0.00     0.016 A 
ATOM     27  C   UNL A   1      35.292  31.928  27.765  1.00  0.00     0.016 A 
ATOM     28  C   UNL A   1      36.060  29.280  28.312  1.00  0.00     0.010 A 
ATOM     29  C   UNL A   1      36.487  31.660  28.446  1.00  0.00     0.010 A 
ATOM     30  C   UNL A   1      36.870  30.336  28.739  1.00  0.00    -0.014 A 
BRANCH  30  31
ATOM     31  C   UNL A   1      38.077  30.049  29.554  1.00  0.00     0.031 A 
ATOM     32  C   UNL A   1      39.141  29.140  29.006  1.00  0.00     0.074 A 
ATOM     33  C   UNL A   1      38.233  30.617  30.765  1.00  0.00     0.049 A 
ATOM     34  N   UNL A   1      40.203  28.660  29.598  1.00  0.00    -0.248 NA
ATOM     35  C   UNL A   1      38.988  28.715  27.604  1.00  0.00     0.031 C 
ATOM     36  C   UNL A   1      37.300  31.560  31.384  1.00  0.00     0.029 A 
ATOM     37  N   UNL A   1      39.228  30.471  31.698  1.00  0.00    -0.354 N 
ATOM     38  C   UNL A   1      40.816  27.834  28.663  1.00  0.00     0.074 A 
ATOM     39  C   UNL A   1      40.012  27.885  27.461  1.00  0.00     0.031 C 
ATOM     40  C   UNL A   1      37.763  31.901  32.598  1.00  0.00     0.029 A 
ATOM     41  C   UNL A   1      38.993  31.161  32.865  1.00  0.00     0.049 A 
ATOM     42  H   UNL A   1      40.033  29.925  31.548  1.00  0.00     0.167 HD
ATOM     43  C   UNL A   1      41.951  27.108  28.793  1.00  0.00     0.034 A 
ATOM     44  C   UNL A   1      39.673  31.169  34.028  1.00  0.00     0.034 A 
ATOM     45  C   UNL A   1      42.774  27.098  29.972  1.00  0.00     0.049 A 
ATOM     46  C   UNL A   1      40.915  30.325  34.155  1.00  0.00     0.074 A 
ATOM     47  C   UNL A   1      43.946  26.399  30.198  1.00  0.00     0.029 A 
ATOM     48  N   UNL A   1      42.518  27.831  31.121  1.00  0.00    -0.354 N 
ATOM     49  N   UNL A   1      41.504  29.580  33.252  1.00  0.00    -0.248 NA
ATOM     50  C   UNL A   1      41.595  30.336  35.459  1.00  0.00     0.031 C 
ATOM     51  C   UNL A   1      44.396  26.704  31.488  1.00  0.00     0.029 A 
ATOM     52  C   UNL A   1      43.509  27.603  32.059  1.00  0.00     0.049 A 
ATOM     53  H   UNL A   1      41.743  28.426  31.251  1.00  0.00     0.167 HD
ATOM     54  C   UNL A   1      42.635  29.057  33.867  1.00  0.00     0.074 A 
ATOM     55  C   UNL A   1      42.663  29.590  35.214  1.00  0.00     0.031 C 
ATOM     56  C   UNL A   1      43.556  28.193  33.372  1.00  0.00     0.034 A 
BRANCH  43  57
ATOM     57  C   UNL A   1      42.383  26.274  27.618  1.00  0.00     0.023 A 
ATOM     58  C   UNL A   1      43.215  26.840  26.631  1.00  0.00     0.012 A 
ATOM     59  C   UNL A   1      42.007  24.921  27.515  1.00  0.00     0.148 A 
ATOM     60  C   UNL A   1      43.645  26.077  25.545  1.00  0.00     0.002 A 
ATOM     61  C   UNL A   1      42.471  24.157  26.450  1.00  0.00     0.091 A 
ATOM     62  F   UNL A   1      41.194  24.409  28.451  1.00  0.00    -0.205 F 
ATOM     63  C   UNL A   1      43.282  24.735  25.461  1.00  0.00     0.022 A 
BRANCH  61  64
ATOM     64  S   UNL A   1      42.114  22.403  26.292  1.00  0.00     0.127 S 
ATOM     65  O   UNL A   1      40.654  22.407  26.196  1.00  0.00    -0.237 OA
ATOM     66  O   UNL A   1      42.804  22.057  25.050  1.00  0.00    -0.237 OA
ATOM     67  O   UNL A   1      42.662  21.775  27.486  1.00  0.00    -0.744 OA
ENDBRANCH  61  64
ENDBRANCH  43  57
BRANCH  44  68
ATOM     68  C   UNL A   1      39.206  32.013  35.165  1.00  0.00     0.023 A 
ATOM     69  C   UNL A   1      38.253  31.495  36.064  1.00  0.00     0.012 A 
ATOM     70  C   UNL A   1      39.706  33.313  35.369  1.00  0.00     0.148 A 
ATOM     71  C   UNL A   1      37.786  32.267  37.128  1.00  0.00     0.002 A 
ATOM     72  C   UNL A   1      39.278  34.057  36.463  1.00  0.00     0.091 A 
ATOM     73  F   UNL A   1      40.590  33.802  34.488  1.00  0.00    -0.205 F 
ATOM     74  C   UNL A   1      38.307  33.542  37.335  1.00  0.00     0.022 A 
BRANCH  72  75
ATOM     75  S   UNL A   1      39.993  35.653  36.871  1.00  0.00     0.127 S 
ATOM     76  O   UNL A   1      41.414  35.331  36.965  1.00  0.00    -0.237 OA
ATOM     77  O   UNL A   1      39.620  36.463  35.709  1.00  0.00    -0.237 OA
ATOM     78  O   UNL A   1      39.347  36.061  38.112  1.00  0.00    -0.744 OA
ENDBRANCH  72  75
ENDBRANCH  44  68
BRANCH  56  79
ATOM     79  C   UNL A   1      44.694  27.793  34.273  1.00  0.00     0.023 A 
ATOM     80  C   UNL A   1      45.871  28.565  34.293  1.00  0.00     0.012 A 
ATOM     81  C   UNL A   1      44.567  26.701  35.155  1.00  0.00     0.148 A 
ATOM     82  C   UNL A   1      46.915  28.244  35.158  1.00  0.00     0.002 A 
ATOM     83  C   UNL A   1      45.594  26.412  36.046  1.00  0.00     0.091 A 
ATOM     84  F   UNL A   1      43.446  25.966  35.108  1.00  0.00    -0.205 F 
ATOM     85  C   UNL A   1      46.773  27.177  36.041  1.00  0.00     0.022 A 
BRANCH  83  86
ATOM     86  S   UNL A   1      45.458  25.114  37.280  1.00  0.00     0.127 S 
ATOM     87  O   UNL A   1      46.741  25.224  37.972  1.00  0.00    -0.237 OA
ATOM     88  O   UNL A   1      44.303  25.549  38.065  1.00  0.00    -0.237 OA
ATOM     89  O   UNL A   1      45.249  23.879  36.537  1.00  0.00    -0.744 OA
ENDBRANCH  83  86
ENDBRANCH  56  79
ENDBRANCH  30  31
ENDBRANCH  23  25
ENDBRANCH  22  23
ENDBRANCH   1  22
TORSDOF 16
ENDMDL
