MODEL 1
REMARK VINA RESULT:     -12.6      0.000      0.000
REMARK SMILES Cn1c(=O)c(=O)n(C)c2cc(S(=O)(=O)N3CCC[C@H]3C(=O)OCCOC(=O)c3ccc(-c4c5nc(c(-c6cccc(S(=O)(=O)[O-])c6F)c6ccc([nH]6)c(-c6cccc(S(=O)(=O)[O-])c6F)c6nc(c(-c7cccc(S(=O)(=O)[O-])c7F)c7ccc4[nH]7)C=C6)C=C5)cc3)ccc21
REMARK SMILES IDX 24 1 23 2 22 3 20 4 21 5 19 6 15 7 16 8 17 9 18 10 12 11
REMARK SMILES IDX 13 12 14 13 11 14 1 15 2 16 3 17 93 18 4 19 5 20 9 21 92 22
REMARK SMILES IDX 6 23 7 24 10 25 91 26 8 27 25 28 26 29 27 30 28 31 29 32
REMARK SMILES IDX 90 33 30 34 89 35 31 36 32 37 33 38 83 39 34 40 88 41 82 42
REMARK SMILES IDX 84 43 35 44 87 45 81 46 80 47 36 49 68 50 48 51 67 52 49 53
REMARK SMILES IDX 52 54 66 55 85 56 50 57 51 58 65 60 86 61 53 62 37 63 38 64
REMARK SMILES IDX 46 65 39 66 41 67 47 68 40 69 42 70 43 71 44 72 45 73 69 74
REMARK SMILES IDX 70 75 78 76 71 77 73 78 79 79 72 80 74 81 75 82 76 83 77 84
REMARK SMILES IDX 54 85 55 86 63 87 56 88 58 89 64 90 57 91 59 92 60 93 61 94
REMARK SMILES IDX 62 95
REMARK H PARENT 84 48 52 59
REMARK Flexibility Score: inf
ROOT
ATOM      1  C   UNL A   1      37.949  20.543  24.786  1.00  0.00     0.275 C 
ENDROOT
BRANCH   1   2
ATOM      2  C   UNL A   1      36.542  19.976  24.996  1.00  0.00     0.274 C 
BRANCH   2   3
ATOM      3  O   UNL A   1      35.604  21.025  25.300  1.00  0.00    -0.461 OA
BRANCH   3   4
ATOM      4  C   UNL A   1      34.313  20.819  24.902  1.00  0.00     0.324 C 
ATOM      5  O   UNL A   1      33.916  19.780  24.391  1.00  0.00    -0.250 OA
BRANCH   4   6
ATOM      6  C   UNL A   1      33.473  22.075  25.119  1.00  0.00     0.183 C 
ATOM      7  N   UNL A   1      32.986  22.710  23.868  1.00  0.00    -0.184 NA
ATOM      8  C   UNL A   1      31.520  22.645  23.780  1.00  0.00     0.103 C 
ATOM      9  C   UNL A   1      31.073  22.581  25.224  1.00  0.00     0.019 C 
ATOM     10  C   UNL A   1      32.187  21.825  25.933  1.00  0.00     0.034 C 
BRANCH   7  11
ATOM     11  S   UNL A   1      33.836  23.948  23.121  1.00  0.00     0.243 S 
ATOM     12  O   UNL A   1      33.290  24.096  21.790  1.00  0.00    -0.207 OA
ATOM     13  O   UNL A   1      35.244  23.743  23.363  1.00  0.00    -0.207 OA
BRANCH  11  14
ATOM     14  C   UNL A   1      33.417  25.445  24.004  1.00  0.00     0.084 A 
ATOM     15  C   UNL A   1      33.457  29.564  27.005  1.00  0.00     0.154 C 
ATOM     16  N   UNL A   1      32.627  29.147  25.884  1.00  0.00    -0.305 N 
ATOM     17  C   UNL A   1      31.630  30.011  25.446  1.00  0.00     0.316 A 
ATOM     18  C   UNL A   1      32.857  27.898  25.253  1.00  0.00     0.068 A 
ATOM     19  O   UNL A   1      31.409  31.101  25.969  1.00  0.00    -0.263 OA
ATOM     20  C   UNL A   1      30.776  29.572  24.249  1.00  0.00     0.316 A 
ATOM     21  C   UNL A   1      32.080  27.484  24.154  1.00  0.00     0.069 A 
ATOM     22  C   UNL A   1      33.881  27.067  25.719  1.00  0.00     0.030 A 
ATOM     23  O   UNL A   1      29.898  30.338  23.857  1.00  0.00    -0.263 OA
ATOM     24  N   UNL A   1      31.046  28.332  23.668  1.00  0.00    -0.305 N 
ATOM     25  C   UNL A   1      32.362  26.243  23.542  1.00  0.00     0.050 A 
ATOM     26  C   UNL A   1      34.162  25.862  25.096  1.00  0.00     0.024 A 
ATOM     27  C   UNL A   1      30.238  27.928  22.525  1.00  0.00     0.154 C 
ENDBRANCH  11  14
ENDBRANCH   7  11
ENDBRANCH   4   6
ENDBRANCH   3   4
ENDBRANCH   2   3
ENDBRANCH   1   2
BRANCH   1  28
ATOM     28  O   UNL A   1      38.269  21.548  25.765  1.00  0.00    -0.458 OA
BRANCH  28  29
ATOM     29  C   UNL A   1      39.432  21.377  26.439  1.00  0.00     0.338 C 
ATOM     30  O   UNL A   1      40.036  20.331  26.607  1.00  0.00    -0.246 OA
BRANCH  29  31
ATOM     31  C   UNL A   1      39.948  22.697  26.833  1.00  0.00     0.060 A 
ATOM     32  C   UNL A   1      39.454  23.864  26.253  1.00  0.00     0.016 A 
ATOM     33  C   UNL A   1      40.935  22.761  27.817  1.00  0.00     0.016 A 
ATOM     34  C   UNL A   1      39.988  25.094  26.645  1.00  0.00     0.010 A 
ATOM     35  C   UNL A   1      41.449  23.985  28.228  1.00  0.00     0.010 A 
ATOM     36  C   UNL A   1      40.996  25.160  27.627  1.00  0.00    -0.014 A 
BRANCH  36  37
ATOM     37  C   UNL A   1      41.563  26.462  28.042  1.00  0.00     0.031 A 
ATOM     38  C   UNL A   1      42.991  26.814  27.725  1.00  0.00     0.074 A 
ATOM     39  C   UNL A   1      40.791  27.310  28.746  1.00  0.00     0.049 A 
ATOM     40  N   UNL A   1      43.617  27.943  27.931  1.00  0.00    -0.248 NA
ATOM     41  C   UNL A   1      43.830  25.768  27.113  1.00  0.00     0.031 C 
ATOM     42  C   UNL A   1      39.434  27.022  29.214  1.00  0.00     0.029 A 
ATOM     43  N   UNL A   1      41.039  28.579  29.200  1.00  0.00    -0.354 N 
ATOM     44  C   UNL A   1      44.918  27.744  27.488  1.00  0.00     0.074 A 
ATOM     45  C   UNL A   1      45.006  26.377  27.025  1.00  0.00     0.031 C 
ATOM     46  C   UNL A   1      38.962  28.091  29.873  1.00  0.00     0.029 A 
ATOM     47  C   UNL A   1      39.981  29.137  29.875  1.00  0.00     0.049 A 
ATOM     48  H   UNL A   1      41.894  29.046  29.057  1.00  0.00     0.167 HD
ATOM     49  C   UNL A   1      45.935  28.635  27.438  1.00  0.00     0.034 A 
ATOM     50  C   UNL A   1      39.840  30.362  30.417  1.00  0.00     0.034 A 
ATOM     51  C   UNL A   1      45.824  30.004  27.855  1.00  0.00     0.049 A 
ATOM     52  C   UNL A   1      40.955  31.359  30.268  1.00  0.00     0.074 A 
ATOM     53  C   UNL A   1      46.769  31.010  27.754  1.00  0.00     0.029 A 
ATOM     54  N   UNL A   1      44.705  30.560  28.452  1.00  0.00    -0.354 N 
ATOM     55  N   UNL A   1      42.116  31.207  29.679  1.00  0.00    -0.248 NA
ATOM     56  C   UNL A   1      40.729  32.703  30.817  1.00  0.00     0.031 C 
ATOM     57  C   UNL A   1      46.218  32.179  28.287  1.00  0.00     0.029 A 
ATOM     58  C   UNL A   1      44.932  31.898  28.721  1.00  0.00     0.049 A 
ATOM     59  H   UNL A   1      43.872  30.076  28.655  1.00  0.00     0.167 HD
ATOM     60  C   UNL A   1      42.754  32.437  29.774  1.00  0.00     0.074 A 
ATOM     61  C   UNL A   1      41.841  33.331  30.455  1.00  0.00     0.031 C 
ATOM     62  C   UNL A   1      43.993  32.786  29.352  1.00  0.00     0.034 A 
BRANCH  49  63
ATOM     63  C   UNL A   1      47.234  28.205  26.815  1.00  0.00     0.023 A 
ATOM     64  C   UNL A   1      48.275  27.774  27.660  1.00  0.00     0.012 A 
ATOM     65  C   UNL A   1      47.376  28.085  25.418  1.00  0.00     0.148 A 
ATOM     66  C   UNL A   1      49.441  27.228  27.127  1.00  0.00     0.002 A 
ATOM     67  C   UNL A   1      48.531  27.516  24.895  1.00  0.00     0.091 A 
ATOM     68  F   UNL A   1      46.369  28.501  24.637  1.00  0.00    -0.205 F 
ATOM     69  C   UNL A   1      49.565  27.089  25.748  1.00  0.00     0.022 A 
BRANCH  67  70
ATOM     70  S   UNL A   1      48.776  27.235  23.137  1.00  0.00     0.127 S 
ATOM     71  O   UNL A   1      50.232  27.322  23.021  1.00  0.00    -0.237 OA
ATOM     72  O   UNL A   1      48.232  25.888  22.966  1.00  0.00    -0.237 OA
ATOM     73  O   UNL A   1      48.044  28.290  22.451  1.00  0.00    -0.744 OA
ENDBRANCH  67  70
ENDBRANCH  49  63
BRANCH  50  74
ATOM     74  C   UNL A   1      38.551  30.731  31.059  1.00  0.00     0.023 A 
ATOM     75  C   UNL A   1      38.365  30.466  32.429  1.00  0.00     0.012 A 
ATOM     76  C   UNL A   1      37.544  31.404  30.341  1.00  0.00     0.148 A 
ATOM     77  C   UNL A   1      37.188  30.850  33.071  1.00  0.00     0.002 A 
ATOM     78  C   UNL A   1      36.392  31.821  30.996  1.00  0.00     0.091 A 
ATOM     79  F   UNL A   1      37.743  31.637  29.036  1.00  0.00    -0.205 F 
ATOM     80  C   UNL A   1      36.207  31.537  32.358  1.00  0.00     0.022 A 
BRANCH  78  81
ATOM     81  S   UNL A   1      35.127  32.808  30.188  1.00  0.00     0.127 S 
ATOM     82  O   UNL A   1      34.649  31.891  29.156  1.00  0.00    -0.237 OA
ATOM     83  O   UNL A   1      34.186  33.049  31.281  1.00  0.00    -0.237 OA
ATOM     84  O   UNL A   1      35.807  34.002  29.708  1.00  0.00    -0.744 OA
ENDBRANCH  78  81
ENDBRANCH  50  74
BRANCH  62  85
ATOM     85  C   UNL A   1      44.455  34.190  29.608  1.00  0.00     0.023 A 
ATOM     86  C   UNL A   1      45.067  34.495  30.840  1.00  0.00     0.012 A 
ATOM     87  C   UNL A   1      44.413  35.163  28.590  1.00  0.00     0.148 A 
ATOM     88  C   UNL A   1      45.626  35.752  31.057  1.00  0.00     0.002 A 
ATOM     89  C   UNL A   1      45.001  36.403  28.802  1.00  0.00     0.091 A 
ATOM     90  F   UNL A   1      43.817  34.846  27.431  1.00  0.00    -0.205 F 
ATOM     91  C   UNL A   1      45.604  36.700  30.036  1.00  0.00     0.022 A 
BRANCH  89  92
ATOM     92  S   UNL A   1      45.091  37.663  27.526  1.00  0.00     0.127 S 
ATOM     93  O   UNL A   1      43.678  37.875  27.216  1.00  0.00    -0.237 OA
ATOM     94  O   UNL A   1      45.736  38.772  28.230  1.00  0.00    -0.237 OA
ATOM     95  O   UNL A   1      45.882  37.089  26.444  1.00  0.00    -0.744 OA
ENDBRANCH  89  92
ENDBRANCH  62  85
ENDBRANCH  36  37
ENDBRANCH  29  31
ENDBRANCH  28  29
ENDBRANCH   1  28
TORSDOF 16
ENDMDL
MODEL 2
REMARK VINA RESULT:     -12.5      1.752      2.412
REMARK SMILES Cn1c(=O)c(=O)n(C)c2cc(S(=O)(=O)N3CCC[C@H]3C(=O)OCCOC(=O)c3ccc(-c4c5nc(c(-c6cccc(S(=O)(=O)[O-])c6F)c6ccc([nH]6)c(-c6cccc(S(=O)(=O)[O-])c6F)c6nc(c(-c7cccc(S(=O)(=O)[O-])c7F)c7ccc4[nH]7)C=C6)C=C5)cc3)ccc21
REMARK SMILES IDX 24 1 23 2 22 3 20 4 21 5 19 6 15 7 16 8 17 9 18 10 12 11
REMARK SMILES IDX 13 12 14 13 11 14 1 15 2 16 3 17 93 18 4 19 5 20 9 21 92 22
REMARK SMILES IDX 6 23 7 24 10 25 91 26 8 27 25 28 26 29 27 30 28 31 29 32
REMARK SMILES IDX 90 33 30 34 89 35 31 36 32 37 33 38 83 39 34 40 88 41 82 42
REMARK SMILES IDX 84 43 35 44 87 45 81 46 80 47 36 49 68 50 48 51 67 52 49 53
REMARK SMILES IDX 52 54 66 55 85 56 50 57 51 58 65 60 86 61 53 62 37 63 38 64
REMARK SMILES IDX 46 65 39 66 41 67 47 68 40 69 42 70 43 71 44 72 45 73 69 74
REMARK SMILES IDX 70 75 78 76 71 77 73 78 79 79 72 80 74 81 75 82 76 83 77 84
REMARK SMILES IDX 54 85 55 86 63 87 56 88 58 89 64 90 57 91 59 92 60 93 61 94
REMARK SMILES IDX 62 95
REMARK H PARENT 84 48 52 59
REMARK Flexibility Score: inf
ROOT
ATOM      1  C   UNL A   1      36.167  21.014  24.698  1.00  0.00     0.275 C 
ENDROOT
BRANCH   1   2
ATOM      2  C   UNL A   1      35.206  19.853  24.973  1.00  0.00     0.274 C 
BRANCH   2   3
ATOM      3  O   UNL A   1      34.064  20.297  25.728  1.00  0.00    -0.461 OA
BRANCH   3   4
ATOM      4  C   UNL A   1      32.846  19.833  25.316  1.00  0.00     0.324 C 
ATOM      5  O   UNL A   1      32.454  18.689  25.505  1.00  0.00    -0.250 OA
BRANCH   4   6
ATOM      6  C   UNL A   1      32.094  20.909  24.538  1.00  0.00     0.183 C 
ATOM      7  N   UNL A   1      32.443  22.301  24.923  1.00  0.00    -0.184 NA
ATOM      8  C   UNL A   1      33.101  23.006  23.814  1.00  0.00     0.103 C 
ATOM      9  C   UNL A   1      32.572  22.310  22.578  1.00  0.00     0.019 C 
ATOM     10  C   UNL A   1      32.356  20.869  23.018  1.00  0.00     0.034 C 
BRANCH   7  11
ATOM     11  S   UNL A   1      31.559  23.143  26.071  1.00  0.00     0.243 S 
ATOM     12  O   UNL A   1      32.445  23.405  27.184  1.00  0.00    -0.207 OA
ATOM     13  O   UNL A   1      30.283  22.488  26.235  1.00  0.00    -0.207 OA
BRANCH  11  14
ATOM     14  C   UNL A   1      31.184  24.734  25.345  1.00  0.00     0.084 A 
ATOM     15  C   UNL A   1      29.076  28.596  22.774  1.00  0.00     0.154 C 
ATOM     16  N   UNL A   1      30.054  28.521  23.849  1.00  0.00    -0.305 N 
ATOM     17  C   UNL A   1      30.547  29.710  24.374  1.00  0.00     0.316 A 
ATOM     18  C   UNL A   1      30.467  27.261  24.351  1.00  0.00     0.068 A 
ATOM     19  O   UNL A   1      30.206  30.818  23.964  1.00  0.00    -0.263 OA
ATOM     20  C   UNL A   1      31.560  29.621  25.523  1.00  0.00     0.316 A 
ATOM     21  C   UNL A   1      31.398  27.166  25.404  1.00  0.00     0.069 A 
ATOM     22  C   UNL A   1      29.934  26.091  23.801  1.00  0.00     0.030 A 
ATOM     23  O   UNL A   1      31.992  30.673  25.991  1.00  0.00    -0.263 OA
ATOM     24  N   UNL A   1      31.932  28.355  25.975  1.00  0.00    -0.305 N 
ATOM     25  C   UNL A   1      31.760  25.890  25.887  1.00  0.00     0.050 A 
ATOM     26  C   UNL A   1      30.282  24.845  24.299  1.00  0.00     0.024 A 
ATOM     27  C   UNL A   1      32.887  28.279  27.073  1.00  0.00     0.154 C 
ENDBRANCH  11  14
ENDBRANCH   7  11
ENDBRANCH   4   6
ENDBRANCH   3   4
ENDBRANCH   2   3
ENDBRANCH   1   2
BRANCH   1  28
ATOM     28  O   UNL A   1      36.882  21.404  25.885  1.00  0.00    -0.458 OA
BRANCH  28  29
ATOM     29  C   UNL A   1      38.219  21.184  25.875  1.00  0.00     0.338 C 
ATOM     30  O   UNL A   1      38.798  20.191  25.468  1.00  0.00    -0.246 OA
BRANCH  29  31
ATOM     31  C   UNL A   1      38.902  22.412  26.313  1.00  0.00     0.060 A 
ATOM     32  C   UNL A   1      38.382  23.669  26.013  1.00  0.00     0.016 A 
ATOM     33  C   UNL A   1      40.079  22.292  27.054  1.00  0.00     0.016 A 
ATOM     34  C   UNL A   1      39.076  24.807  26.433  1.00  0.00     0.010 A 
ATOM     35  C   UNL A   1      40.756  23.422  27.496  1.00  0.00     0.010 A 
ATOM     36  C   UNL A   1      40.272  24.689  27.168  1.00  0.00    -0.014 A 
BRANCH  36  37
ATOM     37  C   UNL A   1      41.008  25.894  27.613  1.00  0.00     0.031 A 
ATOM     38  C   UNL A   1      42.456  26.085  27.253  1.00  0.00     0.074 A 
ATOM     39  C   UNL A   1      40.370  26.796  28.381  1.00  0.00     0.049 A 
ATOM     40  N   UNL A   1      43.222  27.120  27.480  1.00  0.00    -0.248 NA
ATOM     41  C   UNL A   1      43.139  24.974  26.566  1.00  0.00     0.031 C 
ATOM     42  C   UNL A   1      39.005  26.652  28.891  1.00  0.00     0.029 A 
ATOM     43  N   UNL A   1      40.787  28.003  28.876  1.00  0.00    -0.354 N 
ATOM     44  C   UNL A   1      44.473  26.785  26.977  1.00  0.00     0.074 A 
ATOM     45  C   UNL A   1      44.377  25.440  26.456  1.00  0.00     0.031 C 
ATOM     46  C   UNL A   1      38.690  27.739  29.611  1.00  0.00     0.029 A 
ATOM     47  C   UNL A   1      39.829  28.654  29.615  1.00  0.00     0.049 A 
ATOM     48  H   UNL A   1      41.687  28.370  28.718  1.00  0.00     0.167 HD
ATOM     49  C   UNL A   1      45.589  27.549  26.922  1.00  0.00     0.034 A 
ATOM     50  C   UNL A   1      39.858  29.861  30.211  1.00  0.00     0.034 A 
ATOM     51  C   UNL A   1      45.660  28.902  27.399  1.00  0.00     0.049 A 
ATOM     52  C   UNL A   1      41.080  30.722  30.058  1.00  0.00     0.074 A 
ATOM     53  C   UNL A   1      46.716  29.790  27.301  1.00  0.00     0.029 A 
ATOM     54  N   UNL A   1      44.639  29.561  28.062  1.00  0.00    -0.354 N 
ATOM     55  N   UNL A   1      42.193  30.458  29.417  1.00  0.00    -0.248 NA
ATOM     56  C   UNL A   1      41.039  32.057  30.670  1.00  0.00     0.031 C 
ATOM     57  C   UNL A   1      46.332  30.991  27.903  1.00  0.00     0.029 A 
ATOM     58  C   UNL A   1      45.037  30.847  28.376  1.00  0.00     0.049 A 
ATOM     59  H   UNL A   1      43.761  29.171  28.279  1.00  0.00     0.167 HD
ATOM     60  C   UNL A   1      42.979  31.597  29.537  1.00  0.00     0.074 A 
ATOM     61  C   UNL A   1      42.206  32.563  30.290  1.00  0.00     0.031 C 
ATOM     62  C   UNL A   1      44.236  31.812  29.080  1.00  0.00     0.034 A 
BRANCH  49  63
ATOM     63  C   UNL A   1      46.803  26.995  26.230  1.00  0.00     0.023 A 
ATOM     64  C   UNL A   1      46.959  27.234  24.851  1.00  0.00     0.012 A 
ATOM     65  C   UNL A   1      47.845  26.381  26.952  1.00  0.00     0.148 A 
ATOM     66  C   UNL A   1      48.134  26.871  24.196  1.00  0.00     0.002 A 
ATOM     67  C   UNL A   1      49.025  26.045  26.298  1.00  0.00     0.091 A 
ATOM     68  F   UNL A   1      47.672  26.168  28.265  1.00  0.00    -0.205 F 
ATOM     69  C   UNL A   1      49.169  26.287  24.920  1.00  0.00     0.022 A 
BRANCH  67  70
ATOM     70  S   UNL A   1      50.447  25.341  27.140  1.00  0.00     0.127 S 
ATOM     71  O   UNL A   1      50.846  26.439  28.021  1.00  0.00    -0.237 OA
ATOM     72  O   UNL A   1      49.855  24.194  27.828  1.00  0.00    -0.237 OA
ATOM     73  O   UNL A   1      51.412  25.009  26.101  1.00  0.00    -0.744 OA
ENDBRANCH  67  70
ENDBRANCH  49  63
BRANCH  50  74
ATOM     74  C   UNL A   1      38.646  30.353  30.919  1.00  0.00     0.023 A 
ATOM     75  C   UNL A   1      38.550  30.187  32.313  1.00  0.00     0.012 A 
ATOM     76  C   UNL A   1      37.630  31.044  30.233  1.00  0.00     0.148 A 
ATOM     77  C   UNL A   1      37.452  30.687  33.012  1.00  0.00     0.002 A 
ATOM     78  C   UNL A   1      36.559  31.576  30.940  1.00  0.00     0.091 A 
ATOM     79  F   UNL A   1      37.743  31.182  28.904  1.00  0.00    -0.205 F 
ATOM     80  C   UNL A   1      36.462  31.390  32.328  1.00  0.00     0.022 A 
BRANCH  78  81
ATOM     81  S   UNL A   1      35.299  32.592  30.162  1.00  0.00     0.127 S 
ATOM     82  O   UNL A   1      36.082  33.733  29.696  1.00  0.00    -0.237 OA
ATOM     83  O   UNL A   1      34.808  31.708  29.104  1.00  0.00    -0.237 OA
ATOM     84  O   UNL A   1      34.323  32.876  31.205  1.00  0.00    -0.744 OA
ENDBRANCH  78  81
ENDBRANCH  50  74
BRANCH  62  85
ATOM     85  C   UNL A   1      44.875  33.139  29.374  1.00  0.00     0.023 A 
ATOM     86  C   UNL A   1      45.685  33.268  30.519  1.00  0.00     0.012 A 
ATOM     87  C   UNL A   1      44.789  34.202  28.455  1.00  0.00     0.148 A 
ATOM     88  C   UNL A   1      46.397  34.442  30.748  1.00  0.00     0.002 A 
ATOM     89  C   UNL A   1      45.528  35.358  28.674  1.00  0.00     0.091 A 
ATOM     90  F   UNL A   1      44.004  34.053  27.378  1.00  0.00    -0.205 F 
ATOM     91  C   UNL A   1      46.329  35.480  29.821  1.00  0.00     0.022 A 
BRANCH  89  92
ATOM     92  S   UNL A   1      45.567  36.719  27.503  1.00  0.00     0.127 S 
ATOM     93  O   UNL A   1      46.322  37.727  28.245  1.00  0.00    -0.237 OA
ATOM     94  O   UNL A   1      46.282  36.132  26.369  1.00  0.00    -0.237 OA
ATOM     95  O   UNL A   1      44.176  37.061  27.233  1.00  0.00    -0.744 OA
ENDBRANCH  89  92
ENDBRANCH  62  85
ENDBRANCH  36  37
ENDBRANCH  29  31
ENDBRANCH  28  29
ENDBRANCH   1  28
TORSDOF 16
ENDMDL
MODEL 3
REMARK VINA RESULT:     -12.5      4.901     10.373
REMARK SMILES Cn1c(=O)c(=O)n(C)c2cc(S(=O)(=O)N3CCC[C@H]3C(=O)OCCOC(=O)c3ccc(-c4c5nc(c(-c6cccc(S(=O)(=O)[O-])c6F)c6ccc([nH]6)c(-c6cccc(S(=O)(=O)[O-])c6F)c6nc(c(-c7cccc(S(=O)(=O)[O-])c7F)c7ccc4[nH]7)C=C6)C=C5)cc3)ccc21
REMARK SMILES IDX 24 1 23 2 22 3 20 4 21 5 19 6 15 7 16 8 17 9 18 10 12 11
REMARK SMILES IDX 13 12 14 13 11 14 1 15 2 16 3 17 93 18 4 19 5 20 9 21 92 22
REMARK SMILES IDX 6 23 7 24 10 25 91 26 8 27 25 28 26 29 27 30 28 31 29 32
REMARK SMILES IDX 90 33 30 34 89 35 31 36 32 37 33 38 83 39 34 40 88 41 82 42
REMARK SMILES IDX 84 43 35 44 87 45 81 46 80 47 36 49 68 50 48 51 67 52 49 53
REMARK SMILES IDX 52 54 66 55 85 56 50 57 51 58 65 60 86 61 53 62 37 63 38 64
REMARK SMILES IDX 46 65 39 66 41 67 47 68 40 69 42 70 43 71 44 72 45 73 69 74
REMARK SMILES IDX 70 75 78 76 71 77 73 78 79 79 72 80 74 81 75 82 76 83 77 84
REMARK SMILES IDX 54 85 55 86 63 87 56 88 58 89 64 90 57 91 59 92 60 93 61 94
REMARK SMILES IDX 62 95
REMARK H PARENT 84 48 52 59
REMARK Flexibility Score: inf
ROOT
ATOM      1  C   UNL A   1      32.120  30.571  27.037  1.00  0.00     0.275 C 
ENDROOT
BRANCH   1   2
ATOM      2  C   UNL A   1      31.355  30.579  25.709  1.00  0.00     0.274 C 
BRANCH   2   3
ATOM      3  O   UNL A   1      31.938  29.654  24.772  1.00  0.00    -0.461 OA
BRANCH   3   4
ATOM      4  C   UNL A   1      31.064  28.914  24.027  1.00  0.00     0.324 C 
ATOM      5  O   UNL A   1      29.965  29.315  23.669  1.00  0.00    -0.250 OA
BRANCH   4   6
ATOM      6  C   UNL A   1      31.621  27.515  23.775  1.00  0.00     0.183 C 
ATOM      7  N   UNL A   1      30.895  26.429  24.483  1.00  0.00    -0.184 NA
ATOM      8  C   UNL A   1      30.230  25.530  23.530  1.00  0.00     0.103 C 
ATOM      9  C   UNL A   1      31.064  25.653  22.274  1.00  0.00     0.019 C 
ATOM     10  C   UNL A   1      31.570  27.088  22.294  1.00  0.00     0.034 C 
BRANCH   7  11
ATOM     11  S   UNL A   1      31.394  25.872  25.984  1.00  0.00     0.243 S 
ATOM     12  O   UNL A   1      30.344  25.017  26.491  1.00  0.00    -0.207 OA
ATOM     13  O   UNL A   1      31.914  26.990  26.735  1.00  0.00    -0.207 OA
BRANCH  11  14
ATOM     14  C   UNL A   1      32.801  24.811  25.680  1.00  0.00     0.084 A 
ATOM     15  C   UNL A   1      37.469  22.783  25.406  1.00  0.00     0.154 C 
ATOM     16  N   UNL A   1      36.126  22.234  25.284  1.00  0.00    -0.305 N 
ATOM     17  C   UNL A   1      35.992  20.864  25.087  1.00  0.00     0.316 A 
ATOM     18  C   UNL A   1      34.996  23.082  25.389  1.00  0.00     0.068 A 
ATOM     19  O   UNL A   1      36.952  20.101  24.996  1.00  0.00    -0.263 OA
ATOM     20  C   UNL A   1      34.573  20.290  24.984  1.00  0.00     0.316 A 
ATOM     21  C   UNL A   1      33.688  22.568  25.295  1.00  0.00     0.069 A 
ATOM     22  C   UNL A   1      35.178  24.452  25.602  1.00  0.00     0.030 A 
ATOM     23  O   UNL A   1      34.454  19.078  24.814  1.00  0.00    -0.263 OA
ATOM     24  N   UNL A   1      33.497  21.172  25.092  1.00  0.00    -0.305 N 
ATOM     25  C   UNL A   1      32.593  23.448  25.430  1.00  0.00     0.050 A 
ATOM     26  C   UNL A   1      34.094  25.302  25.754  1.00  0.00     0.024 A 
ATOM     27  C   UNL A   1      32.153  20.618  25.003  1.00  0.00     0.154 C 
ENDBRANCH  11  14
ENDBRANCH   7  11
ENDBRANCH   4   6
ENDBRANCH   3   4
ENDBRANCH   2   3
ENDBRANCH   1   2
BRANCH   1  28
ATOM     28  O   UNL A   1      33.521  30.835  26.843  1.00  0.00    -0.458 OA
BRANCH  28  29
ATOM     29  C   UNL A   1      34.034  31.877  27.541  1.00  0.00     0.338 C 
ATOM     30  O   UNL A   1      33.517  32.967  27.720  1.00  0.00    -0.246 OA
BRANCH  29  31
ATOM     31  C   UNL A   1      35.283  31.444  28.186  1.00  0.00     0.060 A 
ATOM     32  C   UNL A   1      36.377  32.303  28.281  1.00  0.00     0.016 A 
ATOM     33  C   UNL A   1      35.348  30.157  28.720  1.00  0.00     0.016 A 
ATOM     34  C   UNL A   1      37.549  31.842  28.886  1.00  0.00     0.010 A 
ATOM     35  C   UNL A   1      36.504  29.705  29.345  1.00  0.00     0.010 A 
ATOM     36  C   UNL A   1      37.623  30.537  29.411  1.00  0.00    -0.014 A 
BRANCH  36  37
ATOM     37  C   UNL A   1      38.864  30.047  30.050  1.00  0.00     0.031 A 
ATOM     38  C   UNL A   1      39.259  30.521  31.422  1.00  0.00     0.074 A 
ATOM     39  C   UNL A   1      39.656  29.202  29.364  1.00  0.00     0.049 A 
ATOM     40  N   UNL A   1      40.260  30.124  32.163  1.00  0.00    -0.248 NA
ATOM     41  C   UNL A   1      38.442  31.581  32.037  1.00  0.00     0.031 C 
ATOM     42  C   UNL A   1      39.433  28.774  27.982  1.00  0.00     0.029 A 
ATOM     43  N   UNL A   1      40.811  28.563  29.730  1.00  0.00    -0.354 N 
ATOM     44  C   UNL A   1      40.201  30.888  33.323  1.00  0.00     0.074 A 
ATOM     45  C   UNL A   1      39.084  31.794  33.179  1.00  0.00     0.031 C 
ATOM     46  C   UNL A   1      40.410  27.926  27.624  1.00  0.00     0.029 A 
ATOM     47  C   UNL A   1      41.326  27.754  28.747  1.00  0.00     0.049 A 
ATOM     48  H   UNL A   1      41.232  28.673  30.614  1.00  0.00     0.167 HD
ATOM     49  C   UNL A   1      40.988  30.810  34.421  1.00  0.00     0.034 A 
ATOM     50  C   UNL A   1      42.405  26.947  28.757  1.00  0.00     0.034 A 
ATOM     51  C   UNL A   1      42.065  29.874  34.573  1.00  0.00     0.049 A 
ATOM     52  C   UNL A   1      43.207  26.817  30.021  1.00  0.00     0.074 A 
ATOM     53  C   UNL A   1      42.858  29.652  35.685  1.00  0.00     0.029 A 
ATOM     54  N   UNL A   1      42.502  29.005  33.587  1.00  0.00    -0.354 N 
ATOM     55  N   UNL A   1      43.024  27.415  31.173  1.00  0.00    -0.248 NA
ATOM     56  C   UNL A   1      44.335  25.875  30.004  1.00  0.00     0.031 C 
ATOM     57  C   UNL A   1      43.774  28.644  35.372  1.00  0.00     0.029 A 
ATOM     58  C   UNL A   1      43.551  28.241  34.065  1.00  0.00     0.049 A 
ATOM     59  H   UNL A   1      42.123  28.941  32.680  1.00  0.00     0.167 HD
ATOM     60  C   UNL A   1      44.003  26.914  32.021  1.00  0.00     0.074 A 
ATOM     61  C   UNL A   1      44.762  25.944  31.259  1.00  0.00     0.031 C 
ATOM     62  C   UNL A   1      44.260  27.244  33.309  1.00  0.00     0.034 A 
BRANCH  49  63
ATOM     63  C   UNL A   1      40.659  31.683  35.600  1.00  0.00     0.023 A 
ATOM     64  C   UNL A   1      41.503  32.775  35.885  1.00  0.00     0.012 A 
ATOM     65  C   UNL A   1      39.460  31.522  36.323  1.00  0.00     0.148 A 
ATOM     66  C   UNL A   1      41.161  33.696  36.872  1.00  0.00     0.002 A 
ATOM     67  C   UNL A   1      39.113  32.460  37.288  1.00  0.00     0.091 A 
ATOM     68  F   UNL A   1      38.675  30.476  36.029  1.00  0.00    -0.205 F 
ATOM     69  C   UNL A   1      39.964  33.545  37.566  1.00  0.00     0.022 A 
BRANCH  67  70
ATOM     70  S   UNL A   1      37.569  32.399  38.204  1.00  0.00     0.127 S 
ATOM     71  O   UNL A   1      37.905  33.159  39.408  1.00  0.00    -0.237 OA
ATOM     72  O   UNL A   1      36.649  33.078  37.293  1.00  0.00    -0.237 OA
ATOM     73  O   UNL A   1      37.287  30.988  38.432  1.00  0.00    -0.744 OA
ENDBRANCH  67  70
ENDBRANCH  49  63
BRANCH  50  74
ATOM     74  C   UNL A   1      42.716  26.131  27.554  1.00  0.00     0.023 A 
ATOM     75  C   UNL A   1      43.515  26.685  26.536  1.00  0.00     0.012 A 
ATOM     76  C   UNL A   1      42.287  24.795  27.447  1.00  0.00     0.148 A 
ATOM     77  C   UNL A   1      43.869  25.925  25.421  1.00  0.00     0.002 A 
ATOM     78  C   UNL A   1      42.677  24.031  26.354  1.00  0.00     0.091 A 
ATOM     79  F   UNL A   1      41.520  24.295  28.427  1.00  0.00    -0.205 F 
ATOM     80  C   UNL A   1      43.459  24.596  25.336  1.00  0.00     0.022 A 
BRANCH  78  81
ATOM     81  S   UNL A   1      42.293  22.282  26.215  1.00  0.00     0.127 S 
ATOM     82  O   UNL A   1      42.830  21.758  27.468  1.00  0.00    -0.237 OA
ATOM     83  O   UNL A   1      40.833  22.298  26.129  1.00  0.00    -0.237 OA
ATOM     84  O   UNL A   1      42.959  21.828  25.002  1.00  0.00    -0.744 OA
ENDBRANCH  78  81
ENDBRANCH  50  74
BRANCH  62  85
ATOM     85  C   UNL A   1      45.409  26.564  33.995  1.00  0.00     0.023 A 
ATOM     86  C   UNL A   1      46.690  27.146  33.923  1.00  0.00     0.012 A 
ATOM     87  C   UNL A   1      45.198  25.440  34.817  1.00  0.00     0.148 A 
ATOM     88  C   UNL A   1      47.748  26.614  34.656  1.00  0.00     0.002 A 
ATOM     89  C   UNL A   1      46.250  24.935  35.571  1.00  0.00     0.091 A 
ATOM     90  F   UNL A   1      43.970  24.903  34.861  1.00  0.00    -0.205 F 
ATOM     91  C   UNL A   1      47.525  25.519  35.489  1.00  0.00     0.022 A 
BRANCH  89  92
ATOM     92  S   UNL A   1      46.048  23.577  36.729  1.00  0.00     0.127 S 
ATOM     93  O   UNL A   1      45.863  22.443  35.826  1.00  0.00    -0.237 OA
ATOM     94  O   UNL A   1      47.325  23.587  37.444  1.00  0.00    -0.237 OA
ATOM     95  O   UNL A   1      44.890  23.911  37.548  1.00  0.00    -0.744 OA
ENDBRANCH  89  92
ENDBRANCH  62  85
ENDBRANCH  36  37
ENDBRANCH  29  31
ENDBRANCH  28  29
ENDBRANCH   1  28
TORSDOF 16
ENDMDL
