MODEL 1
REMARK VINA RESULT:     -11.4      0.000      0.000
REMARK SMILES Cc1nsc(Nc2ccccc2C(C)C)c1C(=O)OCCOC(=O)c1ccc(-c2c3nc(c(-c4cccc(S(=O)(=O)[O-])c4F)c4ccc([nH]4)c(-c4cccc(S(=O)(=O)[O-])c4F)c4nc(c(-c5cccc(S(=O)(=O)[O-])c5F)c5ccc2[nH]5)C=C4)C=C3)cc1
REMARK SMILES IDX 20 1 19 2 17 3 18 4 16 5 1 6 2 7 3 8 4 9 5 10 6 11 7 13 8 14
REMARK SMILES IDX 12 15 9 16 11 17 10 18 13 19 14 20 15 21 21 22 22 23 23 24
REMARK SMILES IDX 24 25 25 26 26 27 87 28 27 29 86 30 28 31 29 32 30 33 80 34
REMARK SMILES IDX 31 35 85 36 79 37 81 38 32 39 84 40 78 41 77 42 33 44 65 45
REMARK SMILES IDX 45 46 64 47 46 48 49 49 63 50 82 51 47 52 48 53 62 55 83 56
REMARK SMILES IDX 50 57 34 58 35 59 43 60 36 61 38 62 44 63 37 64 39 65 40 66
REMARK SMILES IDX 41 67 42 68 66 69 67 70 75 71 68 72 70 73 76 74 69 75 71 76
REMARK SMILES IDX 72 77 73 78 74 79 51 80 52 81 60 82 53 83 55 84 61 85 54 86
REMARK SMILES IDX 56 87 57 88 58 89 59 90
REMARK H PARENT 6 12 81 43 49 54
REMARK Flexibility Score: inf
ROOT
ATOM      1  C   UNL A   1      33.926  28.408  27.007  1.00  0.00     0.275 C 
ENDROOT
BRANCH   1   2
ATOM      2  O   UNL A   1      33.919  27.973  25.632  1.00  0.00    -0.458 OA
BRANCH   2   3
ATOM      3  C   UNL A   1      32.917  27.129  25.240  1.00  0.00     0.343 C 
ATOM      4  O   UNL A   1      31.904  26.921  25.903  1.00  0.00    -0.246 OA
BRANCH   3   5
ATOM      5  C   UNL A   1      33.139  26.535  23.922  1.00  0.00     0.117 A 
ATOM      6  C   UNL A   1      33.476  28.713  22.496  1.00  0.00     0.069 C 
ATOM      7  C   UNL A   1      33.400  27.236  22.685  1.00  0.00     0.068 A 
ATOM      8  N   UNL A   1      33.597  26.477  21.608  1.00  0.00    -0.195 NA
ATOM      9  S   UNL A   1      33.382  24.894  22.020  1.00  0.00    -0.017 S 
ATOM     10  C   UNL A   1      33.088  25.157  23.693  1.00  0.00     0.128 A 
BRANCH  10  11
ATOM     11  N   UNL A   1      32.820  24.179  24.604  1.00  0.00    -0.345 N 
ATOM     12  H   UNL A   1      32.326  24.459  25.409  1.00  0.00     0.167 HD
BRANCH  11  13
ATOM     13  C   UNL A   1      33.171  22.811  24.531  1.00  0.00     0.043 A 
ATOM     14  C   UNL A   1      32.141  21.857  24.605  1.00  0.00     0.026 A 
ATOM     15  C   UNL A   1      34.510  22.379  24.639  1.00  0.00    -0.022 A 
ATOM     16  C   UNL A   1      32.415  20.500  24.775  1.00  0.00     0.002 A 
ATOM     17  C   UNL A   1      34.768  21.003  24.820  1.00  0.00     0.006 A 
ATOM     18  C   UNL A   1      33.731  20.074  24.897  1.00  0.00     0.000 A 
BRANCH  15  19
ATOM     19  C   UNL A   1      35.677  23.350  24.523  1.00  0.00     0.015 C 
ATOM     20  C   UNL A   1      36.389  23.585  25.856  1.00  0.00     0.012 C 
ATOM     21  C   UNL A   1      36.660  22.869  23.450  1.00  0.00     0.012 C 
ENDBRANCH  15  19
ENDBRANCH  11  13
ENDBRANCH  10  11
ENDBRANCH   3   5
ENDBRANCH   2   3
ENDBRANCH   1   2
BRANCH   1  22
ATOM     22  C   UNL A   1      34.142  29.914  27.131  1.00  0.00     0.275 C 
BRANCH  22  23
ATOM     23  O   UNL A   1      35.531  30.229  27.208  1.00  0.00    -0.458 OA
BRANCH  23  24
ATOM     24  C   UNL A   1      35.823  31.135  28.163  1.00  0.00     0.338 C 
ATOM     25  O   UNL A   1      35.366  32.262  28.269  1.00  0.00    -0.246 OA
BRANCH  24  26
ATOM     26  C   UNL A   1      36.891  30.646  29.025  1.00  0.00     0.060 A 
ATOM     27  C   UNL A   1      37.996  31.488  29.172  1.00  0.00     0.016 A 
ATOM     28  C   UNL A   1      36.924  29.293  29.373  1.00  0.00     0.016 A 
ATOM     29  C   UNL A   1      39.208  30.930  29.490  1.00  0.00     0.010 A 
ATOM     30  C   UNL A   1      38.139  28.734  29.695  1.00  0.00     0.010 A 
ATOM     31  C   UNL A   1      39.278  29.544  29.649  1.00  0.00    -0.014 A 
BRANCH  31  32
ATOM     32  C   UNL A   1      40.600  28.959  29.749  1.00  0.00     0.031 A 
ATOM     33  C   UNL A   1      41.081  28.757  31.139  1.00  0.00     0.074 A 
ATOM     34  C   UNL A   1      41.242  28.546  28.639  1.00  0.00     0.049 A 
ATOM     35  N   UNL A   1      42.207  29.116  31.664  1.00  0.00    -0.248 NA
ATOM     36  C   UNL A   1      40.120  28.184  32.098  1.00  0.00     0.031 C 
ATOM     37  C   UNL A   1      40.706  28.477  27.273  1.00  0.00     0.029 A 
ATOM     38  N   UNL A   1      42.443  27.914  28.533  1.00  0.00    -0.354 N 
ATOM     39  C   UNL A   1      42.173  28.626  32.969  1.00  0.00     0.074 A 
ATOM     40  C   UNL A   1      40.821  28.214  33.228  1.00  0.00     0.031 C 
ATOM     41  C   UNL A   1      41.426  27.579  26.568  1.00  0.00     0.029 A 
ATOM     42  C   UNL A   1      42.528  27.121  27.395  1.00  0.00     0.049 A 
ATOM     43  H   UNL A   1      43.171  28.009  29.189  1.00  0.00     0.167 HD
ATOM     44  C   UNL A   1      43.305  28.371  33.675  1.00  0.00     0.034 A 
ATOM     45  C   UNL A   1      43.355  26.065  27.213  1.00  0.00     0.034 A 
ATOM     46  C   UNL A   1      44.441  29.082  33.162  1.00  0.00     0.049 A 
ATOM     47  C   UNL A   1      44.436  26.158  28.221  1.00  0.00     0.074 A 
ATOM     48  C   UNL A   1      44.758  30.414  32.994  1.00  0.00     0.029 A 
ATOM     49  N   UNL A   1      45.344  28.379  32.405  1.00  0.00    -0.354 N 
ATOM     50  N   UNL A   1      45.340  27.098  28.231  1.00  0.00    -0.248 NA
ATOM     51  C   UNL A   1      44.264  25.444  29.477  1.00  0.00     0.031 C 
ATOM     52  C   UNL A   1      45.524  30.462  31.793  1.00  0.00     0.029 A 
ATOM     53  C   UNL A   1      45.650  29.155  31.319  1.00  0.00     0.049 A 
ATOM     54  H   UNL A   1      45.704  27.484  32.605  1.00  0.00     0.167 HD
ATOM     55  C   UNL A   1      45.539  27.380  29.578  1.00  0.00     0.074 A 
ATOM     56  C   UNL A   1      44.941  26.256  30.293  1.00  0.00     0.031 C 
ATOM     57  C   UNL A   1      45.904  28.630  29.994  1.00  0.00     0.034 A 
BRANCH  44  58
ATOM     58  C   UNL A   1      43.444  27.219  34.638  1.00  0.00     0.023 A 
ATOM     59  C   UNL A   1      43.537  27.517  36.013  1.00  0.00     0.012 A 
ATOM     60  C   UNL A   1      43.748  25.895  34.243  1.00  0.00     0.148 A 
ATOM     61  C   UNL A   1      43.946  26.554  36.942  1.00  0.00     0.002 A 
ATOM     62  C   UNL A   1      44.070  24.921  35.179  1.00  0.00     0.091 A 
ATOM     63  F   UNL A   1      43.867  25.590  32.946  1.00  0.00    -0.205 F 
ATOM     64  C   UNL A   1      44.200  25.251  36.528  1.00  0.00     0.022 A 
BRANCH  62  65
ATOM     65  S   UNL A   1      44.340  23.216  34.682  1.00  0.00     0.127 S 
ATOM     66  O   UNL A   1      43.068  22.888  34.048  1.00  0.00    -0.237 OA
ATOM     67  O   UNL A   1      45.475  23.341  33.766  1.00  0.00    -0.237 OA
ATOM     68  O   UNL A   1      44.654  22.507  35.917  1.00  0.00    -0.744 OA
ENDBRANCH  62  65
ENDBRANCH  44  58
BRANCH  45  69
ATOM     69  C   UNL A   1      43.085  24.832  26.440  1.00  0.00     0.023 A 
ATOM     70  C   UNL A   1      43.952  24.457  25.398  1.00  0.00     0.012 A 
ATOM     71  C   UNL A   1      42.103  23.904  26.860  1.00  0.00     0.148 A 
ATOM     72  C   UNL A   1      43.845  23.197  24.795  1.00  0.00     0.002 A 
ATOM     73  C   UNL A   1      41.985  22.664  26.242  1.00  0.00     0.091 A 
ATOM     74  F   UNL A   1      41.341  24.202  27.922  1.00  0.00    -0.205 F 
ATOM     75  C   UNL A   1      42.863  22.302  25.214  1.00  0.00     0.022 A 
BRANCH  73  76
ATOM     76  S   UNL A   1      40.731  21.469  26.728  1.00  0.00     0.127 S 
ATOM     77  O   UNL A   1      39.517  22.052  26.153  1.00  0.00    -0.237 OA
ATOM     78  O   UNL A   1      41.198  20.254  26.069  1.00  0.00    -0.237 OA
ATOM     79  O   UNL A   1      40.748  21.450  28.186  1.00  0.00    -0.744 OA
ENDBRANCH  73  76
ENDBRANCH  45  69
BRANCH  57  80
ATOM     80  C   UNL A   1      46.302  29.644  28.947  1.00  0.00     0.023 A 
ATOM     81  C   UNL A   1      47.610  29.683  28.419  1.00  0.00     0.012 A 
ATOM     82  C   UNL A   1      45.305  30.425  28.341  1.00  0.00     0.148 A 
ATOM     83  C   UNL A   1      47.923  30.501  27.331  1.00  0.00     0.002 A 
ATOM     84  C   UNL A   1      45.609  31.205  27.229  1.00  0.00     0.091 A 
ATOM     85  F   UNL A   1      44.061  30.370  28.843  1.00  0.00    -0.205 F 
ATOM     86  C   UNL A   1      46.919  31.252  26.727  1.00  0.00     0.022 A 
BRANCH  84  87
ATOM     87  S   UNL A   1      44.333  32.085  26.325  1.00  0.00     0.127 S 
ATOM     88  O   UNL A   1      43.350  31.033  26.080  1.00  0.00    -0.237 OA
ATOM     89  O   UNL A   1      43.909  33.106  27.284  1.00  0.00    -0.237 OA
ATOM     90  O   UNL A   1      44.988  32.624  25.139  1.00  0.00    -0.744 OA
ENDBRANCH  84  87
ENDBRANCH  57  80
ENDBRANCH  31  32
ENDBRANCH  24  26
ENDBRANCH  23  24
ENDBRANCH  22  23
ENDBRANCH   1  22
TORSDOF 17
ENDMDL
MODEL 2
REMARK VINA RESULT:     -11.2      3.108      7.419
REMARK SMILES Cc1nsc(Nc2ccccc2C(C)C)c1C(=O)OCCOC(=O)c1ccc(-c2c3nc(c(-c4cccc(S(=O)(=O)[O-])c4F)c4ccc([nH]4)c(-c4cccc(S(=O)(=O)[O-])c4F)c4nc(c(-c5cccc(S(=O)(=O)[O-])c5F)c5ccc2[nH]5)C=C4)C=C3)cc1
REMARK SMILES IDX 20 1 19 2 17 3 18 4 16 5 1 6 2 7 3 8 4 9 5 10 6 11 7 13 8 14
REMARK SMILES IDX 12 15 9 16 11 17 10 18 13 19 14 20 15 21 21 22 22 23 23 24
REMARK SMILES IDX 24 25 25 26 26 27 87 28 27 29 86 30 28 31 29 32 30 33 80 34
REMARK SMILES IDX 31 35 85 36 79 37 81 38 32 39 84 40 78 41 77 42 33 44 65 45
REMARK SMILES IDX 45 46 64 47 46 48 49 49 63 50 82 51 47 52 48 53 62 55 83 56
REMARK SMILES IDX 50 57 34 58 35 59 43 60 36 61 38 62 44 63 37 64 39 65 40 66
REMARK SMILES IDX 41 67 42 68 66 69 67 70 75 71 68 72 70 73 76 74 69 75 71 76
REMARK SMILES IDX 72 77 73 78 74 79 51 80 52 81 60 82 53 83 55 84 61 85 54 86
REMARK SMILES IDX 56 87 57 88 58 89 59 90
REMARK H PARENT 6 12 81 43 49 54
REMARK Flexibility Score: inf
ROOT
ATOM      1  C   UNL A   1      36.671  22.024  24.110  1.00  0.00     0.275 C 
ENDROOT
BRANCH   1   2
ATOM      2  O   UNL A   1      35.294  21.978  24.537  1.00  0.00    -0.458 OA
BRANCH   2   3
ATOM      3  C   UNL A   1      34.390  22.732  23.843  1.00  0.00     0.343 C 
ATOM      4  O   UNL A   1      34.613  23.213  22.735  1.00  0.00    -0.246 OA
BRANCH   3   5
ATOM      5  C   UNL A   1      33.101  22.865  24.521  1.00  0.00     0.117 A 
ATOM      6  C   UNL A   1      32.532  20.332  24.914  1.00  0.00     0.069 C 
ATOM      7  C   UNL A   1      32.263  21.796  25.015  1.00  0.00     0.068 A 
ATOM      8  N   UNL A   1      31.137  22.163  25.626  1.00  0.00    -0.195 NA
ATOM      9  S   UNL A   1      30.995  23.805  25.547  1.00  0.00    -0.017 S 
ATOM     10  C   UNL A   1      32.489  24.101  24.750  1.00  0.00     0.128 A 
BRANCH  10  11
ATOM     11  N   UNL A   1      32.952  25.330  24.386  1.00  0.00    -0.345 N 
ATOM     12  H   UNL A   1      33.535  25.358  23.592  1.00  0.00     0.167 HD
BRANCH  11  13
ATOM     13  C   UNL A   1      32.696  26.571  25.014  1.00  0.00     0.043 A 
ATOM     14  C   UNL A   1      33.481  26.929  26.123  1.00  0.00     0.026 A 
ATOM     15  C   UNL A   1      31.538  27.326  24.727  1.00  0.00    -0.022 A 
ATOM     16  C   UNL A   1      33.147  28.013  26.935  1.00  0.00     0.002 A 
ATOM     17  C   UNL A   1      31.209  28.413  25.565  1.00  0.00     0.006 A 
ATOM     18  C   UNL A   1      32.000  28.746  26.665  1.00  0.00     0.000 A 
BRANCH  15  19
ATOM     19  C   UNL A   1      30.665  27.023  23.517  1.00  0.00     0.015 C 
ATOM     20  C   UNL A   1      29.178  26.931  23.865  1.00  0.00     0.012 C 
ATOM     21  C   UNL A   1      30.909  28.062  22.416  1.00  0.00     0.012 C 
ENDBRANCH  15  19
ENDBRANCH  11  13
ENDBRANCH  10  11
ENDBRANCH   3   5
ENDBRANCH   2   3
ENDBRANCH   1   2
BRANCH   1  22
ATOM     22  C   UNL A   1      37.460  20.805  24.582  1.00  0.00     0.275 C 
BRANCH  22  23
ATOM     23  O   UNL A   1      38.338  21.146  25.652  1.00  0.00    -0.458 OA
BRANCH  23  24
ATOM     24  C   UNL A   1      39.444  20.375  25.704  1.00  0.00     0.338 C 
ATOM     25  O   UNL A   1      39.533  19.199  25.387  1.00  0.00    -0.246 OA
BRANCH  24  26
ATOM     26  C   UNL A   1      40.545  21.096  26.330  1.00  0.00     0.060 A 
ATOM     27  C   UNL A   1      40.606  21.034  27.723  1.00  0.00     0.016 A 
ATOM     28  C   UNL A   1      41.250  22.047  25.586  1.00  0.00     0.016 A 
ATOM     29  C   UNL A   1      41.229  22.054  28.398  1.00  0.00     0.010 A 
ATOM     30  C   UNL A   1      41.876  23.067  26.263  1.00  0.00     0.010 A 
ATOM     31  C   UNL A   1      41.768  23.107  27.656  1.00  0.00    -0.014 A 
BRANCH  31  32
ATOM     32  C   UNL A   1      42.204  24.276  28.393  1.00  0.00     0.031 A 
ATOM     33  C   UNL A   1      41.301  25.449  28.280  1.00  0.00     0.074 A 
ATOM     34  C   UNL A   1      43.288  24.207  29.191  1.00  0.00     0.049 A 
ATOM     35  N   UNL A   1      41.597  26.670  27.973  1.00  0.00    -0.248 NA
ATOM     36  C   UNL A   1      39.857  25.189  28.408  1.00  0.00     0.031 C 
ATOM     37  C   UNL A   1      44.059  23.008  29.546  1.00  0.00     0.029 A 
ATOM     38  N   UNL A   1      43.808  25.162  30.009  1.00  0.00    -0.354 N 
ATOM     39  C   UNL A   1      40.397  27.372  28.075  1.00  0.00     0.074 A 
ATOM     40  C   UNL A   1      39.347  26.397  28.181  1.00  0.00     0.031 C 
ATOM     41  C   UNL A   1      44.711  23.237  30.704  1.00  0.00     0.029 A 
ATOM     42  C   UNL A   1      44.499  24.622  31.087  1.00  0.00     0.049 A 
ATOM     43  H   UNL A   1      43.707  26.129  29.854  1.00  0.00     0.167 HD
ATOM     44  C   UNL A   1      40.359  28.711  28.302  1.00  0.00     0.034 A 
ATOM     45  C   UNL A   1      44.746  25.232  32.269  1.00  0.00     0.034 A 
ATOM     46  C   UNL A   1      41.589  29.360  27.948  1.00  0.00     0.049 A 
ATOM     47  C   UNL A   1      44.554  26.688  32.075  1.00  0.00     0.074 A 
ATOM     48  C   UNL A   1      42.310  29.504  26.780  1.00  0.00     0.029 A 
ATOM     49  N   UNL A   1      42.442  29.709  28.965  1.00  0.00    -0.354 N 
ATOM     50  N   UNL A   1      45.322  27.428  31.324  1.00  0.00    -0.248 NA
ATOM     51  C   UNL A   1      43.248  27.252  32.381  1.00  0.00     0.031 C 
ATOM     52  C   UNL A   1      43.676  29.478  27.185  1.00  0.00     0.029 A 
ATOM     53  C   UNL A   1      43.704  29.349  28.575  1.00  0.00     0.049 A 
ATOM     54  H   UNL A   1      42.192  30.138  29.816  1.00  0.00     0.167 HD
ATOM     55  C   UNL A   1      44.456  28.331  30.718  1.00  0.00     0.074 A 
ATOM     56  C   UNL A   1      43.221  28.251  31.494  1.00  0.00     0.031 C 
ATOM     57  C   UNL A   1      44.715  28.839  29.476  1.00  0.00     0.034 A 
BRANCH  44  58
ATOM     58  C   UNL A   1      39.311  29.381  29.152  1.00  0.00     0.023 A 
ATOM     59  C   UNL A   1      38.602  30.465  28.593  1.00  0.00     0.012 A 
ATOM     60  C   UNL A   1      39.175  29.173  30.546  1.00  0.00     0.148 A 
ATOM     61  C   UNL A   1      37.825  31.316  29.386  1.00  0.00     0.002 A 
ATOM     62  C   UNL A   1      38.335  29.969  31.314  1.00  0.00     0.091 A 
ATOM     63  F   UNL A   1      39.961  28.292  31.174  1.00  0.00    -0.205 F 
ATOM     64  C   UNL A   1      37.681  31.062  30.746  1.00  0.00     0.022 A 
BRANCH  62  65
ATOM     65  S   UNL A   1      38.079  29.625  33.058  1.00  0.00     0.127 S 
ATOM     66  O   UNL A   1      37.312  30.792  33.479  1.00  0.00    -0.237 OA
ATOM     67  O   UNL A   1      37.325  28.371  33.015  1.00  0.00    -0.237 OA
ATOM     68  O   UNL A   1      39.418  29.490  33.618  1.00  0.00    -0.744 OA
ENDBRANCH  62  65
ENDBRANCH  44  58
BRANCH  45  69
ATOM     69  C   UNL A   1      44.823  24.606  33.608  1.00  0.00     0.023 A 
ATOM     70  C   UNL A   1      43.652  24.135  34.228  1.00  0.00     0.012 A 
ATOM     71  C   UNL A   1      46.069  24.271  34.189  1.00  0.00     0.148 A 
ATOM     72  C   UNL A   1      43.720  23.353  35.388  1.00  0.00     0.002 A 
ATOM     73  C   UNL A   1      46.131  23.514  35.354  1.00  0.00     0.091 A 
ATOM     74  F   UNL A   1      47.196  24.618  33.551  1.00  0.00    -0.205 F 
ATOM     75  C   UNL A   1      44.957  23.044  35.952  1.00  0.00     0.022 A 
BRANCH  73  76
ATOM     76  S   UNL A   1      47.695  23.092  36.137  1.00  0.00     0.127 S 
ATOM     77  O   UNL A   1      47.250  22.411  37.355  1.00  0.00    -0.237 OA
ATOM     78  O   UNL A   1      48.308  22.223  35.139  1.00  0.00    -0.237 OA
ATOM     79  O   UNL A   1      48.371  24.361  36.379  1.00  0.00    -0.744 OA
ENDBRANCH  73  76
ENDBRANCH  45  69
BRANCH  57  80
ATOM     80  C   UNL A   1      46.071  28.572  28.865  1.00  0.00     0.023 A 
ATOM     81  C   UNL A   1      47.186  29.384  29.162  1.00  0.00     0.012 A 
ATOM     82  C   UNL A   1      46.273  27.380  28.150  1.00  0.00     0.148 A 
ATOM     83  C   UNL A   1      48.469  29.029  28.736  1.00  0.00     0.002 A 
ATOM     84  C   UNL A   1      47.557  27.007  27.766  1.00  0.00     0.091 A 
ATOM     85  F   UNL A   1      45.207  26.609  27.884  1.00  0.00    -0.205 F 
ATOM     86  C   UNL A   1      48.656  27.833  28.049  1.00  0.00     0.022 A 
BRANCH  84  87
ATOM     87  S   UNL A   1      47.881  25.416  27.002  1.00  0.00     0.127 S 
ATOM     88  O   UNL A   1      49.337  25.324  27.088  1.00  0.00    -0.237 OA
ATOM     89  O   UNL A   1      47.158  24.489  27.875  1.00  0.00    -0.237 OA
ATOM     90  O   UNL A   1      47.334  25.504  25.653  1.00  0.00    -0.744 OA
ENDBRANCH  84  87
ENDBRANCH  57  80
ENDBRANCH  31  32
ENDBRANCH  24  26
ENDBRANCH  23  24
ENDBRANCH  22  23
ENDBRANCH   1  22
TORSDOF 17
ENDMDL
MODEL 3
REMARK VINA RESULT:     -11.1      4.095      6.120
REMARK SMILES Cc1nsc(Nc2ccccc2C(C)C)c1C(=O)OCCOC(=O)c1ccc(-c2c3nc(c(-c4cccc(S(=O)(=O)[O-])c4F)c4ccc([nH]4)c(-c4cccc(S(=O)(=O)[O-])c4F)c4nc(c(-c5cccc(S(=O)(=O)[O-])c5F)c5ccc2[nH]5)C=C4)C=C3)cc1
REMARK SMILES IDX 20 1 19 2 17 3 18 4 16 5 1 6 2 7 3 8 4 9 5 10 6 11 7 13 8 14
REMARK SMILES IDX 12 15 9 16 11 17 10 18 13 19 14 20 15 21 21 22 22 23 23 24
REMARK SMILES IDX 24 25 25 26 26 27 87 28 27 29 86 30 28 31 29 32 30 33 80 34
REMARK SMILES IDX 31 35 85 36 79 37 81 38 32 39 84 40 78 41 77 42 33 44 65 45
REMARK SMILES IDX 45 46 64 47 46 48 49 49 63 50 82 51 47 52 48 53 62 55 83 56
REMARK SMILES IDX 50 57 34 58 35 59 43 60 36 61 38 62 44 63 37 64 39 65 40 66
REMARK SMILES IDX 41 67 42 68 66 69 67 70 75 71 68 72 70 73 76 74 69 75 71 76
REMARK SMILES IDX 72 77 73 78 74 79 51 80 52 81 60 82 53 83 55 84 61 85 54 86
REMARK SMILES IDX 56 87 57 88 58 89 59 90
REMARK H PARENT 6 12 81 43 49 54
REMARK Flexibility Score: inf
ROOT
ATOM      1  C   UNL A   1      34.782  34.029  28.099  1.00  0.00     0.275 C 
ENDROOT
BRANCH   1   2
ATOM      2  O   UNL A   1      34.946  34.872  29.257  1.00  0.00    -0.458 OA
BRANCH   2   3
ATOM      3  C   UNL A   1      33.928  34.900  30.169  1.00  0.00     0.343 C 
ATOM      4  O   UNL A   1      32.746  34.744  29.874  1.00  0.00    -0.246 OA
BRANCH   3   5
ATOM      5  C   UNL A   1      34.386  35.078  31.547  1.00  0.00     0.117 A 
ATOM      6  C   UNL A   1      33.092  37.275  32.174  1.00  0.00     0.069 C 
ATOM      7  C   UNL A   1      34.010  36.135  32.459  1.00  0.00     0.068 A 
ATOM      8  N   UNL A   1      34.539  36.075  33.681  1.00  0.00    -0.195 NA
ATOM      9  S   UNL A   1      35.583  34.799  33.751  1.00  0.00    -0.017 S 
ATOM     10  C   UNL A   1      35.309  34.223  32.155  1.00  0.00     0.128 A 
BRANCH  10  11
ATOM     11  N   UNL A   1      35.924  33.142  31.596  1.00  0.00    -0.345 N 
ATOM     12  H   UNL A   1      35.332  32.445  31.233  1.00  0.00     0.167 HD
BRANCH  11  13
ATOM     13  C   UNL A   1      37.313  32.904  31.479  1.00  0.00     0.043 A 
ATOM     14  C   UNL A   1      38.014  33.554  30.449  1.00  0.00     0.026 A 
ATOM     15  C   UNL A   1      37.953  31.864  32.188  1.00  0.00    -0.022 A 
ATOM     16  C   UNL A   1      39.323  33.200  30.120  1.00  0.00     0.002 A 
ATOM     17  C   UNL A   1      39.274  31.512  31.835  1.00  0.00     0.006 A 
ATOM     18  C   UNL A   1      39.948  32.167  30.804  1.00  0.00     0.000 A 
BRANCH  15  19
ATOM     19  C   UNL A   1      37.271  31.146  33.344  1.00  0.00     0.015 C 
ATOM     20  C   UNL A   1      37.446  29.627  33.288  1.00  0.00     0.012 C 
ATOM     21  C   UNL A   1      37.767  31.708  34.681  1.00  0.00     0.012 C 
ENDBRANCH  15  19
ENDBRANCH  11  13
ENDBRANCH  10  11
ENDBRANCH   3   5
ENDBRANCH   2   3
ENDBRANCH   1   2
BRANCH   1  22
ATOM     22  C   UNL A   1      36.005  33.148  27.852  1.00  0.00     0.275 C 
BRANCH  22  23
ATOM     23  O   UNL A   1      35.625  31.791  27.635  1.00  0.00    -0.458 OA
BRANCH  23  24
ATOM     24  C   UNL A   1      35.735  31.021  28.737  1.00  0.00     0.338 C 
ATOM     25  O   UNL A   1      35.123  31.151  29.786  1.00  0.00    -0.246 OA
BRANCH  24  26
ATOM     26  C   UNL A   1      36.807  30.047  28.579  1.00  0.00     0.060 A 
ATOM     27  C   UNL A   1      37.078  29.246  29.690  1.00  0.00     0.016 A 
ATOM     28  C   UNL A   1      37.697  30.178  27.508  1.00  0.00     0.016 A 
ATOM     29  C   UNL A   1      38.338  28.719  29.826  1.00  0.00     0.010 A 
ATOM     30  C   UNL A   1      38.958  29.646  27.644  1.00  0.00     0.010 A 
ATOM     31  C   UNL A   1      39.288  29.012  28.846  1.00  0.00    -0.014 A 
BRANCH  31  32
ATOM     32  C   UNL A   1      40.661  28.645  29.129  1.00  0.00     0.031 A 
ATOM     33  C   UNL A   1      40.982  28.527  30.574  1.00  0.00     0.074 A 
ATOM     34  C   UNL A   1      41.501  28.337  28.121  1.00  0.00     0.049 A 
ATOM     35  N   UNL A   1      41.958  29.062  31.231  1.00  0.00    -0.248 NA
ATOM     36  C   UNL A   1      40.006  27.810  31.413  1.00  0.00     0.031 C 
ATOM     37  C   UNL A   1      41.167  28.181  26.699  1.00  0.00     0.029 A 
ATOM     38  N   UNL A   1      42.790  27.905  28.186  1.00  0.00    -0.354 N 
ATOM     39  C   UNL A   1      41.831  28.576  32.532  1.00  0.00     0.074 A 
ATOM     40  C   UNL A   1      40.539  27.954  32.624  1.00  0.00     0.031 C 
ATOM     41  C   UNL A   1      42.106  27.408  26.115  1.00  0.00     0.029 A 
ATOM     42  C   UNL A   1      43.149  27.134  27.087  1.00  0.00     0.049 A 
ATOM     43  H   UNL A   1      43.401  28.117  28.928  1.00  0.00     0.167 HD
ATOM     44  C   UNL A   1      42.886  28.507  33.385  1.00  0.00     0.034 A 
ATOM     45  C   UNL A   1      44.148  26.223  27.039  1.00  0.00     0.034 A 
ATOM     46  C   UNL A   1      43.953  29.389  33.006  1.00  0.00     0.049 A 
ATOM     47  C   UNL A   1      45.059  26.490  28.176  1.00  0.00     0.074 A 
ATOM     48  C   UNL A   1      44.075  30.755  32.849  1.00  0.00     0.029 A 
ATOM     49  N   UNL A   1      45.047  28.837  32.388  1.00  0.00    -0.354 N 
ATOM     50  N   UNL A   1      45.794  27.562  28.280  1.00  0.00    -0.248 NA
ATOM     51  C   UNL A   1      44.838  25.760  29.415  1.00  0.00     0.031 C 
ATOM     52  C   UNL A   1      44.974  30.921  31.757  1.00  0.00     0.029 A 
ATOM     53  C   UNL A   1      45.367  29.650  31.334  1.00  0.00     0.049 A 
ATOM     54  H   UNL A   1      45.514  28.012  32.654  1.00  0.00     0.167 HD
ATOM     55  C   UNL A   1      45.767  27.876  29.635  1.00  0.00     0.074 A 
ATOM     56  C   UNL A   1      45.266  26.672  30.292  1.00  0.00     0.031 C 
ATOM     57  C   UNL A   1      45.872  29.169  30.066  1.00  0.00     0.034 A 
BRANCH  44  58
ATOM     58  C   UNL A   1      43.077  27.395  34.384  1.00  0.00     0.023 A 
ATOM     59  C   UNL A   1      43.052  27.728  35.754  1.00  0.00     0.012 A 
ATOM     60  C   UNL A   1      43.537  26.100  34.043  1.00  0.00     0.148 A 
ATOM     61  C   UNL A   1      43.495  26.829  36.731  1.00  0.00     0.002 A 
ATOM     62  C   UNL A   1      43.894  25.183  35.023  1.00  0.00     0.091 A 
ATOM     63  F   UNL A   1      43.768  25.783  32.765  1.00  0.00    -0.205 F 
ATOM     64  C   UNL A   1      43.904  25.551  36.368  1.00  0.00     0.022 A 
BRANCH  62  65
ATOM     65  S   UNL A   1      44.365  23.505  34.588  1.00  0.00     0.127 S 
ATOM     66  O   UNL A   1      45.635  23.723  33.905  1.00  0.00    -0.237 OA
ATOM     67  O   UNL A   1      44.469  22.867  35.901  1.00  0.00    -0.237 OA
ATOM     68  O   UNL A   1      43.265  23.002  33.773  1.00  0.00    -0.744 OA
ENDBRANCH  62  65
ENDBRANCH  44  58
BRANCH  45  69
ATOM     69  C   UNL A   1      44.181  24.960  26.266  1.00  0.00     0.023 A 
ATOM     70  C   UNL A   1      45.248  24.707  25.386  1.00  0.00     0.012 A 
ATOM     71  C   UNL A   1      43.281  23.905  26.549  1.00  0.00     0.148 A 
ATOM     72  C   UNL A   1      45.416  23.442  24.809  1.00  0.00     0.002 A 
ATOM     73  C   UNL A   1      43.439  22.658  25.955  1.00  0.00     0.091 A 
ATOM     74  F   UNL A   1      42.325  24.097  27.468  1.00  0.00    -0.205 F 
ATOM     75  C   UNL A   1      44.512  22.419  25.090  1.00  0.00     0.022 A 
BRANCH  73  76
ATOM     76  S   UNL A   1      42.300  21.300  26.267  1.00  0.00     0.127 S 
ATOM     77  O   UNL A   1      42.829  20.252  25.392  1.00  0.00    -0.237 OA
ATOM     78  O   UNL A   1      42.495  21.064  27.694  1.00  0.00    -0.237 OA
ATOM     79  O   UNL A   1      40.984  21.791  25.878  1.00  0.00    -0.744 OA
ENDBRANCH  73  76
ENDBRANCH  45  69
BRANCH  57  80
ATOM     80  C   UNL A   1      46.239  30.230  29.055  1.00  0.00     0.023 A 
ATOM     81  C   UNL A   1      47.580  30.460  28.682  1.00  0.00     0.012 A 
ATOM     82  C   UNL A   1      45.217  30.859  28.326  1.00  0.00     0.148 A 
ATOM     83  C   UNL A   1      47.897  31.315  27.624  1.00  0.00     0.002 A 
ATOM     84  C   UNL A   1      45.533  31.676  27.244  1.00  0.00     0.091 A 
ATOM     85  F   UNL A   1      43.944  30.624  28.681  1.00  0.00    -0.205 F 
ATOM     86  C   UNL A   1      46.872  31.913  26.896  1.00  0.00     0.022 A 
BRANCH  84  87
ATOM     87  S   UNL A   1      44.258  32.362  26.184  1.00  0.00     0.127 S 
ATOM     88  O   UNL A   1      43.746  33.464  26.994  1.00  0.00    -0.237 OA
ATOM     89  O   UNL A   1      45.015  32.774  25.000  1.00  0.00    -0.237 OA
ATOM     90  O   UNL A   1      43.320  31.273  25.936  1.00  0.00    -0.744 OA
ENDBRANCH  84  87
ENDBRANCH  57  80
ENDBRANCH  31  32
ENDBRANCH  24  26
ENDBRANCH  23  24
ENDBRANCH  22  23
ENDBRANCH   1  22
TORSDOF 17
ENDMDL
