MODEL 1
REMARK VINA RESULT:     -11.6      0.000      0.000
REMARK SMILES C[C@@H]1C(=O)NC(=O)CN1C(=O)NC1(CC(=O)OCCOC(=O)c2ccc(-c3c4nc(c(-c5cccc(S(=O)(=O)[O-])c5F)c5ccc([nH]5)c(-c5cccc(S(=O)(=O)[O-])c5F)c5nc(c(-c6cccc(S(=O)(=O)[O-])c6F)c6ccc3[nH]6)C=C5)C=C4)cc2)CCC1
REMARK SMILES IDX 18 1 17 2 15 3 16 4 14 5 13 6 86 7 88 8 87 9 12 10 10 11
REMARK SMILES IDX 11 12 9 14 1 15 2 16 3 17 4 18 5 19 8 20 6 21 7 23 19 24
REMARK SMILES IDX 20 25 21 26 22 27 23 28 24 29 85 30 25 31 84 32 26 33 27 34
REMARK SMILES IDX 28 35 78 36 29 37 83 38 77 39 79 40 30 41 82 42 76 43 75 44
REMARK SMILES IDX 31 46 63 47 43 48 62 49 44 50 47 51 61 52 80 53 45 54 46 55
REMARK SMILES IDX 60 57 81 58 48 59 32 60 33 61 41 62 34 63 36 64 42 65 35 66
REMARK SMILES IDX 37 67 38 68 39 69 40 70 64 71 65 72 73 73 66 74 68 75 74 76
REMARK SMILES IDX 67 77 69 78 70 79 71 80 72 81 49 82 50 83 58 84 51 85 53 86
REMARK SMILES IDX 59 87 52 88 54 89 55 90 56 91 57 92
REMARK H PARENT 12 13 5 22 79 45 47 56
REMARK Flexibility Score: inf
ROOT
ATOM      1  C   UNL A   1      31.479  29.606  24.131  1.00  0.00     0.274 C 
ENDROOT
BRANCH   1   2
ATOM      2  O   UNL A   1      30.429  28.623  24.001  1.00  0.00    -0.462 OA
BRANCH   2   3
ATOM      3  C   UNL A   1      30.690  27.522  23.259  1.00  0.00     0.308 C 
ATOM      4  O   UNL A   1      30.700  27.502  22.034  1.00  0.00    -0.252 OA
BRANCH   3   5
ATOM      5  C   UNL A   1      30.869  26.259  24.072  1.00  0.00     0.151 C 
BRANCH   5   6
ATOM      6  C   UNL A   1      32.282  25.721  24.350  1.00  0.00     0.052 C 
ATOM      7  C   UNL A   1      32.564  25.283  25.830  1.00  0.00     0.029 C 
ATOM      8  C   UNL A   1      33.407  26.804  24.631  1.00  0.00     0.029 C 
ATOM      9  C   UNL A   1      33.064  26.703  26.120  1.00  0.00     0.005 C 
BRANCH   6  10
ATOM     10  N   UNL A   1      32.732  24.779  23.300  1.00  0.00    -0.332 N 
ATOM     11  C   UNL A   1      33.638  23.806  23.073  1.00  0.00     0.318 C 
ATOM     12  O   UNL A   1      33.648  23.384  21.909  1.00  0.00    -0.249 OA
ATOM     13  H   UNL A   1      32.184  24.907  22.493  1.00  0.00     0.165 HD
BRANCH  11  14
ATOM     14  N   UNL A   1      34.481  23.267  23.995  1.00  0.00    -0.304 N 
ATOM     15  C   UNL A   1      36.776  22.499  23.503  1.00  0.00     0.042 C 
ATOM     16  C   UNL A   1      35.900  23.539  24.214  1.00  0.00     0.174 C 
ATOM     17  C   UNL A   1      36.268  23.553  25.705  1.00  0.00     0.249 C 
ATOM     18  O   UNL A   1      37.303  24.082  26.109  1.00  0.00    -0.272 OA
ATOM     19  N   UNL A   1      35.519  22.762  26.535  1.00  0.00    -0.293 N 
ATOM     20  C   UNL A   1      33.952  22.113  24.744  1.00  0.00     0.222 C 
ATOM     21  C   UNL A   1      34.488  21.944  26.159  1.00  0.00     0.246 C 
ATOM     22  H   UNL A   1      35.743  22.785  27.493  1.00  0.00     0.173 HD
ATOM     23  O   UNL A   1      34.087  21.061  26.912  1.00  0.00    -0.273 OA
ENDBRANCH  11  14
ENDBRANCH   6  10
ENDBRANCH   5   6
ENDBRANCH   3   5
ENDBRANCH   2   3
ENDBRANCH   1   2
BRANCH   1  24
ATOM     24  C   UNL A   1      31.571  30.141  25.560  1.00  0.00     0.275 C 
BRANCH  24  25
ATOM     25  O   UNL A   1      32.938  30.199  25.998  1.00  0.00    -0.458 OA
BRANCH  25  26
ATOM     26  C   UNL A   1      33.196  31.170  26.902  1.00  0.00     0.338 C 
ATOM     27  O   UNL A   1      32.435  32.064  27.250  1.00  0.00    -0.246 OA
BRANCH  26  28
ATOM     28  C   UNL A   1      34.498  30.904  27.528  1.00  0.00     0.060 A 
ATOM     29  C   UNL A   1      34.806  29.595  27.909  1.00  0.00     0.016 A 
ATOM     30  C   UNL A   1      35.387  31.948  27.781  1.00  0.00     0.016 A 
ATOM     31  C   UNL A   1      35.995  29.327  28.581  1.00  0.00     0.010 A 
ATOM     32  C   UNL A   1      36.593  31.671  28.429  1.00  0.00     0.010 A 
ATOM     33  C   UNL A   1      36.896  30.363  28.852  1.00  0.00    -0.014 A 
BRANCH  33  34
ATOM     34  C   UNL A   1      38.147  30.093  29.600  1.00  0.00     0.031 A 
ATOM     35  C   UNL A   1      39.165  29.142  29.038  1.00  0.00     0.074 A 
ATOM     36  C   UNL A   1      38.348  30.669  30.800  1.00  0.00     0.049 A 
ATOM     37  N   UNL A   1      40.262  28.690  29.585  1.00  0.00    -0.248 NA
ATOM     38  C   UNL A   1      38.907  28.624  27.684  1.00  0.00     0.031 C 
ATOM     39  C   UNL A   1      37.432  31.606  31.451  1.00  0.00     0.029 A 
ATOM     40  N   UNL A   1      39.377  30.527  31.698  1.00  0.00    -0.354 N 
ATOM     41  C   UNL A   1      40.804  27.798  28.668  1.00  0.00     0.074 A 
ATOM     42  C   UNL A   1      39.909  27.770  27.530  1.00  0.00     0.031 C 
ATOM     43  C   UNL A   1      37.930  31.942  32.651  1.00  0.00     0.029 A 
ATOM     44  C   UNL A   1      39.178  31.216  32.871  1.00  0.00     0.049 A 
ATOM     45  H   UNL A   1      40.178  29.984  31.519  1.00  0.00     0.167 HD
ATOM     46  C   UNL A   1      41.948  27.077  28.761  1.00  0.00     0.034 A 
ATOM     47  C   UNL A   1      39.904  31.239  34.006  1.00  0.00     0.034 A 
ATOM     48  C   UNL A   1      42.858  27.146  29.873  1.00  0.00     0.049 A 
ATOM     49  C   UNL A   1      41.171  30.431  34.083  1.00  0.00     0.074 A 
ATOM     50  C   UNL A   1      44.073  26.505  30.031  1.00  0.00     0.029 A 
ATOM     51  N   UNL A   1      42.652  27.900  31.019  1.00  0.00    -0.354 N 
ATOM     52  N   UNL A   1      41.722  29.673  33.166  1.00  0.00    -0.248 NA
ATOM     53  C   UNL A   1      41.929  30.502  35.339  1.00  0.00     0.031 C 
ATOM     54  C   UNL A   1      44.595  26.857  31.282  1.00  0.00     0.029 A 
ATOM     55  C   UNL A   1      43.713  27.733  31.894  1.00  0.00     0.049 A 
ATOM     56  H   UNL A   1      41.868  28.472  31.186  1.00  0.00     0.167 HD
ATOM     57  C   UNL A   1      42.905  29.199  33.723  1.00  0.00     0.074 A 
ATOM     58  C   UNL A   1      43.000  29.774  35.050  1.00  0.00     0.031 C 
ATOM     59  C   UNL A   1      43.821  28.353  33.191  1.00  0.00     0.034 A 
BRANCH  46  60
ATOM     60  C   UNL A   1      42.294  26.172  27.608  1.00  0.00     0.023 A 
ATOM     61  C   UNL A   1      43.061  26.670  26.535  1.00  0.00     0.012 A 
ATOM     62  C   UNL A   1      41.900  24.819  27.605  1.00  0.00     0.148 A 
ATOM     63  C   UNL A   1      43.399  25.847  25.461  1.00  0.00     0.002 A 
ATOM     64  C   UNL A   1      42.275  23.995  26.551  1.00  0.00     0.091 A 
ATOM     65  F   UNL A   1      41.150  24.367  28.620  1.00  0.00    -0.205 F 
ATOM     66  C   UNL A   1      43.015  24.509  25.474  1.00  0.00     0.022 A 
BRANCH  64  67
ATOM     67  S   UNL A   1      41.890  22.239  26.520  1.00  0.00     0.127 S 
ATOM     68  O   UNL A   1      42.409  21.799  27.814  1.00  0.00    -0.237 OA
ATOM     69  O   UNL A   1      40.430  22.241  26.418  1.00  0.00    -0.237 OA
ATOM     70  O   UNL A   1      42.573  21.704  25.351  1.00  0.00    -0.744 OA
ENDBRANCH  64  67
ENDBRANCH  46  60
BRANCH  47  71
ATOM     71  C   UNL A   1      39.470  32.100  35.142  1.00  0.00     0.023 A 
ATOM     72  C   UNL A   1      39.705  33.486  35.083  1.00  0.00     0.012 A 
ATOM     73  C   UNL A   1      38.786  31.563  36.250  1.00  0.00     0.148 A 
ATOM     74  C   UNL A   1      39.283  34.323  36.117  1.00  0.00     0.002 A 
ATOM     75  C   UNL A   1      38.322  32.409  37.251  1.00  0.00     0.091 A 
ATOM     76  F   UNL A   1      38.586  30.239  36.295  1.00  0.00    -0.205 F 
ATOM     77  C   UNL A   1      38.582  33.787  37.194  1.00  0.00     0.022 A 
BRANCH  75  78
ATOM     78  S   UNL A   1      37.300  31.829  38.611  1.00  0.00     0.127 S 
ATOM     79  O   UNL A   1      38.160  32.088  39.762  1.00  0.00    -0.237 OA
ATOM     80  O   UNL A   1      36.131  32.703  38.505  1.00  0.00    -0.237 OA
ATOM     81  O   UNL A   1      37.028  30.426  38.329  1.00  0.00    -0.744 OA
ENDBRANCH  75  78
ENDBRANCH  47  71
BRANCH  59  82
ATOM     82  C   UNL A   1      45.027  28.014  34.027  1.00  0.00     0.023 A 
ATOM     83  C   UNL A   1      46.166  28.841  33.975  1.00  0.00     0.012 A 
ATOM     84  C   UNL A   1      45.004  26.923  34.918  1.00  0.00     0.148 A 
ATOM     85  C   UNL A   1      47.276  28.571  34.775  1.00  0.00     0.002 A 
ATOM     86  C   UNL A   1      46.097  26.686  35.745  1.00  0.00     0.091 A 
ATOM     87  F   UNL A   1      43.920  26.134  34.939  1.00  0.00    -0.205 F 
ATOM     88  C   UNL A   1      47.237  27.502  35.668  1.00  0.00     0.022 A 
BRANCH  86  89
ATOM     89  S   UNL A   1      46.097  25.388  36.988  1.00  0.00     0.127 S 
ATOM     90  O   UNL A   1      44.821  25.621  37.663  1.00  0.00    -0.237 OA
ATOM     91  O   UNL A   1      46.143  24.173  36.174  1.00  0.00    -0.237 OA
ATOM     92  O   UNL A   1      47.286  25.613  37.801  1.00  0.00    -0.744 OA
ENDBRANCH  86  89
ENDBRANCH  59  82
ENDBRANCH  33  34
ENDBRANCH  26  28
ENDBRANCH  25  26
ENDBRANCH  24  25
ENDBRANCH   1  24
TORSDOF 17
ENDMDL
MODEL 2
REMARK VINA RESULT:     -11.3      1.775      2.116
REMARK SMILES C[C@@H]1C(=O)NC(=O)CN1C(=O)NC1(CC(=O)OCCOC(=O)c2ccc(-c3c4nc(c(-c5cccc(S(=O)(=O)[O-])c5F)c5ccc([nH]5)c(-c5cccc(S(=O)(=O)[O-])c5F)c5nc(c(-c6cccc(S(=O)(=O)[O-])c6F)c6ccc3[nH]6)C=C5)C=C4)cc2)CCC1
REMARK SMILES IDX 18 1 17 2 15 3 16 4 14 5 13 6 86 7 88 8 87 9 12 10 10 11
REMARK SMILES IDX 11 12 9 14 1 15 2 16 3 17 4 18 5 19 8 20 6 21 7 23 19 24
REMARK SMILES IDX 20 25 21 26 22 27 23 28 24 29 85 30 25 31 84 32 26 33 27 34
REMARK SMILES IDX 28 35 78 36 29 37 83 38 77 39 79 40 30 41 82 42 76 43 75 44
REMARK SMILES IDX 31 46 63 47 43 48 62 49 44 50 47 51 61 52 80 53 45 54 46 55
REMARK SMILES IDX 60 57 81 58 48 59 32 60 33 61 41 62 34 63 36 64 42 65 35 66
REMARK SMILES IDX 37 67 38 68 39 69 40 70 64 71 65 72 73 73 66 74 68 75 74 76
REMARK SMILES IDX 67 77 69 78 70 79 71 80 72 81 49 82 50 83 58 84 51 85 53 86
REMARK SMILES IDX 59 87 52 88 54 89 55 90 56 91 57 92
REMARK H PARENT 12 13 5 22 79 45 47 56
REMARK Flexibility Score: inf
ROOT
ATOM      1  C   UNL A   1      31.399  29.562  24.108  1.00  0.00     0.274 C 
ENDROOT
BRANCH   1   2
ATOM      2  O   UNL A   1      30.343  28.581  24.012  1.00  0.00    -0.462 OA
BRANCH   2   3
ATOM      3  C   UNL A   1      30.604  27.448  23.319  1.00  0.00     0.308 C 
ATOM      4  O   UNL A   1      30.546  27.357  22.098  1.00  0.00    -0.252 OA
BRANCH   3   5
ATOM      5  C   UNL A   1      30.874  26.241  24.190  1.00  0.00     0.151 C 
BRANCH   5   6
ATOM      6  C   UNL A   1      32.316  25.750  24.391  1.00  0.00     0.052 C 
ATOM      7  C   UNL A   1      32.693  25.327  25.854  1.00  0.00     0.029 C 
ATOM      8  C   UNL A   1      33.420  26.869  24.608  1.00  0.00     0.029 C 
ATOM      9  C   UNL A   1      33.163  26.763  26.114  1.00  0.00     0.005 C 
BRANCH   6  10
ATOM     10  N   UNL A   1      32.738  24.818  23.320  1.00  0.00    -0.332 N 
ATOM     11  C   UNL A   1      33.626  23.837  23.065  1.00  0.00     0.318 C 
ATOM     12  O   UNL A   1      33.614  23.434  21.895  1.00  0.00    -0.249 OA
ATOM     13  H   UNL A   1      32.180  24.967  22.523  1.00  0.00     0.165 HD
BRANCH  11  14
ATOM     14  N   UNL A   1      34.476  23.271  23.966  1.00  0.00    -0.304 N 
ATOM     15  C   UNL A   1      36.789  22.574  23.454  1.00  0.00     0.042 C 
ATOM     16  C   UNL A   1      35.887  23.561  24.208  1.00  0.00     0.174 C 
ATOM     17  C   UNL A   1      36.245  23.511  25.699  1.00  0.00     0.249 C 
ATOM     18  O   UNL A   1      37.268  24.041  26.136  1.00  0.00    -0.272 OA
ATOM     19  N   UNL A   1      35.508  22.666  26.486  1.00  0.00    -0.293 N 
ATOM     20  C   UNL A   1      33.965  22.072  24.655  1.00  0.00     0.222 C 
ATOM     21  C   UNL A   1      34.497  21.847  26.064  1.00  0.00     0.246 C 
ATOM     22  H   UNL A   1      35.726  22.647  27.446  1.00  0.00     0.173 HD
ATOM     23  O   UNL A   1      34.109  20.920  26.772  1.00  0.00    -0.273 OA
ENDBRANCH  11  14
ENDBRANCH   6  10
ENDBRANCH   5   6
ENDBRANCH   3   5
ENDBRANCH   2   3
ENDBRANCH   1   2
BRANCH   1  24
ATOM     24  C   UNL A   1      31.486  30.153  25.516  1.00  0.00     0.275 C 
BRANCH  24  25
ATOM     25  O   UNL A   1      32.851  30.221  25.959  1.00  0.00    -0.458 OA
BRANCH  25  26
ATOM     26  C   UNL A   1      33.109  31.225  26.826  1.00  0.00     0.338 C 
ATOM     27  O   UNL A   1      32.351  32.135  27.135  1.00  0.00    -0.246 OA
BRANCH  26  28
ATOM     28  C   UNL A   1      34.407  30.979  27.467  1.00  0.00     0.060 A 
ATOM     29  C   UNL A   1      34.788  29.660  27.730  1.00  0.00     0.016 A 
ATOM     30  C   UNL A   1      35.221  32.045  27.847  1.00  0.00     0.016 A 
ATOM     31  C   UNL A   1      35.973  29.400  28.413  1.00  0.00     0.010 A 
ATOM     32  C   UNL A   1      36.424  31.779  28.506  1.00  0.00     0.010 A 
ATOM     33  C   UNL A   1      36.798  30.458  28.812  1.00  0.00    -0.014 A 
BRANCH  33  34
ATOM     34  C   UNL A   1      38.043  30.192  29.572  1.00  0.00     0.031 A 
ATOM     35  C   UNL A   1      39.088  29.276  29.002  1.00  0.00     0.074 A 
ATOM     36  C   UNL A   1      38.215  30.740  30.790  1.00  0.00     0.049 A 
ATOM     37  N   UNL A   1      40.185  28.831  29.555  1.00  0.00    -0.248 NA
ATOM     38  C   UNL A   1      38.860  28.788  27.631  1.00  0.00     0.031 C 
ATOM     39  C   UNL A   1      37.270  31.642  31.450  1.00  0.00     0.029 A 
ATOM     40  N   UNL A   1      39.232  30.595  31.700  1.00  0.00    -0.354 N 
ATOM     41  C   UNL A   1      40.758  27.973  28.623  1.00  0.00     0.074 A 
ATOM     42  C   UNL A   1      39.881  27.958  27.471  1.00  0.00     0.031 C 
ATOM     43  C   UNL A   1      37.744  31.957  32.667  1.00  0.00     0.029 A 
ATOM     44  C   UNL A   1      39.002  31.250  32.887  1.00  0.00     0.049 A 
ATOM     45  H   UNL A   1      40.047  30.072  31.520  1.00  0.00     0.167 HD
ATOM     46  C   UNL A   1      41.914  27.273  28.715  1.00  0.00     0.034 A 
ATOM     47  C   UNL A   1      39.710  31.257  34.033  1.00  0.00     0.034 A 
ATOM     48  C   UNL A   1      42.806  27.330  29.843  1.00  0.00     0.049 A 
ATOM     49  C   UNL A   1      40.991  30.472  34.109  1.00  0.00     0.074 A 
ATOM     50  C   UNL A   1      44.031  26.708  30.003  1.00  0.00     0.029 A 
ATOM     51  N   UNL A   1      42.568  28.050  31.004  1.00  0.00    -0.354 N 
ATOM     52  N   UNL A   1      41.571  29.748  33.182  1.00  0.00    -0.248 NA
ATOM     53  C   UNL A   1      41.729  30.524  35.379  1.00  0.00     0.031 C 
ATOM     54  C   UNL A   1      44.526  27.038  31.270  1.00  0.00     0.029 A 
ATOM     55  C   UNL A   1      43.619  27.880  31.891  1.00  0.00     0.049 A 
ATOM     56  H   UNL A   1      41.770  28.602  31.173  1.00  0.00     0.167 HD
ATOM     57  C   UNL A   1      42.754  29.283  33.744  1.00  0.00     0.074 A 
ATOM     58  C   UNL A   1      42.818  29.825  35.087  1.00  0.00     0.031 C 
ATOM     59  C   UNL A   1      43.695  28.469  33.205  1.00  0.00     0.034 A 
BRANCH  46  60
ATOM     60  C   UNL A   1      42.296  26.404  27.545  1.00  0.00     0.023 A 
ATOM     61  C   UNL A   1      43.043  26.953  26.483  1.00  0.00     0.012 A 
ATOM     62  C   UNL A   1      41.954  25.038  27.515  1.00  0.00     0.148 A 
ATOM     63  C   UNL A   1      43.412  26.166  25.393  1.00  0.00     0.002 A 
ATOM     64  C   UNL A   1      42.361  24.250  26.445  1.00  0.00     0.091 A 
ATOM     65  F   UNL A   1      41.221  24.537  28.520  1.00  0.00    -0.205 F 
ATOM     66  C   UNL A   1      43.081  24.813  25.379  1.00  0.00     0.022 A 
BRANCH  64  67
ATOM     67  S   UNL A   1      42.044  22.482  26.379  1.00  0.00     0.127 S 
ATOM     68  O   UNL A   1      40.586  22.445  26.287  1.00  0.00    -0.237 OA
ATOM     69  O   UNL A   1      42.740  22.084  25.154  1.00  0.00    -0.237 OA
ATOM     70  O   UNL A   1      42.614  21.931  27.600  1.00  0.00    -0.744 OA
ENDBRANCH  64  67
ENDBRANCH  46  60
BRANCH  47  71
ATOM     71  C   UNL A   1      39.242  32.079  35.184  1.00  0.00     0.023 A 
ATOM     72  C   UNL A   1      38.345  31.516  36.110  1.00  0.00     0.012 A 
ATOM     73  C   UNL A   1      39.716  33.389  35.393  1.00  0.00     0.148 A 
ATOM     74  C   UNL A   1      37.911  32.249  37.216  1.00  0.00     0.002 A 
ATOM     75  C   UNL A   1      39.322  34.094  36.524  1.00  0.00     0.091 A 
ATOM     76  F   UNL A   1      40.558  33.912  34.490  1.00  0.00    -0.205 F 
ATOM     77  C   UNL A   1      38.409  33.532  37.428  1.00  0.00     0.022 A 
BRANCH  75  78
ATOM     78  S   UNL A   1      40.007  35.700  36.949  1.00  0.00     0.127 S 
ATOM     79  O   UNL A   1      39.308  36.002  38.195  1.00  0.00    -0.237 OA
ATOM     80  O   UNL A   1      41.430  35.391  37.099  1.00  0.00    -0.237 OA
ATOM     81  O   UNL A   1      39.698  36.571  35.824  1.00  0.00    -0.744 OA
ENDBRANCH  75  78
ENDBRANCH  47  71
BRANCH  59  82
ATOM     82  C   UNL A   1      44.894  28.131  34.051  1.00  0.00     0.023 A 
ATOM     83  C   UNL A   1      44.875  26.976  34.858  1.00  0.00     0.012 A 
ATOM     84  C   UNL A   1      46.065  28.913  33.991  1.00  0.00     0.148 A 
ATOM     85  C   UNL A   1      45.991  26.620  35.614  1.00  0.00     0.002 A 
ATOM     86  C   UNL A   1      47.189  28.527  34.712  1.00  0.00     0.091 A 
ATOM     87  F   UNL A   1      46.058  30.020  33.234  1.00  0.00    -0.205 F 
ATOM     88  C   UNL A   1      47.151  27.388  35.532  1.00  0.00     0.022 A 
BRANCH  86  89
ATOM     89  S   UNL A   1      48.753  29.405  34.596  1.00  0.00     0.127 S 
ATOM     90  O   UNL A   1      49.037  29.319  33.164  1.00  0.00    -0.237 OA
ATOM     91  O   UNL A   1      48.397  30.744  35.067  1.00  0.00    -0.237 OA
ATOM     92  O   UNL A   1      49.679  28.688  35.463  1.00  0.00    -0.744 OA
ENDBRANCH  86  89
ENDBRANCH  59  82
ENDBRANCH  33  34
ENDBRANCH  26  28
ENDBRANCH  25  26
ENDBRANCH  24  25
ENDBRANCH   1  24
TORSDOF 17
ENDMDL
MODEL 3
REMARK VINA RESULT:     -11.1      1.399      1.759
REMARK SMILES C[C@@H]1C(=O)NC(=O)CN1C(=O)NC1(CC(=O)OCCOC(=O)c2ccc(-c3c4nc(c(-c5cccc(S(=O)(=O)[O-])c5F)c5ccc([nH]5)c(-c5cccc(S(=O)(=O)[O-])c5F)c5nc(c(-c6cccc(S(=O)(=O)[O-])c6F)c6ccc3[nH]6)C=C5)C=C4)cc2)CCC1
REMARK SMILES IDX 18 1 17 2 15 3 16 4 14 5 13 6 86 7 88 8 87 9 12 10 10 11
REMARK SMILES IDX 11 12 9 14 1 15 2 16 3 17 4 18 5 19 8 20 6 21 7 23 19 24
REMARK SMILES IDX 20 25 21 26 22 27 23 28 24 29 85 30 25 31 84 32 26 33 27 34
REMARK SMILES IDX 28 35 78 36 29 37 83 38 77 39 79 40 30 41 82 42 76 43 75 44
REMARK SMILES IDX 31 46 63 47 43 48 62 49 44 50 47 51 61 52 80 53 45 54 46 55
REMARK SMILES IDX 60 57 81 58 48 59 32 60 33 61 41 62 34 63 36 64 42 65 35 66
REMARK SMILES IDX 37 67 38 68 39 69 40 70 64 71 65 72 73 73 66 74 68 75 74 76
REMARK SMILES IDX 67 77 69 78 70 79 71 80 72 81 49 82 50 83 58 84 51 85 53 86
REMARK SMILES IDX 59 87 52 88 54 89 55 90 56 91 57 92
REMARK H PARENT 12 13 5 22 79 45 47 56
REMARK Flexibility Score: inf
ROOT
ATOM      1  C   UNL A   1      31.205  29.483  24.556  1.00  0.00     0.274 C 
ENDROOT
BRANCH   1   2
ATOM      2  O   UNL A   1      30.722  28.166  24.901  1.00  0.00    -0.462 OA
BRANCH   2   3
ATOM      3  C   UNL A   1      30.710  27.228  23.927  1.00  0.00     0.308 C 
ATOM      4  O   UNL A   1      30.944  27.457  22.746  1.00  0.00    -0.252 OA
BRANCH   3   5
ATOM      5  C   UNL A   1      30.270  25.858  24.395  1.00  0.00     0.151 C 
BRANCH   5   6
ATOM      6  C   UNL A   1      31.302  24.727  24.529  1.00  0.00     0.052 C 
ATOM      7  C   UNL A   1      30.777  23.402  25.183  1.00  0.00     0.029 C 
ATOM      8  C   UNL A   1      32.250  24.783  25.801  1.00  0.00     0.029 C 
ATOM      9  C   UNL A   1      31.213  23.941  26.550  1.00  0.00     0.005 C 
BRANCH   6  10
ATOM     10  N   UNL A   1      32.110  24.566  23.299  1.00  0.00    -0.332 N 
ATOM     11  C   UNL A   1      33.270  24.037  22.860  1.00  0.00     0.318 C 
ATOM     12  O   UNL A   1      33.525  24.288  21.675  1.00  0.00    -0.249 OA
ATOM     13  H   UNL A   1      31.640  24.990  22.545  1.00  0.00     0.165 HD
BRANCH  11  14
ATOM     14  N   UNL A   1      34.123  23.264  23.586  1.00  0.00    -0.304 N 
ATOM     15  C   UNL A   1      36.545  23.070  23.146  1.00  0.00     0.042 C 
ATOM     16  C   UNL A   1      35.454  23.589  24.093  1.00  0.00     0.174 C 
ATOM     17  C   UNL A   1      35.703  23.010  25.492  1.00  0.00     0.249 C 
ATOM     18  O   UNL A   1      36.601  23.439  26.218  1.00  0.00    -0.272 OA
ATOM     19  N   UNL A   1      35.042  21.855  25.812  1.00  0.00    -0.293 N 
ATOM     20  C   UNL A   1      33.744  21.844  23.714  1.00  0.00     0.222 C 
ATOM     21  C   UNL A   1      34.196  21.156  24.994  1.00  0.00     0.246 C 
ATOM     22  H   UNL A   1      35.187  21.493  26.716  1.00  0.00     0.173 HD
ATOM     23  O   UNL A   1      33.897  19.993  25.254  1.00  0.00    -0.273 OA
ENDBRANCH  11  14
ENDBRANCH   6  10
ENDBRANCH   5   6
ENDBRANCH   3   5
ENDBRANCH   2   3
ENDBRANCH   1   2
BRANCH   1  24
ATOM     24  C   UNL A   1      32.602  29.734  25.123  1.00  0.00     0.275 C 
BRANCH  24  25
ATOM     25  O   UNL A   1      32.551  29.920  26.547  1.00  0.00    -0.458 OA
BRANCH  25  26
ATOM     26  C   UNL A   1      33.041  31.105  26.974  1.00  0.00     0.338 C 
ATOM     27  O   UNL A   1      32.453  32.179  26.979  1.00  0.00    -0.246 OA
BRANCH  26  28
ATOM     28  C   UNL A   1      34.360  30.883  27.581  1.00  0.00     0.060 A 
ATOM     29  C   UNL A   1      34.701  29.593  27.998  1.00  0.00     0.016 A 
ATOM     30  C   UNL A   1      35.234  31.951  27.781  1.00  0.00     0.016 A 
ATOM     31  C   UNL A   1      35.908  29.369  28.653  1.00  0.00     0.010 A 
ATOM     32  C   UNL A   1      36.458  31.717  28.413  1.00  0.00     0.010 A 
ATOM     33  C   UNL A   1      36.794  30.430  28.872  1.00  0.00    -0.014 A 
BRANCH  33  34
ATOM     34  C   UNL A   1      38.066  30.207  29.602  1.00  0.00     0.031 A 
ATOM     35  C   UNL A   1      39.125  29.323  29.008  1.00  0.00     0.074 A 
ATOM     36  C   UNL A   1      38.249  30.765  30.813  1.00  0.00     0.049 A 
ATOM     37  N   UNL A   1      40.250  28.916  29.534  1.00  0.00    -0.248 NA
ATOM     38  C   UNL A   1      38.880  28.824  27.645  1.00  0.00     0.031 C 
ATOM     39  C   UNL A   1      37.292  31.638  31.494  1.00  0.00     0.029 A 
ATOM     40  N   UNL A   1      39.292  30.656  31.698  1.00  0.00    -0.354 N 
ATOM     41  C   UNL A   1      40.827  28.074  28.592  1.00  0.00     0.074 A 
ATOM     42  C   UNL A   1      39.923  28.027  27.461  1.00  0.00     0.031 C 
ATOM     43  C   UNL A   1      37.785  31.972  32.698  1.00  0.00     0.029 A 
ATOM     44  C   UNL A   1      39.071  31.306  32.889  1.00  0.00     0.049 A 
ATOM     45  H   UNL A   1      40.119  30.159  31.499  1.00  0.00     0.167 HD
ATOM     46  C   UNL A   1      42.007  27.412  28.656  1.00  0.00     0.034 A 
ATOM     47  C   UNL A   1      39.806  31.340  34.017  1.00  0.00     0.034 A 
ATOM     48  C   UNL A   1      42.924  27.502  29.762  1.00  0.00     0.049 A 
ATOM     49  C   UNL A   1      41.113  30.597  34.064  1.00  0.00     0.074 A 
ATOM     50  C   UNL A   1      44.172  26.920  29.894  1.00  0.00     0.029 A 
ATOM     51  N   UNL A   1      42.691  28.217  30.927  1.00  0.00    -0.354 N 
ATOM     52  N   UNL A   1      41.694  29.889  33.124  1.00  0.00    -0.248 NA
ATOM     53  C   UNL A   1      41.880  30.677  35.315  1.00  0.00     0.031 C 
ATOM     54  C   UNL A   1      44.687  27.270  31.148  1.00  0.00     0.029 A 
ATOM     55  C   UNL A   1      43.768  28.084  31.788  1.00  0.00     0.049 A 
ATOM     56  H   UNL A   1      41.881  28.744  31.114  1.00  0.00     0.167 HD
ATOM     57  C   UNL A   1      42.904  29.464  33.659  1.00  0.00     0.074 A 
ATOM     58  C   UNL A   1      42.984  30.013  34.998  1.00  0.00     0.031 C 
ATOM     59  C   UNL A   1      43.857  28.679  33.098  1.00  0.00     0.034 A 
BRANCH  46  60
ATOM     60  C   UNL A   1      42.388  26.552  27.479  1.00  0.00     0.023 A 
ATOM     61  C   UNL A   1      43.101  27.119  26.404  1.00  0.00     0.012 A 
ATOM     62  C   UNL A   1      42.078  25.178  27.456  1.00  0.00     0.148 A 
ATOM     63  C   UNL A   1      43.470  26.339  25.308  1.00  0.00     0.002 A 
ATOM     64  C   UNL A   1      42.484  24.399  26.379  1.00  0.00     0.091 A 
ATOM     65  F   UNL A   1      41.377  24.660  28.474  1.00  0.00    -0.205 F 
ATOM     66  C   UNL A   1      43.171  24.980  25.300  1.00  0.00     0.022 A 
BRANCH  64  67
ATOM     67  S   UNL A   1      42.209  22.624  26.318  1.00  0.00     0.127 S 
ATOM     68  O   UNL A   1      40.749  22.550  26.316  1.00  0.00    -0.237 OA
ATOM     69  O   UNL A   1      42.839  22.252  25.050  1.00  0.00    -0.237 OA
ATOM     70  O   UNL A   1      42.867  22.080  27.498  1.00  0.00    -0.744 OA
ENDBRANCH  64  67
ENDBRANCH  46  60
BRANCH  47  71
ATOM     71  C   UNL A   1      39.340  32.150  35.177  1.00  0.00     0.023 A 
ATOM     72  C   UNL A   1      38.478  31.564  36.122  1.00  0.00     0.012 A 
ATOM     73  C   UNL A   1      39.783  33.473  35.375  1.00  0.00     0.148 A 
ATOM     74  C   UNL A   1      38.048  32.287  37.236  1.00  0.00     0.002 A 
ATOM     75  C   UNL A   1      39.393  34.168  36.514  1.00  0.00     0.091 A 
ATOM     76  F   UNL A   1      40.591  34.018  34.455  1.00  0.00    -0.205 F 
ATOM     77  C   UNL A   1      38.515  33.582  37.438  1.00  0.00     0.022 A 
BRANCH  75  78
ATOM     78  S   UNL A   1      40.043  35.793  36.924  1.00  0.00     0.127 S 
ATOM     79  O   UNL A   1      39.355  36.082  38.179  1.00  0.00    -0.237 OA
ATOM     80  O   UNL A   1      41.475  35.521  37.053  1.00  0.00    -0.237 OA
ATOM     81  O   UNL A   1      39.694  36.652  35.801  1.00  0.00    -0.744 OA
ENDBRANCH  75  78
ENDBRANCH  47  71
BRANCH  59  82
ATOM     82  C   UNL A   1      45.087  28.383  33.916  1.00  0.00     0.023 A 
ATOM     83  C   UNL A   1      46.184  29.268  33.871  1.00  0.00     0.012 A 
ATOM     84  C   UNL A   1      45.129  27.274  34.783  1.00  0.00     0.148 A 
ATOM     85  C   UNL A   1      47.314  29.037  34.655  1.00  0.00     0.002 A 
ATOM     86  C   UNL A   1      46.241  27.074  35.594  1.00  0.00     0.091 A 
ATOM     87  F   UNL A   1      44.086  26.431  34.796  1.00  0.00    -0.205 F 
ATOM     88  C   UNL A   1      47.338  27.949  35.524  1.00  0.00     0.022 A 
BRANCH  86  89
ATOM     89  S   UNL A   1      46.320  25.752  36.808  1.00  0.00     0.127 S 
ATOM     90  O   UNL A   1      46.869  24.652  36.016  1.00  0.00    -0.237 OA
ATOM     91  O   UNL A   1      47.237  26.298  37.809  1.00  0.00    -0.237 OA
ATOM     92  O   UNL A   1      44.955  25.562  37.282  1.00  0.00    -0.744 OA
ENDBRANCH  86  89
ENDBRANCH  59  82
ENDBRANCH  33  34
ENDBRANCH  26  28
ENDBRANCH  25  26
ENDBRANCH  24  25
ENDBRANCH   1  24
TORSDOF 17
ENDMDL
