MODEL 1
REMARK VINA RESULT:     -11.2      0.000      0.000
REMARK SMILES CC(C)CN(C)S(=O)(=O)c1ccc(C(=O)OCCOC(=O)c2ccc(-c3c4nc(c(-c5cccc(S(=O)(=O)[O-])c5F)c5ccc([nH]5)c(-c5cccc(S(=O)(=O)[O-])c5F)c5nc(c(-c6cccc(S(=O)(=O)[O-])c6F)c6ccc3[nH]6)C=C5)C=C4)cc2)cc1
REMARK SMILES IDX 17 1 16 2 14 3 15 4 13 5 10 6 11 7 86 8 12 9 85 10 7 11 8 12
REMARK SMILES IDX 9 13 5 14 6 15 4 16 2 17 1 18 3 19 18 20 19 21 20 22 21 23
REMARK SMILES IDX 22 24 23 25 84 26 24 27 83 28 25 29 26 30 27 31 77 32 28 33
REMARK SMILES IDX 82 34 76 35 78 36 29 37 81 38 75 39 74 40 30 42 62 43 42 44
REMARK SMILES IDX 61 45 43 46 46 47 60 48 79 49 44 50 45 51 59 53 80 54 47 55
REMARK SMILES IDX 31 56 32 57 40 58 33 59 35 60 41 61 34 62 36 63 37 64 38 65
REMARK SMILES IDX 39 66 63 67 64 68 72 69 65 70 67 71 73 72 66 73 68 74 69 75
REMARK SMILES IDX 70 76 71 77 48 78 49 79 57 80 50 81 52 82 58 83 51 84 53 85
REMARK SMILES IDX 54 86 55 87 56 88
REMARK H PARENT 78 41 46 52
REMARK Flexibility Score: inf
ROOT
ATOM      1  C   UNL A   1      35.119  20.656  24.901  1.00  0.00     0.275 C 
ENDROOT
BRANCH   1   2
ATOM      2  O   UNL A   1      33.774  21.118  25.153  1.00  0.00    -0.458 OA
BRANCH   2   3
ATOM      3  C   UNL A   1      32.952  21.067  24.077  1.00  0.00     0.338 C 
ATOM      4  O   UNL A   1      32.424  20.064  23.624  1.00  0.00    -0.246 OA
BRANCH   3   5
ATOM      5  C   UNL A   1      32.673  22.411  23.513  1.00  0.00     0.060 A 
ATOM      6  C   UNL A   1      32.370  25.050  22.640  1.00  0.00     0.082 A 
ATOM      7  C   UNL A   1      33.628  24.454  22.605  1.00  0.00     0.022 A 
ATOM      8  C   UNL A   1      31.255  24.331  23.095  1.00  0.00     0.022 A 
ATOM      9  C   UNL A   1      33.776  23.153  23.067  1.00  0.00     0.017 A 
ATOM     10  C   UNL A   1      31.403  22.997  23.512  1.00  0.00     0.017 A 
BRANCH   6  11
ATOM     11  S   UNL A   1      32.291  26.810  22.385  1.00  0.00     0.242 S 
ATOM     12  O   UNL A   1      31.075  27.093  21.653  1.00  0.00    -0.207 OA
ATOM     13  O   UNL A   1      33.571  27.208  21.839  1.00  0.00    -0.207 OA
BRANCH  11  14
ATOM     14  N   UNL A   1      32.113  27.494  23.961  1.00  0.00    -0.201 NA
ATOM     15  C   UNL A   1      30.750  28.053  24.214  1.00  0.00     0.124 C 
BRANCH  14  16
ATOM     16  C   UNL A   1      33.154  28.549  24.239  1.00  0.00     0.105 C 
BRANCH  16  17
ATOM     17  C   UNL A   1      33.910  28.292  25.554  1.00  0.00    -0.002 C 
ATOM     18  C   UNL A   1      33.328  29.067  26.735  1.00  0.00     0.009 C 
ATOM     19  C   UNL A   1      33.864  26.794  25.875  1.00  0.00     0.009 C 
ENDBRANCH  16  17
ENDBRANCH  14  16
ENDBRANCH  11  14
ENDBRANCH   6  11
ENDBRANCH   3   5
ENDBRANCH   2   3
ENDBRANCH   1   2
BRANCH   1  20
ATOM     20  C   UNL A   1      36.151  21.412  25.739  1.00  0.00     0.275 C 
BRANCH  20  21
ATOM     21  O   UNL A   1      37.377  21.597  25.009  1.00  0.00    -0.458 OA
BRANCH  21  22
ATOM     22  C   UNL A   1      38.502  21.237  25.669  1.00  0.00     0.338 C 
ATOM     23  O   UNL A   1      39.050  20.147  25.655  1.00  0.00    -0.246 OA
BRANCH  22  24
ATOM     24  C   UNL A   1      39.066  22.384  26.400  1.00  0.00     0.060 A 
ATOM     25  C   UNL A   1      38.576  23.651  26.117  1.00  0.00     0.016 A 
ATOM     26  C   UNL A   1      40.201  22.242  27.191  1.00  0.00     0.016 A 
ATOM     27  C   UNL A   1      39.297  24.784  26.490  1.00  0.00     0.010 A 
ATOM     28  C   UNL A   1      40.843  23.386  27.689  1.00  0.00     0.010 A 
ATOM     29  C   UNL A   1      40.438  24.677  27.299  1.00  0.00    -0.014 A 
BRANCH  29  30
ATOM     30  C   UNL A   1      41.206  25.895  27.715  1.00  0.00     0.031 A 
ATOM     31  C   UNL A   1      40.557  26.960  28.574  1.00  0.00     0.074 A 
ATOM     32  C   UNL A   1      42.484  26.074  27.316  1.00  0.00     0.049 A 
ATOM     33  N   UNL A   1      40.986  28.163  28.868  1.00  0.00    -0.248 NA
ATOM     34  C   UNL A   1      39.247  26.640  29.166  1.00  0.00     0.031 C 
ATOM     35  C   UNL A   1      43.257  25.141  26.494  1.00  0.00     0.029 A 
ATOM     36  N   UNL A   1      43.362  27.110  27.541  1.00  0.00    -0.354 N 
ATOM     37  C   UNL A   1      39.964  28.771  29.591  1.00  0.00     0.074 A 
ATOM     38  C   UNL A   1      38.898  27.799  29.706  1.00  0.00     0.031 C 
ATOM     39  C   UNL A   1      44.493  25.623  26.312  1.00  0.00     0.029 A 
ATOM     40  C   UNL A   1      44.575  26.949  26.908  1.00  0.00     0.049 A 
ATOM     41  H   UNL A   1      43.144  27.891  28.099  1.00  0.00     0.167 HD
ATOM     42  C   UNL A   1      39.916  30.022  30.115  1.00  0.00     0.034 A 
ATOM     43  C   UNL A   1      45.622  27.786  26.764  1.00  0.00     0.034 A 
ATOM     44  C   UNL A   1      41.009  30.959  30.078  1.00  0.00     0.049 A 
ATOM     45  C   UNL A   1      45.552  29.159  27.369  1.00  0.00     0.074 A 
ATOM     46  C   UNL A   1      41.074  32.225  30.633  1.00  0.00     0.029 A 
ATOM     47  N   UNL A   1      42.230  30.730  29.464  1.00  0.00    -0.354 N 
ATOM     48  N   UNL A   1      44.591  29.698  28.078  1.00  0.00    -0.248 NA
ATOM     49  C   UNL A   1      46.712  30.036  27.158  1.00  0.00     0.031 C 
ATOM     50  C   UNL A   1      42.329  32.770  30.338  1.00  0.00     0.029 A 
ATOM     51  C   UNL A   1      43.055  31.832  29.623  1.00  0.00     0.049 A 
ATOM     52  H   UNL A   1      42.477  29.906  28.986  1.00  0.00     0.167 HD
ATOM     53  C   UNL A   1      45.038  30.969  28.417  1.00  0.00     0.074 A 
ATOM     54  C   UNL A   1      46.368  31.109  27.859  1.00  0.00     0.031 C 
ATOM     55  C   UNL A   1      44.395  31.942  29.108  1.00  0.00     0.034 A 
BRANCH  42  56
ATOM     56  C   UNL A   1      38.641  30.456  30.796  1.00  0.00     0.023 A 
ATOM     57  C   UNL A   1      38.473  30.248  32.180  1.00  0.00     0.012 A 
ATOM     58  C   UNL A   1      37.636  31.132  30.074  1.00  0.00     0.148 A 
ATOM     59  C   UNL A   1      37.311  30.673  32.827  1.00  0.00     0.002 A 
ATOM     60  C   UNL A   1      36.501  31.593  30.734  1.00  0.00     0.091 A 
ATOM     61  F   UNL A   1      37.803  31.309  28.756  1.00  0.00    -0.205 F 
ATOM     62  C   UNL A   1      36.332  31.354  32.108  1.00  0.00     0.022 A 
BRANCH  60  63
ATOM     63  S   UNL A   1      35.224  32.552  29.911  1.00  0.00     0.127 S 
ATOM     64  O   UNL A   1      34.280  32.784  31.003  1.00  0.00    -0.237 OA
ATOM     65  O   UNL A   1      35.960  33.741  29.480  1.00  0.00    -0.237 OA
ATOM     66  O   UNL A   1      34.732  31.717  28.825  1.00  0.00    -0.744 OA
ENDBRANCH  60  63
ENDBRANCH  42  56
BRANCH  43  67
ATOM     67  C   UNL A   1      46.827  27.342  26.005  1.00  0.00     0.023 A 
ATOM     68  C   UNL A   1      46.931  27.641  24.633  1.00  0.00     0.012 A 
ATOM     69  C   UNL A   1      47.889  26.673  26.644  1.00  0.00     0.148 A 
ATOM     70  C   UNL A   1      48.065  27.267  23.909  1.00  0.00     0.002 A 
ATOM     71  C   UNL A   1      49.042  26.364  25.935  1.00  0.00     0.091 A 
ATOM     72  F   UNL A   1      47.761  26.375  27.945  1.00  0.00    -0.205 F 
ATOM     73  C   UNL A   1      49.127  26.645  24.562  1.00  0.00     0.022 A 
BRANCH  71  74
ATOM     74  S   UNL A   1      50.511  25.706  26.733  1.00  0.00     0.127 S 
ATOM     75  O   UNL A   1      50.824  26.758  27.696  1.00  0.00    -0.237 OA
ATOM     76  O   UNL A   1      50.008  24.464  27.319  1.00  0.00    -0.237 OA
ATOM     77  O   UNL A   1      51.482  25.512  25.665  1.00  0.00    -0.744 OA
ENDBRANCH  71  74
ENDBRANCH  43  67
BRANCH  55  78
ATOM     78  C   UNL A   1      45.133  33.233  29.338  1.00  0.00     0.023 A 
ATOM     79  C   UNL A   1      45.948  33.383  30.477  1.00  0.00     0.012 A 
ATOM     80  C   UNL A   1      45.065  34.277  28.394  1.00  0.00     0.148 A 
ATOM     81  C   UNL A   1      46.658  34.564  30.692  1.00  0.00     0.002 A 
ATOM     82  C   UNL A   1      45.813  35.432  28.590  1.00  0.00     0.091 A 
ATOM     83  F   UNL A   1      44.267  34.124  27.328  1.00  0.00    -0.205 F 
ATOM     84  C   UNL A   1      46.599  35.582  29.743  1.00  0.00     0.022 A 
BRANCH  82  85
ATOM     85  S   UNL A   1      45.870  36.756  27.377  1.00  0.00     0.127 S 
ATOM     86  O   UNL A   1      46.782  37.705  28.014  1.00  0.00    -0.237 OA
ATOM     87  O   UNL A   1      46.418  36.077  26.203  1.00  0.00    -0.237 OA
ATOM     88  O   UNL A   1      44.497  37.216  27.221  1.00  0.00    -0.744 OA
ENDBRANCH  82  85
ENDBRANCH  55  78
ENDBRANCH  29  30
ENDBRANCH  22  24
ENDBRANCH  21  22
ENDBRANCH  20  21
ENDBRANCH   1  20
TORSDOF 18
ENDMDL
MODEL 2
REMARK VINA RESULT:     -11.2      4.908     10.096
REMARK SMILES CC(C)CN(C)S(=O)(=O)c1ccc(C(=O)OCCOC(=O)c2ccc(-c3c4nc(c(-c5cccc(S(=O)(=O)[O-])c5F)c5ccc([nH]5)c(-c5cccc(S(=O)(=O)[O-])c5F)c5nc(c(-c6cccc(S(=O)(=O)[O-])c6F)c6ccc3[nH]6)C=C5)C=C4)cc2)cc1
REMARK SMILES IDX 17 1 16 2 14 3 15 4 13 5 10 6 11 7 86 8 12 9 85 10 7 11 8 12
REMARK SMILES IDX 9 13 5 14 6 15 4 16 2 17 1 18 3 19 18 20 19 21 20 22 21 23
REMARK SMILES IDX 22 24 23 25 84 26 24 27 83 28 25 29 26 30 27 31 77 32 28 33
REMARK SMILES IDX 82 34 76 35 78 36 29 37 81 38 75 39 74 40 30 42 62 43 42 44
REMARK SMILES IDX 61 45 43 46 46 47 60 48 79 49 44 50 45 51 59 53 80 54 47 55
REMARK SMILES IDX 31 56 32 57 40 58 33 59 35 60 41 61 34 62 36 63 37 64 38 65
REMARK SMILES IDX 39 66 63 67 64 68 72 69 65 70 67 71 73 72 66 73 68 74 69 75
REMARK SMILES IDX 70 76 71 77 48 78 49 79 57 80 50 81 52 82 58 83 51 84 53 85
REMARK SMILES IDX 54 86 55 87 56 88
REMARK H PARENT 78 41 46 52
REMARK Flexibility Score: inf
ROOT
ATOM      1  C   UNL A   1      32.018  29.444  24.757  1.00  0.00     0.275 C 
ENDROOT
BRANCH   1   2
ATOM      2  O   UNL A   1      32.180  28.168  25.417  1.00  0.00    -0.458 OA
BRANCH   2   3
ATOM      3  C   UNL A   1      31.597  27.127  24.775  1.00  0.00     0.338 C 
ATOM      4  O   UNL A   1      30.632  27.194  24.029  1.00  0.00    -0.246 OA
BRANCH   3   5
ATOM      5  C   UNL A   1      32.310  25.846  25.004  1.00  0.00     0.060 A 
ATOM      6  C   UNL A   1      33.393  23.333  25.578  1.00  0.00     0.082 A 
ATOM      7  C   UNL A   1      32.183  23.421  24.892  1.00  0.00     0.022 A 
ATOM      8  C   UNL A   1      34.077  24.495  25.966  1.00  0.00     0.022 A 
ATOM      9  C   UNL A   1      31.638  24.672  24.637  1.00  0.00     0.017 A 
ATOM     10  C   UNL A   1      33.543  25.759  25.658  1.00  0.00     0.017 A 
BRANCH   6  11
ATOM     11  S   UNL A   1      33.869  21.733  26.196  1.00  0.00     0.242 S 
ATOM     12  O   UNL A   1      32.707  20.873  26.130  1.00  0.00    -0.207 OA
ATOM     13  O   UNL A   1      34.530  21.959  27.464  1.00  0.00    -0.207 OA
BRANCH  11  14
ATOM     14  N   UNL A   1      35.021  21.128  25.060  1.00  0.00    -0.201 NA
ATOM     15  C   UNL A   1      34.811  19.689  24.712  1.00  0.00     0.124 C 
BRANCH  14  16
ATOM     16  C   UNL A   1      36.439  21.334  25.531  1.00  0.00     0.105 C 
BRANCH  16  17
ATOM     17  C   UNL A   1      37.176  22.407  24.712  1.00  0.00    -0.002 C 
ATOM     18  C   UNL A   1      36.431  22.797  23.436  1.00  0.00     0.009 C 
ATOM     19  C   UNL A   1      37.365  23.658  25.577  1.00  0.00     0.009 C 
ENDBRANCH  16  17
ENDBRANCH  14  16
ENDBRANCH  11  14
ENDBRANCH   6  11
ENDBRANCH   3   5
ENDBRANCH   2   3
ENDBRANCH   1   2
BRANCH   1  20
ATOM     20  C   UNL A   1      31.480  30.514  25.708  1.00  0.00     0.275 C 
BRANCH  20  21
ATOM     21  O   UNL A   1      32.225  30.535  26.940  1.00  0.00    -0.458 OA
BRANCH  21  22
ATOM     22  C   UNL A   1      32.925  31.670  27.171  1.00  0.00     0.338 C 
ATOM     23  O   UNL A   1      32.509  32.816  27.125  1.00  0.00    -0.246 OA
BRANCH  22  24
ATOM     24  C   UNL A   1      34.306  31.356  27.572  1.00  0.00     0.060 A 
ATOM     25  C   UNL A   1      34.630  30.034  27.843  1.00  0.00     0.016 A 
ATOM     26  C   UNL A   1      35.209  32.368  27.884  1.00  0.00     0.016 A 
ATOM     27  C   UNL A   1      35.784  29.726  28.562  1.00  0.00     0.010 A 
ATOM     28  C   UNL A   1      36.438  32.039  28.476  1.00  0.00     0.010 A 
ATOM     29  C   UNL A   1      36.721  30.720  28.879  1.00  0.00    -0.014 A 
BRANCH  29  30
ATOM     30  C   UNL A   1      37.971  30.387  29.638  1.00  0.00     0.031 A 
ATOM     31  C   UNL A   1      39.029  29.492  29.028  1.00  0.00     0.074 A 
ATOM     32  C   UNL A   1      38.168  30.866  30.886  1.00  0.00     0.049 A 
ATOM     33  N   UNL A   1      40.071  28.935  29.595  1.00  0.00    -0.248 NA
ATOM     34  C   UNL A   1      38.888  29.163  27.600  1.00  0.00     0.031 C 
ATOM     35  C   UNL A   1      37.251  31.746  31.613  1.00  0.00     0.029 A 
ATOM     36  N   UNL A   1      39.202  30.672  31.774  1.00  0.00    -0.354 N 
ATOM     37  C   UNL A   1      40.649  28.120  28.626  1.00  0.00     0.074 A 
ATOM     38  C   UNL A   1      39.851  28.267  27.428  1.00  0.00     0.031 C 
ATOM     39  C   UNL A   1      37.773  32.043  32.811  1.00  0.00     0.029 A 
ATOM     40  C   UNL A   1      39.007  31.291  32.988  1.00  0.00     0.049 A 
ATOM     41  H   UNL A   1      40.003  30.141  31.561  1.00  0.00     0.167 HD
ATOM     42  C   UNL A   1      41.744  27.326  28.720  1.00  0.00     0.034 A 
ATOM     43  C   UNL A   1      39.700  31.225  34.143  1.00  0.00     0.034 A 
ATOM     44  C   UNL A   1      42.590  27.246  29.883  1.00  0.00     0.049 A 
ATOM     45  C   UNL A   1      40.920  30.351  34.217  1.00  0.00     0.074 A 
ATOM     46  C   UNL A   1      43.754  26.515  30.051  1.00  0.00     0.029 A 
ATOM     47  N   UNL A   1      42.373  27.926  31.070  1.00  0.00    -0.354 N 
ATOM     48  N   UNL A   1      41.467  29.620  33.277  1.00  0.00    -0.248 NA
ATOM     49  C   UNL A   1      41.620  30.299  35.507  1.00  0.00     0.031 C 
ATOM     50  C   UNL A   1      44.231  26.740  31.347  1.00  0.00     0.029 A 
ATOM     51  C   UNL A   1      43.379  27.631  31.977  1.00  0.00     0.049 A 
ATOM     52  H   UNL A   1      41.617  28.532  31.245  1.00  0.00     0.167 HD
ATOM     53  C   UNL A   1      42.587  29.037  33.856  1.00  0.00     0.074 A 
ATOM     54  C   UNL A   1      42.657  29.523  35.219  1.00  0.00     0.031 C 
ATOM     55  C   UNL A   1      43.467  28.160  33.313  1.00  0.00     0.034 A 
BRANCH  42  56
ATOM     56  C   UNL A   1      42.112  26.481  27.524  1.00  0.00     0.023 A 
ATOM     57  C   UNL A   1      42.847  27.044  26.461  1.00  0.00     0.012 A 
ATOM     58  C   UNL A   1      41.786  25.110  27.486  1.00  0.00     0.148 A 
ATOM     59  C   UNL A   1      43.220  26.265  25.364  1.00  0.00     0.002 A 
ATOM     60  C   UNL A   1      42.200  24.330  26.411  1.00  0.00     0.091 A 
ATOM     61  F   UNL A   1      41.074  24.593  28.497  1.00  0.00    -0.205 F 
ATOM     62  C   UNL A   1      42.907  24.908  25.344  1.00  0.00     0.022 A 
BRANCH  60  63
ATOM     63  S   UNL A   1      41.917  22.557  26.334  1.00  0.00     0.127 S 
ATOM     64  O   UNL A   1      42.607  22.202  25.094  1.00  0.00    -0.237 OA
ATOM     65  O   UNL A   1      42.575  22.086  27.552  1.00  0.00    -0.237 OA
ATOM     66  O   UNL A   1      40.471  22.383  26.319  1.00  0.00    -0.744 OA
ENDBRANCH  60  63
ENDBRANCH  42  56
BRANCH  43  67
ATOM     67  C   UNL A   1      39.245  32.010  35.326  1.00  0.00     0.023 A 
ATOM     68  C   UNL A   1      38.424  31.397  36.292  1.00  0.00     0.012 A 
ATOM     69  C   UNL A   1      39.662  33.341  35.526  1.00  0.00     0.148 A 
ATOM     70  C   UNL A   1      38.014  32.101  37.426  1.00  0.00     0.002 A 
ATOM     71  C   UNL A   1      39.307  34.013  36.688  1.00  0.00     0.091 A 
ATOM     72  F   UNL A   1      40.423  33.916  34.583  1.00  0.00    -0.205 F 
ATOM     73  C   UNL A   1      38.469  33.401  37.633  1.00  0.00     0.022 A 
BRANCH  71  74
ATOM     74  S   UNL A   1      39.976  35.628  37.103  1.00  0.00     0.127 S 
ATOM     75  O   UNL A   1      39.300  35.915  38.365  1.00  0.00    -0.237 OA
ATOM     76  O   UNL A   1      41.407  35.343  37.221  1.00  0.00    -0.237 OA
ATOM     77  O   UNL A   1      39.629  36.494  35.985  1.00  0.00    -0.744 OA
ENDBRANCH  71  74
ENDBRANCH  43  67
BRANCH  55  78
ATOM     78  C   UNL A   1      44.607  27.695  34.180  1.00  0.00     0.023 A 
ATOM     79  C   UNL A   1      45.803  28.437  34.222  1.00  0.00     0.012 A 
ATOM     80  C   UNL A   1      44.470  26.555  34.996  1.00  0.00     0.148 A 
ATOM     81  C   UNL A   1      46.860  28.033  35.038  1.00  0.00     0.002 A 
ATOM     82  C   UNL A   1      45.509  26.186  35.843  1.00  0.00     0.091 A 
ATOM     83  F   UNL A   1      43.332  25.850  34.925  1.00  0.00    -0.205 F 
ATOM     84  C   UNL A   1      46.708  26.916  35.856  1.00  0.00     0.022 A 
BRANCH  82  85
ATOM     85  S   UNL A   1      45.366  24.817  36.997  1.00  0.00     0.127 S 
ATOM     86  O   UNL A   1      44.220  25.228  37.807  1.00  0.00    -0.237 OA
ATOM     87  O   UNL A   1      45.107  23.685  36.105  1.00  0.00    -0.237 OA
ATOM     88  O   UNL A   1      46.639  24.751  37.700  1.00  0.00    -0.744 OA
ENDBRANCH  82  85
ENDBRANCH  55  78
ENDBRANCH  29  30
ENDBRANCH  22  24
ENDBRANCH  21  22
ENDBRANCH  20  21
ENDBRANCH   1  20
TORSDOF 18
ENDMDL
MODEL 3
REMARK VINA RESULT:     -11.1      5.291     10.138
REMARK SMILES CC(C)CN(C)S(=O)(=O)c1ccc(C(=O)OCCOC(=O)c2ccc(-c3c4nc(c(-c5cccc(S(=O)(=O)[O-])c5F)c5ccc([nH]5)c(-c5cccc(S(=O)(=O)[O-])c5F)c5nc(c(-c6cccc(S(=O)(=O)[O-])c6F)c6ccc3[nH]6)C=C5)C=C4)cc2)cc1
REMARK SMILES IDX 17 1 16 2 14 3 15 4 13 5 10 6 11 7 86 8 12 9 85 10 7 11 8 12
REMARK SMILES IDX 9 13 5 14 6 15 4 16 2 17 1 18 3 19 18 20 19 21 20 22 21 23
REMARK SMILES IDX 22 24 23 25 84 26 24 27 83 28 25 29 26 30 27 31 77 32 28 33
REMARK SMILES IDX 82 34 76 35 78 36 29 37 81 38 75 39 74 40 30 42 62 43 42 44
REMARK SMILES IDX 61 45 43 46 46 47 60 48 79 49 44 50 45 51 59 53 80 54 47 55
REMARK SMILES IDX 31 56 32 57 40 58 33 59 35 60 41 61 34 62 36 63 37 64 38 65
REMARK SMILES IDX 39 66 63 67 64 68 72 69 65 70 67 71 73 72 66 73 68 74 69 75
REMARK SMILES IDX 70 76 71 77 48 78 49 79 57 80 50 81 52 82 58 83 51 84 53 85
REMARK SMILES IDX 54 86 55 87 56 88
REMARK H PARENT 78 41 46 52
REMARK Flexibility Score: inf
ROOT
ATOM      1  C   UNL A   1      32.395  29.538  24.785  1.00  0.00     0.275 C 
ENDROOT
BRANCH   1   2
ATOM      2  O   UNL A   1      31.466  28.786  23.973  1.00  0.00    -0.458 OA
BRANCH   2   3
ATOM      3  C   UNL A   1      31.195  27.542  24.438  1.00  0.00     0.338 C 
ATOM      4  O   UNL A   1      30.094  27.115  24.745  1.00  0.00    -0.246 OA
BRANCH   3   5
ATOM      5  C   UNL A   1      32.399  26.675  24.471  1.00  0.00     0.060 A 
ATOM      6  C   UNL A   1      34.503  24.836  24.361  1.00  0.00     0.082 A 
ATOM      7  C   UNL A   1      33.910  25.276  23.179  1.00  0.00     0.022 A 
ATOM      8  C   UNL A   1      34.062  25.322  25.601  1.00  0.00     0.022 A 
ATOM      9  C   UNL A   1      32.848  26.167  23.243  1.00  0.00     0.017 A 
ATOM     10  C   UNL A   1      33.019  26.263  25.655  1.00  0.00     0.017 A 
BRANCH   6  11
ATOM     11  S   UNL A   1      35.603  23.440  24.256  1.00  0.00     0.242 S 
ATOM     12  O   UNL A   1      36.821  23.789  24.954  1.00  0.00    -0.207 OA
ATOM     13  O   UNL A   1      35.654  23.058  22.860  1.00  0.00    -0.207 OA
BRANCH  11  14
ATOM     14  N   UNL A   1      34.835  22.184  25.157  1.00  0.00    -0.201 NA
ATOM     15  C   UNL A   1      35.679  21.653  26.271  1.00  0.00     0.124 C 
BRANCH  14  16
ATOM     16  C   UNL A   1      34.388  21.047  24.273  1.00  0.00     0.105 C 
BRANCH  16  17
ATOM     17  C   UNL A   1      32.856  20.955  24.170  1.00  0.00    -0.002 C 
ATOM     18  C   UNL A   1      32.268  21.939  23.160  1.00  0.00     0.009 C 
ATOM     19  C   UNL A   1      32.464  19.531  23.758  1.00  0.00     0.009 C 
ENDBRANCH  16  17
ENDBRANCH  14  16
ENDBRANCH  11  14
ENDBRANCH   6  11
ENDBRANCH   3   5
ENDBRANCH   2   3
ENDBRANCH   1   2
BRANCH   1  20
ATOM     20  C   UNL A   1      31.676  30.462  25.769  1.00  0.00     0.275 C 
BRANCH  20  21
ATOM     21  O   UNL A   1      32.375  30.523  27.026  1.00  0.00    -0.458 OA
BRANCH  21  22
ATOM     22  C   UNL A   1      33.084  31.656  27.238  1.00  0.00     0.338 C 
ATOM     23  O   UNL A   1      32.675  32.804  27.186  1.00  0.00    -0.246 OA
BRANCH  22  24
ATOM     24  C   UNL A   1      34.469  31.338  27.624  1.00  0.00     0.060 A 
ATOM     25  C   UNL A   1      34.786  30.019  27.915  1.00  0.00     0.016 A 
ATOM     26  C   UNL A   1      35.386  32.347  27.902  1.00  0.00     0.016 A 
ATOM     27  C   UNL A   1      35.948  29.714  28.622  1.00  0.00     0.010 A 
ATOM     28  C   UNL A   1      36.620  32.019  28.482  1.00  0.00     0.010 A 
ATOM     29  C   UNL A   1      36.899  30.705  28.906  1.00  0.00    -0.014 A 
BRANCH  29  30
ATOM     30  C   UNL A   1      38.157  30.376  29.652  1.00  0.00     0.031 A 
ATOM     31  C   UNL A   1      39.195  29.456  29.046  1.00  0.00     0.074 A 
ATOM     32  C   UNL A   1      38.379  30.881  30.886  1.00  0.00     0.049 A 
ATOM     33  N   UNL A   1      40.240  28.901  29.608  1.00  0.00    -0.248 NA
ATOM     34  C   UNL A   1      39.028  29.097  27.628  1.00  0.00     0.031 C 
ATOM     35  C   UNL A   1      37.484  31.787  31.608  1.00  0.00     0.029 A 
ATOM     36  N   UNL A   1      39.425  30.695  31.761  1.00  0.00    -0.354 N 
ATOM     37  C   UNL A   1      40.794  28.059  28.649  1.00  0.00     0.074 A 
ATOM     38  C   UNL A   1      39.978  28.187  27.460  1.00  0.00     0.031 C 
ATOM     39  C   UNL A   1      38.027  32.105  32.790  1.00  0.00     0.029 A 
ATOM     40  C   UNL A   1      39.257  31.343  32.964  1.00  0.00     0.049 A 
ATOM     41  H   UNL A   1      40.218  30.151  31.547  1.00  0.00     0.167 HD
ATOM     42  C   UNL A   1      41.882  27.254  28.744  1.00  0.00     0.034 A 
ATOM     43  C   UNL A   1      39.968  31.295  34.109  1.00  0.00     0.034 A 
ATOM     44  C   UNL A   1      42.746  27.191  29.894  1.00  0.00     0.049 A 
ATOM     45  C   UNL A   1      41.179  30.411  34.183  1.00  0.00     0.074 A 
ATOM     46  C   UNL A   1      43.905  26.452  30.060  1.00  0.00     0.029 A 
ATOM     47  N   UNL A   1      42.556  27.901  31.069  1.00  0.00    -0.354 N 
ATOM     48  N   UNL A   1      41.703  29.653  33.252  1.00  0.00    -0.248 NA
ATOM     49  C   UNL A   1      41.900  30.380  35.463  1.00  0.00     0.031 C 
ATOM     50  C   UNL A   1      44.405  26.700  31.343  1.00  0.00     0.029 A 
ATOM     51  C   UNL A   1      43.573  27.614  31.966  1.00  0.00     0.049 A 
ATOM     52  H   UNL A   1      41.809  28.518  31.242  1.00  0.00     0.167 HD
ATOM     53  C   UNL A   1      42.827  29.070  33.825  1.00  0.00     0.074 A 
ATOM     54  C   UNL A   1      42.923  29.587  35.175  1.00  0.00     0.031 C 
ATOM     55  C   UNL A   1      43.688  28.172  33.288  1.00  0.00     0.034 A 
BRANCH  42  56
ATOM     56  C   UNL A   1      42.222  26.379  27.561  1.00  0.00     0.023 A 
ATOM     57  C   UNL A   1      43.000  26.891  26.504  1.00  0.00     0.012 A 
ATOM     58  C   UNL A   1      41.825  25.026  27.531  1.00  0.00     0.148 A 
ATOM     59  C   UNL A   1      43.347  26.083  25.419  1.00  0.00     0.002 A 
ATOM     60  C   UNL A   1      42.212  24.215  26.470  1.00  0.00     0.091 A 
ATOM     61  F   UNL A   1      41.072  24.558  28.537  1.00  0.00    -0.205 F 
ATOM     62  C   UNL A   1      42.963  24.745  25.408  1.00  0.00     0.022 A 
BRANCH  60  63
ATOM     63  S   UNL A   1      41.837  22.459  26.406  1.00  0.00     0.127 S 
ATOM     64  O   UNL A   1      42.590  22.040  25.224  1.00  0.00    -0.237 OA
ATOM     65  O   UNL A   1      42.384  21.980  27.676  1.00  0.00    -0.237 OA
ATOM     66  O   UNL A   1      40.389  22.362  26.294  1.00  0.00    -0.744 OA
ENDBRANCH  60  63
ENDBRANCH  42  56
BRANCH  43  67
ATOM     67  C   UNL A   1      39.540  32.112  35.281  1.00  0.00     0.023 A 
ATOM     68  C   UNL A   1      39.817  33.492  35.304  1.00  0.00     0.012 A 
ATOM     69  C   UNL A   1      38.817  31.540  36.347  1.00  0.00     0.148 A 
ATOM     70  C   UNL A   1      39.396  34.284  36.374  1.00  0.00     0.002 A 
ATOM     71  C   UNL A   1      38.342  32.344  37.375  1.00  0.00     0.091 A 
ATOM     72  F   UNL A   1      38.583  30.220  36.320  1.00  0.00    -0.205 F 
ATOM     73  C   UNL A   1      38.644  33.714  37.400  1.00  0.00     0.022 A 
BRANCH  71  74
ATOM     74  S   UNL A   1      37.238  31.720  38.647  1.00  0.00     0.127 S 
ATOM     75  O   UNL A   1      36.986  30.359  38.183  1.00  0.00    -0.237 OA
ATOM     76  O   UNL A   1      38.070  31.819  39.847  1.00  0.00    -0.237 OA
ATOM     77  O   UNL A   1      36.090  32.617  38.642  1.00  0.00    -0.744 OA
ENDBRANCH  71  74
ENDBRANCH  43  67
BRANCH  55  78
ATOM     78  C   UNL A   1      44.837  27.715  34.147  1.00  0.00     0.023 A 
ATOM     79  C   UNL A   1      46.044  28.441  34.148  1.00  0.00     0.012 A 
ATOM     80  C   UNL A   1      44.700  26.598  34.995  1.00  0.00     0.148 A 
ATOM     81  C   UNL A   1      47.109  28.044  34.956  1.00  0.00     0.002 A 
ATOM     82  C   UNL A   1      45.748  26.238  35.833  1.00  0.00     0.091 A 
ATOM     83  F   UNL A   1      43.551  25.908  34.963  1.00  0.00    -0.205 F 
ATOM     84  C   UNL A   1      46.957  26.951  35.806  1.00  0.00     0.022 A 
BRANCH  82  85
ATOM     85  S   UNL A   1      45.608  24.901  37.026  1.00  0.00     0.127 S 
ATOM     86  O   UNL A   1      45.023  23.836  36.212  1.00  0.00    -0.237 OA
ATOM     87  O   UNL A   1      47.002  24.680  37.409  1.00  0.00    -0.237 OA
ATOM     88  O   UNL A   1      44.761  25.407  38.097  1.00  0.00    -0.744 OA
ENDBRANCH  82  85
ENDBRANCH  55  78
ENDBRANCH  29  30
ENDBRANCH  22  24
ENDBRANCH  21  22
ENDBRANCH  20  21
ENDBRANCH   1  20
TORSDOF 18
ENDMDL
