MODEL 1
REMARK VINA RESULT:     -11.0      0.000      0.000
REMARK SMILES CCn1ccc([C@@H](C)NC(=O)[C@H](C)n2ccc(C(=O)OCCOC(=O)c3ccc(-c4c5nc(c(-c6cccc(S(=O)(=O)[O-])c6F)c6ccc([nH]6)c(-c6cccc(S(=O)(=O)[O-])c6F)c6nc(c(-c7cccc(S(=O)(=O)[O-])c7F)c7ccc4[nH]7)C=C6)C=C5)cc3)n2)n1
REMARK SMILES IDX 21 1 20 2 18 3 19 4 17 5 14 6 15 7 89 8 16 9 12 10 13 11
REMARK SMILES IDX 10 12 9 13 11 15 7 16 8 17 6 18 3 19 4 20 90 21 5 22 2 23
REMARK SMILES IDX 1 24 22 25 23 26 24 27 25 28 26 29 27 30 88 31 28 32 87 33
REMARK SMILES IDX 29 34 30 35 31 36 81 37 32 38 86 39 80 40 82 41 33 42 85 43
REMARK SMILES IDX 79 44 78 45 34 47 66 48 46 49 65 50 47 51 50 52 64 53 83 54
REMARK SMILES IDX 48 55 49 56 63 58 84 59 51 60 35 61 36 62 44 63 37 64 39 65
REMARK SMILES IDX 45 66 38 67 40 68 41 69 42 70 43 71 67 72 68 73 76 74 69 75
REMARK SMILES IDX 71 76 77 77 70 78 72 79 73 80 74 81 75 82 52 83 53 84 61 85
REMARK SMILES IDX 54 86 56 87 62 88 55 89 57 90 58 91 59 92 60 93
REMARK H PARENT 9 14 82 46 50 57
REMARK Flexibility Score: inf
ROOT
ATOM      1  C   UNL A   1      33.407  30.563  26.733  1.00  0.00     0.275 C 
ENDROOT
BRANCH   1   2
ATOM      2  O   UNL A   1      33.321  29.195  27.170  1.00  0.00    -0.457 OA
BRANCH   2   3
ATOM      3  C   UNL A   1      32.411  28.408  26.516  1.00  0.00     0.358 C 
ATOM      4  O   UNL A   1      31.345  28.825  26.065  1.00  0.00    -0.244 OA
BRANCH   3   5
ATOM      5  C   UNL A   1      32.874  27.025  26.311  1.00  0.00     0.170 A 
ATOM      6  N   UNL A   1      32.986  24.887  26.346  1.00  0.00    -0.260 N 
ATOM      7  C   UNL A   1      34.155  25.291  25.759  1.00  0.00     0.110 A 
ATOM      8  N   UNL A   1      32.168  25.925  26.647  1.00  0.00    -0.165 NA
ATOM      9  C   UNL A   1      34.118  26.661  25.731  1.00  0.00     0.057 A 
BRANCH   6  10
ATOM     10  C   UNL A   1      32.458  23.526  26.425  1.00  0.00     0.193 C 
ATOM     11  C   UNL A   1      32.952  22.683  27.604  1.00  0.00     0.044 C 
BRANCH  10  12
ATOM     12  C   UNL A   1      30.944  23.423  26.276  1.00  0.00     0.245 C 
ATOM     13  N   UNL A   1      30.283  23.644  25.107  1.00  0.00    -0.346 N 
ATOM     14  H   UNL A   1      29.323  23.835  25.210  1.00  0.00     0.164 HD
ATOM     15  O   UNL A   1      30.234  23.285  27.283  1.00  0.00    -0.273 OA
BRANCH  13  16
ATOM     16  C   UNL A   1      30.757  23.647  23.725  1.00  0.00     0.130 C 
ATOM     17  C   UNL A   1      31.929  22.689  23.533  1.00  0.00     0.038 C 
BRANCH  16  18
ATOM     18  C   UNL A   1      31.119  25.065  23.394  1.00  0.00     0.084 A 
ATOM     19  N   UNL A   1      32.271  26.658  22.605  1.00  0.00    -0.273 N 
ATOM     20  C   UNL A   1      31.093  27.238  22.966  1.00  0.00     0.109 A 
ATOM     21  N   UNL A   1      32.318  25.340  22.872  1.00  0.00    -0.176 NA
ATOM     22  C   UNL A   1      30.319  26.231  23.488  1.00  0.00     0.047 A 
BRANCH  19  23
ATOM     23  C   UNL A   1      33.381  27.268  21.911  1.00  0.00     0.141 C 
ATOM     24  C   UNL A   1      33.969  28.484  22.595  1.00  0.00     0.029 C 
ENDBRANCH  19  23
ENDBRANCH  16  18
ENDBRANCH  13  16
ENDBRANCH  10  12
ENDBRANCH   6  10
ENDBRANCH   3   5
ENDBRANCH   2   3
ENDBRANCH   1   2
BRANCH   1  25
ATOM     25  C   UNL A   1      34.121  31.434  27.767  1.00  0.00     0.275 C 
BRANCH  25  26
ATOM     26  O   UNL A   1      35.154  30.743  28.487  1.00  0.00    -0.458 OA
BRANCH  26  27
ATOM     27  C   UNL A   1      35.605  31.408  29.571  1.00  0.00     0.338 C 
ATOM     28  O   UNL A   1      35.368  32.571  29.850  1.00  0.00    -0.246 OA
BRANCH  27  29
ATOM     29  C   UNL A   1      36.720  30.707  30.218  1.00  0.00     0.060 A 
ATOM     30  C   UNL A   1      37.874  31.473  30.413  1.00  0.00     0.016 A 
ATOM     31  C   UNL A   1      36.757  29.309  30.261  1.00  0.00     0.016 A 
ATOM     32  C   UNL A   1      39.097  30.838  30.406  1.00  0.00     0.010 A 
ATOM     33  C   UNL A   1      37.985  28.675  30.308  1.00  0.00     0.010 A 
ATOM     34  C   UNL A   1      39.150  29.444  30.276  1.00  0.00    -0.014 A 
BRANCH  34  35
ATOM     35  C   UNL A   1      40.479  28.840  30.211  1.00  0.00     0.031 A 
ATOM     36  C   UNL A   1      41.094  28.641  31.553  1.00  0.00     0.074 A 
ATOM     37  C   UNL A   1      41.050  28.420  29.063  1.00  0.00     0.049 A 
ATOM     38  N   UNL A   1      42.256  29.014  31.983  1.00  0.00    -0.248 NA
ATOM     39  C   UNL A   1      40.211  28.082  32.596  1.00  0.00     0.031 C 
ATOM     40  C   UNL A   1      40.424  28.351  27.737  1.00  0.00     0.029 A 
ATOM     41  N   UNL A   1      42.259  27.810  28.865  1.00  0.00    -0.354 N 
ATOM     42  C   UNL A   1      42.323  28.529  33.288  1.00  0.00     0.074 A 
ATOM     43  C   UNL A   1      40.991  28.146  33.670  1.00  0.00     0.031 C 
ATOM     44  C   UNL A   1      41.135  27.515  26.955  1.00  0.00     0.029 A 
ATOM     45  C   UNL A   1      42.287  27.049  27.700  1.00  0.00     0.049 A 
ATOM     46  H   UNL A   1      43.023  27.900  29.479  1.00  0.00     0.167 HD
ATOM     47  C   UNL A   1      43.498  28.194  33.879  1.00  0.00     0.034 A 
ATOM     48  C   UNL A   1      43.102  26.002  27.421  1.00  0.00     0.034 A 
ATOM     49  C   UNL A   1      44.625  28.860  33.297  1.00  0.00     0.049 A 
ATOM     50  C   UNL A   1      44.243  26.045  28.360  1.00  0.00     0.074 A 
ATOM     51  C   UNL A   1      44.997  30.177  33.123  1.00  0.00     0.029 A 
ATOM     52  N   UNL A   1      45.451  28.119  32.494  1.00  0.00    -0.354 N 
ATOM     53  N   UNL A   1      45.191  26.936  28.323  1.00  0.00    -0.248 NA
ATOM     54  C   UNL A   1      44.136  25.294  29.600  1.00  0.00     0.031 C 
ATOM     55  C   UNL A   1      45.728  30.199  31.903  1.00  0.00     0.029 A 
ATOM     56  C   UNL A   1      45.776  28.894  31.413  1.00  0.00     0.049 A 
ATOM     57  H   UNL A   1      45.755  27.197  32.662  1.00  0.00     0.167 HD
ATOM     58  C   UNL A   1      45.510  27.158  29.656  1.00  0.00     0.074 A 
ATOM     59  C   UNL A   1      44.923  26.037  30.380  1.00  0.00     0.031 C 
ATOM     60  C   UNL A   1      45.967  28.375  30.076  1.00  0.00     0.034 A 
BRANCH  47  61
ATOM     61  C   UNL A   1      43.634  26.974  34.752  1.00  0.00     0.023 A 
ATOM     62  C   UNL A   1      43.057  25.768  34.313  1.00  0.00     0.012 A 
ATOM     63  C   UNL A   1      44.086  27.024  36.092  1.00  0.00     0.148 A 
ATOM     64  C   UNL A   1      42.933  24.669  35.171  1.00  0.00     0.002 A 
ATOM     65  C   UNL A   1      44.055  25.901  36.905  1.00  0.00     0.091 A 
ATOM     66  F   UNL A   1      44.420  28.196  36.647  1.00  0.00    -0.205 F 
ATOM     67  C   UNL A   1      43.453  24.727  36.461  1.00  0.00     0.022 A 
BRANCH  65  68
ATOM     68  S   UNL A   1      44.802  25.933  38.538  1.00  0.00     0.127 S 
ATOM     69  O   UNL A   1      43.796  26.657  39.308  1.00  0.00    -0.237 OA
ATOM     70  O   UNL A   1      44.918  24.508  38.850  1.00  0.00    -0.237 OA
ATOM     71  O   UNL A   1      46.084  26.604  38.351  1.00  0.00    -0.744 OA
ENDBRANCH  65  68
ENDBRANCH  47  61
BRANCH  48  72
ATOM     72  C   UNL A   1      42.817  24.810  26.586  1.00  0.00     0.023 A 
ATOM     73  C   UNL A   1      43.659  24.503  25.500  1.00  0.00     0.012 A 
ATOM     74  C   UNL A   1      41.864  23.844  26.981  1.00  0.00     0.148 A 
ATOM     75  C   UNL A   1      43.561  23.272  24.839  1.00  0.00     0.002 A 
ATOM     76  C   UNL A   1      41.748  22.636  26.301  1.00  0.00     0.091 A 
ATOM     77  F   UNL A   1      41.133  24.060  28.081  1.00  0.00    -0.205 F 
ATOM     78  C   UNL A   1      42.606  22.339  25.237  1.00  0.00     0.022 A 
BRANCH  76  79
ATOM     79  S   UNL A   1      40.520  21.407  26.763  1.00  0.00     0.127 S 
ATOM     80  O   UNL A   1      40.762  21.254  28.198  1.00  0.00    -0.237 OA
ATOM     81  O   UNL A   1      39.272  22.083  26.420  1.00  0.00    -0.237 OA
ATOM     82  O   UNL A   1      40.838  20.220  25.978  1.00  0.00    -0.744 OA
ENDBRANCH  76  79
ENDBRANCH  48  72
BRANCH  60  83
ATOM     83  C   UNL A   1      46.415  29.369  29.035  1.00  0.00     0.023 A 
ATOM     84  C   UNL A   1      47.723  29.359  28.508  1.00  0.00     0.012 A 
ATOM     85  C   UNL A   1      45.451  30.209  28.450  1.00  0.00     0.148 A 
ATOM     86  C   UNL A   1      48.070  30.191  27.441  1.00  0.00     0.002 A 
ATOM     87  C   UNL A   1      45.787  30.997  27.355  1.00  0.00     0.091 A 
ATOM     88  F   UNL A   1      44.209  30.202  28.958  1.00  0.00    -0.205 F 
ATOM     89  C   UNL A   1      47.098  30.999  26.855  1.00  0.00     0.022 A 
BRANCH  87  90
ATOM     90  S   UNL A   1      44.549  31.949  26.472  1.00  0.00     0.127 S 
ATOM     91  O   UNL A   1      45.315  32.483  25.350  1.00  0.00    -0.237 OA
ATOM     92  O   UNL A   1      43.563  30.928  26.110  1.00  0.00    -0.237 OA
ATOM     93  O   UNL A   1      44.053  32.937  27.424  1.00  0.00    -0.744 OA
ENDBRANCH  87  90
ENDBRANCH  60  83
ENDBRANCH  34  35
ENDBRANCH  27  29
ENDBRANCH  26  27
ENDBRANCH  25  26
ENDBRANCH   1  25
TORSDOF 19
ENDMDL
MODEL 2
REMARK VINA RESULT:     -11.0      4.323      6.479
REMARK SMILES CCn1ccc([C@@H](C)NC(=O)[C@H](C)n2ccc(C(=O)OCCOC(=O)c3ccc(-c4c5nc(c(-c6cccc(S(=O)(=O)[O-])c6F)c6ccc([nH]6)c(-c6cccc(S(=O)(=O)[O-])c6F)c6nc(c(-c7cccc(S(=O)(=O)[O-])c7F)c7ccc4[nH]7)C=C6)C=C5)cc3)n2)n1
REMARK SMILES IDX 21 1 20 2 18 3 19 4 17 5 14 6 15 7 89 8 16 9 12 10 13 11
REMARK SMILES IDX 10 12 9 13 11 15 7 16 8 17 6 18 3 19 4 20 90 21 5 22 2 23
REMARK SMILES IDX 1 24 22 25 23 26 24 27 25 28 26 29 27 30 88 31 28 32 87 33
REMARK SMILES IDX 29 34 30 35 31 36 81 37 32 38 86 39 80 40 82 41 33 42 85 43
REMARK SMILES IDX 79 44 78 45 34 47 66 48 46 49 65 50 47 51 50 52 64 53 83 54
REMARK SMILES IDX 48 55 49 56 63 58 84 59 51 60 35 61 36 62 44 63 37 64 39 65
REMARK SMILES IDX 45 66 38 67 40 68 41 69 42 70 43 71 67 72 68 73 76 74 69 75
REMARK SMILES IDX 71 76 77 77 70 78 72 79 73 80 74 81 75 82 52 83 53 84 61 85
REMARK SMILES IDX 54 86 56 87 62 88 55 89 57 90 58 91 59 92 60 93
REMARK H PARENT 9 14 82 46 50 57
REMARK Flexibility Score: inf
ROOT
ATOM      1  C   UNL A   1      34.111  31.643  27.560  1.00  0.00     0.275 C 
ENDROOT
BRANCH   1   2
ATOM      2  O   UNL A   1      33.756  32.785  28.361  1.00  0.00    -0.457 OA
BRANCH   2   3
ATOM      3  C   UNL A   1      34.514  33.910  28.179  1.00  0.00     0.358 C 
ATOM      4  O   UNL A   1      35.467  33.975  27.403  1.00  0.00    -0.244 OA
BRANCH   3   5
ATOM      5  C   UNL A   1      34.018  35.078  28.928  1.00  0.00     0.170 A 
ATOM      6  N   UNL A   1      33.155  36.300  30.460  1.00  0.00    -0.260 N 
ATOM      7  C   UNL A   1      33.408  37.159  29.424  1.00  0.00     0.110 A 
ATOM      8  N   UNL A   1      33.563  35.033  30.198  1.00  0.00    -0.165 NA
ATOM      9  C   UNL A   1      33.953  36.402  28.420  1.00  0.00     0.057 A 
BRANCH   6  10
ATOM     10  C   UNL A   1      32.764  36.647  31.824  1.00  0.00     0.193 C 
ATOM     11  C   UNL A   1      31.767  35.698  32.498  1.00  0.00     0.044 C 
BRANCH  10  12
ATOM     12  C   UNL A   1      33.927  36.967  32.756  1.00  0.00     0.245 C 
ATOM     13  N   UNL A   1      34.766  36.025  33.268  1.00  0.00    -0.346 N 
ATOM     14  H   UNL A   1      35.269  36.314  34.063  1.00  0.00     0.164 HD
ATOM     15  O   UNL A   1      34.052  38.112  33.216  1.00  0.00    -0.273 OA
BRANCH  13  16
ATOM     16  C   UNL A   1      35.048  34.658  32.837  1.00  0.00     0.130 C 
ATOM     17  C   UNL A   1      34.479  33.635  33.815  1.00  0.00     0.038 C 
BRANCH  16  18
ATOM     18  C   UNL A   1      36.537  34.546  32.697  1.00  0.00     0.084 A 
ATOM     19  N   UNL A   1      38.412  34.488  31.713  1.00  0.00    -0.273 N 
ATOM     20  C   UNL A   1      38.726  34.537  33.037  1.00  0.00     0.109 A 
ATOM     21  N   UNL A   1      37.087  34.474  31.480  1.00  0.00    -0.176 NA
ATOM     22  C   UNL A   1      37.529  34.571  33.709  1.00  0.00     0.047 A 
BRANCH  19  23
ATOM     23  C   UNL A   1      39.316  34.546  30.587  1.00  0.00     0.141 C 
ATOM     24  C   UNL A   1      38.655  34.404  29.232  1.00  0.00     0.029 C 
ENDBRANCH  19  23
ENDBRANCH  16  18
ENDBRANCH  13  16
ENDBRANCH  10  12
ENDBRANCH   6  10
ENDBRANCH   3   5
ENDBRANCH   2   3
ENDBRANCH   1   2
BRANCH   1  25
ATOM     25  C   UNL A   1      34.921  30.628  28.366  1.00  0.00     0.275 C 
BRANCH  25  26
ATOM     26  O   UNL A   1      36.026  31.209  29.078  1.00  0.00    -0.458 OA
BRANCH  26  27
ATOM     27  C   UNL A   1      35.956  31.055  30.417  1.00  0.00     0.338 C 
ATOM     28  O   UNL A   1      35.210  31.656  31.171  1.00  0.00    -0.246 OA
BRANCH  27  29
ATOM     29  C   UNL A   1      37.126  30.347  30.949  1.00  0.00     0.060 A 
ATOM     30  C   UNL A   1      38.250  31.146  31.188  1.00  0.00     0.016 A 
ATOM     31  C   UNL A   1      37.231  28.956  30.838  1.00  0.00     0.016 A 
ATOM     32  C   UNL A   1      39.500  30.578  31.074  1.00  0.00     0.010 A 
ATOM     33  C   UNL A   1      38.488  28.384  30.777  1.00  0.00     0.010 A 
ATOM     34  C   UNL A   1      39.614  29.210  30.791  1.00  0.00    -0.014 A 
BRANCH  34  35
ATOM     35  C   UNL A   1      40.966  28.685  30.619  1.00  0.00     0.031 A 
ATOM     36  C   UNL A   1      41.698  28.529  31.907  1.00  0.00     0.074 A 
ATOM     37  C   UNL A   1      41.466  28.294  29.428  1.00  0.00     0.049 A 
ATOM     38  N   UNL A   1      42.868  28.971  32.241  1.00  0.00    -0.248 NA
ATOM     39  C   UNL A   1      40.937  27.923  33.017  1.00  0.00     0.031 C 
ATOM     40  C   UNL A   1      40.741  28.183  28.158  1.00  0.00     0.029 A 
ATOM     41  N   UNL A   1      42.689  27.755  29.133  1.00  0.00    -0.354 N 
ATOM     42  C   UNL A   1      43.068  28.496  33.536  1.00  0.00     0.074 A 
ATOM     43  C   UNL A   1      41.796  28.038  34.025  1.00  0.00     0.031 C 
ATOM     44  C   UNL A   1      41.434  27.386  27.320  1.00  0.00     0.029 A 
ATOM     45  C   UNL A   1      42.669  26.992  27.969  1.00  0.00     0.049 A 
ATOM     46  H   UNL A   1      43.494  27.892  29.683  1.00  0.00     0.167 HD
ATOM     47  C   UNL A   1      44.305  28.234  34.030  1.00  0.00     0.034 A 
ATOM     48  C   UNL A   1      43.519  25.994  27.626  1.00  0.00     0.034 A 
ATOM     49  C   UNL A   1      45.340  28.962  33.360  1.00  0.00     0.049 A 
ATOM     50  C   UNL A   1      44.727  26.107  28.469  1.00  0.00     0.074 A 
ATOM     51  C   UNL A   1      45.618  30.298  33.156  1.00  0.00     0.029 A 
ATOM     52  N   UNL A   1      46.140  28.267  32.492  1.00  0.00    -0.354 N 
ATOM     53  N   UNL A   1      45.614  27.052  28.356  1.00  0.00    -0.248 NA
ATOM     54  C   UNL A   1      44.765  25.356  29.713  1.00  0.00     0.031 C 
ATOM     55  C   UNL A   1      46.246  30.358  31.881  1.00  0.00     0.029 A 
ATOM     56  C   UNL A   1      46.331  29.055  31.388  1.00  0.00     0.049 A 
ATOM     57  H   UNL A   1      46.510  27.366  32.635  1.00  0.00     0.167 HD
ATOM     58  C   UNL A   1      46.027  27.299  29.658  1.00  0.00     0.074 A 
ATOM     59  C   UNL A   1      45.567  26.148  30.427  1.00  0.00     0.031 C 
ATOM     60  C   UNL A   1      46.443  28.542  30.041  1.00  0.00     0.034 A 
BRANCH  47  61
ATOM     61  C   UNL A   1      44.582  27.028  34.889  1.00  0.00     0.023 A 
ATOM     62  C   UNL A   1      45.297  27.207  36.087  1.00  0.00     0.012 A 
ATOM     63  C   UNL A   1      44.387  25.697  34.446  1.00  0.00     0.148 A 
ATOM     64  C   UNL A   1      45.797  26.114  36.805  1.00  0.00     0.002 A 
ATOM     65  C   UNL A   1      44.793  24.616  35.213  1.00  0.00     0.091 A 
ATOM     66  F   UNL A   1      43.933  25.459  33.210  1.00  0.00    -0.205 F 
ATOM     67  C   UNL A   1      45.525  24.817  36.381  1.00  0.00     0.022 A 
BRANCH  65  68
ATOM     68  S   UNL A   1      44.372  22.940  34.726  1.00  0.00     0.127 S 
ATOM     69  O   UNL A   1      44.848  22.171  35.871  1.00  0.00    -0.237 OA
ATOM     70  O   UNL A   1      42.917  23.017  34.590  1.00  0.00    -0.237 OA
ATOM     71  O   UNL A   1      45.073  22.729  33.464  1.00  0.00    -0.744 OA
ENDBRANCH  65  68
ENDBRANCH  47  61
BRANCH  48  72
ATOM     72  C   UNL A   1      43.237  24.783  26.816  1.00  0.00     0.023 A 
ATOM     73  C   UNL A   1      44.140  24.394  25.808  1.00  0.00     0.012 A 
ATOM     74  C   UNL A   1      42.212  23.877  27.174  1.00  0.00     0.148 A 
ATOM     75  C   UNL A   1      44.031  23.143  25.187  1.00  0.00     0.002 A 
ATOM     76  C   UNL A   1      42.088  22.650  26.532  1.00  0.00     0.091 A 
ATOM     77  F   UNL A   1      41.414  24.171  28.208  1.00  0.00    -0.205 F 
ATOM     78  C   UNL A   1      43.005  22.272  25.547  1.00  0.00     0.022 A 
BRANCH  76  79
ATOM     79  S   UNL A   1      40.771  21.498  26.946  1.00  0.00     0.127 S 
ATOM     80  O   UNL A   1      39.576  22.241  26.544  1.00  0.00    -0.237 OA
ATOM     81  O   UNL A   1      41.094  20.352  26.101  1.00  0.00    -0.237 OA
ATOM     82  O   UNL A   1      40.877  21.280  28.384  1.00  0.00    -0.744 OA
ENDBRANCH  76  79
ENDBRANCH  48  72
BRANCH  60  83
ATOM     83  C   UNL A   1      46.747  29.555  28.966  1.00  0.00     0.023 A 
ATOM     84  C   UNL A   1      48.018  29.644  28.361  1.00  0.00     0.012 A 
ATOM     85  C   UNL A   1      45.685  30.309  28.435  1.00  0.00     0.148 A 
ATOM     86  C   UNL A   1      48.231  30.488  27.269  1.00  0.00     0.002 A 
ATOM     87  C   UNL A   1      45.890  31.107  27.316  1.00  0.00     0.091 A 
ATOM     88  F   UNL A   1      44.480  30.209  29.017  1.00  0.00    -0.205 F 
ATOM     89  C   UNL A   1      47.164  31.209  26.738  1.00  0.00     0.022 A 
BRANCH  87  90
ATOM     90  S   UNL A   1      44.529  31.947  26.503  1.00  0.00     0.127 S 
ATOM     91  O   UNL A   1      44.130  32.930  27.506  1.00  0.00    -0.237 OA
ATOM     92  O   UNL A   1      45.171  32.511  25.313  1.00  0.00    -0.237 OA
ATOM     93  O   UNL A   1      43.543  30.912  26.207  1.00  0.00    -0.744 OA
ENDBRANCH  87  90
ENDBRANCH  60  83
ENDBRANCH  34  35
ENDBRANCH  27  29
ENDBRANCH  26  27
ENDBRANCH  25  26
ENDBRANCH   1  25
TORSDOF 19
ENDMDL
MODEL 3
REMARK VINA RESULT:     -10.9      2.297      3.363
REMARK SMILES CCn1ccc([C@@H](C)NC(=O)[C@H](C)n2ccc(C(=O)OCCOC(=O)c3ccc(-c4c5nc(c(-c6cccc(S(=O)(=O)[O-])c6F)c6ccc([nH]6)c(-c6cccc(S(=O)(=O)[O-])c6F)c6nc(c(-c7cccc(S(=O)(=O)[O-])c7F)c7ccc4[nH]7)C=C6)C=C5)cc3)n2)n1
REMARK SMILES IDX 21 1 20 2 18 3 19 4 17 5 14 6 15 7 89 8 16 9 12 10 13 11
REMARK SMILES IDX 10 12 9 13 11 15 7 16 8 17 6 18 3 19 4 20 90 21 5 22 2 23
REMARK SMILES IDX 1 24 22 25 23 26 24 27 25 28 26 29 27 30 88 31 28 32 87 33
REMARK SMILES IDX 29 34 30 35 31 36 81 37 32 38 86 39 80 40 82 41 33 42 85 43
REMARK SMILES IDX 79 44 78 45 34 47 66 48 46 49 65 50 47 51 50 52 64 53 83 54
REMARK SMILES IDX 48 55 49 56 63 58 84 59 51 60 35 61 36 62 44 63 37 64 39 65
REMARK SMILES IDX 45 66 38 67 40 68 41 69 42 70 43 71 67 72 68 73 76 74 69 75
REMARK SMILES IDX 71 76 77 77 70 78 72 79 73 80 74 81 75 82 52 83 53 84 61 85
REMARK SMILES IDX 54 86 56 87 62 88 55 89 57 90 58 91 59 92 60 93
REMARK H PARENT 9 14 82 46 50 57
REMARK Flexibility Score: inf
ROOT
ATOM      1  C   UNL A   1      32.138  30.228  26.925  1.00  0.00     0.275 C 
ENDROOT
BRANCH   1   2
ATOM      2  O   UNL A   1      32.723  28.995  26.467  1.00  0.00    -0.457 OA
BRANCH   2   3
ATOM      3  C   UNL A   1      32.104  27.845  26.876  1.00  0.00     0.358 C 
ATOM      4  O   UNL A   1      31.243  27.806  27.755  1.00  0.00    -0.244 OA
BRANCH   3   5
ATOM      5  C   UNL A   1      32.491  26.660  26.090  1.00  0.00     0.170 A 
ATOM      6  N   UNL A   1      32.401  24.821  24.998  1.00  0.00    -0.260 N 
ATOM      7  C   UNL A   1      33.733  25.131  25.057  1.00  0.00     0.110 A 
ATOM      8  N   UNL A   1      31.620  25.765  25.580  1.00  0.00    -0.165 NA
ATOM      9  C   UNL A   1      33.825  26.303  25.762  1.00  0.00     0.057 A 
BRANCH   6  10
ATOM     10  C   UNL A   1      31.768  23.782  24.188  1.00  0.00     0.193 C 
ATOM     11  C   UNL A   1      30.544  24.218  23.376  1.00  0.00     0.044 C 
BRANCH  10  12
ATOM     12  C   UNL A   1      32.732  22.971  23.329  1.00  0.00     0.245 C 
ATOM     13  N   UNL A   1      33.536  21.988  23.819  1.00  0.00    -0.346 N 
ATOM     14  H   UNL A   1      34.298  21.757  23.241  1.00  0.00     0.164 HD
ATOM     15  O   UNL A   1      32.933  23.299  22.151  1.00  0.00    -0.273 OA
BRANCH  13  16
ATOM     16  C   UNL A   1      33.460  21.217  25.058  1.00  0.00     0.130 C 
ATOM     17  C   UNL A   1      34.778  21.260  25.825  1.00  0.00     0.038 C 
BRANCH  16  18
ATOM     18  C   UNL A   1      33.068  19.820  24.676  1.00  0.00     0.084 A 
ATOM     19  N   UNL A   1      32.585  17.777  24.954  1.00  0.00    -0.273 N 
ATOM     20  C   UNL A   1      32.284  18.021  23.649  1.00  0.00     0.109 A 
ATOM     21  N   UNL A   1      33.081  18.851  25.596  1.00  0.00    -0.176 NA
ATOM     22  C   UNL A   1      32.590  19.341  23.430  1.00  0.00     0.047 A 
BRANCH  19  23
ATOM     23  C   UNL A   1      32.346  16.566  25.706  1.00  0.00     0.141 C 
ATOM     24  C   UNL A   1      33.199  15.384  25.297  1.00  0.00     0.029 C 
ENDBRANCH  19  23
ENDBRANCH  16  18
ENDBRANCH  13  16
ENDBRANCH  10  12
ENDBRANCH   6  10
ENDBRANCH   3   5
ENDBRANCH   2   3
ENDBRANCH   1   2
BRANCH   1  25
ATOM     25  C   UNL A   1      33.213  31.241  27.320  1.00  0.00     0.275 C 
BRANCH  25  26
ATOM     26  O   UNL A   1      34.513  30.658  27.501  1.00  0.00    -0.458 OA
BRANCH  26  27
ATOM     27  C   UNL A   1      35.441  31.523  27.964  1.00  0.00     0.338 C 
ATOM     28  O   UNL A   1      35.625  32.660  27.565  1.00  0.00    -0.246 OA
BRANCH  27  29
ATOM     29  C   UNL A   1      36.470  30.847  28.762  1.00  0.00     0.060 A 
ATOM     30  C   UNL A   1      37.485  31.675  29.254  1.00  0.00     0.016 A 
ATOM     31  C   UNL A   1      36.633  29.459  28.689  1.00  0.00     0.016 A 
ATOM     32  C   UNL A   1      38.741  31.140  29.442  1.00  0.00     0.010 A 
ATOM     33  C   UNL A   1      37.884  28.920  28.931  1.00  0.00     0.010 A 
ATOM     34  C   UNL A   1      38.952  29.776  29.204  1.00  0.00    -0.014 A 
BRANCH  34  35
ATOM     35  C   UNL A   1      40.321  29.287  29.359  1.00  0.00     0.031 A 
ATOM     36  C   UNL A   1      40.736  29.165  30.785  1.00  0.00     0.074 A 
ATOM     37  C   UNL A   1      41.093  28.896  28.324  1.00  0.00     0.049 A 
ATOM     38  N   UNL A   1      41.785  29.643  31.374  1.00  0.00    -0.248 NA
ATOM     39  C   UNL A   1      39.753  28.551  31.698  1.00  0.00     0.031 C 
ATOM     40  C   UNL A   1      40.686  28.751  26.922  1.00  0.00     0.029 A 
ATOM     41  N   UNL A   1      42.364  28.389  28.331  1.00  0.00    -0.354 N 
ATOM     42  C   UNL A   1      41.690  29.189  32.688  1.00  0.00     0.074 A 
ATOM     43  C   UNL A   1      40.351  28.701  32.876  1.00  0.00     0.031 C 
ATOM     44  C   UNL A   1      41.574  27.965  26.282  1.00  0.00     0.029 A 
ATOM     45  C   UNL A   1      42.633  27.612  27.207  1.00  0.00     0.049 A 
ATOM     46  H   UNL A   1      43.015  28.554  29.050  1.00  0.00     0.167 HD
ATOM     47  C   UNL A   1      42.784  28.967  33.460  1.00  0.00     0.034 A 
ATOM     48  C   UNL A   1      43.564  26.634  27.087  1.00  0.00     0.034 A 
ATOM     49  C   UNL A   1      43.928  29.716  33.035  1.00  0.00     0.049 A 
ATOM     50  C   UNL A   1      44.540  26.791  28.186  1.00  0.00     0.074 A 
ATOM     51  C   UNL A   1      44.214  31.056  32.879  1.00  0.00     0.029 A 
ATOM     52  N   UNL A   1      44.925  29.034  32.389  1.00  0.00    -0.354 N 
ATOM     53  N   UNL A   1      45.406  27.759  28.266  1.00  0.00    -0.248 NA
ATOM     54  C   UNL A   1      44.306  26.055  29.418  1.00  0.00     0.031 C 
ATOM     55  C   UNL A   1      45.119  31.120  31.784  1.00  0.00     0.029 A 
ATOM     56  C   UNL A   1      45.348  29.814  31.347  1.00  0.00     0.049 A 
ATOM     57  H   UNL A   1      45.274  28.145  32.630  1.00  0.00     0.167 HD
ATOM     58  C   UNL A   1      45.498  28.032  29.624  1.00  0.00     0.074 A 
ATOM     59  C   UNL A   1      44.901  26.877  30.285  1.00  0.00     0.031 C 
ATOM     60  C   UNL A   1      45.783  29.290  30.071  1.00  0.00     0.034 A 
BRANCH  47  61
ATOM     61  C   UNL A   1      42.883  27.778  34.380  1.00  0.00     0.023 A 
ATOM     62  C   UNL A   1      42.638  27.970  35.753  1.00  0.00     0.012 A 
ATOM     63  C   UNL A   1      43.449  26.540  33.992  1.00  0.00     0.148 A 
ATOM     64  C   UNL A   1      42.946  26.977  36.690  1.00  0.00     0.002 A 
ATOM     65  C   UNL A   1      43.655  25.522  34.911  1.00  0.00     0.091 A 
ATOM     66  F   UNL A   1      43.928  26.378  32.752  1.00  0.00    -0.205 F 
ATOM     67  C   UNL A   1      43.433  25.744  36.268  1.00  0.00     0.022 A 
BRANCH  65  68
ATOM     68  S   UNL A   1      44.197  23.898  34.370  1.00  0.00     0.127 S 
ATOM     69  O   UNL A   1      45.648  24.025  34.462  1.00  0.00    -0.237 OA
ATOM     70  O   UNL A   1      43.585  23.022  35.370  1.00  0.00    -0.237 OA
ATOM     71  O   UNL A   1      43.641  23.743  33.030  1.00  0.00    -0.744 OA
ENDBRANCH  65  68
ENDBRANCH  47  61
BRANCH  48  72
ATOM     72  C   UNL A   1      43.508  25.408  26.255  1.00  0.00     0.023 A 
ATOM     73  C   UNL A   1      44.415  25.246  25.190  1.00  0.00     0.012 A 
ATOM     74  C   UNL A   1      42.729  24.292  26.637  1.00  0.00     0.148 A 
ATOM     75  C   UNL A   1      44.547  24.015  24.537  1.00  0.00     0.002 A 
ATOM     76  C   UNL A   1      42.839  23.080  25.964  1.00  0.00     0.091 A 
ATOM     77  F   UNL A   1      41.946  24.383  27.719  1.00  0.00    -0.205 F 
ATOM     78  C   UNL A   1      43.759  22.932  24.921  1.00  0.00     0.022 A 
BRANCH  76  79
ATOM     79  S   UNL A   1      41.831  21.659  26.408  1.00  0.00     0.127 S 
ATOM     80  O   UNL A   1      40.485  22.118  26.067  1.00  0.00    -0.237 OA
ATOM     81  O   UNL A   1      42.367  20.622  25.531  1.00  0.00    -0.237 OA
ATOM     82  O   UNL A   1      42.044  21.458  27.837  1.00  0.00    -0.744 OA
ENDBRANCH  76  79
ENDBRANCH  48  72
BRANCH  60  83
ATOM     83  C   UNL A   1      46.303  30.300  29.079  1.00  0.00     0.023 A 
ATOM     84  C   UNL A   1      47.666  30.362  28.722  1.00  0.00     0.012 A 
ATOM     85  C   UNL A   1      45.376  31.078  28.365  1.00  0.00     0.148 A 
ATOM     86  C   UNL A   1      48.098  31.203  27.695  1.00  0.00     0.002 A 
ATOM     87  C   UNL A   1      45.802  31.876  27.310  1.00  0.00     0.091 A 
ATOM     88  F   UNL A   1      44.082  31.004  28.713  1.00  0.00    -0.205 F 
ATOM     89  C   UNL A   1      47.164  31.950  26.979  1.00  0.00     0.022 A 
BRANCH  87  90
ATOM     90  S   UNL A   1      44.635  32.748  26.264  1.00  0.00     0.127 S 
ATOM     91  O   UNL A   1      44.046  33.707  27.194  1.00  0.00    -0.237 OA
ATOM     92  O   UNL A   1      45.505  33.339  25.244  1.00  0.00    -0.237 OA
ATOM     93  O   UNL A   1      43.726  31.731  25.747  1.00  0.00    -0.744 OA
ENDBRANCH  87  90
ENDBRANCH  60  83
ENDBRANCH  34  35
ENDBRANCH  27  29
ENDBRANCH  26  27
ENDBRANCH  25  26
ENDBRANCH   1  25
TORSDOF 19
ENDMDL
