MODEL 1
REMARK VINA RESULT:     -11.3      0.000      0.000
REMARK SMILES COc1ccc(CCn2cc(C(=O)OCCOC(=O)c3ccc(-c4c5nc(c(-c6cccc(S(=O)(=O)[O-])c6F)c6ccc([nH]6)c(-c6cccc(S(=O)(=O)[O-])c6F)c6nc(c(-c7cccc(S(=O)(=O)[O-])c7F)c7ccc4[nH]7)C=C6)C=C5)cc3)ccc2=O)cc1OC
REMARK SMILES IDX 15 1 14 2 12 3 13 4 11 5 9 6 10 7 85 8 84 9 86 10 83 11 8 12
REMARK SMILES IDX 7 13 6 14 3 15 4 16 88 17 5 18 87 19 2 20 1 21 89 22 90 23
REMARK SMILES IDX 16 24 17 25 18 26 19 27 20 28 21 29 82 30 22 31 81 32 23 33
REMARK SMILES IDX 24 34 25 35 75 36 26 37 80 38 74 39 76 40 27 41 79 42 73 43
REMARK SMILES IDX 72 44 28 46 60 47 40 48 59 49 41 50 44 51 58 52 77 53 42 54
REMARK SMILES IDX 43 55 57 57 78 58 45 59 29 60 30 61 38 62 31 63 33 64 39 65
REMARK SMILES IDX 32 66 34 67 35 68 36 69 37 70 61 71 62 72 70 73 63 74 65 75
REMARK SMILES IDX 71 76 64 77 66 78 67 79 68 80 69 81 46 82 47 83 55 84 48 85
REMARK SMILES IDX 50 86 56 87 49 88 51 89 52 90 53 91 54 92
REMARK H PARENT 76 45 44 56
REMARK Flexibility Score: inf
ROOT
ATOM      1  C   UNL A   1      31.252  29.426  24.598  1.00  0.00     0.275 C 
ENDROOT
BRANCH   1   2
ATOM      2  O   UNL A   1      32.397  28.546  24.569  1.00  0.00    -0.458 OA
BRANCH   2   3
ATOM      3  C   UNL A   1      33.037  28.410  23.374  1.00  0.00     0.339 C 
ATOM      4  O   UNL A   1      33.566  29.292  22.732  1.00  0.00    -0.246 OA
BRANCH   3   5
ATOM      5  C   UNL A   1      33.059  26.978  22.973  1.00  0.00     0.076 A 
ATOM      6  N   UNL A   1      34.047  24.828  23.205  1.00  0.00    -0.314 N 
ATOM      7  C   UNL A   1      33.928  26.160  23.582  1.00  0.00     0.104 A 
ATOM      8  C   UNL A   1      33.242  24.251  22.223  1.00  0.00     0.250 A 
ATOM      9  C   UNL A   1      32.240  25.152  21.600  1.00  0.00     0.072 A 
ATOM     10  O   UNL A   1      33.327  23.087  21.843  1.00  0.00    -0.269 OA
ATOM     11  C   UNL A   1      32.171  26.437  21.970  1.00  0.00     0.023 A 
BRANCH   6  12
ATOM     12  C   UNL A   1      35.147  24.032  23.748  1.00  0.00     0.130 C 
BRANCH  12  13
ATOM     13  C   UNL A   1      35.073  23.931  25.285  1.00  0.00     0.057 C 
BRANCH  13  14
ATOM     14  C   UNL A   1      33.739  23.387  25.753  1.00  0.00    -0.042 A 
ATOM     15  C   UNL A   1      31.131  22.469  26.271  1.00  0.00     0.160 A 
ATOM     16  C   UNL A   1      31.531  23.742  26.695  1.00  0.00     0.051 A 
ATOM     17  C   UNL A   1      32.053  21.633  25.629  1.00  0.00     0.160 A 
ATOM     18  C   UNL A   1      32.834  24.190  26.455  1.00  0.00     0.008 A 
ATOM     19  C   UNL A   1      33.343  22.102  25.364  1.00  0.00     0.054 A 
BRANCH  15  20
ATOM     20  O   UNL A   1      29.822  22.074  26.346  1.00  0.00    -0.493 OA
ATOM     21  C   UNL A   1      29.104  22.595  27.459  1.00  0.00     0.278 C 
ENDBRANCH  15  20
BRANCH  17  22
ATOM     22  O   UNL A   1      31.819  20.367  25.156  1.00  0.00    -0.493 OA
ATOM     23  C   UNL A   1      32.497  20.027  23.952  1.00  0.00     0.278 C 
ENDBRANCH  17  22
ENDBRANCH  13  14
ENDBRANCH  12  13
ENDBRANCH   6  12
ENDBRANCH   3   5
ENDBRANCH   2   3
ENDBRANCH   1   2
BRANCH   1  24
ATOM     24  C   UNL A   1      31.387  30.461  25.715  1.00  0.00     0.275 C 
BRANCH  24  25
ATOM     25  O   UNL A   1      32.702  30.378  26.291  1.00  0.00    -0.458 OA
BRANCH  25  26
ATOM     26  C   UNL A   1      33.107  31.465  26.982  1.00  0.00     0.338 C 
ATOM     27  O   UNL A   1      32.464  32.472  27.231  1.00  0.00    -0.246 OA
BRANCH  26  28
ATOM     28  C   UNL A   1      34.442  31.209  27.537  1.00  0.00     0.060 A 
ATOM     29  C   UNL A   1      34.757  29.895  27.863  1.00  0.00     0.016 A 
ATOM     30  C   UNL A   1      35.316  32.239  27.865  1.00  0.00     0.016 A 
ATOM     31  C   UNL A   1      35.873  29.613  28.639  1.00  0.00     0.010 A 
ATOM     32  C   UNL A   1      36.516  31.933  28.523  1.00  0.00     0.010 A 
ATOM     33  C   UNL A   1      36.792  30.621  28.955  1.00  0.00    -0.014 A 
BRANCH  33  34
ATOM     34  C   UNL A   1      38.029  30.285  29.718  1.00  0.00     0.031 A 
ATOM     35  C   UNL A   1      39.080  29.383  29.124  1.00  0.00     0.074 A 
ATOM     36  C   UNL A   1      38.215  30.796  30.955  1.00  0.00     0.049 A 
ATOM     37  N   UNL A   1      40.139  28.865  29.692  1.00  0.00    -0.248 NA
ATOM     38  C   UNL A   1      38.914  28.999  27.713  1.00  0.00     0.031 C 
ATOM     39  C   UNL A   1      37.286  31.691  31.650  1.00  0.00     0.029 A 
ATOM     40  N   UNL A   1      39.246  30.638  31.850  1.00  0.00    -0.354 N 
ATOM     41  C   UNL A   1      40.716  28.032  28.740  1.00  0.00     0.074 A 
ATOM     42  C   UNL A   1      39.898  28.125  27.549  1.00  0.00     0.031 C 
ATOM     43  C   UNL A   1      37.803  32.035  32.837  1.00  0.00     0.029 A 
ATOM     44  C   UNL A   1      39.048  31.307  33.037  1.00  0.00     0.049 A 
ATOM     45  H   UNL A   1      40.047  30.099  31.661  1.00  0.00     0.167 HD
ATOM     46  C   UNL A   1      41.828  27.264  28.845  1.00  0.00     0.034 A 
ATOM     47  C   UNL A   1      39.753  31.300  34.184  1.00  0.00     0.034 A 
ATOM     48  C   UNL A   1      42.682  27.236  30.004  1.00  0.00     0.049 A 
ATOM     49  C   UNL A   1      40.985  30.448  34.273  1.00  0.00     0.074 A 
ATOM     50  C   UNL A   1      43.861  26.534  30.187  1.00  0.00     0.029 A 
ATOM     51  N   UNL A   1      42.455  27.946  31.174  1.00  0.00    -0.354 N 
ATOM     52  N   UNL A   1      41.537  29.703  33.346  1.00  0.00    -0.248 NA
ATOM     53  C   UNL A   1      41.692  30.435  35.560  1.00  0.00     0.031 C 
ATOM     54  C   UNL A   1      44.337  26.805  31.474  1.00  0.00     0.029 A 
ATOM     55  C   UNL A   1      43.466  27.691  32.087  1.00  0.00     0.049 A 
ATOM     56  H   UNL A   1      41.689  28.544  31.332  1.00  0.00     0.167 HD
ATOM     57  C   UNL A   1      42.660  29.137  33.935  1.00  0.00     0.074 A 
ATOM     58  C   UNL A   1      42.730  29.656  35.287  1.00  0.00     0.031 C 
ATOM     59  C   UNL A   1      43.540  28.246  33.414  1.00  0.00     0.034 A 
BRANCH  46  60
ATOM     60  C   UNL A   1      42.200  26.399  27.668  1.00  0.00     0.023 A 
ATOM     61  C   UNL A   1      43.021  26.914  26.645  1.00  0.00     0.012 A 
ATOM     62  C   UNL A   1      41.777  25.056  27.602  1.00  0.00     0.148 A 
ATOM     63  C   UNL A   1      43.388  26.118  25.560  1.00  0.00     0.002 A 
ATOM     64  C   UNL A   1      42.180  24.256  26.538  1.00  0.00     0.091 A 
ATOM     65  F   UNL A   1      40.977  24.588  28.571  1.00  0.00    -0.205 F 
ATOM     66  C   UNL A   1      42.977  24.788  25.511  1.00  0.00     0.022 A 
BRANCH  64  67
ATOM     67  S   UNL A   1      41.761  22.512  26.427  1.00  0.00     0.127 S 
ATOM     68  O   UNL A   1      40.303  22.564  26.329  1.00  0.00    -0.237 OA
ATOM     69  O   UNL A   1      42.440  22.106  25.196  1.00  0.00    -0.237 OA
ATOM     70  O   UNL A   1      42.287  21.898  27.638  1.00  0.00    -0.744 OA
ENDBRANCH  64  67
ENDBRANCH  46  60
BRANCH  47  71
ATOM     71  C   UNL A   1      39.298  32.131  35.338  1.00  0.00     0.023 A 
ATOM     72  C   UNL A   1      38.476  31.556  36.324  1.00  0.00     0.012 A 
ATOM     73  C   UNL A   1      39.730  33.464  35.495  1.00  0.00     0.148 A 
ATOM     74  C   UNL A   1      38.084  32.295  37.441  1.00  0.00     0.002 A 
ATOM     75  C   UNL A   1      39.390  34.171  36.641  1.00  0.00     0.091 A 
ATOM     76  F   UNL A   1      40.490  34.003  34.532  1.00  0.00    -0.205 F 
ATOM     77  C   UNL A   1      38.554  33.595  37.608  1.00  0.00     0.022 A 
BRANCH  75  78
ATOM     78  S   UNL A   1      40.085  35.789  37.005  1.00  0.00     0.127 S 
ATOM     79  O   UNL A   1      39.632  36.574  35.860  1.00  0.00    -0.237 OA
ATOM     80  O   UNL A   1      39.438  36.120  38.275  1.00  0.00    -0.237 OA
ATOM     81  O   UNL A   1      41.523  35.581  37.106  1.00  0.00    -0.744 OA
ENDBRANCH  75  78
ENDBRANCH  47  71
BRANCH  59  82
ATOM     82  C   UNL A   1      44.656  27.780  34.308  1.00  0.00     0.023 A 
ATOM     83  C   UNL A   1      45.858  28.512  34.356  1.00  0.00     0.012 A 
ATOM     84  C   UNL A   1      44.495  26.655  35.140  1.00  0.00     0.148 A 
ATOM     85  C   UNL A   1      46.896  28.115  35.198  1.00  0.00     0.002 A 
ATOM     86  C   UNL A   1      45.518  26.291  36.009  1.00  0.00     0.091 A 
ATOM     87  F   UNL A   1      43.351  25.959  35.063  1.00  0.00    -0.205 F 
ATOM     88  C   UNL A   1      46.722  27.012  36.031  1.00  0.00     0.022 A 
BRANCH  86  89
ATOM     89  S   UNL A   1      45.349  24.939  37.179  1.00  0.00     0.127 S 
ATOM     90  O   UNL A   1      46.633  24.984  37.874  1.00  0.00    -0.237 OA
ATOM     91  O   UNL A   1      44.203  25.365  37.984  1.00  0.00    -0.237 OA
ATOM     92  O   UNL A   1      45.111  23.745  36.378  1.00  0.00    -0.744 OA
ENDBRANCH  86  89
ENDBRANCH  59  82
ENDBRANCH  33  34
ENDBRANCH  26  28
ENDBRANCH  25  26
ENDBRANCH  24  25
ENDBRANCH   1  24
TORSDOF 19
ENDMDL
MODEL 2
REMARK VINA RESULT:     -11.1      1.814      2.405
REMARK SMILES COc1ccc(CCn2cc(C(=O)OCCOC(=O)c3ccc(-c4c5nc(c(-c6cccc(S(=O)(=O)[O-])c6F)c6ccc([nH]6)c(-c6cccc(S(=O)(=O)[O-])c6F)c6nc(c(-c7cccc(S(=O)(=O)[O-])c7F)c7ccc4[nH]7)C=C6)C=C5)cc3)ccc2=O)cc1OC
REMARK SMILES IDX 15 1 14 2 12 3 13 4 11 5 9 6 10 7 85 8 84 9 86 10 83 11 8 12
REMARK SMILES IDX 7 13 6 14 3 15 4 16 88 17 5 18 87 19 2 20 1 21 89 22 90 23
REMARK SMILES IDX 16 24 17 25 18 26 19 27 20 28 21 29 82 30 22 31 81 32 23 33
REMARK SMILES IDX 24 34 25 35 75 36 26 37 80 38 74 39 76 40 27 41 79 42 73 43
REMARK SMILES IDX 72 44 28 46 60 47 40 48 59 49 41 50 44 51 58 52 77 53 42 54
REMARK SMILES IDX 43 55 57 57 78 58 45 59 29 60 30 61 38 62 31 63 33 64 39 65
REMARK SMILES IDX 32 66 34 67 35 68 36 69 37 70 61 71 62 72 70 73 63 74 65 75
REMARK SMILES IDX 71 76 64 77 66 78 67 79 68 80 69 81 46 82 47 83 55 84 48 85
REMARK SMILES IDX 50 86 56 87 49 88 51 89 52 90 53 91 54 92
REMARK H PARENT 76 45 44 56
REMARK Flexibility Score: inf
ROOT
ATOM      1  C   UNL A   1      31.601  29.088  25.958  1.00  0.00     0.275 C 
ENDROOT
BRANCH   1   2
ATOM      2  O   UNL A   1      32.736  28.850  25.098  1.00  0.00    -0.458 OA
BRANCH   2   3
ATOM      3  C   UNL A   1      33.409  27.678  25.278  1.00  0.00     0.339 C 
ATOM      4  O   UNL A   1      33.961  27.310  26.292  1.00  0.00    -0.246 OA
BRANCH   3   5
ATOM      5  C   UNL A   1      33.324  26.853  24.044  1.00  0.00     0.076 A 
ATOM      6  N   UNL A   1      33.424  24.699  23.040  1.00  0.00    -0.314 N 
ATOM      7  C   UNL A   1      33.426  25.522  24.160  1.00  0.00     0.104 A 
ATOM      8  C   UNL A   1      33.261  25.195  21.746  1.00  0.00     0.250 A 
ATOM      9  C   UNL A   1      33.085  26.664  21.636  1.00  0.00     0.072 A 
ATOM     10  O   UNL A   1      33.275  24.509  20.727  1.00  0.00    -0.269 OA
ATOM     11  C   UNL A   1      33.118  27.428  22.734  1.00  0.00     0.023 A 
BRANCH   6  12
ATOM     12  C   UNL A   1      33.748  23.282  23.198  1.00  0.00     0.130 C 
BRANCH  12  13
ATOM     13  C   UNL A   1      33.089  22.685  24.458  1.00  0.00     0.057 C 
BRANCH  13  14
ATOM     14  C   UNL A   1      33.447  21.225  24.645  1.00  0.00    -0.042 A 
ATOM     15  C   UNL A   1      34.206  18.516  24.617  1.00  0.00     0.160 A 
ATOM     16  C   UNL A   1      32.858  18.875  24.500  1.00  0.00     0.051 A 
ATOM     17  C   UNL A   1      35.174  19.513  24.799  1.00  0.00     0.160 A 
ATOM     18  C   UNL A   1      32.480  20.220  24.533  1.00  0.00     0.008 A 
ATOM     19  C   UNL A   1      34.789  20.857  24.798  1.00  0.00     0.054 A 
BRANCH  15  20
ATOM     20  O   UNL A   1      34.618  17.225  24.422  1.00  0.00    -0.493 OA
ATOM     21  C   UNL A   1      34.043  16.581  23.290  1.00  0.00     0.278 C 
ENDBRANCH  15  20
BRANCH  17  22
ATOM     22  O   UNL A   1      36.526  19.327  24.929  1.00  0.00    -0.493 OA
ATOM     23  C   UNL A   1      37.304  20.516  25.009  1.00  0.00     0.278 C 
ENDBRANCH  17  22
ENDBRANCH  13  14
ENDBRANCH  12  13
ENDBRANCH   6  12
ENDBRANCH   3   5
ENDBRANCH   2   3
ENDBRANCH   1   2
BRANCH   1  24
ATOM     24  C   UNL A   1      31.826  30.324  26.829  1.00  0.00     0.275 C 
BRANCH  24  25
ATOM     25  O   UNL A   1      33.030  30.991  26.416  1.00  0.00    -0.458 OA
BRANCH  25  26
ATOM     26  C   UNL A   1      33.476  31.958  27.246  1.00  0.00     0.338 C 
ATOM     27  O   UNL A   1      32.874  32.948  27.631  1.00  0.00    -0.246 OA
BRANCH  26  28
ATOM     28  C   UNL A   1      34.798  31.575  27.759  1.00  0.00     0.060 A 
ATOM     29  C   UNL A   1      34.983  30.246  28.120  1.00  0.00     0.016 A 
ATOM     30  C   UNL A   1      35.791  32.514  28.018  1.00  0.00     0.016 A 
ATOM     31  C   UNL A   1      36.093  29.868  28.863  1.00  0.00     0.010 A 
ATOM     32  C   UNL A   1      36.977  32.100  28.640  1.00  0.00     0.010 A 
ATOM     33  C   UNL A   1      37.128  30.779  29.108  1.00  0.00    -0.014 A 
BRANCH  33  34
ATOM     34  C   UNL A   1      38.352  30.334  29.835  1.00  0.00     0.031 A 
ATOM     35  C   UNL A   1      39.320  29.371  29.198  1.00  0.00     0.074 A 
ATOM     36  C   UNL A   1      38.601  30.800  31.079  1.00  0.00     0.049 A 
ATOM     37  N   UNL A   1      40.348  28.762  29.730  1.00  0.00    -0.248 NA
ATOM     38  C   UNL A   1      39.096  29.034  27.783  1.00  0.00     0.031 C 
ATOM     39  C   UNL A   1      37.756  31.745  31.814  1.00  0.00     0.029 A 
ATOM     40  N   UNL A   1      39.636  30.545  31.947  1.00  0.00    -0.354 N 
ATOM     41  C   UNL A   1      40.842  27.911  28.747  1.00  0.00     0.074 A 
ATOM     42  C   UNL A   1      40.008  28.093  27.578  1.00  0.00     0.031 C 
ATOM     43  C   UNL A   1      38.322  32.022  32.996  1.00  0.00     0.029 A 
ATOM     44  C   UNL A   1      39.513  31.199  33.152  1.00  0.00     0.049 A 
ATOM     45  H   UNL A   1      40.390  29.953  31.728  1.00  0.00     0.167 HD
ATOM     46  C   UNL A   1      41.896  27.061  28.810  1.00  0.00     0.034 A 
ATOM     47  C   UNL A   1      40.240  31.113  34.283  1.00  0.00     0.034 A 
ATOM     48  C   UNL A   1      42.769  26.942  29.949  1.00  0.00     0.049 A 
ATOM     49  C   UNL A   1      41.406  30.170  34.325  1.00  0.00     0.074 A 
ATOM     50  C   UNL A   1      43.895  26.150  30.089  1.00  0.00     0.029 A 
ATOM     51  N   UNL A   1      42.620  27.639  31.139  1.00  0.00    -0.354 N 
ATOM     52  N   UNL A   1      41.881  29.408  33.370  1.00  0.00    -0.248 NA
ATOM     53  C   UNL A   1      42.137  30.074  35.595  1.00  0.00     0.031 C 
ATOM     54  C   UNL A   1      44.417  26.355  31.371  1.00  0.00     0.029 A 
ATOM     55  C   UNL A   1      43.627  27.289  32.023  1.00  0.00     0.049 A 
ATOM     56  H   UNL A   1      41.904  28.289  31.327  1.00  0.00     0.167 HD
ATOM     57  C   UNL A   1      42.971  28.746  33.920  1.00  0.00     0.074 A 
ATOM     58  C   UNL A   1      43.108  29.226  35.281  1.00  0.00     0.031 C 
ATOM     59  C   UNL A   1      43.770  27.804  33.360  1.00  0.00     0.034 A 
BRANCH  46  60
ATOM     60  C   UNL A   1      42.177  26.199  27.607  1.00  0.00     0.023 A 
ATOM     61  C   UNL A   1      42.855  26.738  26.495  1.00  0.00     0.012 A 
ATOM     62  C   UNL A   1      41.814  24.837  27.598  1.00  0.00     0.148 A 
ATOM     63  C   UNL A   1      43.139  25.946  25.383  1.00  0.00     0.002 A 
ATOM     64  C   UNL A   1      42.136  24.042  26.503  1.00  0.00     0.091 A 
ATOM     65  F   UNL A   1      41.149  24.345  28.653  1.00  0.00    -0.205 F 
ATOM     66  C   UNL A   1      42.789  24.598  25.390  1.00  0.00     0.022 A 
BRANCH  64  67
ATOM     67  S   UNL A   1      41.791  22.279  26.452  1.00  0.00     0.127 S 
ATOM     68  O   UNL A   1      40.334  22.267  26.328  1.00  0.00    -0.237 OA
ATOM     69  O   UNL A   1      42.508  21.856  25.249  1.00  0.00    -0.237 OA
ATOM     70  O   UNL A   1      42.320  21.735  27.695  1.00  0.00    -0.744 OA
ENDBRANCH  64  67
ENDBRANCH  46  60
BRANCH  47  71
ATOM     71  C   UNL A   1      39.872  31.947  35.464  1.00  0.00     0.023 A 
ATOM     72  C   UNL A   1      40.363  33.262  35.564  1.00  0.00     0.012 A 
ATOM     73  C   UNL A   1      38.988  31.467  36.452  1.00  0.00     0.148 A 
ATOM     74  C   UNL A   1      39.987  34.082  36.630  1.00  0.00     0.002 A 
ATOM     75  C   UNL A   1      38.567  32.310  37.473  1.00  0.00     0.091 A 
ATOM     76  F   UNL A   1      38.552  30.203  36.355  1.00  0.00    -0.205 F 
ATOM     77  C   UNL A   1      39.077  33.612  37.574  1.00  0.00     0.022 A 
BRANCH  75  78
ATOM     78  S   UNL A   1      37.278  31.834  38.633  1.00  0.00     0.127 S 
ATOM     79  O   UNL A   1      37.021  30.450  38.244  1.00  0.00    -0.237 OA
ATOM     80  O   UNL A   1      37.952  31.998  39.921  1.00  0.00    -0.237 OA
ATOM     81  O   UNL A   1      36.187  32.772  38.408  1.00  0.00    -0.744 OA
ENDBRANCH  75  78
ENDBRANCH  47  71
BRANCH  59  82
ATOM     82  C   UNL A   1      44.868  27.236  34.218  1.00  0.00     0.023 A 
ATOM     83  C   UNL A   1      46.133  27.855  34.227  1.00  0.00     0.012 A 
ATOM     84  C   UNL A   1      44.630  26.129  35.056  1.00  0.00     0.148 A 
ATOM     85  C   UNL A   1      47.156  27.362  35.035  1.00  0.00     0.002 A 
ATOM     86  C   UNL A   1      45.642  25.671  35.891  1.00  0.00     0.091 A 
ATOM     87  F   UNL A   1      43.425  25.541  35.016  1.00  0.00    -0.205 F 
ATOM     88  C   UNL A   1      46.908  26.278  35.874  1.00  0.00     0.022 A 
BRANCH  86  89
ATOM     89  S   UNL A   1      45.388  24.337  37.067  1.00  0.00     0.127 S 
ATOM     90  O   UNL A   1      46.681  24.287  37.746  1.00  0.00    -0.237 OA
ATOM     91  O   UNL A   1      44.288  24.850  37.886  1.00  0.00    -0.237 OA
ATOM     92  O   UNL A   1      45.050  23.163  36.273  1.00  0.00    -0.744 OA
ENDBRANCH  86  89
ENDBRANCH  59  82
ENDBRANCH  33  34
ENDBRANCH  26  28
ENDBRANCH  25  26
ENDBRANCH  24  25
ENDBRANCH   1  24
TORSDOF 19
ENDMDL
MODEL 3
REMARK VINA RESULT:     -10.8      4.648      9.706
REMARK SMILES COc1ccc(CCn2cc(C(=O)OCCOC(=O)c3ccc(-c4c5nc(c(-c6cccc(S(=O)(=O)[O-])c6F)c6ccc([nH]6)c(-c6cccc(S(=O)(=O)[O-])c6F)c6nc(c(-c7cccc(S(=O)(=O)[O-])c7F)c7ccc4[nH]7)C=C6)C=C5)cc3)ccc2=O)cc1OC
REMARK SMILES IDX 15 1 14 2 12 3 13 4 11 5 9 6 10 7 85 8 84 9 86 10 83 11 8 12
REMARK SMILES IDX 7 13 6 14 3 15 4 16 88 17 5 18 87 19 2 20 1 21 89 22 90 23
REMARK SMILES IDX 16 24 17 25 18 26 19 27 20 28 21 29 82 30 22 31 81 32 23 33
REMARK SMILES IDX 24 34 25 35 75 36 26 37 80 38 74 39 76 40 27 41 79 42 73 43
REMARK SMILES IDX 72 44 28 46 60 47 40 48 59 49 41 50 44 51 58 52 77 53 42 54
REMARK SMILES IDX 43 55 57 57 78 58 45 59 29 60 30 61 38 62 31 63 33 64 39 65
REMARK SMILES IDX 32 66 34 67 35 68 36 69 37 70 61 71 62 72 70 73 63 74 65 75
REMARK SMILES IDX 71 76 64 77 66 78 67 79 68 80 69 81 46 82 47 83 55 84 48 85
REMARK SMILES IDX 50 86 56 87 49 88 51 89 52 90 53 91 54 92
REMARK H PARENT 76 45 44 56
REMARK Flexibility Score: inf
ROOT
ATOM      1  C   UNL A   1      35.424  21.035  24.783  1.00  0.00     0.275 C 
ENDROOT
BRANCH   1   2
ATOM      2  O   UNL A   1      34.488  20.593  25.789  1.00  0.00    -0.458 OA
BRANCH   2   3
ATOM      3  C   UNL A   1      33.249  20.225  25.358  1.00  0.00     0.339 C 
ATOM      4  O   UNL A   1      32.719  19.147  25.516  1.00  0.00    -0.246 OA
BRANCH   3   5
ATOM      5  C   UNL A   1      32.581  21.379  24.698  1.00  0.00     0.076 A 
ATOM      6  N   UNL A   1      31.445  23.456  24.919  1.00  0.00    -0.314 N 
ATOM      7  C   UNL A   1      32.138  22.383  25.466  1.00  0.00     0.104 A 
ATOM      8  C   UNL A   1      31.219  23.582  23.549  1.00  0.00     0.250 A 
ATOM      9  C   UNL A   1      31.769  22.495  22.702  1.00  0.00     0.072 A 
ATOM     10  O   UNL A   1      30.593  24.499  23.024  1.00  0.00    -0.269 OA
ATOM     11  C   UNL A   1      32.409  21.463  23.266  1.00  0.00     0.023 A 
BRANCH   6  12
ATOM     12  C   UNL A   1      30.802  24.417  25.814  1.00  0.00     0.130 C 
BRANCH  12  13
ATOM     13  C   UNL A   1      31.838  25.242  26.604  1.00  0.00     0.057 C 
BRANCH  13  14
ATOM     14  C   UNL A   1      31.652  26.731  26.396  1.00  0.00    -0.042 A 
ATOM     15  C   UNL A   1      31.665  29.495  25.870  1.00  0.00     0.160 A 
ATOM     16  C   UNL A   1      31.935  29.018  27.158  1.00  0.00     0.051 A 
ATOM     17  C   UNL A   1      31.339  28.589  24.851  1.00  0.00     0.160 A 
ATOM     18  C   UNL A   1      31.908  27.645  27.424  1.00  0.00     0.008 A 
ATOM     19  C   UNL A   1      31.348  27.217  25.119  1.00  0.00     0.054 A 
BRANCH  15  20
ATOM     20  O   UNL A   1      31.847  30.813  25.548  1.00  0.00    -0.493 OA
ATOM     21  C   UNL A   1      31.352  31.736  26.511  1.00  0.00     0.278 C 
ENDBRANCH  15  20
BRANCH  17  22
ATOM     22  O   UNL A   1      31.052  28.895  23.546  1.00  0.00    -0.493 OA
ATOM     23  C   UNL A   1      30.157  28.003  22.890  1.00  0.00     0.278 C 
ENDBRANCH  17  22
ENDBRANCH  13  14
ENDBRANCH  12  13
ENDBRANCH   6  12
ENDBRANCH   3   5
ENDBRANCH   2   3
ENDBRANCH   1   2
BRANCH   1  24
ATOM     24  C   UNL A   1      36.848  20.604  25.134  1.00  0.00     0.275 C 
BRANCH  24  25
ATOM     25  O   UNL A   1      37.537  21.693  25.771  1.00  0.00    -0.458 OA
BRANCH  25  26
ATOM     26  C   UNL A   1      38.839  21.474  26.055  1.00  0.00     0.338 C 
ATOM     27  O   UNL A   1      39.515  20.504  25.753  1.00  0.00    -0.246 OA
BRANCH  26  28
ATOM     28  C   UNL A   1      39.398  22.675  26.689  1.00  0.00     0.060 A 
ATOM     29  C   UNL A   1      38.968  23.908  26.215  1.00  0.00     0.016 A 
ATOM     30  C   UNL A   1      40.422  22.606  27.628  1.00  0.00     0.016 A 
ATOM     31  C   UNL A   1      39.644  25.069  26.562  1.00  0.00     0.010 A 
ATOM     32  C   UNL A   1      41.008  23.794  28.088  1.00  0.00     0.010 A 
ATOM     33  C   UNL A   1      40.654  25.039  27.532  1.00  0.00    -0.014 A 
BRANCH  33  34
ATOM     34  C   UNL A   1      41.314  26.309  27.954  1.00  0.00     0.031 A 
ATOM     35  C   UNL A   1      40.552  27.351  28.732  1.00  0.00     0.074 A 
ATOM     36  C   UNL A   1      42.610  26.529  27.644  1.00  0.00     0.049 A 
ATOM     37  N   UNL A   1      40.912  28.568  29.052  1.00  0.00    -0.248 NA
ATOM     38  C   UNL A   1      39.203  26.989  29.196  1.00  0.00     0.031 C 
ATOM     39  C   UNL A   1      43.473  25.602  26.905  1.00  0.00     0.029 A 
ATOM     40  N   UNL A   1      43.432  27.598  27.907  1.00  0.00    -0.354 N 
ATOM     41  C   UNL A   1      39.811  29.142  29.678  1.00  0.00     0.074 A 
ATOM     42  C   UNL A   1      38.772  28.134  29.707  1.00  0.00     0.031 C 
ATOM     43  C   UNL A   1      44.705  26.120  26.812  1.00  0.00     0.029 A 
ATOM     44  C   UNL A   1      44.699  27.457  27.388  1.00  0.00     0.049 A 
ATOM     45  H   UNL A   1      43.143  28.388  28.418  1.00  0.00     0.167 HD
ATOM     46  C   UNL A   1      39.679  30.391  30.187  1.00  0.00     0.034 A 
ATOM     47  C   UNL A   1      45.732  28.320  27.327  1.00  0.00     0.034 A 
ATOM     48  C   UNL A   1      40.740  31.363  30.226  1.00  0.00     0.049 A 
ATOM     49  C   UNL A   1      45.563  29.694  27.905  1.00  0.00     0.074 A 
ATOM     50  C   UNL A   1      40.722  32.635  30.770  1.00  0.00     0.029 A 
ATOM     51  N   UNL A   1      42.013  31.169  29.709  1.00  0.00    -0.354 N 
ATOM     52  N   UNL A   1      44.528  30.201  28.531  1.00  0.00    -0.248 NA
ATOM     53  C   UNL A   1      46.699  30.615  27.770  1.00  0.00     0.031 C 
ATOM     54  C   UNL A   1      41.978  33.217  30.565  1.00  0.00     0.029 A 
ATOM     55  C   UNL A   1      42.785  32.301  29.911  1.00  0.00     0.049 A 
ATOM     56  H   UNL A   1      42.322  30.346  29.264  1.00  0.00     0.167 HD
ATOM     57  C   UNL A   1      44.890  31.497  28.872  1.00  0.00     0.074 A 
ATOM     58  C   UNL A   1      46.253  31.685  28.416  1.00  0.00     0.031 C 
ATOM     59  C   UNL A   1      44.152  32.457  29.483  1.00  0.00     0.034 A 
BRANCH  46  60
ATOM     60  C   UNL A   1      38.341  30.779  30.761  1.00  0.00     0.023 A 
ATOM     61  C   UNL A   1      38.037  30.485  32.105  1.00  0.00     0.012 A 
ATOM     62  C   UNL A   1      37.400  31.482  29.980  1.00  0.00     0.148 A 
ATOM     63  C   UNL A   1      36.809  30.856  32.654  1.00  0.00     0.002 A 
ATOM     64  C   UNL A   1      36.195  31.884  30.545  1.00  0.00     0.091 A 
ATOM     65  F   UNL A   1      37.695  31.734  28.696  1.00  0.00    -0.205 F 
ATOM     66  C   UNL A   1      35.894  31.563  31.879  1.00  0.00     0.022 A 
BRANCH  64  67
ATOM     67  S   UNL A   1      34.985  32.864  29.647  1.00  0.00     0.127 S 
ATOM     68  O   UNL A   1      34.480  31.892  28.677  1.00  0.00    -0.237 OA
ATOM     69  O   UNL A   1      34.034  33.225  30.699  1.00  0.00    -0.237 OA
ATOM     70  O   UNL A   1      35.721  33.987  29.084  1.00  0.00    -0.744 OA
ENDBRANCH  64  67
ENDBRANCH  46  60
BRANCH  47  71
ATOM     71  C   UNL A   1      47.012  27.897  26.689  1.00  0.00     0.023 A 
ATOM     72  C   UNL A   1      48.039  27.357  27.485  1.00  0.00     0.012 A 
ATOM     73  C   UNL A   1      47.191  27.966  25.292  1.00  0.00     0.148 A 
ATOM     74  C   UNL A   1      49.224  26.901  26.904  1.00  0.00     0.002 A 
ATOM     75  C   UNL A   1      48.345  27.451  24.714  1.00  0.00     0.091 A 
ATOM     76  F   UNL A   1      46.214  28.509  24.552  1.00  0.00    -0.205 F 
ATOM     77  C   UNL A   1      49.369  26.933  25.519  1.00  0.00     0.022 A 
BRANCH  75  78
ATOM     78  S   UNL A   1      48.539  27.309  22.933  1.00  0.00     0.127 S 
ATOM     79  O   UNL A   1      48.283  25.887  22.716  1.00  0.00    -0.237 OA
ATOM     80  O   UNL A   1      47.494  28.206  22.440  1.00  0.00    -0.237 OA
ATOM     81  O   UNL A   1      49.894  27.762  22.652  1.00  0.00    -0.744 OA
ENDBRANCH  75  78
ENDBRANCH  47  71
BRANCH  59  82
ATOM     82  C   UNL A   1      44.806  33.795  29.697  1.00  0.00     0.023 A 
ATOM     83  C   UNL A   1      44.709  34.782  28.698  1.00  0.00     0.012 A 
ATOM     84  C   UNL A   1      45.464  34.092  30.906  1.00  0.00     0.148 A 
ATOM     85  C   UNL A   1      45.284  36.038  28.886  1.00  0.00     0.002 A 
ATOM     86  C   UNL A   1      45.997  35.361  31.104  1.00  0.00     0.091 A 
ATOM     87  F   UNL A   1      45.564  33.131  31.836  1.00  0.00    -0.205 F 
ATOM     88  C   UNL A   1      45.918  36.331  30.091  1.00  0.00     0.022 A 
BRANCH  86  89
ATOM     89  S   UNL A   1      46.753  35.855  32.656  1.00  0.00     0.127 S 
ATOM     90  O   UNL A   1      46.989  37.280  32.433  1.00  0.00    -0.237 OA
ATOM     91  O   UNL A   1      45.698  35.555  33.626  1.00  0.00    -0.237 OA
ATOM     92  O   UNL A   1      47.949  35.036  32.796  1.00  0.00    -0.744 OA
ENDBRANCH  86  89
ENDBRANCH  59  82
ENDBRANCH  33  34
ENDBRANCH  26  28
ENDBRANCH  25  26
ENDBRANCH  24  25
ENDBRANCH   1  24
TORSDOF 19
ENDMDL
