MODEL 1
REMARK VINA RESULT:     -12.5      0.000      0.000
REMARK SMILES Cc1cc(Br)cc2c1O[C@H](C(F)(F)F)C(C(=O)OCCOC(=O)c1ccc(-c3c4nc(c(-c5cccc(S(=O)(=O)[O-])c5F)c5ccc([nH]5)c(-c5cccc(S(=O)(=O)[O-])c5F)c5nc(c(-c6cccc(S(=O)(=O)[O-])c6F)c6ccc3[nH]6)C=C5)C=C4)cc1)=C2
REMARK SMILES IDX 20 1 19 2 18 3 16 4 17 5 15 6 1 7 2 8 3 9 8 10 4 11 7 12
REMARK SMILES IDX 9 13 5 14 6 15 87 16 10 17 11 18 12 19 13 20 14 21 21 22
REMARK SMILES IDX 22 23 23 24 24 25 25 26 86 27 26 28 85 29 27 30 28 31 29 32
REMARK SMILES IDX 79 33 30 34 84 35 78 36 80 37 31 38 83 39 77 40 76 41 32 43
REMARK SMILES IDX 64 44 44 45 63 46 45 47 48 48 62 49 81 50 46 51 47 52 61 54
REMARK SMILES IDX 82 55 49 56 33 57 34 58 42 59 35 60 37 61 43 62 36 63 38 64
REMARK SMILES IDX 39 65 40 66 41 67 65 68 66 69 74 70 67 71 69 72 75 73 68 74
REMARK SMILES IDX 70 75 71 76 72 77 73 78 50 79 51 80 59 81 52 82 54 83 60 84
REMARK SMILES IDX 53 85 55 86 56 87 57 88 58 89
REMARK H PARENT 80 42 48 53
REMARK Flexibility Score: inf
ROOT
ATOM      1  C   UNL A   1      36.422  20.636  25.379  1.00  0.00     0.275 C 
ENDROOT
BRANCH   1   2
ATOM      2  C   UNL A   1      35.148  21.321  24.885  1.00  0.00     0.275 C 
BRANCH   2   3
ATOM      3  O   UNL A   1      35.312  22.755  24.819  1.00  0.00    -0.459 OA
BRANCH   3   4
ATOM      4  C   UNL A   1      35.142  23.303  23.593  1.00  0.00     0.338 C 
ATOM      5  O   UNL A   1      35.706  22.970  22.563  1.00  0.00    -0.246 OA
BRANCH   4   6
ATOM      6  C   UNL A   1      34.152  24.395  23.642  1.00  0.00     0.087 C 
ATOM      7  C   UNL A   1      29.844  27.207  23.343  1.00  0.00     0.048 C 
ATOM      8  C   UNL A   1      31.109  27.226  24.151  1.00  0.00    -0.007 A 
ATOM      9  C   UNL A   1      31.268  28.216  25.138  1.00  0.00     0.023 A 
ATOM     10  C   UNL A   1      32.148  26.311  23.925  1.00  0.00     0.130 A 
ATOM     11  C   UNL A   1      32.437  28.281  25.893  1.00  0.00     0.019 A 
ATOM     12  C   UNL A   1      33.306  26.372  24.704  1.00  0.00     0.019 A 
ATOM     13  O   UNL A   1      31.982  25.395  22.921  1.00  0.00    -0.475 OA
ATOM     14  Br  UNL A   1      32.628  29.611  27.221  1.00  0.00    -0.051 Br
ATOM     15  C   UNL A   1      33.458  27.363  25.681  1.00  0.00     0.027 A 
ATOM     16  C   UNL A   1      34.344  25.379  24.527  1.00  0.00     0.027 C 
ATOM     17  C   UNL A   1      32.906  24.275  22.819  1.00  0.00     0.316 C 
BRANCH  17  18
ATOM     18  C   UNL A   1      32.150  22.976  23.141  1.00  0.00     0.430 C 
ATOM     19  F   UNL A   1      32.234  22.674  24.461  1.00  0.00    -0.167 F 
ATOM     20  F   UNL A   1      30.829  23.084  22.859  1.00  0.00    -0.167 F 
ATOM     21  F   UNL A   1      32.628  21.915  22.453  1.00  0.00    -0.167 F 
ENDBRANCH  17  18
ENDBRANCH   4   6
ENDBRANCH   3   4
ENDBRANCH   2   3
ENDBRANCH   1   2
BRANCH   1  22
ATOM     22  O   UNL A   1      37.574  21.446  25.085  1.00  0.00    -0.458 OA
BRANCH  22  23
ATOM     23  C   UNL A   1      38.700  21.109  25.753  1.00  0.00     0.338 C 
ATOM     24  O   UNL A   1      39.265  20.029  25.753  1.00  0.00    -0.246 OA
BRANCH  23  25
ATOM     25  C   UNL A   1      39.251  22.290  26.434  1.00  0.00     0.060 A 
ATOM     26  C   UNL A   1      38.691  23.526  26.147  1.00  0.00     0.016 A 
ATOM     27  C   UNL A   1      40.421  22.213  27.185  1.00  0.00     0.016 A 
ATOM     28  C   UNL A   1      39.387  24.691  26.441  1.00  0.00     0.010 A 
ATOM     29  C   UNL A   1      41.026  23.395  27.634  1.00  0.00     0.010 A 
ATOM     30  C   UNL A   1      40.551  24.653  27.220  1.00  0.00    -0.014 A 
BRANCH  30  31
ATOM     31  C   UNL A   1      41.245  25.929  27.579  1.00  0.00     0.031 A 
ATOM     32  C   UNL A   1      40.568  26.963  28.447  1.00  0.00     0.074 A 
ATOM     33  C   UNL A   1      42.507  26.151  27.147  1.00  0.00     0.049 A 
ATOM     34  N   UNL A   1      40.982  28.160  28.775  1.00  0.00    -0.248 NA
ATOM     35  C   UNL A   1      39.248  26.623  29.006  1.00  0.00     0.031 C 
ATOM     36  C   UNL A   1      43.285  25.236  26.307  1.00  0.00     0.029 A 
ATOM     37  N   UNL A   1      43.368  27.200  27.363  1.00  0.00    -0.354 N 
ATOM     38  C   UNL A   1      39.953  28.737  29.513  1.00  0.00     0.074 A 
ATOM     39  C   UNL A   1      38.888  27.762  29.581  1.00  0.00     0.031 C 
ATOM     40  C   UNL A   1      44.520  25.724  26.140  1.00  0.00     0.029 A 
ATOM     41  C   UNL A   1      44.597  27.038  26.760  1.00  0.00     0.049 A 
ATOM     42  H   UNL A   1      43.131  27.992  27.897  1.00  0.00     0.167 HD
ATOM     43  C   UNL A   1      39.907  29.959  30.097  1.00  0.00     0.034 A 
ATOM     44  C   UNL A   1      45.660  27.863  26.677  1.00  0.00     0.034 A 
ATOM     45  C   UNL A   1      41.001  30.893  30.093  1.00  0.00     0.049 A 
ATOM     46  C   UNL A   1      45.580  29.213  27.329  1.00  0.00     0.074 A 
ATOM     47  C   UNL A   1      41.063  32.139  30.690  1.00  0.00     0.029 A 
ATOM     48  N   UNL A   1      42.226  30.682  29.478  1.00  0.00    -0.354 N 
ATOM     49  N   UNL A   1      44.612  29.719  28.052  1.00  0.00    -0.248 NA
ATOM     50  C   UNL A   1      46.734  30.107  27.160  1.00  0.00     0.031 C 
ATOM     51  C   UNL A   1      42.315  32.694  30.413  1.00  0.00     0.029 A 
ATOM     52  C   UNL A   1      43.046  31.778  29.673  1.00  0.00     0.049 A 
ATOM     53  H   UNL A   1      42.474  29.871  28.977  1.00  0.00     0.167 HD
ATOM     54  C   UNL A   1      45.045  30.979  28.443  1.00  0.00     0.074 A 
ATOM     55  C   UNL A   1      46.375  31.152  27.895  1.00  0.00     0.031 C 
ATOM     56  C   UNL A   1      44.390  31.914  29.172  1.00  0.00     0.034 A 
BRANCH  43  57
ATOM     57  C   UNL A   1      38.647  30.358  30.828  1.00  0.00     0.023 A 
ATOM     58  C   UNL A   1      38.513  30.070  32.201  1.00  0.00     0.012 A 
ATOM     59  C   UNL A   1      37.644  31.108  30.180  1.00  0.00     0.148 A 
ATOM     60  C   UNL A   1      37.390  30.496  32.910  1.00  0.00     0.002 A 
ATOM     61  C   UNL A   1      36.551  31.571  30.904  1.00  0.00     0.091 A 
ATOM     62  F   UNL A   1      37.781  31.362  28.870  1.00  0.00    -0.205 F 
ATOM     63  C   UNL A   1      36.417  31.256  32.265  1.00  0.00     0.022 A 
BRANCH  61  64
ATOM     64  S   UNL A   1      35.289  32.634  30.192  1.00  0.00     0.127 S 
ATOM     65  O   UNL A   1      34.776  31.798  29.108  1.00  0.00    -0.237 OA
ATOM     66  O   UNL A   1      34.367  32.811  31.314  1.00  0.00    -0.237 OA
ATOM     67  O   UNL A   1      35.975  33.847  29.769  1.00  0.00    -0.744 OA
ENDBRANCH  61  64
ENDBRANCH  43  57
BRANCH  44  68
ATOM     68  C   UNL A   1      46.894  27.411  25.967  1.00  0.00     0.023 A 
ATOM     69  C   UNL A   1      47.774  26.520  26.610  1.00  0.00     0.012 A 
ATOM     70  C   UNL A   1      47.163  27.796  24.637  1.00  0.00     0.148 A 
ATOM     71  C   UNL A   1      48.899  26.027  25.947  1.00  0.00     0.002 A 
ATOM     72  C   UNL A   1      48.247  27.250  23.960  1.00  0.00     0.091 A 
ATOM     73  F   UNL A   1      46.327  28.662  24.046  1.00  0.00    -0.205 F 
ATOM     74  C   UNL A   1      49.127  26.378  24.619  1.00  0.00     0.022 A 
BRANCH  72  75
ATOM     75  S   UNL A   1      48.522  27.518  22.205  1.00  0.00     0.127 S 
ATOM     76  O   UNL A   1      49.749  28.311  22.213  1.00  0.00    -0.237 OA
ATOM     77  O   UNL A   1      48.676  26.150  21.711  1.00  0.00    -0.237 OA
ATOM     78  O   UNL A   1      47.331  28.202  21.719  1.00  0.00    -0.744 OA
ENDBRANCH  72  75
ENDBRANCH  44  68
BRANCH  56  79
ATOM     79  C   UNL A   1      45.093  33.214  29.457  1.00  0.00     0.023 A 
ATOM     80  C   UNL A   1      45.957  33.308  30.564  1.00  0.00     0.012 A 
ATOM     81  C   UNL A   1      45.013  34.283  28.543  1.00  0.00     0.148 A 
ATOM     82  C   UNL A   1      46.728  34.452  30.762  1.00  0.00     0.002 A 
ATOM     83  C   UNL A   1      45.823  35.398  28.718  1.00  0.00     0.091 A 
ATOM     84  F   UNL A   1      44.171  34.174  27.505  1.00  0.00    -0.205 F 
ATOM     85  C   UNL A   1      46.675  35.487  29.832  1.00  0.00     0.022 A 
BRANCH  83  86
ATOM     86  S   UNL A   1      45.910  36.730  27.516  1.00  0.00     0.127 S 
ATOM     87  O   UNL A   1      46.390  36.027  26.327  1.00  0.00    -0.237 OA
ATOM     88  O   UNL A   1      44.517  37.170  27.444  1.00  0.00    -0.237 OA
ATOM     89  O   UNL A   1      46.833  37.713  28.066  1.00  0.00    -0.744 OA
ENDBRANCH  83  86
ENDBRANCH  56  79
ENDBRANCH  30  31
ENDBRANCH  23  25
ENDBRANCH  22  23
ENDBRANCH   1  22
TORSDOF 15
ENDMDL
MODEL 2
REMARK VINA RESULT:     -12.3      5.284     10.029
REMARK SMILES Cc1cc(Br)cc2c1O[C@H](C(F)(F)F)C(C(=O)OCCOC(=O)c1ccc(-c3c4nc(c(-c5cccc(S(=O)(=O)[O-])c5F)c5ccc([nH]5)c(-c5cccc(S(=O)(=O)[O-])c5F)c5nc(c(-c6cccc(S(=O)(=O)[O-])c6F)c6ccc3[nH]6)C=C5)C=C4)cc1)=C2
REMARK SMILES IDX 20 1 19 2 18 3 16 4 17 5 15 6 1 7 2 8 3 9 8 10 4 11 7 12
REMARK SMILES IDX 9 13 5 14 6 15 87 16 10 17 11 18 12 19 13 20 14 21 21 22
REMARK SMILES IDX 22 23 23 24 24 25 25 26 86 27 26 28 85 29 27 30 28 31 29 32
REMARK SMILES IDX 79 33 30 34 84 35 78 36 80 37 31 38 83 39 77 40 76 41 32 43
REMARK SMILES IDX 64 44 44 45 63 46 45 47 48 48 62 49 81 50 46 51 47 52 61 54
REMARK SMILES IDX 82 55 49 56 33 57 34 58 42 59 35 60 37 61 43 62 36 63 38 64
REMARK SMILES IDX 39 65 40 66 41 67 65 68 66 69 74 70 67 71 69 72 75 73 68 74
REMARK SMILES IDX 70 75 71 76 72 77 73 78 50 79 51 80 59 81 52 82 54 83 60 84
REMARK SMILES IDX 53 85 55 86 56 87 57 88 58 89
REMARK H PARENT 80 42 48 53
REMARK Flexibility Score: inf
ROOT
ATOM      1  C   UNL A   1      31.518  30.443  25.746  1.00  0.00     0.275 C 
ENDROOT
BRANCH   1   2
ATOM      2  C   UNL A   1      31.663  29.109  25.014  1.00  0.00     0.275 C 
BRANCH   2   3
ATOM      3  O   UNL A   1      32.470  28.178  25.770  1.00  0.00    -0.459 OA
BRANCH   3   4
ATOM      4  C   UNL A   1      31.780  27.251  26.474  1.00  0.00     0.338 C 
ATOM      5  O   UNL A   1      30.966  27.466  27.358  1.00  0.00    -0.246 OA
BRANCH   4   6
ATOM      6  C   UNL A   1      32.136  25.889  26.034  1.00  0.00     0.087 C 
ATOM      7  C   UNL A   1      32.216  21.278  23.736  1.00  0.00     0.048 C 
ATOM      8  C   UNL A   1      33.223  22.227  24.318  1.00  0.00    -0.007 A 
ATOM      9  C   UNL A   1      34.587  21.888  24.261  1.00  0.00     0.023 A 
ATOM     10  C   UNL A   1      32.839  23.420  24.948  1.00  0.00     0.130 A 
ATOM     11  C   UNL A   1      35.549  22.732  24.812  1.00  0.00     0.019 A 
ATOM     12  C   UNL A   1      33.815  24.269  25.477  1.00  0.00     0.019 A 
ATOM     13  O   UNL A   1      31.499  23.693  25.033  1.00  0.00    -0.475 OA
ATOM     14  Br  UNL A   1      37.377  22.265  24.717  1.00  0.00    -0.051 Br
ATOM     15  C   UNL A   1      35.170  23.922  25.419  1.00  0.00     0.027 A 
ATOM     16  C   UNL A   1      33.426  25.539  26.054  1.00  0.00     0.027 C 
ATOM     17  C   UNL A   1      31.068  25.022  25.440  1.00  0.00     0.316 C 
BRANCH  17  18
ATOM     18  C   UNL A   1      30.393  25.713  24.244  1.00  0.00     0.430 C 
ATOM     19  F   UNL A   1      31.309  26.296  23.432  1.00  0.00    -0.167 F 
ATOM     20  F   UNL A   1      29.711  24.828  23.476  1.00  0.00    -0.167 F 
ATOM     21  F   UNL A   1      29.523  26.674  24.627  1.00  0.00    -0.167 F 
ENDBRANCH  17  18
ENDBRANCH   4   6
ENDBRANCH   3   4
ENDBRANCH   2   3
ENDBRANCH   1   2
BRANCH   1  22
ATOM     22  O   UNL A   1      32.293  30.438  26.958  1.00  0.00    -0.458 OA
BRANCH  22  23
ATOM     23  C   UNL A   1      32.979  31.576  27.206  1.00  0.00     0.338 C 
ATOM     24  O   UNL A   1      32.554  32.718  27.173  1.00  0.00    -0.246 OA
BRANCH  23  25
ATOM     25  C   UNL A   1      34.344  31.253  27.647  1.00  0.00     0.060 A 
ATOM     26  C   UNL A   1      34.650  29.923  27.894  1.00  0.00     0.016 A 
ATOM     27  C   UNL A   1      35.246  32.252  28.002  1.00  0.00     0.016 A 
ATOM     28  C   UNL A   1      35.760  29.595  28.660  1.00  0.00     0.010 A 
ATOM     29  C   UNL A   1      36.454  31.897  28.618  1.00  0.00     0.010 A 
ATOM     30  C   UNL A   1      36.703  30.569  29.009  1.00  0.00    -0.014 A 
BRANCH  30  31
ATOM     31  C   UNL A   1      37.925  30.176  29.777  1.00  0.00     0.031 A 
ATOM     32  C   UNL A   1      38.981  29.290  29.159  1.00  0.00     0.074 A 
ATOM     33  C   UNL A   1      38.106  30.642  31.034  1.00  0.00     0.049 A 
ATOM     34  N   UNL A   1      40.049  28.776  29.710  1.00  0.00    -0.248 NA
ATOM     35  C   UNL A   1      38.809  28.916  27.744  1.00  0.00     0.031 C 
ATOM     36  C   UNL A   1      37.172  31.511  31.755  1.00  0.00     0.029 A 
ATOM     37  N   UNL A   1      39.138  30.470  31.925  1.00  0.00    -0.354 N 
ATOM     38  C   UNL A   1      40.635  27.967  28.740  1.00  0.00     0.074 A 
ATOM     39  C   UNL A   1      39.799  28.052  27.563  1.00  0.00     0.031 C 
ATOM     40  C   UNL A   1      37.700  31.852  32.937  1.00  0.00     0.029 A 
ATOM     41  C   UNL A   1      38.957  31.140  33.116  1.00  0.00     0.049 A 
ATOM     42  H   UNL A   1      39.932  29.921  31.733  1.00  0.00     0.167 HD
ATOM     43  C   UNL A   1      41.773  27.237  28.816  1.00  0.00     0.034 A 
ATOM     44  C   UNL A   1      39.693  31.159  34.245  1.00  0.00     0.034 A 
ATOM     45  C   UNL A   1      42.642  27.219  29.962  1.00  0.00     0.049 A 
ATOM     46  C   UNL A   1      40.947  30.336  34.304  1.00  0.00     0.074 A 
ATOM     47  C   UNL A   1      43.837  26.541  30.119  1.00  0.00     0.029 A 
ATOM     48  N   UNL A   1      42.421  27.920  31.138  1.00  0.00    -0.354 N 
ATOM     49  N   UNL A   1      41.498  29.612  33.361  1.00  0.00    -0.248 NA
ATOM     50  C   UNL A   1      41.686  30.331  35.574  1.00  0.00     0.031 C 
ATOM     51  C   UNL A   1      44.326  26.808  31.400  1.00  0.00     0.029 A 
ATOM     52  C   UNL A   1      43.453  27.681  32.029  1.00  0.00     0.049 A 
ATOM     53  H   UNL A   1      41.645  28.500  31.314  1.00  0.00     0.167 HD
ATOM     54  C   UNL A   1      42.657  29.082  33.914  1.00  0.00     0.074 A 
ATOM     55  C   UNL A   1      42.742  29.588  35.268  1.00  0.00     0.031 C 
ATOM     56  C   UNL A   1      43.555  28.238  33.354  1.00  0.00     0.034 A 
BRANCH  43  57
ATOM     57  C   UNL A   1      42.180  26.416  27.615  1.00  0.00     0.023 A 
ATOM     58  C   UNL A   1      43.009  26.983  26.627  1.00  0.00     0.012 A 
ATOM     59  C   UNL A   1      41.827  25.054  27.520  1.00  0.00     0.148 A 
ATOM     60  C   UNL A   1      43.457  26.219  25.549  1.00  0.00     0.002 A 
ATOM     61  C   UNL A   1      42.316  24.286  26.469  1.00  0.00     0.091 A 
ATOM     62  F   UNL A   1      41.027  24.533  28.461  1.00  0.00    -0.205 F 
ATOM     63  C   UNL A   1      43.121  24.869  25.478  1.00  0.00     0.022 A 
BRANCH  61  64
ATOM     64  S   UNL A   1      42.020  22.519  26.333  1.00  0.00     0.127 S 
ATOM     65  O   UNL A   1      40.559  22.464  26.321  1.00  0.00    -0.237 OA
ATOM     66  O   UNL A   1      42.653  22.198  25.053  1.00  0.00    -0.237 OA
ATOM     67  O   UNL A   1      42.653  21.912  27.495  1.00  0.00    -0.744 OA
ENDBRANCH  61  64
ENDBRANCH  43  57
BRANCH  44  68
ATOM     68  C   UNL A   1      39.263  32.009  35.395  1.00  0.00     0.023 A 
ATOM     69  C   UNL A   1      38.460  31.448  36.406  1.00  0.00     0.012 A 
ATOM     70  C   UNL A   1      39.704  33.342  35.534  1.00  0.00     0.148 A 
ATOM     71  C   UNL A   1      38.098  32.198  37.527  1.00  0.00     0.002 A 
ATOM     72  C   UNL A   1      39.397  34.060  36.683  1.00  0.00     0.091 A 
ATOM     73  F   UNL A   1      40.451  33.868  34.552  1.00  0.00    -0.205 F 
ATOM     74  C   UNL A   1      38.579  33.496  37.674  1.00  0.00     0.022 A 
BRANCH  72  75
ATOM     75  S   UNL A   1      40.106  35.675  37.029  1.00  0.00     0.127 S 
ATOM     76  O   UNL A   1      39.652  36.453  35.879  1.00  0.00    -0.237 OA
ATOM     77  O   UNL A   1      39.466  36.020  38.298  1.00  0.00    -0.237 OA
ATOM     78  O   UNL A   1      41.544  35.463  37.119  1.00  0.00    -0.744 OA
ENDBRANCH  72  75
ENDBRANCH  44  68
BRANCH  56  79
ATOM     79  C   UNL A   1      44.738  27.809  34.180  1.00  0.00     0.023 A 
ATOM     80  C   UNL A   1      45.894  28.613  34.208  1.00  0.00     0.012 A 
ATOM     81  C   UNL A   1      44.642  26.699  35.041  1.00  0.00     0.148 A 
ATOM     82  C   UNL A   1      46.942  28.312  35.077  1.00  0.00     0.002 A 
ATOM     83  C   UNL A   1      45.667  26.436  35.941  1.00  0.00     0.091 A 
ATOM     84  F   UNL A   1      43.537  25.941  34.986  1.00  0.00    -0.205 F 
ATOM     85  C   UNL A   1      46.821  27.237  35.954  1.00  0.00     0.022 A 
BRANCH  83  86
ATOM     86  S   UNL A   1      45.556  25.147  37.187  1.00  0.00     0.127 S 
ATOM     87  O   UNL A   1      46.831  25.298  37.886  1.00  0.00    -0.237 OA
ATOM     88  O   UNL A   1      44.385  25.564  37.957  1.00  0.00    -0.237 OA
ATOM     89  O   UNL A   1      45.395  23.894  36.461  1.00  0.00    -0.744 OA
ENDBRANCH  83  86
ENDBRANCH  56  79
ENDBRANCH  30  31
ENDBRANCH  23  25
ENDBRANCH  22  23
ENDBRANCH   1  22
TORSDOF 15
ENDMDL
MODEL 3
REMARK VINA RESULT:     -12.3      0.884      7.677
REMARK SMILES Cc1cc(Br)cc2c1O[C@H](C(F)(F)F)C(C(=O)OCCOC(=O)c1ccc(-c3c4nc(c(-c5cccc(S(=O)(=O)[O-])c5F)c5ccc([nH]5)c(-c5cccc(S(=O)(=O)[O-])c5F)c5nc(c(-c6cccc(S(=O)(=O)[O-])c6F)c6ccc3[nH]6)C=C5)C=C4)cc1)=C2
REMARK SMILES IDX 20 1 19 2 18 3 16 4 17 5 15 6 1 7 2 8 3 9 8 10 4 11 7 12
REMARK SMILES IDX 9 13 5 14 6 15 87 16 10 17 11 18 12 19 13 20 14 21 21 22
REMARK SMILES IDX 22 23 23 24 24 25 25 26 86 27 26 28 85 29 27 30 28 31 29 32
REMARK SMILES IDX 79 33 30 34 84 35 78 36 80 37 31 38 83 39 77 40 76 41 32 43
REMARK SMILES IDX 64 44 44 45 63 46 45 47 48 48 62 49 81 50 46 51 47 52 61 54
REMARK SMILES IDX 82 55 49 56 33 57 34 58 42 59 35 60 37 61 43 62 36 63 38 64
REMARK SMILES IDX 39 65 40 66 41 67 65 68 66 69 74 70 67 71 69 72 75 73 68 74
REMARK SMILES IDX 70 75 71 76 72 77 73 78 50 79 51 80 59 81 52 82 54 83 60 84
REMARK SMILES IDX 53 85 55 86 56 87 57 88 58 89
REMARK H PARENT 80 42 48 53
REMARK Flexibility Score: inf
ROOT
ATOM      1  C   UNL A   1      36.756  20.076  24.868  1.00  0.00     0.275 C 
ENDROOT
BRANCH   1   2
ATOM      2  C   UNL A   1      35.299  20.520  25.001  1.00  0.00     0.275 C 
BRANCH   2   3
ATOM      3  O   UNL A   1      35.161  21.943  24.797  1.00  0.00    -0.459 OA
BRANCH   3   4
ATOM      4  C   UNL A   1      34.744  22.646  25.875  1.00  0.00     0.338 C 
ATOM      5  O   UNL A   1      35.086  22.472  27.034  1.00  0.00    -0.246 OA
BRANCH   4   6
ATOM      6  C   UNL A   1      33.789  23.697  25.477  1.00  0.00     0.087 C 
ATOM      7  C   UNL A   1      29.536  26.326  24.231  1.00  0.00     0.048 C 
ATOM      8  C   UNL A   1      30.882  26.638  24.817  1.00  0.00    -0.007 A 
ATOM      9  C   UNL A   1      31.170  27.965  25.186  1.00  0.00     0.023 A 
ATOM     10  C   UNL A   1      31.870  25.654  24.972  1.00  0.00     0.130 A 
ATOM     11  C   UNL A   1      32.416  28.298  25.712  1.00  0.00     0.019 A 
ATOM     12  C   UNL A   1      33.108  25.997  25.521  1.00  0.00     0.019 A 
ATOM     13  O   UNL A   1      31.575  24.384  24.553  1.00  0.00    -0.475 OA
ATOM     14  Br  UNL A   1      32.782  30.083  26.212  1.00  0.00    -0.051 Br
ATOM     15  C   UNL A   1      33.388  27.320  25.882  1.00  0.00     0.027 A 
ATOM     16  C   UNL A   1      34.099  24.968  25.757  1.00  0.00     0.027 C 
ATOM     17  C   UNL A   1      32.458  23.288  24.924  1.00  0.00     0.316 C 
BRANCH  17  18
ATOM     18  C   UNL A   1      31.714  22.360  25.897  1.00  0.00     0.430 C 
ATOM     19  F   UNL A   1      30.370  22.468  25.750  1.00  0.00    -0.167 F 
ATOM     20  F   UNL A   1      32.017  21.057  25.675  1.00  0.00    -0.167 F 
ATOM     21  F   UNL A   1      32.001  22.629  27.190  1.00  0.00    -0.167 F 
ENDBRANCH  17  18
ENDBRANCH   4   6
ENDBRANCH   3   4
ENDBRANCH   2   3
ENDBRANCH   1   2
BRANCH   1  22
ATOM     22  O   UNL A   1      37.641  21.190  25.079  1.00  0.00    -0.458 OA
BRANCH  22  23
ATOM     23  C   UNL A   1      38.778  20.902  25.751  1.00  0.00     0.338 C 
ATOM     24  O   UNL A   1      39.376  19.839  25.773  1.00  0.00    -0.246 OA
BRANCH  23  25
ATOM     25  C   UNL A   1      39.295  22.112  26.405  1.00  0.00     0.060 A 
ATOM     26  C   UNL A   1      38.670  23.319  26.126  1.00  0.00     0.016 A 
ATOM     27  C   UNL A   1      40.489  22.096  27.120  1.00  0.00     0.016 A 
ATOM     28  C   UNL A   1      39.321  24.517  26.390  1.00  0.00     0.010 A 
ATOM     29  C   UNL A   1      41.052  23.308  27.542  1.00  0.00     0.010 A 
ATOM     30  C   UNL A   1      40.508  24.540  27.132  1.00  0.00    -0.014 A 
BRANCH  30  31
ATOM     31  C   UNL A   1      41.153  25.849  27.461  1.00  0.00     0.031 A 
ATOM     32  C   UNL A   1      42.539  26.180  26.960  1.00  0.00     0.074 A 
ATOM     33  C   UNL A   1      40.478  26.764  28.193  1.00  0.00     0.049 A 
ATOM     34  N   UNL A   1      43.283  27.222  27.228  1.00  0.00    -0.248 NA
ATOM     35  C   UNL A   1      43.183  25.211  26.056  1.00  0.00     0.031 C 
ATOM     36  C   UNL A   1      39.129  26.582  28.737  1.00  0.00     0.029 A 
ATOM     37  N   UNL A   1      40.816  28.034  28.593  1.00  0.00    -0.354 N 
ATOM     38  C   UNL A   1      44.500  27.002  26.589  1.00  0.00     0.074 A 
ATOM     39  C   UNL A   1      44.399  25.723  25.923  1.00  0.00     0.031 C 
ATOM     40  C   UNL A   1      38.731  27.712  29.333  1.00  0.00     0.029 A 
ATOM     41  C   UNL A   1      39.830  28.667  29.318  1.00  0.00     0.049 A 
ATOM     42  H   UNL A   1      41.682  28.453  28.383  1.00  0.00     0.167 HD
ATOM     43  C   UNL A   1      45.593  27.801  26.545  1.00  0.00     0.034 A 
ATOM     44  C   UNL A   1      39.812  29.864  29.937  1.00  0.00     0.034 A 
ATOM     45  C   UNL A   1      45.658  29.107  27.144  1.00  0.00     0.049 A 
ATOM     46  C   UNL A   1      41.039  30.727  29.877  1.00  0.00     0.074 A 
ATOM     47  C   UNL A   1      46.709  30.008  27.119  1.00  0.00     0.029 A 
ATOM     48  N   UNL A   1      44.633  29.708  27.858  1.00  0.00    -0.354 N 
ATOM     49  N   UNL A   1      42.161  30.514  29.235  1.00  0.00    -0.248 NA
ATOM     50  C   UNL A   1      41.003  31.995  30.619  1.00  0.00     0.031 C 
ATOM     51  C   UNL A   1      46.329  31.141  27.843  1.00  0.00     0.029 A 
ATOM     52  C   UNL A   1      45.029  30.961  28.288  1.00  0.00     0.049 A 
ATOM     53  H   UNL A   1      43.753  29.301  28.033  1.00  0.00     0.167 HD
ATOM     54  C   UNL A   1      42.956  31.626  29.476  1.00  0.00     0.074 A 
ATOM     55  C   UNL A   1      42.179  32.524  30.305  1.00  0.00     0.031 C 
ATOM     56  C   UNL A   1      44.223  31.869  29.064  1.00  0.00     0.034 A 
BRANCH  43  57
ATOM     57  C   UNL A   1      46.810  27.313  25.794  1.00  0.00     0.023 A 
ATOM     58  C   UNL A   1      47.660  26.357  26.384  1.00  0.00     0.012 A 
ATOM     59  C   UNL A   1      47.051  27.724  24.467  1.00  0.00     0.148 A 
ATOM     60  C   UNL A   1      48.746  25.839  25.678  1.00  0.00     0.002 A 
ATOM     61  C   UNL A   1      48.106  27.168  23.753  1.00  0.00     0.091 A 
ATOM     62  F   UNL A   1      46.240  28.644  23.925  1.00  0.00    -0.205 F 
ATOM     63  C   UNL A   1      48.961  26.235  24.360  1.00  0.00     0.022 A 
BRANCH  61  64
ATOM     64  S   UNL A   1      48.415  27.539  22.022  1.00  0.00     0.127 S 
ATOM     65  O   UNL A   1      49.604  28.386  22.109  1.00  0.00    -0.237 OA
ATOM     66  O   UNL A   1      48.653  26.210  21.459  1.00  0.00    -0.237 OA
ATOM     67  O   UNL A   1      47.215  28.203  21.531  1.00  0.00    -0.744 OA
ENDBRANCH  61  64
ENDBRANCH  43  57
BRANCH  44  68
ATOM     68  C   UNL A   1      38.575  30.314  30.643  1.00  0.00     0.023 A 
ATOM     69  C   UNL A   1      38.446  30.083  32.026  1.00  0.00     0.012 A 
ATOM     70  C   UNL A   1      37.563  31.034  29.973  1.00  0.00     0.148 A 
ATOM     71  C   UNL A   1      37.333  30.552  32.726  1.00  0.00     0.002 A 
ATOM     72  C   UNL A   1      36.492  31.555  30.688  1.00  0.00     0.091 A 
ATOM     73  F   UNL A   1      37.691  31.227  28.652  1.00  0.00    -0.205 F 
ATOM     74  C   UNL A   1      36.365  31.301  32.062  1.00  0.00     0.022 A 
BRANCH  72  75
ATOM     75  S   UNL A   1      35.288  32.666  29.947  1.00  0.00     0.127 S 
ATOM     76  O   UNL A   1      34.717  31.828  28.895  1.00  0.00    -0.237 OA
ATOM     77  O   UNL A   1      34.394  32.936  31.072  1.00  0.00    -0.237 OA
ATOM     78  O   UNL A   1      36.047  33.822  29.490  1.00  0.00    -0.744 OA
ENDBRANCH  72  75
ENDBRANCH  44  68
BRANCH  56  79
ATOM     79  C   UNL A   1      44.866  33.168  29.470  1.00  0.00     0.023 A 
ATOM     80  C   UNL A   1      45.696  33.208  30.607  1.00  0.00     0.012 A 
ATOM     81  C   UNL A   1      44.769  34.303  28.641  1.00  0.00     0.148 A 
ATOM     82  C   UNL A   1      46.415  34.361  30.917  1.00  0.00     0.002 A 
ATOM     83  C   UNL A   1      45.528  35.430  28.926  1.00  0.00     0.091 A 
ATOM     84  F   UNL A   1      43.961  34.244  27.571  1.00  0.00    -0.205 F 
ATOM     85  C   UNL A   1      46.345  35.463  30.068  1.00  0.00     0.022 A 
BRANCH  83  86
ATOM     86  S   UNL A   1      45.595  36.854  27.834  1.00  0.00     0.127 S 
ATOM     87  O   UNL A   1      46.072  36.254  26.589  1.00  0.00    -0.237 OA
ATOM     88  O   UNL A   1      44.198  37.287  27.808  1.00  0.00    -0.237 OA
ATOM     89  O   UNL A   1      46.514  37.799  28.455  1.00  0.00    -0.744 OA
ENDBRANCH  83  86
ENDBRANCH  56  79
ENDBRANCH  30  31
ENDBRANCH  23  25
ENDBRANCH  22  23
ENDBRANCH   1  22
TORSDOF 15
ENDMDL
