MODEL 1
REMARK VINA RESULT:     -12.7      0.000      0.000
REMARK SMILES Cc1c(Cl)cc2c(c1C)O[C@H](C(F)(F)F)C(C(=O)OCCOC(=O)c1ccc(-c3c4nc(c(-c5cccc(S(=O)(=O)[O-])c5F)c5ccc([nH]5)c(-c5cccc(S(=O)(=O)[O-])c5F)c5nc(c(-c6cccc(S(=O)(=O)[O-])c6F)c6ccc3[nH]6)C=C5)C=C4)cc1)=C2
REMARK SMILES IDX 21 1 20 2 19 3 17 4 18 5 16 6 1 7 2 8 3 9 8 10 4 11 5 12
REMARK SMILES IDX 7 13 9 14 6 15 10 16 88 17 11 18 12 19 13 20 14 21 15 22
REMARK SMILES IDX 22 23 23 24 24 25 25 26 26 27 87 28 27 29 86 30 28 31 29 32
REMARK SMILES IDX 30 33 80 34 31 35 85 36 79 37 81 38 32 39 84 40 78 41 77 42
REMARK SMILES IDX 33 44 65 45 45 46 64 47 46 48 49 49 63 50 82 51 47 52 48 53
REMARK SMILES IDX 62 55 83 56 50 57 34 58 35 59 43 60 36 61 38 62 44 63 37 64
REMARK SMILES IDX 39 65 40 66 41 67 42 68 66 69 67 70 75 71 68 72 70 73 76 74
REMARK SMILES IDX 69 75 71 76 72 77 73 78 74 79 51 80 52 81 60 82 53 83 55 84
REMARK SMILES IDX 61 85 54 86 56 87 57 88 58 89 59 90
REMARK H PARENT 81 43 49 54
REMARK Flexibility Score: inf
ROOT
ATOM      1  C   UNL A   1      36.573  20.397  25.010  1.00  0.00     0.275 C 
ENDROOT
BRANCH   1   2
ATOM      2  C   UNL A   1      35.146  20.946  25.065  1.00  0.00     0.275 C 
BRANCH   2   3
ATOM      3  O   UNL A   1      35.115  22.370  24.821  1.00  0.00    -0.459 OA
BRANCH   3   4
ATOM      4  C   UNL A   1      34.490  23.104  25.768  1.00  0.00     0.338 C 
ATOM      5  O   UNL A   1      34.469  22.875  26.969  1.00  0.00    -0.246 OA
BRANCH   4   6
ATOM      6  C   UNL A   1      33.809  24.266  25.171  1.00  0.00     0.087 C 
ATOM      7  C   UNL A   1      30.668  29.909  24.250  1.00  0.00     0.046 C 
ATOM      8  C   UNL A   1      31.575  28.750  24.580  1.00  0.00    -0.026 A 
ATOM      9  C   UNL A   1      32.574  28.896  25.563  1.00  0.00     0.045 A 
ATOM     10  C   UNL A   1      31.478  27.515  23.883  1.00  0.00    -0.004 A 
ATOM     11  Cl  UNL A   1      32.846  30.387  26.396  1.00  0.00    -0.084 Cl
ATOM     12  C   UNL A   1      33.395  27.827  25.911  1.00  0.00     0.032 A 
ATOM     13  C   UNL A   1      32.301  26.433  24.265  1.00  0.00     0.131 A 
ATOM     14  C   UNL A   1      30.497  27.291  22.760  1.00  0.00     0.049 C 
ATOM     15  C   UNL A   1      33.239  26.592  25.281  1.00  0.00     0.019 A 
ATOM     16  O   UNL A   1      32.148  25.247  23.588  1.00  0.00    -0.475 OA
ATOM     17  C   UNL A   1      34.029  25.463  25.720  1.00  0.00     0.027 C 
ATOM     18  C   UNL A   1      32.785  24.041  24.102  1.00  0.00     0.316 C 
BRANCH  18  19
ATOM     19  C   UNL A   1      31.697  23.061  24.565  1.00  0.00     0.430 C 
ATOM     20  F   UNL A   1      30.509  23.328  23.967  1.00  0.00    -0.167 F 
ATOM     21  F   UNL A   1      32.005  21.781  24.243  1.00  0.00    -0.167 F 
ATOM     22  F   UNL A   1      31.495  23.107  25.901  1.00  0.00    -0.167 F 
ENDBRANCH  18  19
ENDBRANCH   4   6
ENDBRANCH   3   4
ENDBRANCH   2   3
ENDBRANCH   1   2
BRANCH   1  23
ATOM     23  O   UNL A   1      37.534  21.467  25.072  1.00  0.00    -0.458 OA
BRANCH  23  24
ATOM     24  C   UNL A   1      38.691  21.154  25.697  1.00  0.00     0.338 C 
ATOM     25  O   UNL A   1      39.316  20.110  25.612  1.00  0.00    -0.246 OA
BRANCH  24  26
ATOM     26  C   UNL A   1      39.199  22.308  26.452  1.00  0.00     0.060 A 
ATOM     27  C   UNL A   1      38.659  23.556  26.173  1.00  0.00     0.016 A 
ATOM     28  C   UNL A   1      40.344  22.204  27.235  1.00  0.00     0.016 A 
ATOM     29  C   UNL A   1      39.370  24.706  26.495  1.00  0.00     0.010 A 
ATOM     30  C   UNL A   1      40.956  23.370  27.714  1.00  0.00     0.010 A 
ATOM     31  C   UNL A   1      40.517  24.640  27.296  1.00  0.00    -0.014 A 
BRANCH  31  32
ATOM     32  C   UNL A   1      41.246  25.887  27.679  1.00  0.00     0.031 A 
ATOM     33  C   UNL A   1      40.572  26.945  28.521  1.00  0.00     0.074 A 
ATOM     34  C   UNL A   1      42.523  26.077  27.276  1.00  0.00     0.049 A 
ATOM     35  N   UNL A   1      40.971  28.162  28.792  1.00  0.00    -0.248 NA
ATOM     36  C   UNL A   1      39.273  26.602  29.126  1.00  0.00     0.031 C 
ATOM     37  C   UNL A   1      43.313  25.129  26.485  1.00  0.00     0.029 A 
ATOM     38  N   UNL A   1      43.386  27.128  27.473  1.00  0.00    -0.354 N 
ATOM     39  C   UNL A   1      39.948  28.749  29.532  1.00  0.00     0.074 A 
ATOM     40  C   UNL A   1      38.905  27.756  29.667  1.00  0.00     0.031 C 
ATOM     41  C   UNL A   1      44.549  25.613  26.311  1.00  0.00     0.029 A 
ATOM     42  C   UNL A   1      44.611  26.957  26.866  1.00  0.00     0.049 A 
ATOM     43  H   UNL A   1      43.151  27.927  27.999  1.00  0.00     0.167 HD
ATOM     44  C   UNL A   1      39.890  29.995  30.060  1.00  0.00     0.034 A 
ATOM     45  C   UNL A   1      45.652  27.799  26.716  1.00  0.00     0.034 A 
ATOM     46  C   UNL A   1      40.965  30.950  29.987  1.00  0.00     0.049 A 
ATOM     47  C   UNL A   1      45.547  29.184  27.285  1.00  0.00     0.074 A 
ATOM     48  C   UNL A   1      41.012  32.229  30.512  1.00  0.00     0.029 A 
ATOM     49  N   UNL A   1      42.186  30.726  29.369  1.00  0.00    -0.354 N 
ATOM     50  N   UNL A   1      44.576  29.713  27.990  1.00  0.00    -0.248 NA
ATOM     51  C   UNL A   1      46.679  30.089  27.044  1.00  0.00     0.031 C 
ATOM     52  C   UNL A   1      42.250  32.789  30.190  1.00  0.00     0.029 A 
ATOM     53  C   UNL A   1      42.990  31.846  29.494  1.00  0.00     0.049 A 
ATOM     54  H   UNL A   1      42.442  29.894  28.910  1.00  0.00     0.167 HD
ATOM     55  C   UNL A   1      44.990  31.002  28.298  1.00  0.00     0.074 A 
ATOM     56  C   UNL A   1      46.313  31.164  27.729  1.00  0.00     0.031 C 
ATOM     57  C   UNL A   1      44.326  31.973  28.971  1.00  0.00     0.034 A 
BRANCH  44  58
ATOM     58  C   UNL A   1      38.640  30.407  30.802  1.00  0.00     0.023 A 
ATOM     59  C   UNL A   1      38.566  30.237  32.199  1.00  0.00     0.012 A 
ATOM     60  C   UNL A   1      37.590  31.071  30.132  1.00  0.00     0.148 A 
ATOM     61  C   UNL A   1      37.462  30.700  32.914  1.00  0.00     0.002 A 
ATOM     62  C   UNL A   1      36.516  31.572  30.858  1.00  0.00     0.091 A 
ATOM     63  F   UNL A   1      37.672  31.212  28.801  1.00  0.00    -0.205 F 
ATOM     64  C   UNL A   1      36.446  31.379  32.247  1.00  0.00     0.022 A 
BRANCH  62  65
ATOM     65  S   UNL A   1      35.199  32.541  30.110  1.00  0.00     0.127 S 
ATOM     66  O   UNL A   1      34.294  32.732  31.242  1.00  0.00    -0.237 OA
ATOM     67  O   UNL A   1      35.910  33.747  29.687  1.00  0.00    -0.237 OA
ATOM     68  O   UNL A   1      34.667  31.730  29.024  1.00  0.00    -0.744 OA
ENDBRANCH  62  65
ENDBRANCH  44  58
BRANCH  45  69
ATOM     69  C   UNL A   1      46.882  27.346  26.001  1.00  0.00     0.023 A 
ATOM     70  C   UNL A   1      47.781  26.482  26.655  1.00  0.00     0.012 A 
ATOM     71  C   UNL A   1      47.144  27.723  24.667  1.00  0.00     0.148 A 
ATOM     72  C   UNL A   1      48.925  26.018  26.004  1.00  0.00     0.002 A 
ATOM     73  C   UNL A   1      48.248  27.202  24.001  1.00  0.00     0.091 A 
ATOM     74  F   UNL A   1      46.290  28.562  24.063  1.00  0.00    -0.205 F 
ATOM     75  C   UNL A   1      49.150  26.365  24.675  1.00  0.00     0.022 A 
BRANCH  73  76
ATOM     76  S   UNL A   1      48.531  27.469  22.248  1.00  0.00     0.127 S 
ATOM     77  O   UNL A   1      49.774  28.236  22.259  1.00  0.00    -0.237 OA
ATOM     78  O   UNL A   1      48.657  26.099  21.750  1.00  0.00    -0.237 OA
ATOM     79  O   UNL A   1      47.354  28.177  21.762  1.00  0.00    -0.744 OA
ENDBRANCH  73  76
ENDBRANCH  45  69
BRANCH  57  80
ATOM     80  C   UNL A   1      45.019  33.296  29.162  1.00  0.00     0.023 A 
ATOM     81  C   UNL A   1      45.880  33.480  30.262  1.00  0.00     0.012 A 
ATOM     82  C   UNL A   1      44.898  34.316  28.198  1.00  0.00     0.148 A 
ATOM     83  C   UNL A   1      46.593  34.668  30.411  1.00  0.00     0.002 A 
ATOM     84  C   UNL A   1      45.654  35.474  28.323  1.00  0.00     0.091 A 
ATOM     85  F   UNL A   1      44.060  34.125  27.168  1.00  0.00    -0.205 F 
ATOM     86  C   UNL A   1      46.491  35.657  29.435  1.00  0.00     0.022 A 
BRANCH  84  87
ATOM     87  S   UNL A   1      45.676  36.756  27.065  1.00  0.00     0.127 S 
ATOM     88  O   UNL A   1      46.618  37.717  27.636  1.00  0.00    -0.237 OA
ATOM     89  O   UNL A   1      46.178  36.031  25.897  1.00  0.00    -0.237 OA
ATOM     90  O   UNL A   1      44.303  37.228  26.944  1.00  0.00    -0.744 OA
ENDBRANCH  84  87
ENDBRANCH  57  80
ENDBRANCH  31  32
ENDBRANCH  24  26
ENDBRANCH  23  24
ENDBRANCH   1  23
TORSDOF 15
ENDMDL
MODEL 2
REMARK VINA RESULT:     -12.6      5.213     10.110
REMARK SMILES Cc1c(Cl)cc2c(c1C)O[C@H](C(F)(F)F)C(C(=O)OCCOC(=O)c1ccc(-c3c4nc(c(-c5cccc(S(=O)(=O)[O-])c5F)c5ccc([nH]5)c(-c5cccc(S(=O)(=O)[O-])c5F)c5nc(c(-c6cccc(S(=O)(=O)[O-])c6F)c6ccc3[nH]6)C=C5)C=C4)cc1)=C2
REMARK SMILES IDX 21 1 20 2 19 3 17 4 18 5 16 6 1 7 2 8 3 9 8 10 4 11 5 12
REMARK SMILES IDX 7 13 9 14 6 15 10 16 88 17 11 18 12 19 13 20 14 21 15 22
REMARK SMILES IDX 22 23 23 24 24 25 25 26 26 27 87 28 27 29 86 30 28 31 29 32
REMARK SMILES IDX 30 33 80 34 31 35 85 36 79 37 81 38 32 39 84 40 78 41 77 42
REMARK SMILES IDX 33 44 65 45 45 46 64 47 46 48 49 49 63 50 82 51 47 52 48 53
REMARK SMILES IDX 62 55 83 56 50 57 34 58 35 59 43 60 36 61 38 62 44 63 37 64
REMARK SMILES IDX 39 65 40 66 41 67 42 68 66 69 67 70 75 71 68 72 70 73 76 74
REMARK SMILES IDX 69 75 71 76 72 77 73 78 74 79 51 80 52 81 60 82 53 83 55 84
REMARK SMILES IDX 61 85 54 86 56 87 57 88 58 89 59 90
REMARK H PARENT 81 43 49 54
REMARK Flexibility Score: inf
ROOT
ATOM      1  C   UNL A   1      31.368  30.440  25.749  1.00  0.00     0.275 C 
ENDROOT
BRANCH   1   2
ATOM      2  C   UNL A   1      31.474  29.377  24.654  1.00  0.00     0.275 C 
BRANCH   2   3
ATOM      3  O   UNL A   1      32.521  28.423  24.940  1.00  0.00    -0.459 OA
BRANCH   3   4
ATOM      4  C   UNL A   1      32.893  27.645  23.899  1.00  0.00     0.338 C 
ATOM      5  O   UNL A   1      33.134  28.021  22.760  1.00  0.00    -0.246 OA
BRANCH   4   6
ATOM      6  C   UNL A   1      32.985  26.231  24.303  1.00  0.00     0.087 C 
ATOM      7  C   UNL A   1      34.640  19.941  24.795  1.00  0.00     0.046 C 
ATOM      8  C   UNL A   1      34.509  21.441  24.728  1.00  0.00    -0.026 A 
ATOM      9  C   UNL A   1      35.655  22.240  24.543  1.00  0.00     0.045 A 
ATOM     10  C   UNL A   1      33.251  22.081  24.895  1.00  0.00    -0.004 A 
ATOM     11  Cl  UNL A   1      37.246  21.570  24.433  1.00  0.00    -0.084 Cl
ATOM     12  C   UNL A   1      35.551  23.624  24.438  1.00  0.00     0.032 A 
ATOM     13  C   UNL A   1      33.159  23.484  24.761  1.00  0.00     0.131 A 
ATOM     14  C   UNL A   1      31.983  21.317  25.179  1.00  0.00     0.049 C 
ATOM     15  C   UNL A   1      34.302  24.240  24.520  1.00  0.00     0.019 A 
ATOM     16  O   UNL A   1      31.917  24.055  24.895  1.00  0.00    -0.475 OA
ATOM     17  C   UNL A   1      34.195  25.667  24.310  1.00  0.00     0.027 C 
ATOM     18  C   UNL A   1      31.726  25.451  24.521  1.00  0.00     0.316 C 
BRANCH  18  19
ATOM     19  C   UNL A   1      30.807  25.516  23.292  1.00  0.00     0.430 C 
ATOM     20  F   UNL A   1      31.522  25.480  22.140  1.00  0.00    -0.167 F 
ATOM     21  F   UNL A   1      29.958  24.460  23.245  1.00  0.00    -0.167 F 
ATOM     22  F   UNL A   1      30.058  26.641  23.266  1.00  0.00    -0.167 F 
ENDBRANCH  18  19
ENDBRANCH   4   6
ENDBRANCH   3   4
ENDBRANCH   2   3
ENDBRANCH   1   2
BRANCH   1  23
ATOM     23  O   UNL A   1      32.400  30.261  26.735  1.00  0.00    -0.458 OA
BRANCH  23  24
ATOM     24  C   UNL A   1      33.021  31.399  27.119  1.00  0.00     0.338 C 
ATOM     25  O   UNL A   1      32.522  32.504  27.247  1.00  0.00    -0.246 OA
BRANCH  24  26
ATOM     26  C   UNL A   1      34.418  31.126  27.487  1.00  0.00     0.060 A 
ATOM     27  C   UNL A   1      34.790  29.805  27.692  1.00  0.00     0.016 A 
ATOM     28  C   UNL A   1      35.274  32.157  27.860  1.00  0.00     0.016 A 
ATOM     29  C   UNL A   1      35.916  29.513  28.453  1.00  0.00     0.010 A 
ATOM     30  C   UNL A   1      36.499  31.847  28.465  1.00  0.00     0.010 A 
ATOM     31  C   UNL A   1      36.809  30.523  28.831  1.00  0.00    -0.014 A 
BRANCH  31  32
ATOM     32  C   UNL A   1      38.043  30.193  29.606  1.00  0.00     0.031 A 
ATOM     33  C   UNL A   1      39.116  29.312  29.008  1.00  0.00     0.074 A 
ATOM     34  C   UNL A   1      38.213  30.686  30.854  1.00  0.00     0.049 A 
ATOM     35  N   UNL A   1      40.154  28.766  29.588  1.00  0.00    -0.248 NA
ATOM     36  C   UNL A   1      39.001  28.986  27.576  1.00  0.00     0.031 C 
ATOM     37  C   UNL A   1      37.278  31.575  31.550  1.00  0.00     0.029 A 
ATOM     38  N   UNL A   1      39.229  30.513  31.763  1.00  0.00    -0.354 N 
ATOM     39  C   UNL A   1      40.770  27.980  28.619  1.00  0.00     0.074 A 
ATOM     40  C   UNL A   1      39.989  28.116  27.409  1.00  0.00     0.031 C 
ATOM     41  C   UNL A   1      37.782  31.909  32.744  1.00  0.00     0.029 A 
ATOM     42  C   UNL A   1      39.015  31.165  32.958  1.00  0.00     0.049 A 
ATOM     43  H   UNL A   1      40.033  29.975  31.578  1.00  0.00     0.167 HD
ATOM     44  C   UNL A   1      41.891  27.227  28.723  1.00  0.00     0.034 A 
ATOM     45  C   UNL A   1      39.695  31.133  34.121  1.00  0.00     0.034 A 
ATOM     46  C   UNL A   1      42.706  27.159  29.908  1.00  0.00     0.049 A 
ATOM     47  C   UNL A   1      40.916  30.264  34.217  1.00  0.00     0.074 A 
ATOM     48  C   UNL A   1      43.874  26.444  30.106  1.00  0.00     0.029 A 
ATOM     49  N   UNL A   1      42.452  27.843  31.087  1.00  0.00    -0.354 N 
ATOM     50  N   UNL A   1      41.487  29.540  33.286  1.00  0.00    -0.248 NA
ATOM     51  C   UNL A   1      41.591  30.209  35.521  1.00  0.00     0.031 C 
ATOM     52  C   UNL A   1      44.313  26.674  31.411  1.00  0.00     0.029 A 
ATOM     53  C   UNL A   1      43.438  27.561  32.018  1.00  0.00     0.049 A 
ATOM     54  H   UNL A   1      41.686  28.441  31.239  1.00  0.00     0.167 HD
ATOM     55  C   UNL A   1      42.601  28.964  33.882  1.00  0.00     0.074 A 
ATOM     56  C   UNL A   1      42.641  29.448  35.248  1.00  0.00     0.031 C 
ATOM     57  C   UNL A   1      43.496  28.094  33.355  1.00  0.00     0.034 A 
BRANCH  44  58
ATOM     58  C   UNL A   1      42.342  26.432  27.521  1.00  0.00     0.023 A 
ATOM     59  C   UNL A   1      43.231  27.009  26.592  1.00  0.00     0.012 A 
ATOM     60  C   UNL A   1      41.979  25.076  27.376  1.00  0.00     0.148 A 
ATOM     61  C   UNL A   1      43.734  26.259  25.529  1.00  0.00     0.002 A 
ATOM     62  C   UNL A   1      42.523  24.321  26.343  1.00  0.00     0.091 A 
ATOM     63  F   UNL A   1      41.123  24.547  28.262  1.00  0.00    -0.205 F 
ATOM     64  C   UNL A   1      43.393  24.914  25.413  1.00  0.00     0.022 A 
BRANCH  62  65
ATOM     65  S   UNL A   1      42.222  22.560  26.155  1.00  0.00     0.127 S 
ATOM     66  O   UNL A   1      42.922  22.271  24.905  1.00  0.00    -0.237 OA
ATOM     67  O   UNL A   1      42.860  22.011  27.352  1.00  0.00    -0.237 OA
ATOM     68  O   UNL A   1      40.775  22.400  26.105  1.00  0.00    -0.744 OA
ENDBRANCH  62  65
ENDBRANCH  44  58
BRANCH  45  69
ATOM     69  C   UNL A   1      39.235  31.954  35.279  1.00  0.00     0.023 A 
ATOM     70  C   UNL A   1      38.384  31.376  36.240  1.00  0.00     0.012 A 
ATOM     71  C   UNL A   1      39.672  33.282  35.465  1.00  0.00     0.148 A 
ATOM     72  C   UNL A   1      37.961  32.107  37.350  1.00  0.00     0.002 A 
ATOM     73  C   UNL A   1      39.303  33.983  36.608  1.00  0.00     0.091 A 
ATOM     74  F   UNL A   1      40.466  33.827  34.533  1.00  0.00    -0.205 F 
ATOM     75  C   UNL A   1      38.431  33.403  37.542  1.00  0.00     0.022 A 
BRANCH  73  76
ATOM     76  S   UNL A   1      39.983  35.595  37.014  1.00  0.00     0.127 S 
ATOM     77  O   UNL A   1      39.312  35.894  38.276  1.00  0.00    -0.237 OA
ATOM     78  O   UNL A   1      41.411  35.299  37.130  1.00  0.00    -0.237 OA
ATOM     79  O   UNL A   1      39.640  36.461  35.894  1.00  0.00    -0.744 OA
ENDBRANCH  73  76
ENDBRANCH  45  69
BRANCH  57  80
ATOM     80  C   UNL A   1      44.620  27.620  34.238  1.00  0.00     0.023 A 
ATOM     81  C   UNL A   1      45.801  28.384  34.333  1.00  0.00     0.012 A 
ATOM     82  C   UNL A   1      44.465  26.480  35.049  1.00  0.00     0.148 A 
ATOM     83  C   UNL A   1      46.819  28.005  35.206  1.00  0.00     0.002 A 
ATOM     84  C   UNL A   1      45.459  26.141  35.957  1.00  0.00     0.091 A 
ATOM     85  F   UNL A   1      43.339  25.760  34.931  1.00  0.00    -0.205 F 
ATOM     86  C   UNL A   1      46.642  26.894  36.027  1.00  0.00     0.022 A 
BRANCH  84  87
ATOM     87  S   UNL A   1      45.277  24.796  37.134  1.00  0.00     0.127 S 
ATOM     88  O   UNL A   1      46.558  24.842  37.839  1.00  0.00    -0.237 OA
ATOM     89  O   UNL A   1      44.129  25.235  37.927  1.00  0.00    -0.237 OA
ATOM     90  O   UNL A   1      45.047  23.594  36.343  1.00  0.00    -0.744 OA
ENDBRANCH  84  87
ENDBRANCH  57  80
ENDBRANCH  31  32
ENDBRANCH  24  26
ENDBRANCH  23  24
ENDBRANCH   1  23
TORSDOF 15
ENDMDL
MODEL 3
REMARK VINA RESULT:     -12.6      1.395      1.688
REMARK SMILES Cc1c(Cl)cc2c(c1C)O[C@H](C(F)(F)F)C(C(=O)OCCOC(=O)c1ccc(-c3c4nc(c(-c5cccc(S(=O)(=O)[O-])c5F)c5ccc([nH]5)c(-c5cccc(S(=O)(=O)[O-])c5F)c5nc(c(-c6cccc(S(=O)(=O)[O-])c6F)c6ccc3[nH]6)C=C5)C=C4)cc1)=C2
REMARK SMILES IDX 21 1 20 2 19 3 17 4 18 5 16 6 1 7 2 8 3 9 8 10 4 11 5 12
REMARK SMILES IDX 7 13 9 14 6 15 10 16 88 17 11 18 12 19 13 20 14 21 15 22
REMARK SMILES IDX 22 23 23 24 24 25 25 26 26 27 87 28 27 29 86 30 28 31 29 32
REMARK SMILES IDX 30 33 80 34 31 35 85 36 79 37 81 38 32 39 84 40 78 41 77 42
REMARK SMILES IDX 33 44 65 45 45 46 64 47 46 48 49 49 63 50 82 51 47 52 48 53
REMARK SMILES IDX 62 55 83 56 50 57 34 58 35 59 43 60 36 61 38 62 44 63 37 64
REMARK SMILES IDX 39 65 40 66 41 67 42 68 66 69 67 70 75 71 68 72 70 73 76 74
REMARK SMILES IDX 69 75 71 76 72 77 73 78 74 79 51 80 52 81 60 82 53 83 55 84
REMARK SMILES IDX 61 85 54 86 56 87 57 88 58 89 59 90
REMARK H PARENT 81 43 49 54
REMARK Flexibility Score: inf
ROOT
ATOM      1  C   UNL A   1      36.433  20.698  24.992  1.00  0.00     0.275 C 
ENDROOT
BRANCH   1   2
ATOM      2  C   UNL A   1      35.471  21.383  25.964  1.00  0.00     0.275 C 
BRANCH   2   3
ATOM      3  O   UNL A   1      34.497  22.192  25.267  1.00  0.00    -0.459 OA
BRANCH   3   4
ATOM      4  C   UNL A   1      33.629  22.861  26.059  1.00  0.00     0.338 C 
ATOM      5  O   UNL A   1      33.248  22.520  27.169  1.00  0.00    -0.246 OA
BRANCH   4   6
ATOM      6  C   UNL A   1      33.176  24.105  25.412  1.00  0.00     0.087 C 
ATOM      7  C   UNL A   1      30.505  29.929  24.190  1.00  0.00     0.046 C 
ATOM      8  C   UNL A   1      31.257  28.708  24.656  1.00  0.00    -0.026 A 
ATOM      9  C   UNL A   1      31.893  28.711  25.914  1.00  0.00     0.045 A 
ATOM     10  C   UNL A   1      31.383  27.558  23.830  1.00  0.00    -0.004 A 
ATOM     11  Cl  UNL A   1      31.890  30.094  26.953  1.00  0.00    -0.084 Cl
ATOM     12  C   UNL A   1      32.558  27.580  26.380  1.00  0.00     0.032 A 
ATOM     13  C   UNL A   1      32.040  26.412  24.327  1.00  0.00     0.131 A 
ATOM     14  C   UNL A   1      30.809  27.492  22.438  1.00  0.00     0.049 C 
ATOM     15  C   UNL A   1      32.607  26.426  25.598  1.00  0.00     0.019 A 
ATOM     16  O   UNL A   1      32.106  25.311  23.508  1.00  0.00    -0.475 OA
ATOM     17  C   UNL A   1      33.214  25.228  26.134  1.00  0.00     0.027 C 
ATOM     18  C   UNL A   1      32.545  24.034  24.057  1.00  0.00     0.316 C 
BRANCH  18  19
ATOM     19  C   UNL A   1      31.362  23.053  24.040  1.00  0.00     0.430 C 
ATOM     20  F   UNL A   1      31.774  21.793  23.753  1.00  0.00    -0.167 F 
ATOM     21  F   UNL A   1      30.750  22.986  25.248  1.00  0.00    -0.167 F 
ATOM     22  F   UNL A   1      30.425  23.389  23.126  1.00  0.00    -0.167 F 
ENDBRANCH  18  19
ENDBRANCH   4   6
ENDBRANCH   3   4
ENDBRANCH   2   3
ENDBRANCH   1   2
BRANCH   1  23
ATOM     23  O   UNL A   1      37.646  21.459  24.854  1.00  0.00    -0.458 OA
BRANCH  23  24
ATOM     24  C   UNL A   1      38.653  21.075  25.670  1.00  0.00     0.338 C 
ATOM     25  O   UNL A   1      39.167  19.972  25.738  1.00  0.00    -0.246 OA
BRANCH  24  26
ATOM     26  C   UNL A   1      39.159  22.221  26.439  1.00  0.00     0.060 A 
ATOM     27  C   UNL A   1      38.619  23.472  26.174  1.00  0.00     0.016 A 
ATOM     28  C   UNL A   1      40.304  22.109  27.221  1.00  0.00     0.016 A 
ATOM     29  C   UNL A   1      39.330  24.618  26.510  1.00  0.00     0.010 A 
ATOM     30  C   UNL A   1      40.916  23.268  27.714  1.00  0.00     0.010 A 
ATOM     31  C   UNL A   1      40.476  24.543  27.311  1.00  0.00    -0.014 A 
BRANCH  31  32
ATOM     32  C   UNL A   1      41.204  25.786  27.709  1.00  0.00     0.031 A 
ATOM     33  C   UNL A   1      40.519  26.850  28.534  1.00  0.00     0.074 A 
ATOM     34  C   UNL A   1      42.491  25.967  27.335  1.00  0.00     0.049 A 
ATOM     35  N   UNL A   1      40.918  28.065  28.813  1.00  0.00    -0.248 NA
ATOM     36  C   UNL A   1      39.203  26.516  29.109  1.00  0.00     0.031 C 
ATOM     37  C   UNL A   1      43.294  25.013  26.564  1.00  0.00     0.029 A 
ATOM     38  N   UNL A   1      43.357  27.013  27.551  1.00  0.00    -0.354 N 
ATOM     39  C   UNL A   1      39.883  28.659  29.528  1.00  0.00     0.074 A 
ATOM     40  C   UNL A   1      38.830  27.674  29.640  1.00  0.00     0.031 C 
ATOM     41  C   UNL A   1      44.536  25.488  26.418  1.00  0.00     0.029 A 
ATOM     42  C   UNL A   1      44.594  26.833  26.973  1.00  0.00     0.049 A 
ATOM     43  H   UNL A   1      43.115  27.814  28.070  1.00  0.00     0.167 HD
ATOM     44  C   UNL A   1      39.821  29.906  30.053  1.00  0.00     0.034 A 
ATOM     45  C   UNL A   1      45.644  27.667  26.845  1.00  0.00     0.034 A 
ATOM     46  C   UNL A   1      40.904  30.854  30.003  1.00  0.00     0.049 A 
ATOM     47  C   UNL A   1      45.535  29.054  27.410  1.00  0.00     0.074 A 
ATOM     48  C   UNL A   1      40.947  32.134  30.528  1.00  0.00     0.029 A 
ATOM     49  N   UNL A   1      42.137  30.621  29.414  1.00  0.00    -0.354 N 
ATOM     50  N   UNL A   1      44.552  29.591  28.092  1.00  0.00    -0.248 NA
ATOM     51  C   UNL A   1      46.678  29.951  27.195  1.00  0.00     0.031 C 
ATOM     52  C   UNL A   1      42.196  32.685  30.233  1.00  0.00     0.029 A 
ATOM     53  C   UNL A   1      42.946  31.737  29.556  1.00  0.00     0.049 A 
ATOM     54  H   UNL A   1      42.399  29.787  28.963  1.00  0.00     0.167 HD
ATOM     55  C   UNL A   1      44.967  30.877  28.408  1.00  0.00     0.074 A 
ATOM     56  C   UNL A   1      46.304  31.029  27.869  1.00  0.00     0.031 C 
ATOM     57  C   UNL A   1      44.294  31.853  29.064  1.00  0.00     0.034 A 
BRANCH  44  58
ATOM     58  C   UNL A   1      38.557  30.328  30.765  1.00  0.00     0.023 A 
ATOM     59  C   UNL A   1      38.430  30.114  32.152  1.00  0.00     0.012 A 
ATOM     60  C   UNL A   1      37.549  31.042  30.083  1.00  0.00     0.148 A 
ATOM     61  C   UNL A   1      37.314  30.583  32.844  1.00  0.00     0.002 A 
ATOM     62  C   UNL A   1      36.464  31.549  30.788  1.00  0.00     0.091 A 
ATOM     63  F   UNL A   1      37.681  31.225  28.761  1.00  0.00    -0.205 F 
ATOM     64  C   UNL A   1      36.340  31.312  32.167  1.00  0.00     0.022 A 
BRANCH  62  65
ATOM     65  S   UNL A   1      35.200  32.577  30.030  1.00  0.00     0.127 S 
ATOM     66  O   UNL A   1      34.686  31.693  28.985  1.00  0.00    -0.237 OA
ATOM     67  O   UNL A   1      34.280  32.804  31.144  1.00  0.00    -0.237 OA
ATOM     68  O   UNL A   1      35.884  33.770  29.548  1.00  0.00    -0.744 OA
ENDBRANCH  62  65
ENDBRANCH  44  58
BRANCH  45  69
ATOM     69  C   UNL A   1      46.887  27.206  26.160  1.00  0.00     0.023 A 
ATOM     70  C   UNL A   1      47.066  27.491  24.793  1.00  0.00     0.012 A 
ATOM     71  C   UNL A   1      47.912  26.534  26.858  1.00  0.00     0.148 A 
ATOM     72  C   UNL A   1      48.230  27.099  24.130  1.00  0.00     0.002 A 
ATOM     73  C   UNL A   1      49.098  26.208  26.209  1.00  0.00     0.091 A 
ATOM     74  F   UNL A   1      47.720  26.252  28.154  1.00  0.00    -0.205 F 
ATOM     75  C   UNL A   1      49.251  26.473  24.839  1.00  0.00     0.022 A 
BRANCH  73  76
ATOM     76  S   UNL A   1      50.522  25.543  27.078  1.00  0.00     0.127 S 
ATOM     77  O   UNL A   1      49.988  24.296  27.617  1.00  0.00    -0.237 OA
ATOM     78  O   UNL A   1      51.490  25.382  25.993  1.00  0.00    -0.237 OA
ATOM     79  O   UNL A   1      50.890  26.552  28.063  1.00  0.00    -0.744 OA
ENDBRANCH  73  76
ENDBRANCH  45  69
BRANCH  57  80
ATOM     80  C   UNL A   1      44.991  33.172  29.269  1.00  0.00     0.023 A 
ATOM     81  C   UNL A   1      45.803  33.363  30.405  1.00  0.00     0.012 A 
ATOM     82  C   UNL A   1      44.925  34.180  28.287  1.00  0.00     0.148 A 
ATOM     83  C   UNL A   1      46.520  34.546  30.571  1.00  0.00     0.002 A 
ATOM     84  C   UNL A   1      45.687  35.332  28.431  1.00  0.00     0.091 A 
ATOM     85  F   UNL A   1      44.134  33.983  27.222  1.00  0.00    -0.205 F 
ATOM     86  C   UNL A   1      46.474  35.523  29.579  1.00  0.00     0.022 A 
BRANCH  84  87
ATOM     87  S   UNL A   1      45.780  36.596  27.158  1.00  0.00     0.127 S 
ATOM     88  O   UNL A   1      46.755  37.523  27.731  1.00  0.00    -0.237 OA
ATOM     89  O   UNL A   1      46.265  35.836  26.006  1.00  0.00    -0.237 OA
ATOM     90  O   UNL A   1      44.431  37.126  27.013  1.00  0.00    -0.744 OA
ENDBRANCH  84  87
ENDBRANCH  57  80
ENDBRANCH  31  32
ENDBRANCH  24  26
ENDBRANCH  23  24
ENDBRANCH   1  23
TORSDOF 15
ENDMDL
