MODEL 1
REMARK VINA RESULT:     -10.1      0.000      0.000
REMARK SMILES C=CCN(CC(=O)OCCOC(=O)c1ccc(-c2c3nc(c(-c4cccc(S(=O)(=O)[O-])c4F)c4ccc([nH]4)c(-c4cccc(S(=O)(=O)[O-])c4F)c4nc(c(-c5cccc(S(=O)(=O)[O-])c5F)c5ccc2[nH]5)C=C4)C=C3)cc1)C(=O)c1sc(N)nc1C
REMARK SMILES IDX 9 1 8 2 6 3 7 4 5 5 4 6 3 7 2 8 1 9 77 10 78 11 79 12 80 13
REMARK SMILES IDX 84 14 81 15 83 16 85 17 82 18 10 21 11 22 12 23 13 24 14 25
REMARK SMILES IDX 15 26 76 27 16 28 75 29 17 30 18 31 19 32 69 33 20 34 74 35
REMARK SMILES IDX 68 36 70 37 21 38 73 39 67 40 66 41 22 43 54 44 34 45 53 46
REMARK SMILES IDX 35 47 38 48 52 49 71 50 36 51 37 52 51 54 72 55 39 56 23 57
REMARK SMILES IDX 24 58 32 59 25 60 27 61 33 62 26 63 28 64 29 65 30 66 31 67
REMARK SMILES IDX 55 68 56 69 64 70 57 71 59 72 65 73 58 74 60 75 61 76 62 77
REMARK SMILES IDX 63 78 40 79 41 80 49 81 42 82 44 83 50 84 43 85 45 86 46 87
REMARK SMILES IDX 47 88 48 89
REMARK H PARENT 82 19 82 20 70 42 38 53
REMARK Flexibility Score: inf
ROOT
ATOM      1  C   UNL A   1      35.231  20.605  24.851  1.00  0.00     0.274 C 
ENDROOT
BRANCH   1   2
ATOM      2  O   UNL A   1      34.512  21.060  26.028  1.00  0.00    -0.461 OA
BRANCH   2   3
ATOM      3  C   UNL A   1      34.358  22.407  26.130  1.00  0.00     0.325 C 
ATOM      4  O   UNL A   1      35.247  23.167  26.511  1.00  0.00    -0.250 OA
BRANCH   3   5
ATOM      5  C   UNL A   1      33.044  22.959  25.550  1.00  0.00     0.242 C 
BRANCH   5   6
ATOM      6  N   UNL A   1      32.929  23.406  24.157  1.00  0.00    -0.323 N 
BRANCH   6   7
ATOM      7  C   UNL A   1      31.789  22.894  23.411  1.00  0.00     0.147 C 
BRANCH   7   8
ATOM      8  C   UNL A   1      32.231  21.726  22.574  1.00  0.00    -0.014 C 
ATOM      9  C   UNL A   1      32.201  20.451  22.988  1.00  0.00     0.006 C 
ENDBRANCH   7   8
ENDBRANCH   6   7
BRANCH   6  10
ATOM     10  C   UNL A   1      33.732  24.365  23.515  1.00  0.00     0.266 C 
ATOM     11  O   UNL A   1      34.852  24.052  23.101  1.00  0.00    -0.268 OA
BRANCH  10  12
ATOM     12  C   UNL A   1      33.311  25.744  23.433  1.00  0.00     0.117 A 
ATOM     13  S   UNL A   1      32.754  26.483  21.994  1.00  0.00    -0.092 S 
ATOM     14  C   UNL A   1      33.475  26.705  24.416  1.00  0.00     0.063 A 
ATOM     15  C   UNL A   1      32.667  27.995  22.818  1.00  0.00     0.180 A 
ATOM     16  N   UNL A   1      33.099  27.988  24.054  1.00  0.00    -0.225 NA
ATOM     17  C   UNL A   1      33.943  26.459  25.800  1.00  0.00     0.068 C 
BRANCH  15  18
ATOM     18  N   UNL A   1      32.211  29.107  22.235  1.00  0.00    -0.375 N 
ATOM     19  H   UNL A   1      31.294  29.134  21.874  1.00  0.00     0.159 HD
ATOM     20  H   UNL A   1      32.789  29.901  22.166  1.00  0.00     0.159 HD
ENDBRANCH  15  18
ENDBRANCH  10  12
ENDBRANCH   6  10
ENDBRANCH   5   6
ENDBRANCH   3   5
ENDBRANCH   2   3
ENDBRANCH   1   2
BRANCH   1  21
ATOM     21  C   UNL A   1      36.713  20.262  25.116  1.00  0.00     0.275 C 
BRANCH  21  22
ATOM     22  O   UNL A   1      37.607  21.397  25.043  1.00  0.00    -0.458 OA
BRANCH  22  23
ATOM     23  C   UNL A   1      38.716  21.208  25.782  1.00  0.00     0.338 C 
ATOM     24  O   UNL A   1      39.351  20.166  25.824  1.00  0.00    -0.246 OA
BRANCH  23  25
ATOM     25  C   UNL A   1      39.240  22.363  26.501  1.00  0.00     0.060 A 
ATOM     26  C   UNL A   1      38.770  23.622  26.116  1.00  0.00     0.016 A 
ATOM     27  C   UNL A   1      40.414  22.232  27.245  1.00  0.00     0.016 A 
ATOM     28  C   UNL A   1      39.500  24.760  26.440  1.00  0.00     0.010 A 
ATOM     29  C   UNL A   1      41.120  23.380  27.611  1.00  0.00     0.010 A 
ATOM     30  C   UNL A   1      40.675  24.647  27.196  1.00  0.00    -0.014 A 
BRANCH  30  31
ATOM     31  C   UNL A   1      41.357  25.871  27.668  1.00  0.00     0.031 A 
ATOM     32  C   UNL A   1      40.658  26.902  28.498  1.00  0.00     0.074 A 
ATOM     33  C   UNL A   1      42.638  26.036  27.297  1.00  0.00     0.049 A 
ATOM     34  N   UNL A   1      41.069  28.085  28.865  1.00  0.00    -0.248 NA
ATOM     35  C   UNL A   1      39.312  26.560  28.976  1.00  0.00     0.031 C 
ATOM     36  C   UNL A   1      43.402  25.076  26.497  1.00  0.00     0.029 A 
ATOM     37  N   UNL A   1      43.516  27.058  27.531  1.00  0.00    -0.354 N 
ATOM     38  C   UNL A   1      40.013  28.659  29.565  1.00  0.00     0.074 A 
ATOM     39  C   UNL A   1      38.942  27.684  29.579  1.00  0.00     0.031 C 
ATOM     40  C   UNL A   1      44.637  25.556  26.305  1.00  0.00     0.029 A 
ATOM     41  C   UNL A   1      44.734  26.871  26.927  1.00  0.00     0.049 A 
ATOM     42  H   UNL A   1      43.295  27.847  28.078  1.00  0.00     0.167 HD
ATOM     43  C   UNL A   1      39.964  29.879  30.156  1.00  0.00     0.034 A 
ATOM     44  C   UNL A   1      45.806  27.680  26.866  1.00  0.00     0.034 A 
ATOM     45  C   UNL A   1      41.082  30.789  30.201  1.00  0.00     0.049 A 
ATOM     46  C   UNL A   1      45.748  28.994  27.582  1.00  0.00     0.074 A 
ATOM     47  C   UNL A   1      41.161  32.034  30.799  1.00  0.00     0.029 A 
ATOM     48  N   UNL A   1      42.331  30.534  29.648  1.00  0.00    -0.354 N 
ATOM     49  N   UNL A   1      44.753  29.514  28.261  1.00  0.00    -0.248 NA
ATOM     50  C   UNL A   1      46.961  29.819  27.554  1.00  0.00     0.031 C 
ATOM     51  C   UNL A   1      42.462  32.524  30.619  1.00  0.00     0.029 A 
ATOM     52  C   UNL A   1      43.193  31.585  29.908  1.00  0.00     0.049 A 
ATOM     53  H   UNL A   1      42.569  29.722  29.144  1.00  0.00     0.167 HD
ATOM     54  C   UNL A   1      45.224  30.719  28.761  1.00  0.00     0.074 A 
ATOM     55  C   UNL A   1      46.602  30.839  28.322  1.00  0.00     0.031 C 
ATOM     56  C   UNL A   1      44.572  31.653  29.498  1.00  0.00     0.034 A 
BRANCH  43  57
ATOM     57  C   UNL A   1      38.685  30.286  30.847  1.00  0.00     0.023 A 
ATOM     58  C   UNL A   1      38.510  29.993  32.214  1.00  0.00     0.012 A 
ATOM     59  C   UNL A   1      37.690  31.021  30.170  1.00  0.00     0.148 A 
ATOM     60  C   UNL A   1      37.358  30.400  32.888  1.00  0.00     0.002 A 
ATOM     61  C   UNL A   1      36.561  31.455  30.859  1.00  0.00     0.091 A 
ATOM     62  F   UNL A   1      37.854  31.274  28.863  1.00  0.00    -0.205 F 
ATOM     63  C   UNL A   1      36.388  31.139  32.215  1.00  0.00     0.022 A 
BRANCH  61  64
ATOM     64  S   UNL A   1      35.310  32.482  30.074  1.00  0.00     0.127 S 
ATOM     65  O   UNL A   1      36.081  33.671  29.718  1.00  0.00    -0.237 OA
ATOM     66  O   UNL A   1      34.893  31.664  28.934  1.00  0.00    -0.237 OA
ATOM     67  O   UNL A   1      34.277  32.670  31.083  1.00  0.00    -0.744 OA
ENDBRANCH  61  64
ENDBRANCH  43  57
BRANCH  44  68
ATOM     68  C   UNL A   1      47.024  27.194  26.167  1.00  0.00     0.023 A 
ATOM     69  C   UNL A   1      47.265  27.607  24.844  1.00  0.00     0.012 A 
ATOM     70  C   UNL A   1      48.013  26.460  26.852  1.00  0.00     0.148 A 
ATOM     71  C   UNL A   1      48.472  27.302  24.216  1.00  0.00     0.002 A 
ATOM     72  C   UNL A   1      49.236  26.212  26.242  1.00  0.00     0.091 A 
ATOM     73  F   UNL A   1      47.758  26.065  28.108  1.00  0.00    -0.205 F 
ATOM     74  C   UNL A   1      49.464  26.622  24.919  1.00  0.00     0.022 A 
BRANCH  72  75
ATOM     75  S   UNL A   1      50.618  25.503  27.145  1.00  0.00     0.127 S 
ATOM     76  O   UNL A   1      50.899  26.543  28.130  1.00  0.00    -0.237 OA
ATOM     77  O   UNL A   1      50.037  24.276  27.692  1.00  0.00    -0.237 OA
ATOM     78  O   UNL A   1      51.653  25.272  26.144  1.00  0.00    -0.744 OA
ENDBRANCH  72  75
ENDBRANCH  44  68
BRANCH  56  79
ATOM     79  C   UNL A   1      45.354  32.877  29.882  1.00  0.00     0.023 A 
ATOM     80  C   UNL A   1      46.062  32.888  31.100  1.00  0.00     0.012 A 
ATOM     81  C   UNL A   1      45.423  33.992  29.026  1.00  0.00     0.148 A 
ATOM     82  C   UNL A   1      46.806  34.005  31.473  1.00  0.00     0.002 A 
ATOM     83  C   UNL A   1      46.195  35.089  29.390  1.00  0.00     0.091 A 
ATOM     84  F   UNL A   1      44.718  33.971  27.885  1.00  0.00    -0.205 F 
ATOM     85  C   UNL A   1      46.881  35.100  30.616  1.00  0.00     0.022 A 
BRANCH  83  86
ATOM     86  S   UNL A   1      46.388  36.506  28.305  1.00  0.00     0.127 S 
ATOM     87  O   UNL A   1      45.013  36.985  28.188  1.00  0.00    -0.237 OA
ATOM     88  O   UNL A   1      47.275  37.379  29.075  1.00  0.00    -0.237 OA
ATOM     89  O   UNL A   1      46.983  35.981  27.082  1.00  0.00    -0.744 OA
ENDBRANCH  83  86
ENDBRANCH  56  79
ENDBRANCH  30  31
ENDBRANCH  23  25
ENDBRANCH  22  23
ENDBRANCH  21  22
ENDBRANCH   1  21
TORSDOF 20
ENDMDL
MODEL 2
REMARK VINA RESULT:      -9.8      4.846      9.895
REMARK SMILES C=CCN(CC(=O)OCCOC(=O)c1ccc(-c2c3nc(c(-c4cccc(S(=O)(=O)[O-])c4F)c4ccc([nH]4)c(-c4cccc(S(=O)(=O)[O-])c4F)c4nc(c(-c5cccc(S(=O)(=O)[O-])c5F)c5ccc2[nH]5)C=C4)C=C3)cc1)C(=O)c1sc(N)nc1C
REMARK SMILES IDX 9 1 8 2 6 3 7 4 5 5 4 6 3 7 2 8 1 9 77 10 78 11 79 12 80 13
REMARK SMILES IDX 84 14 81 15 83 16 85 17 82 18 10 21 11 22 12 23 13 24 14 25
REMARK SMILES IDX 15 26 76 27 16 28 75 29 17 30 18 31 19 32 69 33 20 34 74 35
REMARK SMILES IDX 68 36 70 37 21 38 73 39 67 40 66 41 22 43 54 44 34 45 53 46
REMARK SMILES IDX 35 47 38 48 52 49 71 50 36 51 37 52 51 54 72 55 39 56 23 57
REMARK SMILES IDX 24 58 32 59 25 60 27 61 33 62 26 63 28 64 29 65 30 66 31 67
REMARK SMILES IDX 55 68 56 69 64 70 57 71 59 72 65 73 58 74 60 75 61 76 62 77
REMARK SMILES IDX 63 78 40 79 41 80 49 81 42 82 44 83 50 84 43 85 45 86 46 87
REMARK SMILES IDX 47 88 48 89
REMARK H PARENT 82 19 82 20 70 42 38 53
REMARK Flexibility Score: inf
ROOT
ATOM      1  C   UNL A   1      31.944  28.985  25.120  1.00  0.00     0.274 C 
ENDROOT
BRANCH   1   2
ATOM      2  O   UNL A   1      32.017  27.997  26.182  1.00  0.00    -0.461 OA
BRANCH   2   3
ATOM      3  C   UNL A   1      31.267  26.879  25.988  1.00  0.00     0.325 C 
ATOM      4  O   UNL A   1      30.539  26.391  26.851  1.00  0.00    -0.250 OA
BRANCH   3   5
ATOM      5  C   UNL A   1      31.234  26.357  24.542  1.00  0.00     0.242 C 
BRANCH   5   6
ATOM      6  N   UNL A   1      32.092  25.257  24.086  1.00  0.00    -0.323 N 
BRANCH   6   7
ATOM      7  C   UNL A   1      33.478  25.600  23.799  1.00  0.00     0.147 C 
BRANCH   7   8
ATOM      8  C   UNL A   1      33.602  25.985  22.352  1.00  0.00    -0.014 C 
ATOM      9  C   UNL A   1      32.610  25.871  21.456  1.00  0.00     0.006 C 
ENDBRANCH   7   8
ENDBRANCH   6   7
BRANCH   6  10
ATOM     10  C   UNL A   1      31.745  23.897  24.017  1.00  0.00     0.266 C 
ATOM     11  O   UNL A   1      30.671  23.561  23.510  1.00  0.00    -0.268 OA
BRANCH  10  12
ATOM     12  C   UNL A   1      32.578  22.891  24.633  1.00  0.00     0.117 A 
ATOM     13  S   UNL A   1      33.631  21.864  23.759  1.00  0.00    -0.092 S 
ATOM     14  C   UNL A   1      32.511  22.474  25.952  1.00  0.00     0.063 A 
ATOM     15  C   UNL A   1      34.000  21.021  25.218  1.00  0.00     0.180 A 
ATOM     16  N   UNL A   1      33.332  21.408  26.275  1.00  0.00    -0.225 NA
ATOM     17  C   UNL A   1      31.704  23.107  27.022  1.00  0.00     0.068 C 
BRANCH  15  18
ATOM     18  N   UNL A   1      34.891  20.027  25.269  1.00  0.00    -0.375 N 
ATOM     19  H   UNL A   1      35.233  19.628  24.435  1.00  0.00     0.159 HD
ATOM     20  H   UNL A   1      35.207  19.692  26.139  1.00  0.00     0.159 HD
ENDBRANCH  15  18
ENDBRANCH  10  12
ENDBRANCH   6  10
ENDBRANCH   5   6
ENDBRANCH   3   5
ENDBRANCH   2   3
ENDBRANCH   1   2
BRANCH   1  21
ATOM     21  C   UNL A   1      31.773  30.435  25.625  1.00  0.00     0.275 C 
BRANCH  21  22
ATOM     22  O   UNL A   1      32.087  30.617  27.026  1.00  0.00    -0.458 OA
BRANCH  22  23
ATOM     23  C   UNL A   1      32.949  31.633  27.216  1.00  0.00     0.338 C 
ATOM     24  O   UNL A   1      32.650  32.815  27.149  1.00  0.00    -0.246 OA
BRANCH  23  25
ATOM     25  C   UNL A   1      34.304  31.287  27.626  1.00  0.00     0.060 A 
ATOM     26  C   UNL A   1      34.534  29.966  28.023  1.00  0.00     0.016 A 
ATOM     27  C   UNL A   1      35.198  32.304  27.967  1.00  0.00     0.016 A 
ATOM     28  C   UNL A   1      35.644  29.663  28.802  1.00  0.00     0.010 A 
ATOM     29  C   UNL A   1      36.338  31.989  28.709  1.00  0.00     0.010 A 
ATOM     30  C   UNL A   1      36.557  30.671  29.144  1.00  0.00    -0.014 A 
BRANCH  30  31
ATOM     31  C   UNL A   1      37.812  30.310  29.838  1.00  0.00     0.031 A 
ATOM     32  C   UNL A   1      38.841  29.423  29.211  1.00  0.00     0.074 A 
ATOM     33  C   UNL A   1      37.983  30.798  31.079  1.00  0.00     0.049 A 
ATOM     34  N   UNL A   1      39.916  28.902  29.740  1.00  0.00    -0.248 NA
ATOM     35  C   UNL A   1      38.633  29.066  27.802  1.00  0.00     0.031 C 
ATOM     36  C   UNL A   1      37.036  31.680  31.764  1.00  0.00     0.029 A 
ATOM     37  N   UNL A   1      38.995  30.619  31.981  1.00  0.00    -0.354 N 
ATOM     38  C   UNL A   1      40.483  28.105  28.751  1.00  0.00     0.074 A 
ATOM     39  C   UNL A   1      39.634  28.221  27.583  1.00  0.00     0.031 C 
ATOM     40  C   UNL A   1      37.511  31.966  32.982  1.00  0.00     0.029 A 
ATOM     41  C   UNL A   1      38.768  31.253  33.177  1.00  0.00     0.049 A 
ATOM     42  H   UNL A   1      39.804  30.090  31.791  1.00  0.00     0.167 HD
ATOM     43  C   UNL A   1      41.620  27.368  28.817  1.00  0.00     0.034 A 
ATOM     44  C   UNL A   1      39.486  31.245  34.314  1.00  0.00     0.034 A 
ATOM     45  C   UNL A   1      42.490  27.348  29.967  1.00  0.00     0.049 A 
ATOM     46  C   UNL A   1      40.771  30.476  34.339  1.00  0.00     0.074 A 
ATOM     47  C   UNL A   1      43.683  26.669  30.138  1.00  0.00     0.029 A 
ATOM     48  N   UNL A   1      42.273  28.068  31.135  1.00  0.00    -0.354 N 
ATOM     49  N   UNL A   1      41.309  29.748  33.389  1.00  0.00    -0.248 NA
ATOM     50  C   UNL A   1      41.563  30.549  35.571  1.00  0.00     0.031 C 
ATOM     51  C   UNL A   1      44.193  26.990  31.403  1.00  0.00     0.029 A 
ATOM     52  C   UNL A   1      43.317  27.868  32.022  1.00  0.00     0.049 A 
ATOM     53  H   UNL A   1      41.489  28.638  31.308  1.00  0.00     0.167 HD
ATOM     54  C   UNL A   1      42.515  29.290  33.899  1.00  0.00     0.074 A 
ATOM     55  C   UNL A   1      42.635  29.843  35.236  1.00  0.00     0.031 C 
ATOM     56  C   UNL A   1      43.430  28.471  33.325  1.00  0.00     0.034 A 
BRANCH  43  57
ATOM     57  C   UNL A   1      42.022  26.566  27.604  1.00  0.00     0.023 A 
ATOM     58  C   UNL A   1      42.726  27.194  26.557  1.00  0.00     0.012 A 
ATOM     59  C   UNL A   1      41.773  25.180  27.529  1.00  0.00     0.148 A 
ATOM     60  C   UNL A   1      43.151  26.463  25.446  1.00  0.00     0.002 A 
ATOM     61  C   UNL A   1      42.233  24.452  26.435  1.00  0.00     0.091 A 
ATOM     62  F   UNL A   1      41.081  24.596  28.519  1.00  0.00    -0.205 F 
ATOM     63  C   UNL A   1      42.914  25.092  25.389  1.00  0.00     0.022 A 
BRANCH  61  64
ATOM     64  S   UNL A   1      42.033  22.667  26.334  1.00  0.00     0.127 S 
ATOM     65  O   UNL A   1      40.578  22.528  26.349  1.00  0.00    -0.237 OA
ATOM     66  O   UNL A   1      42.661  22.345  25.052  1.00  0.00    -0.237 OA
ATOM     67  O   UNL A   1      42.737  22.136  27.494  1.00  0.00    -0.744 OA
ENDBRANCH  61  64
ENDBRANCH  43  57
BRANCH  44  68
ATOM     68  C   UNL A   1      39.015  32.070  35.457  1.00  0.00     0.023 A 
ATOM     69  C   UNL A   1      38.226  31.469  36.455  1.00  0.00     0.012 A 
ATOM     70  C   UNL A   1      39.472  33.390  35.640  1.00  0.00     0.148 A 
ATOM     71  C   UNL A   1      37.902  32.168  37.617  1.00  0.00     0.002 A 
ATOM     72  C   UNL A   1      39.197  34.059  36.826  1.00  0.00     0.091 A 
ATOM     73  F   UNL A   1      40.213  33.948  34.671  1.00  0.00    -0.205 F 
ATOM     74  C   UNL A   1      38.403  33.454  37.812  1.00  0.00     0.022 A 
BRANCH  72  75
ATOM     75  S   UNL A   1      39.954  35.641  37.219  1.00  0.00     0.127 S 
ATOM     76  O   UNL A   1      41.363  35.278  37.336  1.00  0.00    -0.237 OA
ATOM     77  O   UNL A   1      39.620  36.447  36.045  1.00  0.00    -0.237 OA
ATOM     78  O   UNL A   1      39.303  36.083  38.446  1.00  0.00    -0.744 OA
ENDBRANCH  72  75
ENDBRANCH  44  68
BRANCH  56  79
ATOM     79  C   UNL A   1      44.646  28.138  34.144  1.00  0.00     0.023 A 
ATOM     80  C   UNL A   1      45.786  28.960  34.048  1.00  0.00     0.012 A 
ATOM     81  C   UNL A   1      44.646  27.046  35.031  1.00  0.00     0.148 A 
ATOM     82  C   UNL A   1      46.921  28.681  34.806  1.00  0.00     0.002 A 
ATOM     83  C   UNL A   1      45.771  26.795  35.809  1.00  0.00     0.091 A 
ATOM     84  F   UNL A   1      43.560  26.260  35.085  1.00  0.00    -0.205 F 
ATOM     85  C   UNL A   1      46.911  27.607  35.693  1.00  0.00     0.022 A 
BRANCH  83  86
ATOM     86  S   UNL A   1      45.802  25.468  37.018  1.00  0.00     0.127 S 
ATOM     87  O   UNL A   1      47.173  25.550  37.518  1.00  0.00    -0.237 OA
ATOM     88  O   UNL A   1      44.778  25.886  37.977  1.00  0.00    -0.237 OA
ATOM     89  O   UNL A   1      45.467  24.259  36.277  1.00  0.00    -0.744 OA
ENDBRANCH  83  86
ENDBRANCH  56  79
ENDBRANCH  30  31
ENDBRANCH  23  25
ENDBRANCH  22  23
ENDBRANCH  21  22
ENDBRANCH   1  21
TORSDOF 20
ENDMDL
MODEL 3
REMARK VINA RESULT:      -9.8      4.398      9.380
REMARK SMILES C=CCN(CC(=O)OCCOC(=O)c1ccc(-c2c3nc(c(-c4cccc(S(=O)(=O)[O-])c4F)c4ccc([nH]4)c(-c4cccc(S(=O)(=O)[O-])c4F)c4nc(c(-c5cccc(S(=O)(=O)[O-])c5F)c5ccc2[nH]5)C=C4)C=C3)cc1)C(=O)c1sc(N)nc1C
REMARK SMILES IDX 9 1 8 2 6 3 7 4 5 5 4 6 3 7 2 8 1 9 77 10 78 11 79 12 80 13
REMARK SMILES IDX 84 14 81 15 83 16 85 17 82 18 10 21 11 22 12 23 13 24 14 25
REMARK SMILES IDX 15 26 76 27 16 28 75 29 17 30 18 31 19 32 69 33 20 34 74 35
REMARK SMILES IDX 68 36 70 37 21 38 73 39 67 40 66 41 22 43 54 44 34 45 53 46
REMARK SMILES IDX 35 47 38 48 52 49 71 50 36 51 37 52 51 54 72 55 39 56 23 57
REMARK SMILES IDX 24 58 32 59 25 60 27 61 33 62 26 63 28 64 29 65 30 66 31 67
REMARK SMILES IDX 55 68 56 69 64 70 57 71 59 72 65 73 58 74 60 75 61 76 62 77
REMARK SMILES IDX 63 78 40 79 41 80 49 81 42 82 44 83 50 84 43 85 45 86 46 87
REMARK SMILES IDX 47 88 48 89
REMARK H PARENT 82 19 82 20 70 42 38 53
REMARK Flexibility Score: inf
ROOT
ATOM      1  C   UNL A   1      32.224  28.241  25.011  1.00  0.00     0.274 C 
ENDROOT
BRANCH   1   2
ATOM      2  O   UNL A   1      32.869  27.409  26.011  1.00  0.00    -0.461 OA
BRANCH   2   3
ATOM      3  C   UNL A   1      33.332  26.213  25.561  1.00  0.00     0.325 C 
ATOM      4  O   UNL A   1      33.313  25.181  26.231  1.00  0.00    -0.250 OA
BRANCH   3   5
ATOM      5  C   UNL A   1      33.715  26.179  24.072  1.00  0.00     0.242 C 
BRANCH   5   6
ATOM      6  N   UNL A   1      33.270  25.109  23.172  1.00  0.00    -0.323 N 
BRANCH   6   7
ATOM      7  C   UNL A   1      32.018  25.343  22.466  1.00  0.00     0.147 C 
BRANCH   7   8
ATOM      8  C   UNL A   1      30.889  24.734  23.248  1.00  0.00    -0.014 C 
ATOM      9  C   UNL A   1      29.987  25.444  23.943  1.00  0.00     0.006 C 
ENDBRANCH   7   8
ENDBRANCH   6   7
BRANCH   6  10
ATOM     10  C   UNL A   1      33.985  23.947  22.834  1.00  0.00     0.266 C 
ATOM     11  O   UNL A   1      33.890  23.475  21.697  1.00  0.00    -0.268 OA
BRANCH  10  12
ATOM     12  C   UNL A   1      34.743  23.231  23.832  1.00  0.00     0.117 A 
ATOM     13  S   UNL A   1      36.424  23.437  24.078  1.00  0.00    -0.092 S 
ATOM     14  C   UNL A   1      34.292  22.159  24.584  1.00  0.00     0.063 A 
ATOM     15  C   UNL A   1      36.398  22.165  25.242  1.00  0.00     0.180 A 
ATOM     16  N   UNL A   1      35.246  21.561  25.390  1.00  0.00    -0.225 NA
ATOM     17  C   UNL A   1      32.896  21.665  24.639  1.00  0.00     0.068 C 
BRANCH  15  18
ATOM     18  N   UNL A   1      37.481  21.802  25.936  1.00  0.00    -0.375 N 
ATOM     19  H   UNL A   1      38.375  21.884  25.532  1.00  0.00     0.159 HD
ATOM     20  H   UNL A   1      37.385  21.454  26.852  1.00  0.00     0.159 HD
ENDBRANCH  15  18
ENDBRANCH  10  12
ENDBRANCH   6  10
ENDBRANCH   5   6
ENDBRANCH   3   5
ENDBRANCH   2   3
ENDBRANCH   1   2
BRANCH   1  21
ATOM     21  C   UNL A   1      32.292  29.754  25.316  1.00  0.00     0.275 C 
BRANCH  21  22
ATOM     22  O   UNL A   1      32.195  30.081  26.722  1.00  0.00    -0.458 OA
BRANCH  22  23
ATOM     23  C   UNL A   1      32.965  31.136  27.044  1.00  0.00     0.338 C 
ATOM     24  O   UNL A   1      32.573  32.291  27.090  1.00  0.00    -0.246 OA
BRANCH  23  25
ATOM     25  C   UNL A   1      34.335  30.858  27.460  1.00  0.00     0.060 A 
ATOM     26  C   UNL A   1      34.615  29.562  27.906  1.00  0.00     0.016 A 
ATOM     27  C   UNL A   1      35.191  31.919  27.757  1.00  0.00     0.016 A 
ATOM     28  C   UNL A   1      35.739  29.330  28.690  1.00  0.00     0.010 A 
ATOM     29  C   UNL A   1      36.345  31.676  28.504  1.00  0.00     0.010 A 
ATOM     30  C   UNL A   1      36.615  30.384  28.988  1.00  0.00    -0.014 A 
BRANCH  30  31
ATOM     31  C   UNL A   1      37.885  30.097  29.688  1.00  0.00     0.031 A 
ATOM     32  C   UNL A   1      38.938  29.213  29.097  1.00  0.00     0.074 A 
ATOM     33  C   UNL A   1      38.049  30.650  30.902  1.00  0.00     0.049 A 
ATOM     34  N   UNL A   1      40.032  28.752  29.642  1.00  0.00    -0.248 NA
ATOM     35  C   UNL A   1      38.732  28.781  27.709  1.00  0.00     0.031 C 
ATOM     36  C   UNL A   1      37.079  31.535  31.551  1.00  0.00     0.029 A 
ATOM     37  N   UNL A   1      39.072  30.548  31.804  1.00  0.00    -0.354 N 
ATOM     38  C   UNL A   1      40.617  27.926  28.689  1.00  0.00     0.074 A 
ATOM     39  C   UNL A   1      39.757  27.958  27.523  1.00  0.00     0.031 C 
ATOM     40  C   UNL A   1      37.553  31.895  32.750  1.00  0.00     0.029 A 
ATOM     41  C   UNL A   1      38.833  31.232  32.969  1.00  0.00     0.049 A 
ATOM     42  H   UNL A   1      39.896  30.036  31.633  1.00  0.00     0.167 HD
ATOM     43  C   UNL A   1      41.777  27.229  28.782  1.00  0.00     0.034 A 
ATOM     44  C   UNL A   1      39.558  31.303  34.099  1.00  0.00     0.034 A 
ATOM     45  C   UNL A   1      42.656  27.293  29.924  1.00  0.00     0.049 A 
ATOM     46  C   UNL A   1      40.867  30.577  34.152  1.00  0.00     0.074 A 
ATOM     47  C   UNL A   1      43.871  26.661  30.118  1.00  0.00     0.029 A 
ATOM     48  N   UNL A   1      42.423  28.062  31.057  1.00  0.00    -0.354 N 
ATOM     49  N   UNL A   1      41.421  29.820  33.234  1.00  0.00    -0.248 NA
ATOM     50  C   UNL A   1      41.664  30.734  35.372  1.00  0.00     0.031 C 
ATOM     51  C   UNL A   1      44.378  27.059  31.362  1.00  0.00     0.029 A 
ATOM     52  C   UNL A   1      43.479  27.939  31.944  1.00  0.00     0.049 A 
ATOM     53  H   UNL A   1      41.623  28.616  31.209  1.00  0.00     0.167 HD
ATOM     54  C   UNL A   1      42.645  29.425  33.756  1.00  0.00     0.074 A 
ATOM     55  C   UNL A   1      42.756  30.047  35.063  1.00  0.00     0.031 C 
ATOM     56  C   UNL A   1      43.582  28.608  33.216  1.00  0.00     0.034 A 
BRANCH  43  57
ATOM     57  C   UNL A   1      42.196  26.382  27.606  1.00  0.00     0.023 A 
ATOM     58  C   UNL A   1      43.027  26.934  26.611  1.00  0.00     0.012 A 
ATOM     59  C   UNL A   1      41.835  25.021  27.520  1.00  0.00     0.148 A 
ATOM     60  C   UNL A   1      43.467  26.157  25.538  1.00  0.00     0.002 A 
ATOM     61  C   UNL A   1      42.309  24.243  26.467  1.00  0.00     0.091 A 
ATOM     62  F   UNL A   1      41.025  24.510  28.459  1.00  0.00    -0.205 F 
ATOM     63  C   UNL A   1      43.118  24.811  25.471  1.00  0.00     0.022 A 
BRANCH  61  64
ATOM     64  S   UNL A   1      41.965  22.481  26.362  1.00  0.00     0.127 S 
ATOM     65  O   UNL A   1      42.503  21.996  27.631  1.00  0.00    -0.237 OA
ATOM     66  O   UNL A   1      40.505  22.445  26.267  1.00  0.00    -0.237 OA
ATOM     67  O   UNL A   1      42.652  22.026  25.161  1.00  0.00    -0.744 OA
ENDBRANCH  61  64
ENDBRANCH  43  57
BRANCH  44  68
ATOM     68  C   UNL A   1      39.069  32.167  35.204  1.00  0.00     0.023 A 
ATOM     69  C   UNL A   1      38.244  31.609  36.196  1.00  0.00     0.012 A 
ATOM     70  C   UNL A   1      39.542  33.486  35.362  1.00  0.00     0.148 A 
ATOM     71  C   UNL A   1      37.899  32.346  37.329  1.00  0.00     0.002 A 
ATOM     72  C   UNL A   1      39.245  34.193  36.521  1.00  0.00     0.091 A 
ATOM     73  F   UNL A   1      40.318  34.004  34.399  1.00  0.00    -0.205 F 
ATOM     74  C   UNL A   1      38.414  33.629  37.501  1.00  0.00     0.022 A 
BRANCH  72  75
ATOM     75  S   UNL A   1      40.016  35.774  36.889  1.00  0.00     0.127 S 
ATOM     76  O   UNL A   1      39.397  36.119  38.165  1.00  0.00    -0.237 OA
ATOM     77  O   UNL A   1      41.434  35.418  36.968  1.00  0.00    -0.237 OA
ATOM     78  O   UNL A   1      39.683  36.635  35.761  1.00  0.00    -0.744 OA
ENDBRANCH  72  75
ENDBRANCH  44  68
BRANCH  56  79
ATOM     79  C   UNL A   1      44.813  28.354  34.039  1.00  0.00     0.023 A 
ATOM     80  C   UNL A   1      44.819  27.284  34.956  1.00  0.00     0.012 A 
ATOM     81  C   UNL A   1      45.968  29.142  33.880  1.00  0.00     0.148 A 
ATOM     82  C   UNL A   1      45.952  27.019  35.722  1.00  0.00     0.002 A 
ATOM     83  C   UNL A   1      47.105  28.850  34.623  1.00  0.00     0.091 A 
ATOM     84  F   UNL A   1      45.930  30.173  33.022  1.00  0.00    -0.205 F 
ATOM     85  C   UNL A   1      47.097  27.794  35.550  1.00  0.00     0.022 A 
BRANCH  83  86
ATOM     86  S   UNL A   1      48.634  29.765  34.405  1.00  0.00     0.127 S 
ATOM     87  O   UNL A   1      49.537  29.064  35.314  1.00  0.00    -0.237 OA
ATOM     88  O   UNL A   1      48.925  29.565  32.984  1.00  0.00    -0.237 OA
ATOM     89  O   UNL A   1      48.317  31.142  34.760  1.00  0.00    -0.744 OA
ENDBRANCH  83  86
ENDBRANCH  56  79
ENDBRANCH  30  31
ENDBRANCH  23  25
ENDBRANCH  22  23
ENDBRANCH  21  22
ENDBRANCH   1  21
TORSDOF 20
ENDMDL
