MODEL 1
REMARK VINA RESULT:      -9.8      0.000      0.000
REMARK SMILES CC(=O)/C=C(/C)NCC(=O)OCCOC(=O)c1ccc(-c2c3nc(c(-c4cccc(S(=O)(=O)[O-])c4F)c4ccc([nH]4)c(-c4cccc(S(=O)(=O)[O-])c4F)c4nc(c(-c5cccc(S(=O)(=O)[O-])c5F)c5ccc2[nH]5)C=C4)C=C3)cc1
REMARK SMILES IDX 12 1 11 2 9 3 10 4 8 5 7 6 5 8 4 9 6 10 2 11 1 12 3 13 13 14
REMARK SMILES IDX 14 15 15 16 16 17 17 18 18 19 79 20 19 21 78 22 20 23 21 24
REMARK SMILES IDX 22 25 72 26 23 27 77 28 71 29 73 30 24 31 76 32 70 33 69 34
REMARK SMILES IDX 25 36 57 37 37 38 56 39 38 40 41 41 55 42 74 43 39 44 40 45
REMARK SMILES IDX 54 47 75 48 42 49 26 50 27 51 35 52 28 53 30 54 36 55 29 56
REMARK SMILES IDX 31 57 32 58 33 59 34 60 58 61 59 62 67 63 60 64 62 65 68 66
REMARK SMILES IDX 61 67 63 68 64 69 65 70 66 71 43 72 44 73 52 74 45 75 47 76
REMARK SMILES IDX 53 77 46 78 48 79 49 80 50 81 51 82
REMARK H PARENT 7 7 73 35 41 46
REMARK Flexibility Score: inf
ROOT
ATOM      1  C   UNL A   1      42.016  19.853  26.492  1.00  0.00     0.274 C 
ENDROOT
BRANCH   1   2
ATOM      2  O   UNL A   1      42.669  20.604  25.453  1.00  0.00    -0.461 OA
BRANCH   2   3
ATOM      3  C   UNL A   1      43.209  21.800  25.826  1.00  0.00     0.325 C 
ATOM      4  O   UNL A   1      43.581  22.079  26.960  1.00  0.00    -0.250 OA
BRANCH   3   5
ATOM      5  C   UNL A   1      43.405  22.723  24.626  1.00  0.00     0.236 C 
BRANCH   5   6
ATOM      6  N   UNL A   1      44.541  22.313  23.809  1.00  0.00    -0.378 N 
ATOM      7  H   UNL A   1      44.374  22.234  22.842  1.00  0.00     0.160 HD
BRANCH   6   8
ATOM      8  C   UNL A   1      45.822  22.023  24.228  1.00  0.00     0.012 C 
ATOM      9  C   UNL A   1      46.386  20.832  24.507  1.00  0.00     0.067 C 
ATOM     10  C   UNL A   1      46.656  23.262  24.518  1.00  0.00     0.064 C 
BRANCH   9  11
ATOM     11  C   UNL A   1      45.918  19.417  24.504  1.00  0.00     0.154 C 
ATOM     12  C   UNL A   1      45.480  18.715  25.751  1.00  0.00     0.093 C 
ATOM     13  O   UNL A   1      45.870  18.839  23.414  1.00  0.00    -0.295 OA
ENDBRANCH   9  11
ENDBRANCH   6   8
ENDBRANCH   5   6
ENDBRANCH   3   5
ENDBRANCH   2   3
ENDBRANCH   1   2
BRANCH   1  14
ATOM     14  C   UNL A   1      40.555  19.579  26.127  1.00  0.00     0.275 C 
BRANCH  14  15
ATOM     15  O   UNL A   1      39.650  20.416  26.873  1.00  0.00    -0.458 OA
BRANCH  15  16
ATOM     16  C   UNL A   1      39.091  21.424  26.165  1.00  0.00     0.338 C 
ATOM     17  O   UNL A   1      38.301  21.328  25.241  1.00  0.00    -0.246 OA
BRANCH  16  18
ATOM     18  C   UNL A   1      39.463  22.720  26.743  1.00  0.00     0.060 A 
ATOM     19  C   UNL A   1      38.971  23.879  26.139  1.00  0.00     0.016 A 
ATOM     20  C   UNL A   1      40.413  22.797  27.760  1.00  0.00     0.016 A 
ATOM     21  C   UNL A   1      39.478  25.121  26.498  1.00  0.00     0.010 A 
ATOM     22  C   UNL A   1      40.889  24.052  28.152  1.00  0.00     0.010 A 
ATOM     23  C   UNL A   1      40.453  25.218  27.498  1.00  0.00    -0.014 A 
BRANCH  23  24
ATOM     24  C   UNL A   1      41.053  26.539  27.806  1.00  0.00     0.031 A 
ATOM     25  C   UNL A   1      42.471  26.831  27.405  1.00  0.00     0.074 A 
ATOM     26  C   UNL A   1      40.321  27.476  28.437  1.00  0.00     0.049 A 
ATOM     27  N   UNL A   1      43.200  27.885  27.662  1.00  0.00    -0.248 NA
ATOM     28  C   UNL A   1      43.168  25.795  26.624  1.00  0.00     0.031 C 
ATOM     29  C   UNL A   1      38.935  27.307  28.874  1.00  0.00     0.029 A 
ATOM     30  N   UNL A   1      40.647  28.747  28.837  1.00  0.00    -0.354 N 
ATOM     31  C   UNL A   1      44.457  27.615  27.137  1.00  0.00     0.074 A 
ATOM     32  C   UNL A   1      44.390  26.300  26.535  1.00  0.00     0.031 C 
ATOM     33  C   UNL A   1      38.533  28.428  29.490  1.00  0.00     0.029 A 
ATOM     34  C   UNL A   1      39.643  29.375  29.532  1.00  0.00     0.049 A 
ATOM     35  H   UNL A   1      41.517  29.167  28.644  1.00  0.00     0.167 HD
ATOM     36  C   UNL A   1      45.564  28.394  27.145  1.00  0.00     0.034 A 
ATOM     37  C   UNL A   1      39.626  30.568  30.159  1.00  0.00     0.034 A 
ATOM     38  C   UNL A   1      45.604  29.730  27.675  1.00  0.00     0.049 A 
ATOM     39  C   UNL A   1      40.849  31.438  30.106  1.00  0.00     0.074 A 
ATOM     40  C   UNL A   1      46.657  30.627  27.668  1.00  0.00     0.029 A 
ATOM     41  N   UNL A   1      44.542  30.364  28.302  1.00  0.00    -0.354 N 
ATOM     42  N   UNL A   1      42.000  31.205  29.523  1.00  0.00    -0.248 NA
ATOM     43  C   UNL A   1      40.766  32.744  30.774  1.00  0.00     0.031 C 
ATOM     44  C   UNL A   1      46.230  31.806  28.293  1.00  0.00     0.029 A 
ATOM     45  C   UNL A   1      44.912  31.641  28.688  1.00  0.00     0.049 A 
ATOM     46  H   UNL A   1      43.654  29.965  28.451  1.00  0.00     0.167 HD
ATOM     47  C   UNL A   1      42.775  32.336  29.742  1.00  0.00     0.074 A 
ATOM     48  C   UNL A   1      41.951  33.268  30.485  1.00  0.00     0.031 C 
ATOM     49  C   UNL A   1      44.062  32.572  29.384  1.00  0.00     0.034 A 
BRANCH  36  50
ATOM     50  C   UNL A   1      46.815  27.828  26.532  1.00  0.00     0.023 A 
ATOM     51  C   UNL A   1      47.730  27.124  27.339  1.00  0.00     0.012 A 
ATOM     52  C   UNL A   1      47.071  27.968  25.155  1.00  0.00     0.148 A 
ATOM     53  C   UNL A   1      48.897  26.593  26.789  1.00  0.00     0.002 A 
ATOM     54  C   UNL A   1      48.220  27.407  24.608  1.00  0.00     0.091 A 
ATOM     55  F   UNL A   1      46.207  28.670  24.408  1.00  0.00    -0.205 F 
ATOM     56  C   UNL A   1      49.138  26.725  25.423  1.00  0.00     0.022 A 
BRANCH  54  57
ATOM     57  S   UNL A   1      48.562  27.486  22.846  1.00  0.00     0.127 S 
ATOM     58  O   UNL A   1      49.845  28.184  22.822  1.00  0.00    -0.237 OA
ATOM     59  O   UNL A   1      48.632  26.072  22.471  1.00  0.00    -0.237 OA
ATOM     60  O   UNL A   1      47.435  28.203  22.266  1.00  0.00    -0.744 OA
ENDBRANCH  54  57
ENDBRANCH  36  50
BRANCH  37  61
ATOM     61  C   UNL A   1      38.385  31.001  30.857  1.00  0.00     0.023 A 
ATOM     62  C   UNL A   1      38.303  30.893  32.258  1.00  0.00     0.012 A 
ATOM     63  C   UNL A   1      37.324  31.600  30.150  1.00  0.00     0.148 A 
ATOM     64  C   UNL A   1      37.183  31.369  32.941  1.00  0.00     0.002 A 
ATOM     65  C   UNL A   1      36.238  32.125  30.840  1.00  0.00     0.091 A 
ATOM     66  F   UNL A   1      37.413  31.672  28.813  1.00  0.00    -0.205 F 
ATOM     67  C   UNL A   1      36.159  31.999  32.235  1.00  0.00     0.022 A 
BRANCH  65  68
ATOM     68  S   UNL A   1      34.959  33.083  30.021  1.00  0.00     0.127 S 
ATOM     69  O   UNL A   1      35.739  34.134  29.375  1.00  0.00    -0.237 OA
ATOM     70  O   UNL A   1      34.375  32.100  29.109  1.00  0.00    -0.237 OA
ATOM     71  O   UNL A   1      34.060  33.518  31.083  1.00  0.00    -0.744 OA
ENDBRANCH  65  68
ENDBRANCH  37  61
BRANCH  49  72
ATOM     72  C   UNL A   1      44.662  33.892  29.788  1.00  0.00     0.023 A 
ATOM     73  C   UNL A   1      44.552  34.993  28.917  1.00  0.00     0.012 A 
ATOM     74  C   UNL A   1      45.262  34.063  31.050  1.00  0.00     0.148 A 
ATOM     75  C   UNL A   1      45.051  36.242  29.287  1.00  0.00     0.002 A 
ATOM     76  C   UNL A   1      45.723  35.319  31.428  1.00  0.00     0.091 A 
ATOM     77  F   UNL A   1      45.380  32.997  31.856  1.00  0.00    -0.205 F 
ATOM     78  C   UNL A   1      45.625  36.408  30.546  1.00  0.00     0.022 A 
BRANCH  76  79
ATOM     79  S   UNL A   1      46.396  35.624  33.065  1.00  0.00     0.127 S 
ATOM     80  O   UNL A   1      45.283  35.230  33.926  1.00  0.00    -0.237 OA
ATOM     81  O   UNL A   1      47.549  34.723  33.109  1.00  0.00    -0.237 OA
ATOM     82  O   UNL A   1      46.745  37.038  33.084  1.00  0.00    -0.744 OA
ENDBRANCH  76  79
ENDBRANCH  49  72
ENDBRANCH  23  24
ENDBRANCH  16  18
ENDBRANCH  15  16
ENDBRANCH  14  15
ENDBRANCH   1  14
TORSDOF 17
ENDMDL
MODEL 2
REMARK VINA RESULT:      -9.3      4.791     12.070
REMARK SMILES CC(=O)/C=C(/C)NCC(=O)OCCOC(=O)c1ccc(-c2c3nc(c(-c4cccc(S(=O)(=O)[O-])c4F)c4ccc([nH]4)c(-c4cccc(S(=O)(=O)[O-])c4F)c4nc(c(-c5cccc(S(=O)(=O)[O-])c5F)c5ccc2[nH]5)C=C4)C=C3)cc1
REMARK SMILES IDX 12 1 11 2 9 3 10 4 8 5 7 6 5 8 4 9 6 10 2 11 1 12 3 13 13 14
REMARK SMILES IDX 14 15 15 16 16 17 17 18 18 19 79 20 19 21 78 22 20 23 21 24
REMARK SMILES IDX 22 25 72 26 23 27 77 28 71 29 73 30 24 31 76 32 70 33 69 34
REMARK SMILES IDX 25 36 57 37 37 38 56 39 38 40 41 41 55 42 74 43 39 44 40 45
REMARK SMILES IDX 54 47 75 48 42 49 26 50 27 51 35 52 28 53 30 54 36 55 29 56
REMARK SMILES IDX 31 57 32 58 33 59 34 60 58 61 59 62 67 63 60 64 62 65 68 66
REMARK SMILES IDX 61 67 63 68 64 69 65 70 66 71 43 72 44 73 52 74 45 75 47 76
REMARK SMILES IDX 53 77 46 78 48 79 49 80 50 81 51 82
REMARK H PARENT 7 7 73 35 41 46
REMARK Flexibility Score: inf
ROOT
ATOM      1  C   UNL A   1      34.414  34.745  27.698  1.00  0.00     0.274 C 
ENDROOT
BRANCH   1   2
ATOM      2  O   UNL A   1      34.395  35.622  28.837  1.00  0.00    -0.461 OA
BRANCH   2   3
ATOM      3  C   UNL A   1      33.165  35.919  29.346  1.00  0.00     0.325 C 
ATOM      4  O   UNL A   1      32.224  36.362  28.696  1.00  0.00    -0.250 OA
BRANCH   3   5
ATOM      5  C   UNL A   1      33.058  35.523  30.816  1.00  0.00     0.236 C 
BRANCH   5   6
ATOM      6  N   UNL A   1      34.098  36.151  31.622  1.00  0.00    -0.378 N 
ATOM      7  H   UNL A   1      34.731  36.730  31.138  1.00  0.00     0.160 HD
BRANCH   6   8
ATOM      8  C   UNL A   1      34.301  36.033  32.980  1.00  0.00     0.012 C 
ATOM      9  C   UNL A   1      34.726  34.976  33.697  1.00  0.00     0.067 C 
ATOM     10  C   UNL A   1      33.861  37.261  33.764  1.00  0.00     0.064 C 
BRANCH   9  11
ATOM     11  C   UNL A   1      35.119  33.573  33.378  1.00  0.00     0.154 C 
ATOM     12  C   UNL A   1      34.899  32.967  32.027  1.00  0.00     0.093 C 
ATOM     13  O   UNL A   1      35.674  32.924  34.270  1.00  0.00    -0.295 OA
ENDBRANCH   9  11
ENDBRANCH   6   8
ENDBRANCH   5   6
ENDBRANCH   3   5
ENDBRANCH   2   3
ENDBRANCH   1   2
BRANCH   1  14
ATOM     14  C   UNL A   1      33.786  33.392  28.045  1.00  0.00     0.275 C 
BRANCH  14  15
ATOM     15  O   UNL A   1      34.762  32.463  28.555  1.00  0.00    -0.458 OA
BRANCH  15  16
ATOM     16  C   UNL A   1      34.593  31.182  28.154  1.00  0.00     0.338 C 
ATOM     17  O   UNL A   1      33.628  30.710  27.576  1.00  0.00    -0.246 OA
BRANCH  16  18
ATOM     18  C   UNL A   1      35.816  30.407  28.393  1.00  0.00     0.060 A 
ATOM     19  C   UNL A   1      35.942  29.727  29.606  1.00  0.00     0.016 A 
ATOM     20  C   UNL A   1      36.890  30.486  27.507  1.00  0.00     0.016 A 
ATOM     21  C   UNL A   1      37.165  29.180  29.974  1.00  0.00     0.010 A 
ATOM     22  C   UNL A   1      38.107  29.896  27.860  1.00  0.00     0.010 A 
ATOM     23  C   UNL A   1      38.263  29.274  29.112  1.00  0.00    -0.014 A 
BRANCH  23  24
ATOM     24  C   UNL A   1      39.585  28.769  29.557  1.00  0.00     0.031 A 
ATOM     25  C   UNL A   1      40.311  29.457  30.678  1.00  0.00     0.074 A 
ATOM     26  C   UNL A   1      40.126  27.691  28.960  1.00  0.00     0.049 A 
ATOM     27  N   UNL A   1      41.509  29.225  31.149  1.00  0.00    -0.248 NA
ATOM     28  C   UNL A   1      39.605  30.561  31.349  1.00  0.00     0.031 C 
ATOM     29  C   UNL A   1      39.514  26.941  27.862  1.00  0.00     0.029 A 
ATOM     30  N   UNL A   1      41.319  27.052  29.179  1.00  0.00    -0.354 N 
ATOM     31  C   UNL A   1      41.727  30.192  32.122  1.00  0.00     0.074 A 
ATOM     32  C   UNL A   1      40.534  31.008  32.183  1.00  0.00     0.031 C 
ATOM     33  C   UNL A   1      40.340  25.950  27.497  1.00  0.00     0.029 A 
ATOM     34  C   UNL A   1      41.556  26.021  28.302  1.00  0.00     0.049 A 
ATOM     35  H   UNL A   1      41.945  27.307  29.896  1.00  0.00     0.167 HD
ATOM     36  C   UNL A   1      42.819  30.377  32.901  1.00  0.00     0.034 A 
ATOM     37  C   UNL A   1      42.643  25.241  28.142  1.00  0.00     0.034 A 
ATOM     38  C   UNL A   1      43.970  29.517  32.891  1.00  0.00     0.049 A 
ATOM     39  C   UNL A   1      43.819  25.430  29.057  1.00  0.00     0.074 A 
ATOM     40  C   UNL A   1      45.097  29.579  33.692  1.00  0.00     0.029 A 
ATOM     41  N   UNL A   1      44.141  28.434  32.042  1.00  0.00    -0.354 N 
ATOM     42  N   UNL A   1      43.971  26.290  30.035  1.00  0.00    -0.248 NA
ATOM     43  C   UNL A   1      44.963  24.528  28.864  1.00  0.00     0.031 C 
ATOM     44  C   UNL A   1      45.951  28.531  33.325  1.00  0.00     0.029 A 
ATOM     45  C   UNL A   1      45.354  27.818  32.297  1.00  0.00     0.049 A 
ATOM     46  H   UNL A   1      43.494  28.145  31.359  1.00  0.00     0.167 HD
ATOM     47  C   UNL A   1      45.220  26.028  30.583  1.00  0.00     0.074 A 
ATOM     48  C   UNL A   1      45.771  24.907  29.847  1.00  0.00     0.031 C 
ATOM     49  C   UNL A   1      45.864  26.673  31.587  1.00  0.00     0.034 A 
BRANCH  36  50
ATOM     50  C   UNL A   1      42.800  31.541  33.853  1.00  0.00     0.023 A 
ATOM     51  C   UNL A   1      43.268  32.799  33.426  1.00  0.00     0.012 A 
ATOM     52  C   UNL A   1      42.296  31.397  35.159  1.00  0.00     0.148 A 
ATOM     53  C   UNL A   1      43.261  33.890  34.296  1.00  0.00     0.002 A 
ATOM     54  C   UNL A   1      42.261  32.497  36.010  1.00  0.00     0.091 A 
ATOM     55  F   UNL A   1      41.887  30.184  35.561  1.00  0.00    -0.205 F 
ATOM     56  C   UNL A   1      42.750  33.742  35.583  1.00  0.00     0.022 A 
BRANCH  54  57
ATOM     57  S   UNL A   1      41.558  32.393  37.660  1.00  0.00     0.127 S 
ATOM     58  O   UNL A   1      40.179  32.007  37.372  1.00  0.00    -0.237 OA
ATOM     59  O   UNL A   1      42.365  31.342  38.283  1.00  0.00    -0.237 OA
ATOM     60  O   UNL A   1      41.744  33.714  38.244  1.00  0.00    -0.744 OA
ENDBRANCH  54  57
ENDBRANCH  36  50
BRANCH  37  61
ATOM     61  C   UNL A   1      42.631  24.192  27.085  1.00  0.00     0.023 A 
ATOM     62  C   UNL A   1      43.325  24.413  25.881  1.00  0.00     0.012 A 
ATOM     63  C   UNL A   1      42.013  22.946  27.304  1.00  0.00     0.148 A 
ATOM     64  C   UNL A   1      43.397  23.413  24.911  1.00  0.00     0.002 A 
ATOM     65  C   UNL A   1      42.137  21.934  26.360  1.00  0.00     0.091 A 
ATOM     66  F   UNL A   1      41.338  22.764  28.449  1.00  0.00    -0.205 F 
ATOM     67  C   UNL A   1      42.818  22.169  25.156  1.00  0.00     0.022 A 
BRANCH  65  68
ATOM     68  S   UNL A   1      41.555  20.262  26.670  1.00  0.00     0.127 S 
ATOM     69  O   UNL A   1      40.113  20.463  26.776  1.00  0.00    -0.237 OA
ATOM     70  O   UNL A   1      41.992  19.558  25.464  1.00  0.00    -0.237 OA
ATOM     71  O   UNL A   1      42.232  19.835  27.887  1.00  0.00    -0.744 OA
ENDBRANCH  65  68
ENDBRANCH  37  61
BRANCH  49  72
ATOM     72  C   UNL A   1      47.239  26.184  31.953  1.00  0.00     0.023 A 
ATOM     73  C   UNL A   1      48.357  26.696  31.265  1.00  0.00     0.012 A 
ATOM     74  C   UNL A   1      47.433  25.286  33.019  1.00  0.00     0.148 A 
ATOM     75  C   UNL A   1      49.647  26.303  31.618  1.00  0.00     0.002 A 
ATOM     76  C   UNL A   1      48.725  24.928  33.391  1.00  0.00     0.091 A 
ATOM     77  F   UNL A   1      46.357  24.791  33.647  1.00  0.00    -0.205 F 
ATOM     78  C   UNL A   1      49.832  25.429  32.688  1.00  0.00     0.022 A 
BRANCH  76  79
ATOM     79  S   UNL A   1      49.039  23.875  34.812  1.00  0.00     0.127 S 
ATOM     80  O   UNL A   1      50.500  23.860  34.858  1.00  0.00    -0.237 OA
ATOM     81  O   UNL A   1      48.403  24.613  35.904  1.00  0.00    -0.237 OA
ATOM     82  O   UNL A   1      48.400  22.603  34.501  1.00  0.00    -0.744 OA
ENDBRANCH  76  79
ENDBRANCH  49  72
ENDBRANCH  23  24
ENDBRANCH  16  18
ENDBRANCH  15  16
ENDBRANCH  14  15
ENDBRANCH   1  14
TORSDOF 17
ENDMDL
MODEL 3
REMARK VINA RESULT:      -9.1      2.637      3.511
REMARK SMILES CC(=O)/C=C(/C)NCC(=O)OCCOC(=O)c1ccc(-c2c3nc(c(-c4cccc(S(=O)(=O)[O-])c4F)c4ccc([nH]4)c(-c4cccc(S(=O)(=O)[O-])c4F)c4nc(c(-c5cccc(S(=O)(=O)[O-])c5F)c5ccc2[nH]5)C=C4)C=C3)cc1
REMARK SMILES IDX 12 1 11 2 9 3 10 4 8 5 7 6 5 8 4 9 6 10 2 11 1 12 3 13 13 14
REMARK SMILES IDX 14 15 15 16 16 17 17 18 18 19 79 20 19 21 78 22 20 23 21 24
REMARK SMILES IDX 22 25 72 26 23 27 77 28 71 29 73 30 24 31 76 32 70 33 69 34
REMARK SMILES IDX 25 36 57 37 37 38 56 39 38 40 41 41 55 42 74 43 39 44 40 45
REMARK SMILES IDX 54 47 75 48 42 49 26 50 27 51 35 52 28 53 30 54 36 55 29 56
REMARK SMILES IDX 31 57 32 58 33 59 34 60 58 61 59 62 67 63 60 64 62 65 68 66
REMARK SMILES IDX 61 67 63 68 64 69 65 70 66 71 43 72 44 73 52 74 45 75 47 76
REMARK SMILES IDX 53 77 46 78 48 79 49 80 50 81 51 82
REMARK H PARENT 7 7 73 35 41 46
REMARK Flexibility Score: inf
ROOT
ATOM      1  C   UNL A   1      42.967  19.733  25.789  1.00  0.00     0.274 C 
ENDROOT
BRANCH   1   2
ATOM      2  O   UNL A   1      43.749  20.751  25.141  1.00  0.00    -0.461 OA
BRANCH   2   3
ATOM      3  C   UNL A   1      45.097  20.544  25.111  1.00  0.00     0.325 C 
ATOM      4  O   UNL A   1      45.641  19.446  25.167  1.00  0.00    -0.250 OA
BRANCH   3   5
ATOM      5  C   UNL A   1      45.858  21.847  24.883  1.00  0.00     0.236 C 
BRANCH   5   6
ATOM      6  N   UNL A   1      45.306  22.940  25.674  1.00  0.00    -0.378 N 
ATOM      7  H   UNL A   1      45.225  22.777  26.642  1.00  0.00     0.160 HD
BRANCH   6   8
ATOM      8  C   UNL A   1      44.885  24.176  25.231  1.00  0.00     0.012 C 
ATOM      9  C   UNL A   1      45.590  25.306  25.038  1.00  0.00     0.067 C 
ATOM     10  C   UNL A   1      43.376  24.269  25.055  1.00  0.00     0.064 C 
BRANCH   9  11
ATOM     11  C   UNL A   1      47.016  25.704  25.214  1.00  0.00     0.154 C 
ATOM     12  C   UNL A   1      47.516  27.071  24.867  1.00  0.00     0.093 C 
ATOM     13  O   UNL A   1      47.781  24.864  25.699  1.00  0.00    -0.295 OA
ENDBRANCH   9  11
ENDBRANCH   6   8
ENDBRANCH   5   6
ENDBRANCH   3   5
ENDBRANCH   2   3
ENDBRANCH   1   2
BRANCH   1  14
ATOM     14  C   UNL A   1      41.578  20.265  26.154  1.00  0.00     0.275 C 
BRANCH  14  15
ATOM     15  O   UNL A   1      41.568  21.702  26.268  1.00  0.00    -0.458 OA
BRANCH  15  16
ATOM     16  C   UNL A   1      40.339  22.254  26.390  1.00  0.00     0.338 C 
ATOM     17  O   UNL A   1      39.267  21.735  26.129  1.00  0.00    -0.246 OA
BRANCH  16  18
ATOM     18  C   UNL A   1      40.434  23.575  27.022  1.00  0.00     0.060 A 
ATOM     19  C   UNL A   1      39.883  24.670  26.352  1.00  0.00     0.016 A 
ATOM     20  C   UNL A   1      41.199  23.757  28.173  1.00  0.00     0.016 A 
ATOM     21  C   UNL A   1      40.151  25.961  26.789  1.00  0.00     0.010 A 
ATOM     22  C   UNL A   1      41.430  25.056  28.637  1.00  0.00     0.010 A 
ATOM     23  C   UNL A   1      40.940  26.166  27.927  1.00  0.00    -0.014 A 
BRANCH  23  24
ATOM     24  C   UNL A   1      41.296  27.549  28.327  1.00  0.00     0.031 A 
ATOM     25  C   UNL A   1      42.728  28.002  28.269  1.00  0.00     0.074 A 
ATOM     26  C   UNL A   1      40.333  28.397  28.734  1.00  0.00     0.049 A 
ATOM     27  N   UNL A   1      43.250  29.135  28.660  1.00  0.00    -0.248 NA
ATOM     28  C   UNL A   1      43.704  27.051  27.712  1.00  0.00     0.031 C 
ATOM     29  C   UNL A   1      38.910  28.071  28.831  1.00  0.00     0.029 A 
ATOM     30  N   UNL A   1      40.409  29.699  29.159  1.00  0.00    -0.354 N 
ATOM     31  C   UNL A   1      44.619  29.010  28.461  1.00  0.00     0.074 A 
ATOM     32  C   UNL A   1      44.847  27.694  27.903  1.00  0.00     0.031 C 
ATOM     33  C   UNL A   1      38.248  29.140  29.295  1.00  0.00     0.029 A 
ATOM     34  C   UNL A   1      39.202  30.210  29.572  1.00  0.00     0.049 A 
ATOM     35  H   UNL A   1      41.247  30.217  29.167  1.00  0.00     0.167 HD
ATOM     36  C   UNL A   1      45.597  29.913  28.710  1.00  0.00     0.034 A 
ATOM     37  C   UNL A   1      38.901  31.395  30.138  1.00  0.00     0.034 A 
ATOM     38  C   UNL A   1      45.357  31.247  29.191  1.00  0.00     0.049 A 
ATOM     39  C   UNL A   1      39.995  32.401  30.352  1.00  0.00     0.074 A 
ATOM     40  C   UNL A   1      46.274  32.260  29.408  1.00  0.00     0.029 A 
ATOM     41  N   UNL A   1      44.111  31.756  29.524  1.00  0.00    -0.354 N 
ATOM     42  N   UNL A   1      41.272  32.301  30.070  1.00  0.00    -0.248 NA
ATOM     43  C   UNL A   1      39.608  33.692  30.938  1.00  0.00     0.031 C 
ATOM     44  C   UNL A   1      45.579  33.384  29.874  1.00  0.00     0.029 A 
ATOM     45  C   UNL A   1      44.232  33.068  29.945  1.00  0.00     0.049 A 
ATOM     46  H   UNL A   1      43.264  31.257  29.468  1.00  0.00     0.167 HD
ATOM     47  C   UNL A   1      41.840  33.516  30.432  1.00  0.00     0.074 A 
ATOM     48  C   UNL A   1      40.761  34.349  30.926  1.00  0.00     0.031 C 
ATOM     49  C   UNL A   1      43.140  33.898  30.386  1.00  0.00     0.034 A 
BRANCH  36  50
ATOM     50  C   UNL A   1      47.014  29.493  28.434  1.00  0.00     0.023 A 
ATOM     51  C   UNL A   1      47.655  29.933  27.258  1.00  0.00     0.012 A 
ATOM     52  C   UNL A   1      47.720  28.689  29.347  1.00  0.00     0.148 A 
ATOM     53  C   UNL A   1      48.969  29.553  26.984  1.00  0.00     0.002 A 
ATOM     54  C   UNL A   1      49.040  28.341  29.082  1.00  0.00     0.091 A 
ATOM     55  F   UNL A   1      47.084  28.250  30.444  1.00  0.00    -0.205 F 
ATOM     56  C   UNL A   1      49.664  28.766  27.899  1.00  0.00     0.022 A 
BRANCH  54  57
ATOM     57  S   UNL A   1      50.015  27.382  30.247  1.00  0.00     0.127 S 
ATOM     58  O   UNL A   1      49.108  26.281  30.560  1.00  0.00    -0.237 OA
ATOM     59  O   UNL A   1      51.181  27.000  29.447  1.00  0.00    -0.237 OA
ATOM     60  O   UNL A   1      50.316  28.293  31.343  1.00  0.00    -0.744 OA
ENDBRANCH  54  57
ENDBRANCH  36  50
BRANCH  37  61
ATOM     61  C   UNL A   1      37.487  31.684  30.503  1.00  0.00     0.023 A 
ATOM     62  C   UNL A   1      37.020  31.351  31.789  1.00  0.00     0.012 A 
ATOM     63  C   UNL A   1      36.632  32.366  29.616  1.00  0.00     0.148 A 
ATOM     64  C   UNL A   1      35.724  31.687  32.181  1.00  0.00     0.002 A 
ATOM     65  C   UNL A   1      35.363  32.750  30.032  1.00  0.00     0.091 A 
ATOM     66  F   UNL A   1      37.089  32.654  28.388  1.00  0.00    -0.205 F 
ATOM     67  C   UNL A   1      34.901  32.400  31.310  1.00  0.00     0.022 A 
BRANCH  65  68
ATOM     68  S   UNL A   1      34.305  33.800  29.029  1.00  0.00     0.127 S 
ATOM     69  O   UNL A   1      33.750  32.843  28.076  1.00  0.00    -0.237 OA
ATOM     70  O   UNL A   1      33.354  34.310  30.016  1.00  0.00    -0.237 OA
ATOM     71  O   UNL A   1      35.186  34.817  28.471  1.00  0.00    -0.744 OA
ENDBRANCH  65  68
ENDBRANCH  37  61
BRANCH  49  72
ATOM     72  C   UNL A   1      43.473  35.280  30.880  1.00  0.00     0.023 A 
ATOM     73  C   UNL A   1      43.834  35.459  32.230  1.00  0.00     0.012 A 
ATOM     74  C   UNL A   1      43.503  36.379  30.003  1.00  0.00     0.148 A 
ATOM     75  C   UNL A   1      44.200  36.718  32.705  1.00  0.00     0.002 A 
ATOM     76  C   UNL A   1      43.906  37.625  30.474  1.00  0.00     0.091 A 
ATOM     77  F   UNL A   1      43.133  36.195  28.727  1.00  0.00    -0.205 F 
ATOM     78  C   UNL A   1      44.248  37.797  31.825  1.00  0.00     0.022 A 
BRANCH  76  79
ATOM     79  S   UNL A   1      44.072  39.039  29.379  1.00  0.00     0.127 S 
ATOM     80  O   UNL A   1      45.020  38.540  28.385  1.00  0.00    -0.237 OA
ATOM     81  O   UNL A   1      42.707  39.220  28.882  1.00  0.00    -0.237 OA
ATOM     82  O   UNL A   1      44.548  40.128  30.222  1.00  0.00    -0.744 OA
ENDBRANCH  76  79
ENDBRANCH  49  72
ENDBRANCH  23  24
ENDBRANCH  16  18
ENDBRANCH  15  16
ENDBRANCH  14  15
ENDBRANCH   1  14
TORSDOF 17
ENDMDL
