MODEL 1
REMARK VINA RESULT:     -11.0      0.000      0.000
REMARK SMILES CCN(C)C(=O)Cn1ccc2c(C(=O)OCCOC(=O)c3ccc(-c4c5nc(c(-c6cccc(S(=O)(=O)[O-])c6F)c6ccc([nH]6)c(-c6cccc(S(=O)(=O)[O-])c6F)c6nc(c(-c7cccc(S(=O)(=O)[O-])c7F)c7ccc4[nH]7)C=C6)C=C5)cc3)cccc21
REMARK SMILES IDX 16 1 15 2 13 3 14 4 12 5 8 6 9 7 87 8 10 9 11 10 86 11 85 12
REMARK SMILES IDX 84 13 7 14 5 15 6 16 3 17 4 18 2 19 1 20 17 21 18 22 19 23
REMARK SMILES IDX 20 24 21 25 22 26 83 27 23 28 82 29 24 30 25 31 26 32 76 33
REMARK SMILES IDX 27 34 81 35 75 36 77 37 28 38 80 39 74 40 73 41 29 43 61 44
REMARK SMILES IDX 41 45 60 46 42 47 45 48 59 49 78 50 43 51 44 52 58 54 79 55
REMARK SMILES IDX 46 56 30 57 31 58 39 59 32 60 34 61 40 62 33 63 35 64 36 65
REMARK SMILES IDX 37 66 38 67 62 68 63 69 71 70 64 71 66 72 72 73 65 74 67 75
REMARK SMILES IDX 68 76 69 77 70 78 47 79 48 80 56 81 49 82 51 83 57 84 50 85
REMARK SMILES IDX 52 86 53 87 54 88 55 89
REMARK H PARENT 77 42 45 53
REMARK Flexibility Score: inf
ROOT
ATOM      1  C   UNL A   1      34.327  34.260  30.125  1.00  0.00     0.275 C 
ENDROOT
BRANCH   1   2
ATOM      2  O   UNL A   1      34.214  32.949  29.512  1.00  0.00    -0.458 OA
BRANCH   2   3
ATOM      3  C   UNL A   1      34.701  32.858  28.243  1.00  0.00     0.338 C 
ATOM      4  O   UNL A   1      35.085  33.804  27.575  1.00  0.00    -0.246 OA
BRANCH   3   5
ATOM      5  C   UNL A   1      34.762  31.452  27.761  1.00  0.00     0.069 A 
ATOM      6  N   UNL A   1      32.259  29.340  26.266  1.00  0.00    -0.338 N 
ATOM      7  C   UNL A   1      31.570  30.518  26.329  1.00  0.00     0.087 A 
ATOM      8  C   UNL A   1      33.536  29.547  26.788  1.00  0.00     0.049 A 
ATOM      9  C   UNL A   1      32.340  31.423  26.989  1.00  0.00     0.029 A 
ATOM     10  C   UNL A   1      33.603  30.886  27.202  1.00  0.00     0.014 A 
ATOM     11  C   UNL A   1      34.638  28.709  26.996  1.00  0.00     0.027 A 
ATOM     12  C   UNL A   1      35.790  29.275  27.587  1.00  0.00     0.003 A 
ATOM     13  C   UNL A   1      35.867  30.628  27.950  1.00  0.00     0.016 A 
BRANCH   6  14
ATOM     14  C   UNL A   1      31.640  28.085  25.824  1.00  0.00     0.222 C 
BRANCH  14  15
ATOM     15  C   UNL A   1      31.812  27.790  24.317  1.00  0.00     0.242 C 
ATOM     16  O   UNL A   1      30.802  27.605  23.626  1.00  0.00    -0.273 OA
BRANCH  15  17
ATOM     17  N   UNL A   1      33.101  27.697  23.778  1.00  0.00    -0.344 N 
ATOM     18  C   UNL A   1      33.723  28.795  23.028  1.00  0.00     0.146 C 
BRANCH  17  19
ATOM     19  C   UNL A   1      33.762  26.392  23.606  1.00  0.00     0.115 C 
ATOM     20  C   UNL A   1      34.155  25.639  24.874  1.00  0.00     0.027 C 
ENDBRANCH  17  19
ENDBRANCH  15  17
ENDBRANCH  14  15
ENDBRANCH   6  14
ENDBRANCH   3   5
ENDBRANCH   2   3
ENDBRANCH   1   2
BRANCH   1  21
ATOM     21  C   UNL A   1      34.431  34.174  31.654  1.00  0.00     0.275 C 
BRANCH  21  22
ATOM     22  O   UNL A   1      34.616  32.792  32.008  1.00  0.00    -0.458 OA
BRANCH  22  23
ATOM     23  C   UNL A   1      35.744  32.491  32.687  1.00  0.00     0.338 C 
ATOM     24  O   UNL A   1      35.936  32.650  33.884  1.00  0.00    -0.246 OA
BRANCH  23  25
ATOM     25  C   UNL A   1      36.577  31.651  31.793  1.00  0.00     0.060 A 
ATOM     26  C   UNL A   1      36.304  30.300  31.525  1.00  0.00     0.016 A 
ATOM     27  C   UNL A   1      37.796  32.185  31.414  1.00  0.00     0.016 A 
ATOM     28  C   UNL A   1      37.328  29.439  31.082  1.00  0.00     0.010 A 
ATOM     29  C   UNL A   1      38.778  31.330  30.923  1.00  0.00     0.010 A 
ATOM     30  C   UNL A   1      38.618  29.930  30.874  1.00  0.00    -0.014 A 
BRANCH  30  31
ATOM     31  C   UNL A   1      39.806  29.037  30.669  1.00  0.00     0.031 A 
ATOM     32  C   UNL A   1      40.604  28.699  31.891  1.00  0.00     0.074 A 
ATOM     33  C   UNL A   1      40.141  28.341  29.536  1.00  0.00     0.049 A 
ATOM     34  N   UNL A   1      41.866  28.942  32.075  1.00  0.00    -0.248 NA
ATOM     35  C   UNL A   1      39.970  28.034  33.039  1.00  0.00     0.031 C 
ATOM     36  C   UNL A   1      39.421  28.258  28.258  1.00  0.00     0.029 A 
ATOM     37  N   UNL A   1      41.174  27.441  29.321  1.00  0.00    -0.354 N 
ATOM     38  C   UNL A   1      42.203  28.316  33.267  1.00  0.00     0.074 A 
ATOM     39  C   UNL A   1      40.995  27.834  33.862  1.00  0.00     0.031 C 
ATOM     40  C   UNL A   1      39.883  27.219  27.513  1.00  0.00     0.029 A 
ATOM     41  C   UNL A   1      41.068  26.670  28.147  1.00  0.00     0.049 A 
ATOM     42  H   UNL A   1      41.928  27.346  29.947  1.00  0.00     0.167 HD
ATOM     43  C   UNL A   1      43.477  28.053  33.641  1.00  0.00     0.034 A 
ATOM     44  C   UNL A   1      41.921  25.710  27.687  1.00  0.00     0.034 A 
ATOM     45  C   UNL A   1      44.453  28.701  32.837  1.00  0.00     0.049 A 
ATOM     46  C   UNL A   1      43.240  26.043  28.260  1.00  0.00     0.074 A 
ATOM     47  C   UNL A   1      44.923  29.986  32.716  1.00  0.00     0.029 A 
ATOM     48  N   UNL A   1      44.809  28.014  31.710  1.00  0.00    -0.354 N 
ATOM     49  N   UNL A   1      43.945  27.068  27.874  1.00  0.00    -0.248 NA
ATOM     50  C   UNL A   1      43.817  25.239  29.331  1.00  0.00     0.031 C 
ATOM     51  C   UNL A   1      45.393  30.109  31.380  1.00  0.00     0.029 A 
ATOM     52  C   UNL A   1      45.204  28.892  30.731  1.00  0.00     0.049 A 
ATOM     53  H   UNL A   1      44.787  27.035  31.616  1.00  0.00     0.167 HD
ATOM     54  C   UNL A   1      44.803  27.281  28.923  1.00  0.00     0.074 A 
ATOM     55  C   UNL A   1      44.848  26.023  29.651  1.00  0.00     0.031 C 
ATOM     56  C   UNL A   1      45.083  28.546  29.332  1.00  0.00     0.034 A 
BRANCH  43  57
ATOM     57  C   UNL A   1      43.801  26.869  34.484  1.00  0.00     0.023 A 
ATOM     58  C   UNL A   1      43.600  25.573  33.998  1.00  0.00     0.012 A 
ATOM     59  C   UNL A   1      44.144  27.047  35.842  1.00  0.00     0.148 A 
ATOM     60  C   UNL A   1      43.776  24.470  34.839  1.00  0.00     0.002 A 
ATOM     61  C   UNL A   1      44.357  25.949  36.663  1.00  0.00     0.091 A 
ATOM     62  F   UNL A   1      44.186  28.298  36.324  1.00  0.00    -0.205 F 
ATOM     63  C   UNL A   1      44.167  24.655  36.166  1.00  0.00     0.022 A 
BRANCH  61  64
ATOM     64  S   UNL A   1      44.888  26.110  38.371  1.00  0.00     0.127 S 
ATOM     65  O   UNL A   1      45.852  27.202  38.281  1.00  0.00    -0.237 OA
ATOM     66  O   UNL A   1      43.628  26.440  39.036  1.00  0.00    -0.237 OA
ATOM     67  O   UNL A   1      45.442  24.809  38.721  1.00  0.00    -0.744 OA
ENDBRANCH  61  64
ENDBRANCH  43  57
BRANCH  44  68
ATOM     68  C   UNL A   1      41.935  24.587  26.688  1.00  0.00     0.023 A 
ATOM     69  C   UNL A   1      42.973  24.580  25.714  1.00  0.00     0.012 A 
ATOM     70  C   UNL A   1      41.227  23.385  26.879  1.00  0.00     0.148 A 
ATOM     71  C   UNL A   1      43.372  23.417  25.051  1.00  0.00     0.002 A 
ATOM     72  C   UNL A   1      41.615  22.223  26.189  1.00  0.00     0.091 A 
ATOM     73  F   UNL A   1      40.257  23.349  27.803  1.00  0.00    -0.205 F 
ATOM     74  C   UNL A   1      42.703  22.231  25.301  1.00  0.00     0.022 A 
BRANCH  72  75
ATOM     75  S   UNL A   1      40.794  20.636  26.425  1.00  0.00     0.127 S 
ATOM     76  O   UNL A   1      40.856  20.456  27.878  1.00  0.00    -0.237 OA
ATOM     77  O   UNL A   1      39.456  20.901  25.903  1.00  0.00    -0.237 OA
ATOM     78  O   UNL A   1      41.597  19.680  25.674  1.00  0.00    -0.744 OA
ENDBRANCH  72  75
ENDBRANCH  44  68
BRANCH  56  79
ATOM     79  C   UNL A   1      44.975  29.664  28.333  1.00  0.00     0.023 A 
ATOM     80  C   UNL A   1      43.745  30.137  27.832  1.00  0.00     0.012 A 
ATOM     81  C   UNL A   1      46.153  30.348  27.992  1.00  0.00     0.148 A 
ATOM     82  C   UNL A   1      43.696  31.265  27.006  1.00  0.00     0.002 A 
ATOM     83  C   UNL A   1      46.095  31.505  27.227  1.00  0.00     0.091 A 
ATOM     84  F   UNL A   1      47.321  29.865  28.447  1.00  0.00    -0.205 F 
ATOM     85  C   UNL A   1      44.869  31.962  26.722  1.00  0.00     0.022 A 
BRANCH  83  86
ATOM     86  S   UNL A   1      47.551  32.521  26.971  1.00  0.00     0.127 S 
ATOM     87  O   UNL A   1      48.514  31.555  26.447  1.00  0.00    -0.237 OA
ATOM     88  O   UNL A   1      47.080  33.507  25.995  1.00  0.00    -0.237 OA
ATOM     89  O   UNL A   1      47.873  33.089  28.274  1.00  0.00    -0.744 OA
ENDBRANCH  83  86
ENDBRANCH  56  79
ENDBRANCH  30  31
ENDBRANCH  23  25
ENDBRANCH  22  23
ENDBRANCH  21  22
ENDBRANCH   1  21
TORSDOF 18
ENDMDL
MODEL 2
REMARK VINA RESULT:     -10.4      3.260     10.273
REMARK SMILES CCN(C)C(=O)Cn1ccc2c(C(=O)OCCOC(=O)c3ccc(-c4c5nc(c(-c6cccc(S(=O)(=O)[O-])c6F)c6ccc([nH]6)c(-c6cccc(S(=O)(=O)[O-])c6F)c6nc(c(-c7cccc(S(=O)(=O)[O-])c7F)c7ccc4[nH]7)C=C6)C=C5)cc3)cccc21
REMARK SMILES IDX 16 1 15 2 13 3 14 4 12 5 8 6 9 7 87 8 10 9 11 10 86 11 85 12
REMARK SMILES IDX 84 13 7 14 5 15 6 16 3 17 4 18 2 19 1 20 17 21 18 22 19 23
REMARK SMILES IDX 20 24 21 25 22 26 83 27 23 28 82 29 24 30 25 31 26 32 76 33
REMARK SMILES IDX 27 34 81 35 75 36 77 37 28 38 80 39 74 40 73 41 29 43 61 44
REMARK SMILES IDX 41 45 60 46 42 47 45 48 59 49 78 50 43 51 44 52 58 54 79 55
REMARK SMILES IDX 46 56 30 57 31 58 39 59 32 60 34 61 40 62 33 63 35 64 36 65
REMARK SMILES IDX 37 66 38 67 62 68 63 69 71 70 64 71 66 72 72 73 65 74 67 75
REMARK SMILES IDX 68 76 69 77 70 78 47 79 48 80 56 81 49 82 51 83 57 84 50 85
REMARK SMILES IDX 52 86 53 87 54 88 55 89
REMARK H PARENT 77 42 45 53
REMARK Flexibility Score: inf
ROOT
ATOM      1  C   UNL A   1      43.613  18.919  25.510  1.00  0.00     0.275 C 
ENDROOT
BRANCH   1   2
ATOM      2  O   UNL A   1      42.469  19.811  25.448  1.00  0.00    -0.458 OA
BRANCH   2   3
ATOM      3  C   UNL A   1      41.648  19.777  26.534  1.00  0.00     0.338 C 
ATOM      4  O   UNL A   1      41.701  18.941  27.422  1.00  0.00    -0.246 OA
BRANCH   3   5
ATOM      5  C   UNL A   1      40.688  20.914  26.553  1.00  0.00     0.069 A 
ATOM      6  N   UNL A   1      37.395  21.268  25.142  1.00  0.00    -0.338 N 
ATOM      7  C   UNL A   1      37.630  19.950  24.868  1.00  0.00     0.087 A 
ATOM      8  C   UNL A   1      38.505  21.786  25.809  1.00  0.00     0.049 A 
ATOM      9  C   UNL A   1      38.908  19.664  25.237  1.00  0.00     0.029 A 
ATOM     10  C   UNL A   1      39.447  20.751  25.913  1.00  0.00     0.014 A 
ATOM     11  C   UNL A   1      38.827  23.057  26.299  1.00  0.00     0.027 A 
ATOM     12  C   UNL A   1      40.088  23.223  26.914  1.00  0.00     0.003 A 
ATOM     13  C   UNL A   1      41.003  22.170  27.059  1.00  0.00     0.016 A 
BRANCH   6  14
ATOM     14  C   UNL A   1      36.198  21.971  24.668  1.00  0.00     0.222 C 
BRANCH  14  15
ATOM     15  C   UNL A   1      34.997  21.905  25.638  1.00  0.00     0.242 C 
ATOM     16  O   UNL A   1      35.200  21.592  26.818  1.00  0.00    -0.273 OA
BRANCH  15  17
ATOM     17  N   UNL A   1      33.708  22.157  25.153  1.00  0.00    -0.344 N 
ATOM     18  C   UNL A   1      33.182  21.514  23.943  1.00  0.00     0.146 C 
BRANCH  17  19
ATOM     19  C   UNL A   1      32.943  23.336  25.597  1.00  0.00     0.115 C 
ATOM     20  C   UNL A   1      32.053  23.165  26.825  1.00  0.00     0.027 C 
ENDBRANCH  17  19
ENDBRANCH  15  17
ENDBRANCH  14  15
ENDBRANCH   6  14
ENDBRANCH   3   5
ENDBRANCH   2   3
ENDBRANCH   1   2
BRANCH   1  21
ATOM     21  C   UNL A   1      44.650  19.238  24.424  1.00  0.00     0.275 C 
BRANCH  21  22
ATOM     22  O   UNL A   1      44.536  20.635  24.098  1.00  0.00    -0.458 OA
BRANCH  22  23
ATOM     23  C   UNL A   1      45.368  21.474  24.752  1.00  0.00     0.338 C 
ATOM     24  O   UNL A   1      46.577  21.563  24.600  1.00  0.00    -0.246 OA
BRANCH  23  25
ATOM     25  C   UNL A   1      44.518  22.473  25.444  1.00  0.00     0.060 A 
ATOM     26  C   UNL A   1      43.675  23.371  24.771  1.00  0.00     0.016 A 
ATOM     27  C   UNL A   1      44.770  22.661  26.791  1.00  0.00     0.016 A 
ATOM     28  C   UNL A   1      43.267  24.570  25.390  1.00  0.00     0.010 A 
ATOM     29  C   UNL A   1      44.311  23.823  27.404  1.00  0.00     0.010 A 
ATOM     30  C   UNL A   1      43.673  24.860  26.693  1.00  0.00    -0.014 A 
BRANCH  30  31
ATOM     31  C   UNL A   1      43.510  26.217  27.313  1.00  0.00     0.031 A 
ATOM     32  C   UNL A   1      44.658  27.165  27.153  1.00  0.00     0.074 A 
ATOM     33  C   UNL A   1      42.368  26.759  27.845  1.00  0.00     0.049 A 
ATOM     34  N   UNL A   1      45.331  27.725  28.111  1.00  0.00    -0.248 NA
ATOM     35  C   UNL A   1      45.134  27.544  25.814  1.00  0.00     0.031 C 
ATOM     36  C   UNL A   1      41.018  26.181  27.915  1.00  0.00     0.029 A 
ATOM     37  N   UNL A   1      42.142  28.030  28.351  1.00  0.00    -0.354 N 
ATOM     38  C   UNL A   1      46.180  28.635  27.497  1.00  0.00     0.074 A 
ATOM     39  C   UNL A   1      46.079  28.439  26.084  1.00  0.00     0.031 C 
ATOM     40  C   UNL A   1      40.100  27.141  28.202  1.00  0.00     0.029 A 
ATOM     41  C   UNL A   1      40.790  28.373  28.540  1.00  0.00     0.049 A 
ATOM     42  H   UNL A   1      42.877  28.651  28.561  1.00  0.00     0.167 HD
ATOM     43  C   UNL A   1      46.801  29.642  28.155  1.00  0.00     0.034 A 
ATOM     44  C   UNL A   1      40.272  29.545  29.009  1.00  0.00     0.034 A 
ATOM     45  C   UNL A   1      46.720  29.534  29.570  1.00  0.00     0.049 A 
ATOM     46  C   UNL A   1      41.330  30.137  29.852  1.00  0.00     0.074 A 
ATOM     47  C   UNL A   1      47.320  28.753  30.526  1.00  0.00     0.029 A 
ATOM     48  N   UNL A   1      45.594  30.083  30.118  1.00  0.00    -0.354 N 
ATOM     49  N   UNL A   1      41.673  29.649  31.010  1.00  0.00    -0.248 NA
ATOM     50  C   UNL A   1      42.080  31.304  29.404  1.00  0.00     0.031 C 
ATOM     51  C   UNL A   1      46.400  28.680  31.608  1.00  0.00     0.029 A 
ATOM     52  C   UNL A   1      45.272  29.429  31.280  1.00  0.00     0.049 A 
ATOM     53  H   UNL A   1      45.090  30.837  29.735  1.00  0.00     0.167 HD
ATOM     54  C   UNL A   1      42.930  30.159  31.214  1.00  0.00     0.074 A 
ATOM     55  C   UNL A   1      43.023  31.324  30.349  1.00  0.00     0.031 C 
ATOM     56  C   UNL A   1      43.905  29.382  31.752  1.00  0.00     0.034 A 
BRANCH  43  57
ATOM     57  C   UNL A   1      47.114  30.928  27.473  1.00  0.00     0.023 A 
ATOM     58  C   UNL A   1      48.424  31.416  27.439  1.00  0.00     0.012 A 
ATOM     59  C   UNL A   1      46.063  31.751  27.011  1.00  0.00     0.148 A 
ATOM     60  C   UNL A   1      48.689  32.687  26.918  1.00  0.00     0.002 A 
ATOM     61  C   UNL A   1      46.335  32.994  26.458  1.00  0.00     0.091 A 
ATOM     62  F   UNL A   1      44.803  31.326  27.188  1.00  0.00    -0.205 F 
ATOM     63  C   UNL A   1      47.650  33.469  26.415  1.00  0.00     0.022 A 
BRANCH  61  64
ATOM     64  S   UNL A   1      45.052  34.043  25.766  1.00  0.00     0.127 S 
ATOM     65  O   UNL A   1      44.515  33.196  24.706  1.00  0.00    -0.237 OA
ATOM     66  O   UNL A   1      44.176  34.230  26.922  1.00  0.00    -0.237 OA
ATOM     67  O   UNL A   1      45.743  35.246  25.322  1.00  0.00    -0.744 OA
ENDBRANCH  61  64
ENDBRANCH  43  57
BRANCH  44  68
ATOM     68  C   UNL A   1      38.957  30.270  29.051  1.00  0.00     0.023 A 
ATOM     69  C   UNL A   1      38.029  30.022  28.000  1.00  0.00     0.012 A 
ATOM     70  C   UNL A   1      38.455  30.877  30.218  1.00  0.00     0.148 A 
ATOM     71  C   UNL A   1      36.658  30.249  28.141  1.00  0.00     0.002 A 
ATOM     72  C   UNL A   1      37.078  31.128  30.345  1.00  0.00     0.091 A 
ATOM     73  F   UNL A   1      39.297  31.106  31.236  1.00  0.00    -0.205 F 
ATOM     74  C   UNL A   1      36.178  30.787  29.323  1.00  0.00     0.022 A 
BRANCH  72  75
ATOM     75  S   UNL A   1      36.357  31.848  31.831  1.00  0.00     0.127 S 
ATOM     76  O   UNL A   1      37.127  33.083  31.996  1.00  0.00    -0.237 OA
ATOM     77  O   UNL A   1      34.966  32.048  31.435  1.00  0.00    -0.237 OA
ATOM     78  O   UNL A   1      36.588  30.862  32.879  1.00  0.00    -0.744 OA
ENDBRANCH  72  75
ENDBRANCH  44  68
BRANCH  56  79
ATOM     79  C   UNL A   1      43.504  28.243  32.648  1.00  0.00     0.023 A 
ATOM     80  C   UNL A   1      43.819  26.896  32.374  1.00  0.00     0.012 A 
ATOM     81  C   UNL A   1      42.903  28.563  33.877  1.00  0.00     0.148 A 
ATOM     82  C   UNL A   1      43.536  25.893  33.307  1.00  0.00     0.002 A 
ATOM     83  C   UNL A   1      42.684  27.575  34.826  1.00  0.00     0.091 A 
ATOM     84  F   UNL A   1      42.576  29.844  34.108  1.00  0.00    -0.205 F 
ATOM     85  C   UNL A   1      42.989  26.235  34.542  1.00  0.00     0.022 A 
BRANCH  83  86
ATOM     86  S   UNL A   1      42.134  27.987  36.483  1.00  0.00     0.127 S 
ATOM     87  O   UNL A   1      42.108  26.680  37.135  1.00  0.00    -0.237 OA
ATOM     88  O   UNL A   1      43.193  28.884  36.953  1.00  0.00    -0.237 OA
ATOM     89  O   UNL A   1      40.840  28.638  36.322  1.00  0.00    -0.744 OA
ENDBRANCH  83  86
ENDBRANCH  56  79
ENDBRANCH  30  31
ENDBRANCH  23  25
ENDBRANCH  22  23
ENDBRANCH  21  22
ENDBRANCH   1  21
TORSDOF 18
ENDMDL
MODEL 3
REMARK VINA RESULT:     -10.3      3.172      9.931
REMARK SMILES CCN(C)C(=O)Cn1ccc2c(C(=O)OCCOC(=O)c3ccc(-c4c5nc(c(-c6cccc(S(=O)(=O)[O-])c6F)c6ccc([nH]6)c(-c6cccc(S(=O)(=O)[O-])c6F)c6nc(c(-c7cccc(S(=O)(=O)[O-])c7F)c7ccc4[nH]7)C=C6)C=C5)cc3)cccc21
REMARK SMILES IDX 16 1 15 2 13 3 14 4 12 5 8 6 9 7 87 8 10 9 11 10 86 11 85 12
REMARK SMILES IDX 84 13 7 14 5 15 6 16 3 17 4 18 2 19 1 20 17 21 18 22 19 23
REMARK SMILES IDX 20 24 21 25 22 26 83 27 23 28 82 29 24 30 25 31 26 32 76 33
REMARK SMILES IDX 27 34 81 35 75 36 77 37 28 38 80 39 74 40 73 41 29 43 61 44
REMARK SMILES IDX 41 45 60 46 42 47 45 48 59 49 78 50 43 51 44 52 58 54 79 55
REMARK SMILES IDX 46 56 30 57 31 58 39 59 32 60 34 61 40 62 33 63 35 64 36 65
REMARK SMILES IDX 37 66 38 67 62 68 63 69 71 70 64 71 66 72 72 73 65 74 67 75
REMARK SMILES IDX 68 76 69 77 70 78 47 79 48 80 56 81 49 82 51 83 57 84 50 85
REMARK SMILES IDX 52 86 53 87 54 88 55 89
REMARK H PARENT 77 42 45 53
REMARK Flexibility Score: inf
ROOT
ATOM      1  C   UNL A   1      42.527  19.002  26.176  1.00  0.00     0.275 C 
ENDROOT
BRANCH   1   2
ATOM      2  O   UNL A   1      41.858  20.251  25.864  1.00  0.00    -0.458 OA
BRANCH   2   3
ATOM      3  C   UNL A   1      40.819  20.573  26.684  1.00  0.00     0.338 C 
ATOM      4  O   UNL A   1      40.921  20.811  27.877  1.00  0.00    -0.246 OA
BRANCH   3   5
ATOM      5  C   UNL A   1      39.525  20.653  25.953  1.00  0.00     0.069 A 
ATOM      6  N   UNL A   1      37.166  23.348  25.584  1.00  0.00    -0.338 N 
ATOM      7  C   UNL A   1      38.167  23.997  26.251  1.00  0.00     0.087 A 
ATOM      8  C   UNL A   1      37.554  22.022  25.388  1.00  0.00     0.049 A 
ATOM      9  C   UNL A   1      39.116  23.082  26.584  1.00  0.00     0.029 A 
ATOM     10  C   UNL A   1      38.817  21.867  25.980  1.00  0.00     0.014 A 
ATOM     11  C   UNL A   1      36.932  20.914  24.800  1.00  0.00     0.027 A 
ATOM     12  C   UNL A   1      37.636  19.689  24.803  1.00  0.00     0.003 A 
ATOM     13  C   UNL A   1      38.919  19.555  25.352  1.00  0.00     0.016 A 
BRANCH   6  14
ATOM     14  C   UNL A   1      35.881  23.984  25.276  1.00  0.00     0.222 C 
BRANCH  14  15
ATOM     15  C   UNL A   1      34.668  23.336  25.981  1.00  0.00     0.242 C 
ATOM     16  O   UNL A   1      34.774  23.008  27.170  1.00  0.00    -0.273 OA
BRANCH  15  17
ATOM     17  N   UNL A   1      33.497  23.097  25.251  1.00  0.00    -0.344 N 
ATOM     18  C   UNL A   1      33.481  22.274  24.036  1.00  0.00     0.146 C 
BRANCH  17  19
ATOM     19  C   UNL A   1      32.300  23.937  25.433  1.00  0.00     0.115 C 
ATOM     20  C   UNL A   1      32.168  25.162  24.533  1.00  0.00     0.027 C 
ENDBRANCH  17  19
ENDBRANCH  15  17
ENDBRANCH  14  15
ENDBRANCH   6  14
ENDBRANCH   3   5
ENDBRANCH   2   3
ENDBRANCH   1   2
BRANCH   1  21
ATOM     21  C   UNL A   1      43.710  18.732  25.235  1.00  0.00     0.275 C 
BRANCH  21  22
ATOM     22  O   UNL A   1      44.620  19.842  25.340  1.00  0.00    -0.458 OA
BRANCH  22  23
ATOM     23  C   UNL A   1      44.781  20.594  24.230  1.00  0.00     0.338 C 
ATOM     24  O   UNL A   1      44.549  20.252  23.080  1.00  0.00    -0.246 OA
BRANCH  23  25
ATOM     25  C   UNL A   1      44.982  21.993  24.681  1.00  0.00     0.060 A 
ATOM     26  C   UNL A   1      45.984  22.377  25.586  1.00  0.00     0.016 A 
ATOM     27  C   UNL A   1      43.977  22.888  24.362  1.00  0.00     0.016 A 
ATOM     28  C   UNL A   1      45.855  23.565  26.332  1.00  0.00     0.010 A 
ATOM     29  C   UNL A   1      43.896  24.084  25.067  1.00  0.00     0.010 A 
ATOM     30  C   UNL A   1      44.742  24.389  26.154  1.00  0.00    -0.014 A 
BRANCH  30  31
ATOM     31  C   UNL A   1      44.402  25.512  27.089  1.00  0.00     0.031 A 
ATOM     32  C   UNL A   1      45.353  26.668  27.116  1.00  0.00     0.074 A 
ATOM     33  C   UNL A   1      43.233  25.695  27.782  1.00  0.00     0.049 A 
ATOM     34  N   UNL A   1      45.998  27.108  28.152  1.00  0.00    -0.248 NA
ATOM     35  C   UNL A   1      45.644  27.426  25.890  1.00  0.00     0.031 C 
ATOM     36  C   UNL A   1      42.012  24.876  27.766  1.00  0.00     0.029 A 
ATOM     37  N   UNL A   1      42.836  26.751  28.588  1.00  0.00    -0.354 N 
ATOM     38  C   UNL A   1      46.625  28.277  27.742  1.00  0.00     0.074 A 
ATOM     39  C   UNL A   1      46.441  28.395  26.329  1.00  0.00     0.031 C 
ATOM     40  C   UNL A   1      40.970  25.557  28.312  1.00  0.00     0.029 A 
ATOM     41  C   UNL A   1      41.466  26.784  28.909  1.00  0.00     0.049 A 
ATOM     42  H   UNL A   1      43.469  27.433  28.912  1.00  0.00     0.167 HD
ATOM     43  C   UNL A   1      47.118  29.203  28.598  1.00  0.00     0.034 A 
ATOM     44  C   UNL A   1      40.796  27.699  29.668  1.00  0.00     0.034 A 
ATOM     45  C   UNL A   1      47.175  28.759  29.947  1.00  0.00     0.049 A 
ATOM     46  C   UNL A   1      41.805  28.268  30.585  1.00  0.00     0.074 A 
ATOM     47  C   UNL A   1      47.978  27.905  30.661  1.00  0.00     0.029 A 
ATOM     48  N   UNL A   1      46.022  28.948  30.656  1.00  0.00    -0.354 N 
ATOM     49  N   UNL A   1      42.321  27.599  31.577  1.00  0.00    -0.248 NA
ATOM     50  C   UNL A   1      42.304  29.625  30.402  1.00  0.00     0.031 C 
ATOM     51  C   UNL A   1      47.178  27.415  31.730  1.00  0.00     0.029 A 
ATOM     52  C   UNL A   1      45.915  27.996  31.639  1.00  0.00     0.049 A 
ATOM     53  H   UNL A   1      45.366  29.662  30.488  1.00  0.00     0.167 HD
ATOM     54  C   UNL A   1      43.485  28.273  31.846  1.00  0.00     0.074 A 
ATOM     55  C   UNL A   1      43.305  29.603  31.285  1.00  0.00     0.031 C 
ATOM     56  C   UNL A   1      44.621  27.588  32.140  1.00  0.00     0.034 A 
BRANCH  43  57
ATOM     57  C   UNL A   1      47.148  30.646  28.234  1.00  0.00     0.023 A 
ATOM     58  C   UNL A   1      48.352  31.359  28.245  1.00  0.00     0.012 A 
ATOM     59  C   UNL A   1      45.937  31.348  28.050  1.00  0.00     0.148 A 
ATOM     60  C   UNL A   1      48.354  32.741  28.036  1.00  0.00     0.002 A 
ATOM     61  C   UNL A   1      45.946  32.714  27.803  1.00  0.00     0.091 A 
ATOM     62  F   UNL A   1      44.787  30.672  28.191  1.00  0.00    -0.205 F 
ATOM     63  C   UNL A   1      47.156  33.417  27.801  1.00  0.00     0.022 A 
BRANCH  61  64
ATOM     64  S   UNL A   1      44.448  33.643  27.464  1.00  0.00     0.127 S 
ATOM     65  O   UNL A   1      43.695  33.455  28.700  1.00  0.00    -0.237 OA
ATOM     66  O   UNL A   1      44.983  34.988  27.255  1.00  0.00    -0.237 OA
ATOM     67  O   UNL A   1      43.874  33.023  26.277  1.00  0.00    -0.744 OA
ENDBRANCH  61  64
ENDBRANCH  43  57
BRANCH  44  68
ATOM     68  C   UNL A   1      39.385  28.138  29.938  1.00  0.00     0.023 A 
ATOM     69  C   UNL A   1      38.819  27.809  31.201  1.00  0.00     0.012 A 
ATOM     70  C   UNL A   1      38.738  29.138  29.187  1.00  0.00     0.148 A 
ATOM     71  C   UNL A   1      37.744  28.514  31.750  1.00  0.00     0.002 A 
ATOM     72  C   UNL A   1      37.640  29.827  29.731  1.00  0.00     0.091 A 
ATOM     73  F   UNL A   1      39.256  29.488  28.001  1.00  0.00    -0.205 F 
ATOM     74  C   UNL A   1      37.163  29.537  31.020  1.00  0.00     0.022 A 
BRANCH  72  75
ATOM     75  S   UNL A   1      36.799  31.157  28.853  1.00  0.00     0.127 S 
ATOM     76  O   UNL A   1      35.687  31.481  29.750  1.00  0.00    -0.237 OA
ATOM     77  O   UNL A   1      37.837  32.182  28.778  1.00  0.00    -0.237 OA
ATOM     78  O   UNL A   1      36.386  30.571  27.585  1.00  0.00    -0.744 OA
ENDBRANCH  72  75
ENDBRANCH  44  68
BRANCH  56  79
ATOM     79  C   UNL A   1      44.497  26.220  32.751  1.00  0.00     0.023 A 
ATOM     80  C   UNL A   1      44.493  25.032  31.991  1.00  0.00     0.012 A 
ATOM     81  C   UNL A   1      44.519  26.128  34.152  1.00  0.00     0.148 A 
ATOM     82  C   UNL A   1      44.508  23.783  32.619  1.00  0.00     0.002 A 
ATOM     83  C   UNL A   1      44.599  24.889  34.771  1.00  0.00     0.091 A 
ATOM     84  F   UNL A   1      44.485  27.268  34.863  1.00  0.00    -0.205 F 
ATOM     85  C   UNL A   1      44.583  23.711  34.010  1.00  0.00     0.022 A 
BRANCH  83  86
ATOM     86  S   UNL A   1      44.860  24.752  36.541  1.00  0.00     0.127 S 
ATOM     87  O   UNL A   1      43.608  25.279  37.079  1.00  0.00    -0.237 OA
ATOM     88  O   UNL A   1      45.046  23.310  36.722  1.00  0.00    -0.237 OA
ATOM     89  O   UNL A   1      46.052  25.541  36.829  1.00  0.00    -0.744 OA
ENDBRANCH  83  86
ENDBRANCH  56  79
ENDBRANCH  30  31
ENDBRANCH  23  25
ENDBRANCH  22  23
ENDBRANCH  21  22
ENDBRANCH   1  21
TORSDOF 18
ENDMDL
