MODEL 1
REMARK VINA RESULT:     -11.4      0.000      0.000
REMARK SMILES Cc1nc(Nc2ccc(C(=O)OCCOC(=O)c3ccc(-c4c5nc(c(-c6cccc(S(=O)(=O)[O-])c6F)c6ccc([nH]6)c(-c6cccc(S(=O)(=O)[O-])c6F)c6nc(c(-c7cccc(S(=O)(=O)[O-])c7F)c7ccc4[nH]7)C=C6)C=C5)cc3)cc2)c2c(C)c(C)sc2n1
REMARK SMILES IDX 14 1 13 2 12 3 10 4 11 5 9 6 6 7 7 8 82 9 8 10 81 11 5 12
REMARK SMILES IDX 4 14 1 15 2 16 3 17 90 18 89 19 83 20 88 21 84 22 86 23
REMARK SMILES IDX 85 24 87 25 15 26 16 27 17 28 18 29 19 30 80 31 20 32 79 33
REMARK SMILES IDX 21 34 22 35 23 36 73 37 24 38 78 39 72 40 74 41 25 42 77 43
REMARK SMILES IDX 71 44 70 45 26 47 58 48 38 49 57 50 39 51 42 52 56 53 75 54
REMARK SMILES IDX 40 55 41 56 55 58 76 59 43 60 27 61 28 62 36 63 29 64 31 65
REMARK SMILES IDX 37 66 30 67 32 68 33 69 34 70 35 71 59 72 60 73 68 74 61 75
REMARK SMILES IDX 63 76 69 77 62 78 64 79 65 80 66 81 67 82 44 83 45 84 53 85
REMARK SMILES IDX 46 86 48 87 54 88 47 89 49 90 50 91 51 92 52 93
REMARK H PARENT 5 13 74 46 42 57
REMARK Flexibility Score: inf
ROOT
ATOM      1  C   UNL A   1      41.412  20.046  27.141  1.00  0.00     0.275 C 
ENDROOT
BRANCH   1   2
ATOM      2  C   UNL A   1      42.727  19.642  26.464  1.00  0.00     0.275 C 
BRANCH   2   3
ATOM      3  O   UNL A   1      42.929  20.346  25.226  1.00  0.00    -0.458 OA
BRANCH   3   4
ATOM      4  C   UNL A   1      44.121  20.975  25.157  1.00  0.00     0.338 C 
ATOM      5  O   UNL A   1      45.164  20.500  24.711  1.00  0.00    -0.246 OA
BRANCH   4   6
ATOM      6  C   UNL A   1      44.068  22.366  25.645  1.00  0.00     0.060 A 
ATOM      7  C   UNL A   1      44.528  25.102  25.833  1.00  0.00     0.040 A 
ATOM      8  C   UNL A   1      43.529  24.641  24.987  1.00  0.00     0.027 A 
ATOM      9  C   UNL A   1      45.148  24.213  26.727  1.00  0.00     0.027 A 
ATOM     10  C   UNL A   1      43.368  23.275  24.844  1.00  0.00     0.018 A 
ATOM     11  C   UNL A   1      44.892  22.836  26.664  1.00  0.00     0.018 A 
BRANCH   7  12
ATOM     12  N   UNL A   1      45.024  26.381  25.591  1.00  0.00    -0.340 N 
ATOM     13  H   UNL A   1      44.341  27.075  25.454  1.00  0.00     0.168 HD
BRANCH  12  14
ATOM     14  C   UNL A   1      46.349  26.826  25.514  1.00  0.00     0.143 A 
ATOM     15  C   UNL A   1      48.572  27.213  22.614  1.00  0.00     0.090 C 
ATOM     16  C   UNL A   1      48.051  27.359  24.008  1.00  0.00     0.129 A 
ATOM     17  N   UNL A   1      46.851  26.816  24.256  1.00  0.00    -0.215 NA
ATOM     18  N   UNL A   1      48.798  28.036  24.883  1.00  0.00    -0.222 NA
ATOM     19  C   UNL A   1      48.323  27.962  26.136  1.00  0.00     0.129 A 
ATOM     20  C   UNL A   1      47.191  27.282  26.564  1.00  0.00     0.057 A 
ATOM     21  S   UNL A   1      49.114  28.799  27.390  1.00  0.00    -0.120 S 
ATOM     22  C   UNL A   1      47.264  27.148  28.014  1.00  0.00    -0.024 A 
ATOM     23  C   UNL A   1      48.108  28.098  28.572  1.00  0.00     0.007 A 
ATOM     24  C   UNL A   1      46.600  26.120  28.865  1.00  0.00     0.046 C 
ATOM     25  C   UNL A   1      48.273  28.446  30.015  1.00  0.00     0.057 C 
ENDBRANCH  12  14
ENDBRANCH   7  12
ENDBRANCH   4   6
ENDBRANCH   3   4
ENDBRANCH   2   3
ENDBRANCH   1   2
BRANCH   1  26
ATOM     26  O   UNL A   1      41.436  21.387  27.671  1.00  0.00    -0.458 OA
BRANCH  26  27
ATOM     27  C   UNL A   1      40.563  22.217  27.047  1.00  0.00     0.338 C 
ATOM     28  O   UNL A   1      39.721  21.878  26.229  1.00  0.00    -0.246 OA
BRANCH  27  29
ATOM     29  C   UNL A   1      40.673  23.624  27.467  1.00  0.00     0.060 A 
ATOM     30  C   UNL A   1      40.026  24.646  26.771  1.00  0.00     0.016 A 
ATOM     31  C   UNL A   1      41.679  23.925  28.387  1.00  0.00     0.016 A 
ATOM     32  C   UNL A   1      40.529  25.947  26.849  1.00  0.00     0.010 A 
ATOM     33  C   UNL A   1      42.121  25.235  28.528  1.00  0.00     0.010 A 
ATOM     34  C   UNL A   1      41.600  26.241  27.707  1.00  0.00    -0.014 A 
BRANCH  34  35
ATOM     35  C   UNL A   1      42.005  27.660  27.831  1.00  0.00     0.031 A 
ATOM     36  C   UNL A   1      40.774  28.524  27.880  1.00  0.00     0.074 A 
ATOM     37  C   UNL A   1      43.077  28.064  28.554  1.00  0.00     0.049 A 
ATOM     38  N   UNL A   1      40.023  28.626  28.938  1.00  0.00    -0.248 NA
ATOM     39  C   UNL A   1      40.139  29.013  26.658  1.00  0.00     0.031 C 
ATOM     40  C   UNL A   1      43.519  27.453  29.814  1.00  0.00     0.029 A 
ATOM     41  N   UNL A   1      43.833  29.219  28.456  1.00  0.00    -0.354 N 
ATOM     42  C   UNL A   1      38.794  29.116  28.526  1.00  0.00     0.074 A 
ATOM     43  C   UNL A   1      38.916  29.345  27.103  1.00  0.00     0.031 C 
ATOM     44  C   UNL A   1      44.325  28.320  30.459  1.00  0.00     0.029 A 
ATOM     45  C   UNL A   1      44.558  29.494  29.619  1.00  0.00     0.049 A 
ATOM     46  H   UNL A   1      43.858  29.787  27.652  1.00  0.00     0.167 HD
ATOM     47  C   UNL A   1      37.751  29.309  29.380  1.00  0.00     0.034 A 
ATOM     48  C   UNL A   1      44.828  30.752  30.078  1.00  0.00     0.034 A 
ATOM     49  C   UNL A   1      38.043  29.060  30.764  1.00  0.00     0.049 A 
ATOM     50  C   UNL A   1      43.522  31.079  30.761  1.00  0.00     0.074 A 
ATOM     51  C   UNL A   1      37.753  28.128  31.735  1.00  0.00     0.029 A 
ATOM     52  N   UNL A   1      38.844  29.974  31.403  1.00  0.00    -0.354 N 
ATOM     53  N   UNL A   1      43.122  30.632  31.925  1.00  0.00    -0.248 NA
ATOM     54  C   UNL A   1      42.451  31.595  29.910  1.00  0.00     0.031 C 
ATOM     55  C   UNL A   1      38.749  28.306  32.752  1.00  0.00     0.029 A 
ATOM     56  C   UNL A   1      39.609  29.319  32.329  1.00  0.00     0.049 A 
ATOM     57  H   UNL A   1      38.864  30.942  31.225  1.00  0.00     0.167 HD
ATOM     58  C   UNL A   1      41.733  30.496  31.809  1.00  0.00     0.074 A 
ATOM     59  C   UNL A   1      41.388  31.140  30.556  1.00  0.00     0.031 C 
ATOM     60  C   UNL A   1      40.968  29.721  32.638  1.00  0.00     0.034 A 
BRANCH  47  61
ATOM     61  C   UNL A   1      36.490  30.009  29.026  1.00  0.00     0.023 A 
ATOM     62  C   UNL A   1      35.674  29.340  28.089  1.00  0.00     0.012 A 
ATOM     63  C   UNL A   1      36.173  31.327  29.396  1.00  0.00     0.148 A 
ATOM     64  C   UNL A   1      34.601  29.978  27.479  1.00  0.00     0.002 A 
ATOM     65  C   UNL A   1      35.084  31.958  28.791  1.00  0.00     0.091 A 
ATOM     66  F   UNL A   1      36.956  31.953  30.286  1.00  0.00    -0.205 F 
ATOM     67  C   UNL A   1      34.312  31.290  27.823  1.00  0.00     0.022 A 
BRANCH  65  68
ATOM     68  S   UNL A   1      34.587  33.650  29.147  1.00  0.00     0.127 S 
ATOM     69  O   UNL A   1      35.823  34.390  28.900  1.00  0.00    -0.237 OA
ATOM     70  O   UNL A   1      33.536  33.871  28.153  1.00  0.00    -0.237 OA
ATOM     71  O   UNL A   1      34.123  33.649  30.528  1.00  0.00    -0.744 OA
ENDBRANCH  65  68
ENDBRANCH  47  61
BRANCH  48  72
ATOM     72  C   UNL A   1      45.537  31.660  29.112  1.00  0.00     0.023 A 
ATOM     73  C   UNL A   1      46.949  31.711  29.223  1.00  0.00     0.012 A 
ATOM     74  C   UNL A   1      44.945  32.434  28.096  1.00  0.00     0.148 A 
ATOM     75  C   UNL A   1      47.741  32.384  28.292  1.00  0.00     0.002 A 
ATOM     76  C   UNL A   1      45.740  33.038  27.120  1.00  0.00     0.091 A 
ATOM     77  F   UNL A   1      43.617  32.585  28.077  1.00  0.00    -0.205 F 
ATOM     78  C   UNL A   1      47.137  33.013  27.213  1.00  0.00     0.022 A 
BRANCH  76  79
ATOM     79  S   UNL A   1      45.049  33.776  25.631  1.00  0.00     0.127 S 
ATOM     80  O   UNL A   1      44.459  32.619  24.962  1.00  0.00    -0.237 OA
ATOM     81  O   UNL A   1      44.086  34.718  26.200  1.00  0.00    -0.237 OA
ATOM     82  O   UNL A   1      46.172  34.388  24.936  1.00  0.00    -0.744 OA
ENDBRANCH  76  79
ENDBRANCH  48  72
BRANCH  60  83
ATOM     83  C   UNL A   1      41.650  29.155  33.854  1.00  0.00     0.023 A 
ATOM     84  C   UNL A   1      41.635  29.914  35.040  1.00  0.00     0.012 A 
ATOM     85  C   UNL A   1      42.216  27.863  33.879  1.00  0.00     0.148 A 
ATOM     86  C   UNL A   1      42.147  29.399  36.229  1.00  0.00     0.002 A 
ATOM     87  C   UNL A   1      42.679  27.334  35.081  1.00  0.00     0.091 A 
ATOM     88  F   UNL A   1      42.290  27.164  32.737  1.00  0.00    -0.205 F 
ATOM     89  C   UNL A   1      42.651  28.102  36.254  1.00  0.00     0.022 A 
BRANCH  87  90
ATOM     90  S   UNL A   1      43.262  25.641  35.247  1.00  0.00     0.127 S 
ATOM     91  O   UNL A   1      42.008  24.893  35.350  1.00  0.00    -0.237 OA
ATOM     92  O   UNL A   1      43.983  25.446  33.988  1.00  0.00    -0.237 OA
ATOM     93  O   UNL A   1      44.096  25.609  36.440  1.00  0.00    -0.744 OA
ENDBRANCH  87  90
ENDBRANCH  60  83
ENDBRANCH  34  35
ENDBRANCH  27  29
ENDBRANCH  26  27
ENDBRANCH   1  26
TORSDOF 16
ENDMDL
MODEL 2
REMARK VINA RESULT:     -11.1      3.522      7.136
REMARK SMILES Cc1nc(Nc2ccc(C(=O)OCCOC(=O)c3ccc(-c4c5nc(c(-c6cccc(S(=O)(=O)[O-])c6F)c6ccc([nH]6)c(-c6cccc(S(=O)(=O)[O-])c6F)c6nc(c(-c7cccc(S(=O)(=O)[O-])c7F)c7ccc4[nH]7)C=C6)C=C5)cc3)cc2)c2c(C)c(C)sc2n1
REMARK SMILES IDX 14 1 13 2 12 3 10 4 11 5 9 6 6 7 7 8 82 9 8 10 81 11 5 12
REMARK SMILES IDX 4 14 1 15 2 16 3 17 90 18 89 19 83 20 88 21 84 22 86 23
REMARK SMILES IDX 85 24 87 25 15 26 16 27 17 28 18 29 19 30 80 31 20 32 79 33
REMARK SMILES IDX 21 34 22 35 23 36 73 37 24 38 78 39 72 40 74 41 25 42 77 43
REMARK SMILES IDX 71 44 70 45 26 47 58 48 38 49 57 50 39 51 42 52 56 53 75 54
REMARK SMILES IDX 40 55 41 56 55 58 76 59 43 60 27 61 28 62 36 63 29 64 31 65
REMARK SMILES IDX 37 66 30 67 32 68 33 69 34 70 35 71 59 72 60 73 68 74 61 75
REMARK SMILES IDX 63 76 69 77 62 78 64 79 65 80 66 81 67 82 44 83 45 84 53 85
REMARK SMILES IDX 46 86 48 87 54 88 47 89 49 90 50 91 51 92 52 93
REMARK H PARENT 5 13 74 46 42 57
REMARK Flexibility Score: inf
ROOT
ATOM      1  C   UNL A   1      38.290  22.186  26.133  1.00  0.00     0.275 C 
ENDROOT
BRANCH   1   2
ATOM      2  C   UNL A   1      37.769  21.291  25.003  1.00  0.00     0.275 C 
BRANCH   2   3
ATOM      3  O   UNL A   1      36.403  21.594  24.667  1.00  0.00    -0.458 OA
BRANCH   3   4
ATOM      4  C   UNL A   1      35.538  20.618  25.016  1.00  0.00     0.338 C 
ATOM      5  O   UNL A   1      35.682  19.416  24.808  1.00  0.00    -0.246 OA
BRANCH   4   6
ATOM      6  C   UNL A   1      34.360  21.127  25.745  1.00  0.00     0.060 A 
ATOM      7  C   UNL A   1      32.250  22.772  26.501  1.00  0.00     0.040 A 
ATOM      8  C   UNL A   1      32.067  21.874  25.460  1.00  0.00     0.027 A 
ATOM      9  C   UNL A   1      33.413  22.700  27.286  1.00  0.00     0.027 A 
ATOM     10  C   UNL A   1      33.150  21.121  25.043  1.00  0.00     0.018 A 
ATOM     11  C   UNL A   1      34.466  21.844  26.934  1.00  0.00     0.018 A 
BRANCH   7  12
ATOM     12  N   UNL A   1      31.371  23.851  26.571  1.00  0.00    -0.340 N 
ATOM     13  H   UNL A   1      30.522  23.669  27.034  1.00  0.00     0.168 HD
BRANCH  12  14
ATOM     14  C   UNL A   1      31.514  25.154  26.080  1.00  0.00     0.143 A 
ATOM     15  C   UNL A   1      31.423  28.386  27.826  1.00  0.00     0.090 C 
ATOM     16  C   UNL A   1      31.670  27.387  26.740  1.00  0.00     0.129 A 
ATOM     17  N   UNL A   1      31.402  26.108  27.036  1.00  0.00    -0.215 NA
ATOM     18  N   UNL A   1      32.159  27.837  25.583  1.00  0.00    -0.222 NA
ATOM     19  C   UNL A   1      32.183  26.893  24.629  1.00  0.00     0.129 A 
ATOM     20  C   UNL A   1      31.765  25.574  24.746  1.00  0.00     0.057 A 
ATOM     21  S   UNL A   1      32.815  27.260  23.091  1.00  0.00    -0.120 S 
ATOM     22  C   UNL A   1      31.607  25.027  23.403  1.00  0.00    -0.024 A 
ATOM     23  C   UNL A   1      32.344  25.745  22.471  1.00  0.00     0.007 A 
ATOM     24  C   UNL A   1      30.745  23.887  22.983  1.00  0.00     0.046 C 
ATOM     25  C   UNL A   1      32.636  25.380  21.052  1.00  0.00     0.057 C 
ENDBRANCH  12  14
ENDBRANCH   7  12
ENDBRANCH   4   6
ENDBRANCH   3   4
ENDBRANCH   2   3
ENDBRANCH   1   2
BRANCH   1  26
ATOM     26  O   UNL A   1      39.687  22.519  25.994  1.00  0.00    -0.458 OA
BRANCH  26  27
ATOM     27  C   UNL A   1      40.372  22.421  27.160  1.00  0.00     0.338 C 
ATOM     28  O   UNL A   1      40.565  21.390  27.787  1.00  0.00    -0.246 OA
BRANCH  27  29
ATOM     29  C   UNL A   1      40.930  23.698  27.634  1.00  0.00     0.060 A 
ATOM     30  C   UNL A   1      40.165  24.600  28.373  1.00  0.00     0.016 A 
ATOM     31  C   UNL A   1      42.138  24.101  27.063  1.00  0.00     0.016 A 
ATOM     32  C   UNL A   1      40.511  25.953  28.365  1.00  0.00     0.010 A 
ATOM     33  C   UNL A   1      42.527  25.434  27.130  1.00  0.00     0.010 A 
ATOM     34  C   UNL A   1      41.680  26.381  27.717  1.00  0.00    -0.014 A 
BRANCH  34  35
ATOM     35  C   UNL A   1      42.051  27.808  27.849  1.00  0.00     0.031 A 
ATOM     36  C   UNL A   1      40.801  28.644  27.886  1.00  0.00     0.074 A 
ATOM     37  C   UNL A   1      43.105  28.234  28.585  1.00  0.00     0.049 A 
ATOM     38  N   UNL A   1      40.035  28.727  28.935  1.00  0.00    -0.248 NA
ATOM     39  C   UNL A   1      40.169  29.122  26.657  1.00  0.00     0.031 C 
ATOM     40  C   UNL A   1      43.547  27.630  29.849  1.00  0.00     0.029 A 
ATOM     41  N   UNL A   1      43.837  29.407  28.498  1.00  0.00    -0.354 N 
ATOM     42  C   UNL A   1      38.801  29.190  28.509  1.00  0.00     0.074 A 
ATOM     43  C   UNL A   1      38.934  29.425  27.088  1.00  0.00     0.031 C 
ATOM     44  C   UNL A   1      44.325  28.514  30.505  1.00  0.00     0.029 A 
ATOM     45  C   UNL A   1      44.541  29.695  29.670  1.00  0.00     0.049 A 
ATOM     46  H   UNL A   1      43.858  29.977  27.696  1.00  0.00     0.167 HD
ATOM     47  C   UNL A   1      37.744  29.358  29.351  1.00  0.00     0.034 A 
ATOM     48  C   UNL A   1      44.778  30.958  30.135  1.00  0.00     0.034 A 
ATOM     49  C   UNL A   1      38.025  29.112  30.738  1.00  0.00     0.049 A 
ATOM     50  C   UNL A   1      43.457  31.254  30.803  1.00  0.00     0.074 A 
ATOM     51  C   UNL A   1      37.744  28.172  31.704  1.00  0.00     0.029 A 
ATOM     52  N   UNL A   1      38.798  30.043  31.388  1.00  0.00    -0.354 N 
ATOM     53  N   UNL A   1      43.054  30.795  31.961  1.00  0.00    -0.248 NA
ATOM     54  C   UNL A   1      42.385  31.747  29.941  1.00  0.00     0.031 C 
ATOM     55  C   UNL A   1      38.725  28.370  32.733  1.00  0.00     0.029 A 
ATOM     56  C   UNL A   1      39.567  29.403  32.321  1.00  0.00     0.049 A 
ATOM     57  H   UNL A   1      38.798  31.012  31.213  1.00  0.00     0.167 HD
ATOM     58  C   UNL A   1      41.670  30.629  31.829  1.00  0.00     0.074 A 
ATOM     59  C   UNL A   1      41.325  31.267  30.573  1.00  0.00     0.031 C 
ATOM     60  C   UNL A   1      40.913  29.834  32.648  1.00  0.00     0.034 A 
BRANCH  47  61
ATOM     61  C   UNL A   1      36.471  30.030  28.984  1.00  0.00     0.023 A 
ATOM     62  C   UNL A   1      35.685  29.348  28.031  1.00  0.00     0.012 A 
ATOM     63  C   UNL A   1      36.118  31.337  29.358  1.00  0.00     0.148 A 
ATOM     64  C   UNL A   1      34.606  29.965  27.410  1.00  0.00     0.002 A 
ATOM     65  C   UNL A   1      35.023  31.947  28.742  1.00  0.00     0.091 A 
ATOM     66  F   UNL A   1      36.873  31.976  30.264  1.00  0.00    -0.205 F 
ATOM     67  C   UNL A   1      34.280  31.268  27.759  1.00  0.00     0.022 A 
BRANCH  65  68
ATOM     68  S   UNL A   1      34.480  33.624  29.103  1.00  0.00     0.127 S 
ATOM     69  O   UNL A   1      33.352  33.783  28.187  1.00  0.00    -0.237 OA
ATOM     70  O   UNL A   1      34.108  33.523  30.515  1.00  0.00    -0.237 OA
ATOM     71  O   UNL A   1      35.627  34.482  28.838  1.00  0.00    -0.744 OA
ENDBRANCH  65  68
ENDBRANCH  47  61
BRANCH  48  72
ATOM     72  C   UNL A   1      45.478  31.884  29.178  1.00  0.00     0.023 A 
ATOM     73  C   UNL A   1      46.872  32.043  29.370  1.00  0.00     0.012 A 
ATOM     74  C   UNL A   1      44.895  32.577  28.101  1.00  0.00     0.148 A 
ATOM     75  C   UNL A   1      47.670  32.742  28.462  1.00  0.00     0.002 A 
ATOM     76  C   UNL A   1      45.702  33.207  27.152  1.00  0.00     0.091 A 
ATOM     77  F   UNL A   1      43.563  32.628  27.999  1.00  0.00    -0.205 F 
ATOM     78  C   UNL A   1      47.089  33.288  27.328  1.00  0.00     0.022 A 
BRANCH  76  79
ATOM     79  S   UNL A   1      45.052  33.842  25.598  1.00  0.00     0.127 S 
ATOM     80  O   UNL A   1      44.538  32.630  24.963  1.00  0.00    -0.237 OA
ATOM     81  O   UNL A   1      44.029  34.771  26.076  1.00  0.00    -0.237 OA
ATOM     82  O   UNL A   1      46.181  34.464  24.922  1.00  0.00    -0.744 OA
ENDBRANCH  76  79
ENDBRANCH  48  72
BRANCH  60  83
ATOM     83  C   UNL A   1      41.592  29.281  33.870  1.00  0.00     0.023 A 
ATOM     84  C   UNL A   1      41.601  30.065  35.040  1.00  0.00     0.012 A 
ATOM     85  C   UNL A   1      42.135  27.980  33.918  1.00  0.00     0.148 A 
ATOM     86  C   UNL A   1      42.112  29.566  36.236  1.00  0.00     0.002 A 
ATOM     87  C   UNL A   1      42.596  27.467  35.127  1.00  0.00     0.091 A 
ATOM     88  F   UNL A   1      42.187  27.255  32.790  1.00  0.00    -0.205 F 
ATOM     89  C   UNL A   1      42.592  28.260  36.284  1.00  0.00     0.022 A 
BRANCH  87  90
ATOM     90  S   UNL A   1      43.149  25.768  35.325  1.00  0.00     0.127 S 
ATOM     91  O   UNL A   1      43.692  25.778  36.684  1.00  0.00    -0.237 OA
ATOM     92  O   UNL A   1      41.895  25.025  35.179  1.00  0.00    -0.237 OA
ATOM     93  O   UNL A   1      44.127  25.528  34.274  1.00  0.00    -0.744 OA
ENDBRANCH  87  90
ENDBRANCH  60  83
ENDBRANCH  34  35
ENDBRANCH  27  29
ENDBRANCH  26  27
ENDBRANCH   1  26
TORSDOF 16
ENDMDL
MODEL 3
REMARK VINA RESULT:     -10.9      7.243     12.340
REMARK SMILES Cc1nc(Nc2ccc(C(=O)OCCOC(=O)c3ccc(-c4c5nc(c(-c6cccc(S(=O)(=O)[O-])c6F)c6ccc([nH]6)c(-c6cccc(S(=O)(=O)[O-])c6F)c6nc(c(-c7cccc(S(=O)(=O)[O-])c7F)c7ccc4[nH]7)C=C6)C=C5)cc3)cc2)c2c(C)c(C)sc2n1
REMARK SMILES IDX 14 1 13 2 12 3 10 4 11 5 9 6 6 7 7 8 82 9 8 10 81 11 5 12
REMARK SMILES IDX 4 14 1 15 2 16 3 17 90 18 89 19 83 20 88 21 84 22 86 23
REMARK SMILES IDX 85 24 87 25 15 26 16 27 17 28 18 29 19 30 80 31 20 32 79 33
REMARK SMILES IDX 21 34 22 35 23 36 73 37 24 38 78 39 72 40 74 41 25 42 77 43
REMARK SMILES IDX 71 44 70 45 26 47 58 48 38 49 57 50 39 51 42 52 56 53 75 54
REMARK SMILES IDX 40 55 41 56 55 58 76 59 43 60 27 61 28 62 36 63 29 64 31 65
REMARK SMILES IDX 37 66 30 67 32 68 33 69 34 70 35 71 59 72 60 73 68 74 61 75
REMARK SMILES IDX 63 76 69 77 62 78 64 79 65 80 66 81 67 82 44 83 45 84 53 85
REMARK SMILES IDX 46 86 48 87 54 88 47 89 49 90 50 91 51 92 52 93
REMARK H PARENT 5 13 74 46 42 57
REMARK Flexibility Score: inf
ROOT
ATOM      1  C   UNL A   1      42.476  38.868  27.747  1.00  0.00     0.275 C 
ENDROOT
BRANCH   1   2
ATOM      2  C   UNL A   1      43.055  40.176  27.194  1.00  0.00     0.275 C 
BRANCH   2   3
ATOM      3  O   UNL A   1      42.911  40.262  25.766  1.00  0.00    -0.458 OA
BRANCH   3   4
ATOM      4  C   UNL A   1      41.905  41.074  25.378  1.00  0.00     0.338 C 
ATOM      5  O   UNL A   1      40.777  41.109  25.862  1.00  0.00    -0.246 OA
BRANCH   4   6
ATOM      6  C   UNL A   1      42.296  41.998  24.296  1.00  0.00     0.060 A 
ATOM      7  C   UNL A   1      43.086  42.933  21.799  1.00  0.00     0.040 A 
ATOM      8  C   UNL A   1      41.740  42.702  22.039  1.00  0.00     0.027 A 
ATOM      9  C   UNL A   1      44.000  42.892  22.866  1.00  0.00     0.027 A 
ATOM     10  C   UNL A   1      41.373  42.159  23.258  1.00  0.00     0.018 A 
ATOM     11  C   UNL A   1      43.601  42.459  24.138  1.00  0.00     0.018 A 
BRANCH   7  12
ATOM     12  N   UNL A   1      43.497  42.971  20.469  1.00  0.00    -0.340 N 
ATOM     13  H   UNL A   1      43.681  42.094  20.063  1.00  0.00     0.168 HD
BRANCH  12  14
ATOM     14  C   UNL A   1      43.687  44.070  19.623  1.00  0.00     0.143 A 
ATOM     15  C   UNL A   1      41.893  45.077  16.578  1.00  0.00     0.090 C 
ATOM     16  C   UNL A   1      42.794  45.171  17.769  1.00  0.00     0.129 A 
ATOM     17  N   UNL A   1      42.831  44.100  18.573  1.00  0.00    -0.215 NA
ATOM     18  N   UNL A   1      43.461  46.312  17.954  1.00  0.00    -0.222 NA
ATOM     19  C   UNL A   1      44.361  46.230  18.947  1.00  0.00     0.129 A 
ATOM     20  C   UNL A   1      44.632  45.125  19.742  1.00  0.00     0.057 A 
ATOM     21  S   UNL A   1      45.283  47.598  19.367  1.00  0.00    -0.120 S 
ATOM     22  C   UNL A   1      45.910  45.348  20.409  1.00  0.00    -0.024 A 
ATOM     23  C   UNL A   1      46.227  46.698  20.463  1.00  0.00     0.007 A 
ATOM     24  C   UNL A   1      46.847  44.320  20.942  1.00  0.00     0.046 C 
ATOM     25  C   UNL A   1      47.311  47.356  21.252  1.00  0.00     0.057 C 
ENDBRANCH  12  14
ENDBRANCH   7  12
ENDBRANCH   4   6
ENDBRANCH   3   4
ENDBRANCH   2   3
ENDBRANCH   1   2
BRANCH   1  26
ATOM     26  O   UNL A   1      42.706  37.736  26.882  1.00  0.00    -0.458 OA
BRANCH  26  27
ATOM     27  C   UNL A   1      43.594  36.850  27.397  1.00  0.00     0.338 C 
ATOM     28  O   UNL A   1      44.717  36.637  26.966  1.00  0.00    -0.246 OA
BRANCH  27  29
ATOM     29  C   UNL A   1      43.110  36.148  28.597  1.00  0.00     0.060 A 
ATOM     30  C   UNL A   1      43.825  36.171  29.795  1.00  0.00     0.016 A 
ATOM     31  C   UNL A   1      42.082  35.224  28.407  1.00  0.00     0.016 A 
ATOM     32  C   UNL A   1      43.644  35.135  30.715  1.00  0.00     0.010 A 
ATOM     33  C   UNL A   1      41.844  34.244  29.365  1.00  0.00     0.010 A 
ATOM     34  C   UNL A   1      42.672  34.148  30.488  1.00  0.00    -0.014 A 
BRANCH  34  35
ATOM     35  C   UNL A   1      42.450  33.150  31.559  1.00  0.00     0.031 A 
ATOM     36  C   UNL A   1      41.019  33.226  32.018  1.00  0.00     0.074 A 
ATOM     37  C   UNL A   1      43.043  31.932  31.571  1.00  0.00     0.049 A 
ATOM     38  N   UNL A   1      40.029  32.736  31.330  1.00  0.00    -0.248 NA
ATOM     39  C   UNL A   1      40.605  34.157  33.066  1.00  0.00     0.031 C 
ATOM     40  C   UNL A   1      43.324  31.123  30.378  1.00  0.00     0.029 A 
ATOM     41  N   UNL A   1      43.293  31.073  32.628  1.00  0.00    -0.354 N 
ATOM     42  C   UNL A   1      38.870  33.341  31.790  1.00  0.00     0.074 A 
ATOM     43  C   UNL A   1      39.278  34.211  32.871  1.00  0.00     0.031 C 
ATOM     44  C   UNL A   1      43.525  29.844  30.757  1.00  0.00     0.029 A 
ATOM     45  C   UNL A   1      43.509  29.755  32.217  1.00  0.00     0.049 A 
ATOM     46  H   UNL A   1      43.316  31.361  33.569  1.00  0.00     0.167 HD
ATOM     47  C   UNL A   1      37.642  33.085  31.259  1.00  0.00     0.034 A 
ATOM     48  C   UNL A   1      43.138  28.655  32.936  1.00  0.00     0.034 A 
ATOM     49  C   UNL A   1      37.617  32.067  30.245  1.00  0.00     0.049 A 
ATOM     50  C   UNL A   1      41.674  28.574  32.577  1.00  0.00     0.074 A 
ATOM     51  C   UNL A   1      37.453  31.963  28.883  1.00  0.00     0.029 A 
ATOM     52  N   UNL A   1      37.798  30.772  30.664  1.00  0.00    -0.354 N 
ATOM     53  N   UNL A   1      41.175  28.130  31.451  1.00  0.00    -0.248 NA
ATOM     54  C   UNL A   1      40.764  29.416  33.352  1.00  0.00     0.031 C 
ATOM     55  C   UNL A   1      37.986  30.679  28.526  1.00  0.00     0.029 A 
ATOM     56  C   UNL A   1      38.471  30.085  29.691  1.00  0.00     0.049 A 
ATOM     57  H   UNL A   1      37.492  30.398  31.522  1.00  0.00     0.167 HD
ATOM     58  C   UNL A   1      40.034  28.908  31.222  1.00  0.00     0.074 A 
ATOM     59  C   UNL A   1      39.825  29.652  32.449  1.00  0.00     0.031 C 
ATOM     60  C   UNL A   1      39.431  29.041  29.999  1.00  0.00     0.034 A 
BRANCH  47  61
ATOM     61  C   UNL A   1      36.358  33.554  31.838  1.00  0.00     0.023 A 
ATOM     62  C   UNL A   1      35.991  32.947  33.058  1.00  0.00     0.012 A 
ATOM     63  C   UNL A   1      35.432  34.377  31.175  1.00  0.00     0.148 A 
ATOM     64  C   UNL A   1      34.714  33.096  33.585  1.00  0.00     0.002 A 
ATOM     65  C   UNL A   1      34.155  34.537  31.717  1.00  0.00     0.091 A 
ATOM     66  F   UNL A   1      35.791  34.948  30.016  1.00  0.00    -0.205 F 
ATOM     67  C   UNL A   1      33.793  33.884  32.910  1.00  0.00     0.022 A 
BRANCH  65  68
ATOM     68  S   UNL A   1      32.866  35.534  30.957  1.00  0.00     0.127 S 
ATOM     69  O   UNL A   1      32.594  34.796  29.725  1.00  0.00    -0.237 OA
ATOM     70  O   UNL A   1      31.799  35.462  31.957  1.00  0.00    -0.237 OA
ATOM     71  O   UNL A   1      33.438  36.862  30.778  1.00  0.00    -0.744 OA
ENDBRANCH  65  68
ENDBRANCH  47  61
BRANCH  48  72
ATOM     72  C   UNL A   1      43.679  28.580  34.337  1.00  0.00     0.023 A 
ATOM     73  C   UNL A   1      44.294  29.756  34.833  1.00  0.00     0.012 A 
ATOM     74  C   UNL A   1      43.608  27.476  35.208  1.00  0.00     0.148 A 
ATOM     75  C   UNL A   1      44.693  29.876  36.166  1.00  0.00     0.002 A 
ATOM     76  C   UNL A   1      43.933  27.624  36.557  1.00  0.00     0.091 A 
ATOM     77  F   UNL A   1      43.230  26.286  34.728  1.00  0.00    -0.205 F 
ATOM     78  C   UNL A   1      44.472  28.823  37.040  1.00  0.00     0.022 A 
BRANCH  76  79
ATOM     79  S   UNL A   1      43.576  26.354  37.782  1.00  0.00     0.127 S 
ATOM     80  O   UNL A   1      44.154  26.929  38.995  1.00  0.00    -0.237 OA
ATOM     81  O   UNL A   1      42.115  26.328  37.747  1.00  0.00    -0.237 OA
ATOM     82  O   UNL A   1      44.226  25.145  37.299  1.00  0.00    -0.744 OA
ENDBRANCH  76  79
ENDBRANCH  48  72
BRANCH  60  83
ATOM     83  C   UNL A   1      39.917  28.134  28.904  1.00  0.00     0.023 A 
ATOM     84  C   UNL A   1      39.276  26.892  28.733  1.00  0.00     0.012 A 
ATOM     85  C   UNL A   1      40.919  28.514  27.986  1.00  0.00     0.148 A 
ATOM     86  C   UNL A   1      39.601  26.055  27.668  1.00  0.00     0.002 A 
ATOM     87  C   UNL A   1      41.203  27.699  26.894  1.00  0.00     0.091 A 
ATOM     88  F   UNL A   1      41.576  29.667  28.183  1.00  0.00    -0.205 F 
ATOM     89  C   UNL A   1      40.550  26.467  26.737  1.00  0.00     0.022 A 
BRANCH  87  90
ATOM     90  S   UNL A   1      42.339  28.173  25.584  1.00  0.00     0.127 S 
ATOM     91  O   UNL A   1      43.601  28.320  26.311  1.00  0.00    -0.237 OA
ATOM     92  O   UNL A   1      42.280  27.009  24.699  1.00  0.00    -0.237 OA
ATOM     93  O   UNL A   1      41.814  29.404  25.010  1.00  0.00    -0.744 OA
ENDBRANCH  87  90
ENDBRANCH  60  83
ENDBRANCH  34  35
ENDBRANCH  27  29
ENDBRANCH  26  27
ENDBRANCH   1  26
TORSDOF 16
ENDMDL
