MODEL 1
REMARK VINA RESULT:     -10.9      0.000      0.000
REMARK SMILES C[NH2+]C[C@H](C)C(=O)Nc1snc(C)c1C(=O)OCCOC(=O)c1ccc(-c2c3nc(c(-c4cccc(S(=O)(=O)[O-])c4F)c4ccc([nH]4)c(-c4cccc(S(=O)(=O)[O-])c4F)c4nc(c(-c5cccc(S(=O)(=O)[O-])c5F)c5ccc2[nH]5)C=C4)C=C3)cc1
REMARK SMILES IDX 18 1 17 2 15 3 16 4 14 5 9 6 10 7 11 8 12 9 13 10 8 11 6 12
REMARK SMILES IDX 7 13 4 15 5 16 3 17 2 18 1 19 19 22 20 23 21 24 22 25 23 26
REMARK SMILES IDX 24 27 85 28 25 29 84 30 26 31 27 32 28 33 78 34 29 35 83 36
REMARK SMILES IDX 77 37 79 38 30 39 82 40 76 41 75 42 31 44 63 45 43 46 62 47
REMARK SMILES IDX 44 48 47 49 61 50 80 51 45 52 46 53 60 55 81 56 48 57 32 58
REMARK SMILES IDX 33 59 41 60 34 61 36 62 42 63 35 64 37 65 38 66 39 67 40 68
REMARK SMILES IDX 64 69 65 70 73 71 66 72 68 73 74 74 67 75 69 76 70 77 71 78
REMARK SMILES IDX 72 79 49 80 50 81 58 82 51 83 53 84 59 85 52 86 54 87 55 88
REMARK SMILES IDX 56 89 57 90
REMARK H PARENT 8 14 2 20 2 21 79 43 47 54
REMARK Flexibility Score: inf
ROOT
ATOM      1  C   UNL A   1      33.577  29.311  27.279  1.00  0.00     0.275 C 
ENDROOT
BRANCH   1   2
ATOM      2  O   UNL A   1      32.897  28.185  26.664  1.00  0.00    -0.458 OA
BRANCH   2   3
ATOM      3  C   UNL A   1      32.824  28.044  25.299  1.00  0.00     0.343 C 
ATOM      4  O   UNL A   1      33.721  28.355  24.517  1.00  0.00    -0.246 OA
BRANCH   3   5
ATOM      5  C   UNL A   1      31.526  27.556  24.858  1.00  0.00     0.117 A 
ATOM      6  C   UNL A   1      30.904  26.462  25.422  1.00  0.00     0.130 A 
ATOM      7  S   UNL A   1      29.638  25.940  24.420  1.00  0.00    -0.017 S 
ATOM      8  N   UNL A   1      29.625  27.295  23.475  1.00  0.00    -0.195 NA
ATOM      9  C   UNL A   1      30.676  28.061  23.794  1.00  0.00     0.068 A 
ATOM     10  C   UNL A   1      30.834  29.312  22.997  1.00  0.00     0.069 C 
BRANCH   6  11
ATOM     11  N   UNL A   1      31.144  25.697  26.531  1.00  0.00    -0.315 N 
ATOM     12  C   UNL A   1      31.584  24.406  26.572  1.00  0.00     0.233 C 
ATOM     13  O   UNL A   1      31.265  23.733  27.563  1.00  0.00    -0.274 OA
ATOM     14  H   UNL A   1      30.981  26.128  27.401  1.00  0.00     0.170 HD
BRANCH  12  15
ATOM     15  C   UNL A   1      32.622  23.826  25.581  1.00  0.00     0.130 C 
ATOM     16  C   UNL A   1      34.061  23.533  25.976  1.00  0.00     0.024 C 
BRANCH  15  17
ATOM     17  C   UNL A   1      32.071  22.659  24.746  1.00  0.00     0.273 C 
BRANCH  17  18
ATOM     18  N   UNL A   1      31.745  21.463  25.529  1.00  0.00    -0.348 N 
ATOM     19  C   UNL A   1      32.480  20.289  25.066  1.00  0.00     0.330 C 
ATOM     20  H   UNL A   1      31.981  21.636  26.506  1.00  0.00     0.346 HD
ATOM     21  H   UNL A   1      30.750  21.275  25.417  1.00  0.00     0.346 HD
ENDBRANCH  17  18
ENDBRANCH  15  17
ENDBRANCH  12  15
ENDBRANCH   6  11
ENDBRANCH   3   5
ENDBRANCH   2   3
ENDBRANCH   1   2
BRANCH   1  22
ATOM     22  C   UNL A   1      32.856  30.634  27.119  1.00  0.00     0.275 C 
BRANCH  22  23
ATOM     23  O   UNL A   1      33.692  31.622  27.689  1.00  0.00    -0.458 OA
BRANCH  23  24
ATOM     24  C   UNL A   1      33.080  32.820  27.784  1.00  0.00     0.338 C 
ATOM     25  O   UNL A   1      31.991  33.135  27.328  1.00  0.00    -0.246 OA
BRANCH  24  26
ATOM     26  C   UNL A   1      33.957  33.737  28.527  1.00  0.00     0.060 A 
ATOM     27  C   UNL A   1      35.046  34.116  27.737  1.00  0.00     0.016 A 
ATOM     28  C   UNL A   1      34.085  33.333  29.856  1.00  0.00     0.016 A 
ATOM     29  C   UNL A   1      36.262  33.606  28.089  1.00  0.00     0.010 A 
ATOM     30  C   UNL A   1      35.273  32.754  30.180  1.00  0.00     0.010 A 
ATOM     31  C   UNL A   1      36.321  32.846  29.257  1.00  0.00    -0.014 A 
BRANCH  31  32
ATOM     32  C   UNL A   1      37.613  32.391  29.693  1.00  0.00     0.031 A 
ATOM     33  C   UNL A   1      37.716  30.931  29.409  1.00  0.00     0.074 A 
ATOM     34  C   UNL A   1      38.533  33.299  30.065  1.00  0.00     0.049 A 
ATOM     35  N   UNL A   1      37.892  29.959  30.242  1.00  0.00    -0.248 NA
ATOM     36  C   UNL A   1      37.264  30.469  28.071  1.00  0.00     0.031 C 
ATOM     37  C   UNL A   1      38.391  34.765  30.045  1.00  0.00     0.029 A 
ATOM     38  N   UNL A   1      39.851  33.131  30.331  1.00  0.00    -0.354 N 
ATOM     39  C   UNL A   1      37.880  28.814  29.441  1.00  0.00     0.074 A 
ATOM     40  C   UNL A   1      37.167  29.156  28.253  1.00  0.00     0.031 C 
ATOM     41  C   UNL A   1      39.619  35.325  29.986  1.00  0.00     0.029 A 
ATOM     42  C   UNL A   1      40.612  34.271  30.069  1.00  0.00     0.049 A 
ATOM     43  H   UNL A   1      40.233  32.291  30.674  1.00  0.00     0.167 HD
ATOM     44  C   UNL A   1      38.832  27.858  29.613  1.00  0.00     0.034 A 
ATOM     45  C   UNL A   1      41.944  34.302  29.808  1.00  0.00     0.034 A 
ATOM     46  C   UNL A   1      39.408  27.977  30.929  1.00  0.00     0.049 A 
ATOM     47  C   UNL A   1      42.491  32.982  30.202  1.00  0.00     0.074 A 
ATOM     48  C   UNL A   1      38.939  27.867  32.219  1.00  0.00     0.029 A 
ATOM     49  N   UNL A   1      40.568  28.709  30.974  1.00  0.00    -0.354 N 
ATOM     50  N   UNL A   1      42.518  32.549  31.430  1.00  0.00    -0.248 NA
ATOM     51  C   UNL A   1      42.616  31.955  29.176  1.00  0.00     0.031 C 
ATOM     52  C   UNL A   1      39.691  28.811  32.976  1.00  0.00     0.029 A 
ATOM     53  C   UNL A   1      40.640  29.410  32.144  1.00  0.00     0.049 A 
ATOM     54  H   UNL A   1      41.250  28.727  30.265  1.00  0.00     0.167 HD
ATOM     55  C   UNL A   1      42.193  31.204  31.326  1.00  0.00     0.074 A 
ATOM     56  C   UNL A   1      42.432  30.865  29.926  1.00  0.00     0.031 C 
ATOM     57  C   UNL A   1      41.454  30.597  32.302  1.00  0.00     0.034 A 
BRANCH  44  58
ATOM     58  C   UNL A   1      39.615  27.214  28.470  1.00  0.00     0.023 A 
ATOM     59  C   UNL A   1      39.609  25.801  28.446  1.00  0.00     0.012 A 
ATOM     60  C   UNL A   1      40.575  27.850  27.640  1.00  0.00     0.148 A 
ATOM     61  C   UNL A   1      40.558  25.069  27.724  1.00  0.00     0.002 A 
ATOM     62  C   UNL A   1      41.486  27.119  26.885  1.00  0.00     0.091 A 
ATOM     63  F   UNL A   1      40.704  29.174  27.628  1.00  0.00    -0.205 F 
ATOM     64  C   UNL A   1      41.503  25.727  26.950  1.00  0.00     0.022 A 
BRANCH  62  65
ATOM     65  S   UNL A   1      42.725  27.920  25.851  1.00  0.00     0.127 S 
ATOM     66  O   UNL A   1      41.890  28.750  24.988  1.00  0.00    -0.237 OA
ATOM     67  O   UNL A   1      43.509  28.650  26.847  1.00  0.00    -0.237 OA
ATOM     68  O   UNL A   1      43.454  26.847  25.185  1.00  0.00    -0.744 OA
ENDBRANCH  62  65
ENDBRANCH  44  58
BRANCH  45  69
ATOM     69  C   UNL A   1      42.730  35.242  28.972  1.00  0.00     0.023 A 
ATOM     70  C   UNL A   1      42.625  35.179  27.568  1.00  0.00     0.012 A 
ATOM     71  C   UNL A   1      43.372  36.366  29.540  1.00  0.00     0.148 A 
ATOM     72  C   UNL A   1      43.119  36.210  26.758  1.00  0.00     0.002 A 
ATOM     73  C   UNL A   1      43.870  37.385  28.731  1.00  0.00     0.091 A 
ATOM     74  F   UNL A   1      43.413  36.477  30.874  1.00  0.00    -0.205 F 
ATOM     75  C   UNL A   1      43.733  37.316  27.339  1.00  0.00     0.022 A 
BRANCH  73  76
ATOM     76  S   UNL A   1      44.653  38.857  29.406  1.00  0.00     0.127 S 
ATOM     77  O   UNL A   1      43.578  39.420  30.224  1.00  0.00    -0.237 OA
ATOM     78  O   UNL A   1      45.763  38.287  30.165  1.00  0.00    -0.237 OA
ATOM     79  O   UNL A   1      45.026  39.674  28.259  1.00  0.00    -0.744 OA
ENDBRANCH  73  76
ENDBRANCH  45  69
BRANCH  57  80
ATOM     80  C   UNL A   1      41.335  31.312  33.621  1.00  0.00     0.023 A 
ATOM     81  C   UNL A   1      42.354  31.322  34.597  1.00  0.00     0.012 A 
ATOM     82  C   UNL A   1      40.208  32.126  33.804  1.00  0.00     0.148 A 
ATOM     83  C   UNL A   1      42.237  32.117  35.741  1.00  0.00     0.002 A 
ATOM     84  C   UNL A   1      40.120  32.953  34.914  1.00  0.00     0.091 A 
ATOM     85  F   UNL A   1      39.251  32.101  32.864  1.00  0.00    -0.205 F 
ATOM     86  C   UNL A   1      41.126  32.944  35.892  1.00  0.00     0.022 A 
BRANCH  84  87
ATOM     87  S   UNL A   1      38.779  34.129  35.084  1.00  0.00     0.127 S 
ATOM     88  O   UNL A   1      37.611  33.253  35.139  1.00  0.00    -0.237 OA
ATOM     89  O   UNL A   1      39.105  34.797  36.345  1.00  0.00    -0.237 OA
ATOM     90  O   UNL A   1      38.858  34.998  33.915  1.00  0.00    -0.744 OA
ENDBRANCH  84  87
ENDBRANCH  57  80
ENDBRANCH  31  32
ENDBRANCH  24  26
ENDBRANCH  23  24
ENDBRANCH  22  23
ENDBRANCH   1  22
TORSDOF 18
ENDMDL
MODEL 2
REMARK VINA RESULT:     -10.4      5.050     10.007
REMARK SMILES C[NH2+]C[C@H](C)C(=O)Nc1snc(C)c1C(=O)OCCOC(=O)c1ccc(-c2c3nc(c(-c4cccc(S(=O)(=O)[O-])c4F)c4ccc([nH]4)c(-c4cccc(S(=O)(=O)[O-])c4F)c4nc(c(-c5cccc(S(=O)(=O)[O-])c5F)c5ccc2[nH]5)C=C4)C=C3)cc1
REMARK SMILES IDX 18 1 17 2 15 3 16 4 14 5 9 6 10 7 11 8 12 9 13 10 8 11 6 12
REMARK SMILES IDX 7 13 4 15 5 16 3 17 2 18 1 19 19 22 20 23 21 24 22 25 23 26
REMARK SMILES IDX 24 27 85 28 25 29 84 30 26 31 27 32 28 33 78 34 29 35 83 36
REMARK SMILES IDX 77 37 79 38 30 39 82 40 76 41 75 42 31 44 63 45 43 46 62 47
REMARK SMILES IDX 44 48 47 49 61 50 80 51 45 52 46 53 60 55 81 56 48 57 32 58
REMARK SMILES IDX 33 59 41 60 34 61 36 62 42 63 35 64 37 65 38 66 39 67 40 68
REMARK SMILES IDX 64 69 65 70 73 71 66 72 68 73 74 74 67 75 69 76 70 77 71 78
REMARK SMILES IDX 72 79 49 80 50 81 58 82 51 83 53 84 59 85 52 86 54 87 55 88
REMARK SMILES IDX 56 89 57 90
REMARK H PARENT 8 14 2 20 2 21 79 43 47 54
REMARK Flexibility Score: inf
ROOT
ATOM      1  C   UNL A   1      36.577  19.573  25.271  1.00  0.00     0.275 C 
ENDROOT
BRANCH   1   2
ATOM      2  O   UNL A   1      35.368  20.311  24.950  1.00  0.00    -0.458 OA
BRANCH   2   3
ATOM      3  C   UNL A   1      35.123  21.557  25.474  1.00  0.00     0.343 C 
ATOM      4  O   UNL A   1      35.257  21.853  26.661  1.00  0.00    -0.246 OA
BRANCH   3   5
ATOM      5  C   UNL A   1      34.604  22.486  24.483  1.00  0.00     0.117 A 
ATOM      6  C   UNL A   1      33.317  22.981  24.519  1.00  0.00     0.130 A 
ATOM      7  S   UNL A   1      32.931  23.690  23.026  1.00  0.00    -0.017 S 
ATOM      8  N   UNL A   1      34.484  23.714  22.464  1.00  0.00    -0.195 NA
ATOM      9  C   UNL A   1      35.267  23.037  23.314  1.00  0.00     0.068 A 
ATOM     10  C   UNL A   1      36.704  22.928  22.927  1.00  0.00     0.069 C 
BRANCH   6  11
ATOM     11  N   UNL A   1      32.307  22.941  25.441  1.00  0.00    -0.315 N 
ATOM     12  C   UNL A   1      31.775  23.986  26.139  1.00  0.00     0.233 C 
ATOM     13  O   UNL A   1      31.271  23.730  27.241  1.00  0.00    -0.274 OA
ATOM     14  H   UNL A   1      31.919  22.055  25.623  1.00  0.00     0.170 HD
BRANCH  12  15
ATOM     15  C   UNL A   1      31.572  25.398  25.538  1.00  0.00     0.130 C 
ATOM     16  C   UNL A   1      30.232  25.880  25.004  1.00  0.00     0.024 C 
BRANCH  15  17
ATOM     17  C   UNL A   1      32.219  26.510  26.380  1.00  0.00     0.273 C 
BRANCH  17  18
ATOM     18  N   UNL A   1      31.329  27.091  27.390  1.00  0.00    -0.348 N 
ATOM     19  C   UNL A   1      31.571  28.519  27.575  1.00  0.00     0.330 C 
ATOM     20  H   UNL A   1      30.362  26.956  27.093  1.00  0.00     0.346 HD
ATOM     21  H   UNL A   1      31.511  26.624  28.277  1.00  0.00     0.346 HD
ENDBRANCH  17  18
ENDBRANCH  15  17
ENDBRANCH  12  15
ENDBRANCH   6  11
ENDBRANCH   3   5
ENDBRANCH   2   3
ENDBRANCH   1   2
BRANCH   1  22
ATOM     22  C   UNL A   1      37.814  20.058  24.543  1.00  0.00     0.275 C 
BRANCH  22  23
ATOM     23  O   UNL A   1      38.877  20.012  25.474  1.00  0.00    -0.458 OA
BRANCH  23  24
ATOM     24  C   UNL A   1      39.237  21.239  25.903  1.00  0.00     0.338 C 
ATOM     25  O   UNL A   1      38.559  22.256  25.894  1.00  0.00    -0.246 OA
BRANCH  24  26
ATOM     26  C   UNL A   1      40.625  21.179  26.383  1.00  0.00     0.060 A 
ATOM     27  C   UNL A   1      40.655  21.139  27.781  1.00  0.00     0.016 A 
ATOM     28  C   UNL A   1      41.448  22.014  25.628  1.00  0.00     0.016 A 
ATOM     29  C   UNL A   1      41.105  22.262  28.413  1.00  0.00     0.010 A 
ATOM     30  C   UNL A   1      41.828  23.168  26.237  1.00  0.00     0.010 A 
ATOM     31  C   UNL A   1      41.587  23.297  27.610  1.00  0.00    -0.014 A 
BRANCH  31  32
ATOM     32  C   UNL A   1      42.159  24.440  28.267  1.00  0.00     0.031 A 
ATOM     33  C   UNL A   1      41.235  25.596  28.083  1.00  0.00     0.074 A 
ATOM     34  C   UNL A   1      43.236  24.270  29.055  1.00  0.00     0.049 A 
ATOM     35  N   UNL A   1      41.463  26.724  27.493  1.00  0.00    -0.248 NA
ATOM     36  C   UNL A   1      39.789  25.348  28.314  1.00  0.00     0.031 C 
ATOM     37  C   UNL A   1      43.909  23.000  29.374  1.00  0.00     0.029 A 
ATOM     38  N   UNL A   1      43.827  25.143  29.906  1.00  0.00    -0.354 N 
ATOM     39  C   UNL A   1      40.250  27.411  27.587  1.00  0.00     0.074 A 
ATOM     40  C   UNL A   1      39.235  26.424  27.763  1.00  0.00     0.031 C 
ATOM     41  C   UNL A   1      44.581  23.138  30.538  1.00  0.00     0.029 A 
ATOM     42  C   UNL A   1      44.466  24.516  30.977  1.00  0.00     0.049 A 
ATOM     43  H   UNL A   1      43.808  26.119  29.782  1.00  0.00     0.167 HD
ATOM     44  C   UNL A   1      40.240  28.715  27.974  1.00  0.00     0.034 A 
ATOM     45  C   UNL A   1      44.747  25.076  32.180  1.00  0.00     0.034 A 
ATOM     46  C   UNL A   1      41.541  29.297  27.753  1.00  0.00     0.049 A 
ATOM     47  C   UNL A   1      44.584  26.541  32.022  1.00  0.00     0.074 A 
ATOM     48  C   UNL A   1      42.335  29.537  26.654  1.00  0.00     0.029 A 
ATOM     49  N   UNL A   1      42.356  29.292  28.858  1.00  0.00    -0.354 N 
ATOM     50  N   UNL A   1      45.343  27.273  31.257  1.00  0.00    -0.248 NA
ATOM     51  C   UNL A   1      43.303  27.134  32.380  1.00  0.00     0.031 C 
ATOM     52  C   UNL A   1      43.673  29.369  27.112  1.00  0.00     0.029 A 
ATOM     53  C   UNL A   1      43.656  29.106  28.484  1.00  0.00     0.049 A 
ATOM     54  H   UNL A   1      42.048  29.407  29.785  1.00  0.00     0.167 HD
ATOM     55  C   UNL A   1      44.467  28.175  30.670  1.00  0.00     0.074 A 
ATOM     56  C   UNL A   1      43.278  28.154  31.517  1.00  0.00     0.031 C 
ATOM     57  C   UNL A   1      44.668  28.592  29.384  1.00  0.00     0.034 A 
BRANCH  44  58
ATOM     58  C   UNL A   1      39.293  29.290  29.026  1.00  0.00     0.023 A 
ATOM     59  C   UNL A   1      38.656  30.502  28.676  1.00  0.00     0.012 A 
ATOM     60  C   UNL A   1      39.223  28.918  30.394  1.00  0.00     0.148 A 
ATOM     61  C   UNL A   1      38.077  31.338  29.638  1.00  0.00     0.002 A 
ATOM     62  C   UNL A   1      38.603  29.727  31.340  1.00  0.00     0.091 A 
ATOM     63  F   UNL A   1      39.835  27.823  30.841  1.00  0.00    -0.205 F 
ATOM     64  C   UNL A   1      38.059  30.955  30.972  1.00  0.00     0.022 A 
BRANCH  62  65
ATOM     65  S   UNL A   1      38.537  29.273  33.082  1.00  0.00     0.127 S 
ATOM     66  O   UNL A   1      37.412  28.345  33.098  1.00  0.00    -0.237 OA
ATOM     67  O   UNL A   1      39.851  28.662  33.276  1.00  0.00    -0.237 OA
ATOM     68  O   UNL A   1      38.341  30.517  33.818  1.00  0.00    -0.744 OA
ENDBRANCH  62  65
ENDBRANCH  44  58
BRANCH  45  69
ATOM     69  C   UNL A   1      44.841  24.453  33.524  1.00  0.00     0.023 A 
ATOM     70  C   UNL A   1      43.696  23.870  34.102  1.00  0.00     0.012 A 
ATOM     71  C   UNL A   1      46.094  24.193  34.124  1.00  0.00     0.148 A 
ATOM     72  C   UNL A   1      43.797  23.035  35.222  1.00  0.00     0.002 A 
ATOM     73  C   UNL A   1      46.189  23.370  35.243  1.00  0.00     0.091 A 
ATOM     74  F   UNL A   1      47.199  24.679  33.544  1.00  0.00    -0.205 F 
ATOM     75  C   UNL A   1      45.043  22.779  35.788  1.00  0.00     0.022 A 
BRANCH  73  76
ATOM     76  S   UNL A   1      47.764  22.971  36.016  1.00  0.00     0.127 S 
ATOM     77  O   UNL A   1      48.554  22.518  34.870  1.00  0.00    -0.237 OA
ATOM     78  O   UNL A   1      48.168  24.263  36.565  1.00  0.00    -0.237 OA
ATOM     79  O   UNL A   1      47.477  21.932  36.996  1.00  0.00    -0.744 OA
ENDBRANCH  73  76
ENDBRANCH  45  69
BRANCH  57  80
ATOM     80  C   UNL A   1      46.026  28.343  28.783  1.00  0.00     0.023 A 
ATOM     81  C   UNL A   1      47.170  29.102  29.103  1.00  0.00     0.012 A 
ATOM     82  C   UNL A   1      46.167  27.200  27.982  1.00  0.00     0.148 A 
ATOM     83  C   UNL A   1      48.428  28.734  28.616  1.00  0.00     0.002 A 
ATOM     84  C   UNL A   1      47.424  26.809  27.545  1.00  0.00     0.091 A 
ATOM     85  F   UNL A   1      45.065  26.493  27.690  1.00  0.00    -0.205 F 
ATOM     86  C   UNL A   1      48.556  27.578  27.849  1.00  0.00     0.022 A 
BRANCH  84  87
ATOM     87  S   UNL A   1      47.655  25.262  26.671  1.00  0.00     0.127 S 
ATOM     88  O   UNL A   1      46.883  25.483  25.451  1.00  0.00    -0.237 OA
ATOM     89  O   UNL A   1      49.106  25.223  26.481  1.00  0.00    -0.237 OA
ATOM     90  O   UNL A   1      47.146  24.221  27.559  1.00  0.00    -0.744 OA
ENDBRANCH  84  87
ENDBRANCH  57  80
ENDBRANCH  31  32
ENDBRANCH  24  26
ENDBRANCH  23  24
ENDBRANCH  22  23
ENDBRANCH   1  22
TORSDOF 18
ENDMDL
MODEL 3
REMARK VINA RESULT:     -10.0      3.236      7.454
REMARK SMILES C[NH2+]C[C@H](C)C(=O)Nc1snc(C)c1C(=O)OCCOC(=O)c1ccc(-c2c3nc(c(-c4cccc(S(=O)(=O)[O-])c4F)c4ccc([nH]4)c(-c4cccc(S(=O)(=O)[O-])c4F)c4nc(c(-c5cccc(S(=O)(=O)[O-])c5F)c5ccc2[nH]5)C=C4)C=C3)cc1
REMARK SMILES IDX 18 1 17 2 15 3 16 4 14 5 9 6 10 7 11 8 12 9 13 10 8 11 6 12
REMARK SMILES IDX 7 13 4 15 5 16 3 17 2 18 1 19 19 22 20 23 21 24 22 25 23 26
REMARK SMILES IDX 24 27 85 28 25 29 84 30 26 31 27 32 28 33 78 34 29 35 83 36
REMARK SMILES IDX 77 37 79 38 30 39 82 40 76 41 75 42 31 44 63 45 43 46 62 47
REMARK SMILES IDX 44 48 47 49 61 50 80 51 45 52 46 53 60 55 81 56 48 57 32 58
REMARK SMILES IDX 33 59 41 60 34 61 36 62 42 63 35 64 37 65 38 66 39 67 40 68
REMARK SMILES IDX 64 69 65 70 73 71 66 72 68 73 74 74 67 75 69 76 70 77 71 78
REMARK SMILES IDX 72 79 49 80 50 81 58 82 51 83 53 84 59 85 52 86 54 87 55 88
REMARK SMILES IDX 56 89 57 90
REMARK H PARENT 8 14 2 20 2 21 79 43 47 54
REMARK Flexibility Score: inf
ROOT
ATOM      1  C   UNL A   1      36.711  23.549  26.010  1.00  0.00     0.275 C 
ENDROOT
BRANCH   1   2
ATOM      2  O   UNL A   1      36.178  24.029  24.747  1.00  0.00    -0.458 OA
BRANCH   2   3
ATOM      3  C   UNL A   1      35.938  23.177  23.696  1.00  0.00     0.343 C 
ATOM      4  O   UNL A   1      36.714  22.988  22.760  1.00  0.00    -0.246 OA
BRANCH   3   5
ATOM      5  C   UNL A   1      34.616  22.573  23.760  1.00  0.00     0.117 A 
ATOM      6  C   UNL A   1      33.501  23.142  23.181  1.00  0.00     0.130 A 
ATOM      7  S   UNL A   1      32.098  22.404  23.786  1.00  0.00    -0.017 S 
ATOM      8  N   UNL A   1      32.887  21.130  24.483  1.00  0.00    -0.195 NA
ATOM      9  C   UNL A   1      34.207  21.343  24.416  1.00  0.00     0.068 A 
ATOM     10  C   UNL A   1      35.067  20.298  25.043  1.00  0.00     0.069 C 
BRANCH   6  11
ATOM     11  N   UNL A   1      33.304  24.189  22.323  1.00  0.00    -0.315 N 
ATOM     12  C   UNL A   1      32.685  25.377  22.586  1.00  0.00     0.233 C 
ATOM     13  O   UNL A   1      32.155  25.961  21.631  1.00  0.00    -0.274 OA
ATOM     14  H   UNL A   1      33.649  24.073  21.408  1.00  0.00     0.170 HD
BRANCH  12  15
ATOM     15  C   UNL A   1      32.806  26.120  23.939  1.00  0.00     0.130 C 
ATOM     16  C   UNL A   1      33.724  27.316  24.140  1.00  0.00     0.024 C 
BRANCH  15  17
ATOM     17  C   UNL A   1      31.445  26.401  24.596  1.00  0.00     0.273 C 
BRANCH  17  18
ATOM     18  N   UNL A   1      30.319  25.709  23.962  1.00  0.00    -0.348 N 
ATOM     19  C   UNL A   1      29.133  26.556  23.879  1.00  0.00     0.330 C 
ATOM     20  H   UNL A   1      30.592  25.431  23.019  1.00  0.00     0.346 HD
ATOM     21  H   UNL A   1      30.086  24.897  24.533  1.00  0.00     0.346 HD
ENDBRANCH  17  18
ENDBRANCH  15  17
ENDBRANCH  12  15
ENDBRANCH   6  11
ENDBRANCH   3   5
ENDBRANCH   2   3
ENDBRANCH   1   2
BRANCH   1  22
ATOM     22  C   UNL A   1      38.195  23.242  25.981  1.00  0.00     0.275 C 
BRANCH  22  23
ATOM     23  O   UNL A   1      38.849  24.347  26.575  1.00  0.00    -0.458 OA
BRANCH  23  24
ATOM     24  C   UNL A   1      40.006  23.998  27.173  1.00  0.00     0.338 C 
ATOM     25  O   UNL A   1      40.205  23.033  27.895  1.00  0.00    -0.246 OA
BRANCH  24  26
ATOM     26  C   UNL A   1      41.029  24.998  26.834  1.00  0.00     0.060 A 
ATOM     27  C   UNL A   1      42.055  24.985  27.784  1.00  0.00     0.016 A 
ATOM     28  C   UNL A   1      40.440  26.172  26.365  1.00  0.00     0.016 A 
ATOM     29  C   UNL A   1      42.122  26.061  28.622  1.00  0.00     0.010 A 
ATOM     30  C   UNL A   1      40.443  27.216  27.236  1.00  0.00     0.010 A 
ATOM     31  C   UNL A   1      41.235  27.111  28.385  1.00  0.00    -0.014 A 
BRANCH  31  32
ATOM     32  C   UNL A   1      41.366  28.291  29.195  1.00  0.00     0.031 A 
ATOM     33  C   UNL A   1      42.470  29.123  28.635  1.00  0.00     0.074 A 
ATOM     34  C   UNL A   1      40.429  28.553  30.123  1.00  0.00     0.049 A 
ATOM     35  N   UNL A   1      43.573  29.485  29.204  1.00  0.00    -0.248 NA
ATOM     36  C   UNL A   1      42.489  29.319  27.163  1.00  0.00     0.031 C 
ATOM     37  C   UNL A   1      39.213  27.770  30.401  1.00  0.00     0.029 A 
ATOM     38  N   UNL A   1      40.238  29.672  30.864  1.00  0.00    -0.354 N 
ATOM     39  C   UNL A   1      44.242  30.218  28.219  1.00  0.00     0.074 A 
ATOM     40  C   UNL A   1      43.718  29.787  26.964  1.00  0.00     0.031 C 
ATOM     41  C   UNL A   1      38.301  28.570  30.996  1.00  0.00     0.029 A 
ATOM     42  C   UNL A   1      38.905  29.868  31.227  1.00  0.00     0.049 A 
ATOM     43  H   UNL A   1      40.966  30.283  31.120  1.00  0.00     0.167 HD
ATOM     44  C   UNL A   1      44.811  31.412  28.535  1.00  0.00     0.034 A 
ATOM     45  C   UNL A   1      38.332  31.053  31.559  1.00  0.00     0.034 A 
ATOM     46  C   UNL A   1      45.036  31.482  29.957  1.00  0.00     0.049 A 
ATOM     47  C   UNL A   1      39.436  32.009  31.812  1.00  0.00     0.074 A 
ATOM     48  C   UNL A   1      45.796  30.780  30.867  1.00  0.00     0.029 A 
ATOM     49  N   UNL A   1      44.040  32.118  30.656  1.00  0.00    -0.354 N 
ATOM     50  N   UNL A   1      40.282  31.891  32.796  1.00  0.00    -0.248 NA
ATOM     51  C   UNL A   1      39.870  32.866  30.717  1.00  0.00     0.031 C 
ATOM     52  C   UNL A   1      45.035  30.778  32.071  1.00  0.00     0.029 A 
ATOM     53  C   UNL A   1      43.878  31.536  31.881  1.00  0.00     0.049 A 
ATOM     54  H   UNL A   1      43.518  32.883  30.323  1.00  0.00     0.167 HD
ATOM     55  C   UNL A   1      41.502  32.259  32.244  1.00  0.00     0.074 A 
ATOM     56  C   UNL A   1      41.160  33.002  31.034  1.00  0.00     0.031 C 
ATOM     57  C   UNL A   1      42.652  31.641  32.645  1.00  0.00     0.034 A 
BRANCH  44  58
ATOM     58  C   UNL A   1      44.651  32.684  27.703  1.00  0.00     0.023 A 
ATOM     59  C   UNL A   1      45.698  32.953  26.793  1.00  0.00     0.012 A 
ATOM     60  C   UNL A   1      43.752  33.752  27.958  1.00  0.00     0.148 A 
ATOM     61  C   UNL A   1      45.897  34.228  26.251  1.00  0.00     0.002 A 
ATOM     62  C   UNL A   1      43.924  35.005  27.378  1.00  0.00     0.091 A 
ATOM     63  F   UNL A   1      42.763  33.623  28.839  1.00  0.00    -0.205 F 
ATOM     64  C   UNL A   1      45.015  35.257  26.550  1.00  0.00     0.022 A 
BRANCH  62  65
ATOM     65  S   UNL A   1      42.802  36.373  27.719  1.00  0.00     0.127 S 
ATOM     66  O   UNL A   1      43.346  37.417  26.858  1.00  0.00    -0.237 OA
ATOM     67  O   UNL A   1      41.520  35.815  27.288  1.00  0.00    -0.237 OA
ATOM     68  O   UNL A   1      42.892  36.623  29.153  1.00  0.00    -0.744 OA
ENDBRANCH  62  65
ENDBRANCH  44  58
BRANCH  45  69
ATOM     69  C   UNL A   1      36.935  31.520  31.380  1.00  0.00     0.023 A 
ATOM     70  C   UNL A   1      36.211  31.990  32.494  1.00  0.00     0.012 A 
ATOM     71  C   UNL A   1      36.401  31.754  30.093  1.00  0.00     0.148 A 
ATOM     72  C   UNL A   1      35.010  32.693  32.332  1.00  0.00     0.002 A 
ATOM     73  C   UNL A   1      35.201  32.445  29.937  1.00  0.00     0.091 A 
ATOM     74  F   UNL A   1      37.113  31.379  29.022  1.00  0.00    -0.205 F 
ATOM     75  C   UNL A   1      34.510  32.927  31.054  1.00  0.00     0.022 A 
BRANCH  73  76
ATOM     76  S   UNL A   1      34.503  32.810  28.319  1.00  0.00     0.127 S 
ATOM     77  O   UNL A   1      34.011  31.496  27.902  1.00  0.00    -0.237 OA
ATOM     78  O   UNL A   1      33.459  33.775  28.652  1.00  0.00    -0.237 OA
ATOM     79  O   UNL A   1      35.603  33.323  27.514  1.00  0.00    -0.744 OA
ENDBRANCH  73  76
ENDBRANCH  45  69
BRANCH  57  80
ATOM     80  C   UNL A   1      42.599  30.850  33.925  1.00  0.00     0.023 A 
ATOM     81  C   UNL A   1      42.624  31.440  35.207  1.00  0.00     0.012 A 
ATOM     82  C   UNL A   1      42.363  29.472  33.813  1.00  0.00     0.148 A 
ATOM     83  C   UNL A   1      42.434  30.662  36.353  1.00  0.00     0.002 A 
ATOM     84  C   UNL A   1      42.122  28.713  34.949  1.00  0.00     0.091 A 
ATOM     85  F   UNL A   1      42.344  28.933  32.585  1.00  0.00    -0.205 F 
ATOM     86  C   UNL A   1      42.168  29.300  36.222  1.00  0.00     0.022 A 
BRANCH  84  87
ATOM     87  S   UNL A   1      41.645  26.991  34.822  1.00  0.00     0.127 S 
ATOM     88  O   UNL A   1      41.331  26.659  36.209  1.00  0.00    -0.237 OA
ATOM     89  O   UNL A   1      40.487  27.051  33.928  1.00  0.00    -0.237 OA
ATOM     90  O   UNL A   1      42.796  26.298  34.254  1.00  0.00    -0.744 OA
ENDBRANCH  84  87
ENDBRANCH  57  80
ENDBRANCH  31  32
ENDBRANCH  24  26
ENDBRANCH  23  24
ENDBRANCH  22  23
ENDBRANCH   1  22
TORSDOF 18
ENDMDL
