MODEL 1
REMARK VINA RESULT:     -11.0      0.000      0.000
REMARK SMILES COCCS(=O)(=O)N1C[C@@H](C(=O)OCCOC(=O)c2ccc(-c3c4nc(c(-c5cccc(S(=O)(=O)[O-])c5F)c5ccc([nH]5)c(-c5cccc(S(=O)(=O)[O-])c5F)c5nc(c(-c6cccc(S(=O)(=O)[O-])c6F)c6ccc3[nH]6)C=C5)C=C4)cc2)c2ccccc21
REMARK SMILES IDX 14 1 13 2 11 3 12 4 10 5 8 6 9 7 87 8 82 9 86 10 83 11 85 12
REMARK SMILES IDX 84 13 5 14 6 15 7 16 4 17 3 18 2 19 1 20 15 21 16 22 17 23
REMARK SMILES IDX 18 24 19 25 20 26 81 27 21 28 80 29 22 30 23 31 24 32 74 33
REMARK SMILES IDX 25 34 79 35 73 36 75 37 26 38 78 39 72 40 71 41 27 43 59 44
REMARK SMILES IDX 39 45 58 46 40 47 43 48 57 49 76 50 41 51 42 52 56 54 77 55
REMARK SMILES IDX 44 56 28 57 29 58 37 59 30 60 32 61 38 62 31 63 33 64 34 65
REMARK SMILES IDX 35 66 36 67 60 68 61 69 69 70 62 71 64 72 70 73 63 74 65 75
REMARK SMILES IDX 66 76 67 77 68 78 45 79 46 80 54 81 47 82 49 83 55 84 48 85
REMARK SMILES IDX 50 86 51 87 52 88 53 89
REMARK H PARENT 75 42 43 53
REMARK Flexibility Score: inf
ROOT
ATOM      1  C   UNL A   1      34.937  20.689  25.311  1.00  0.00     0.274 C 
ENDROOT
BRANCH   1   2
ATOM      2  O   UNL A   1      34.274  21.399  24.246  1.00  0.00    -0.462 OA
BRANCH   2   3
ATOM      3  C   UNL A   1      32.997  21.023  23.979  1.00  0.00     0.315 C 
ATOM      4  O   UNL A   1      32.593  19.865  24.008  1.00  0.00    -0.251 OA
BRANCH   3   5
ATOM      5  C   UNL A   1      32.083  22.163  23.615  1.00  0.00     0.152 C 
ATOM      6  N   UNL A   1      32.423  24.493  23.182  1.00  0.00    -0.269 N 
ATOM      7  C   UNL A   1      32.860  23.156  22.726  1.00  0.00     0.155 C 
ATOM      8  C   UNL A   1      31.827  24.384  24.461  1.00  0.00     0.056 A 
ATOM      9  C   UNL A   1      31.553  23.041  24.719  1.00  0.00    -0.008 A 
ATOM     10  C   UNL A   1      31.420  25.380  25.328  1.00  0.00     0.027 A 
ATOM     11  C   UNL A   1      30.760  22.678  25.799  1.00  0.00     0.007 A 
ATOM     12  C   UNL A   1      30.641  25.020  26.430  1.00  0.00     0.002 A 
ATOM     13  C   UNL A   1      30.295  23.681  26.652  1.00  0.00     0.000 A 
BRANCH   6  14
ATOM     14  S   UNL A   1      32.821  25.876  22.379  1.00  0.00     0.237 S 
ATOM     15  O   UNL A   1      33.430  25.498  21.117  1.00  0.00    -0.206 OA
ATOM     16  O   UNL A   1      33.540  26.745  23.291  1.00  0.00    -0.206 OA
BRANCH  14  17
ATOM     17  C   UNL A   1      31.266  26.680  21.987  1.00  0.00     0.188 C 
BRANCH  17  18
ATOM     18  C   UNL A   1      31.155  28.081  22.548  1.00  0.00     0.178 C 
BRANCH  18  19
ATOM     19  O   UNL A   1      30.077  28.769  21.917  1.00  0.00    -0.384 OA
ATOM     20  C   UNL A   1      28.933  28.871  22.754  1.00  0.00     0.194 C 
ENDBRANCH  18  19
ENDBRANCH  17  18
ENDBRANCH  14  17
ENDBRANCH   6  14
ENDBRANCH   3   5
ENDBRANCH   2   3
ENDBRANCH   1   2
BRANCH   1  21
ATOM     21  C   UNL A   1      36.415  20.486  24.989  1.00  0.00     0.275 C 
BRANCH  21  22
ATOM     22  O   UNL A   1      37.221  21.426  25.720  1.00  0.00    -0.458 OA
BRANCH  22  23
ATOM     23  C   UNL A   1      38.502  21.058  25.932  1.00  0.00     0.338 C 
ATOM     24  O   UNL A   1      38.988  19.940  25.822  1.00  0.00    -0.246 OA
BRANCH  23  25
ATOM     25  C   UNL A   1      39.294  22.234  26.303  1.00  0.00     0.060 A 
ATOM     26  C   UNL A   1      40.388  22.087  27.159  1.00  0.00     0.016 A 
ATOM     27  C   UNL A   1      38.888  23.496  25.873  1.00  0.00     0.016 A 
ATOM     28  C   UNL A   1      41.070  23.215  27.613  1.00  0.00     0.010 A 
ATOM     29  C   UNL A   1      39.599  24.620  26.295  1.00  0.00     0.010 A 
ATOM     30  C   UNL A   1      40.683  24.491  27.181  1.00  0.00    -0.014 A 
BRANCH  30  31
ATOM     31  C   UNL A   1      41.401  25.703  27.645  1.00  0.00     0.031 A 
ATOM     32  C   UNL A   1      40.670  26.760  28.424  1.00  0.00     0.074 A 
ATOM     33  C   UNL A   1      42.692  25.884  27.303  1.00  0.00     0.049 A 
ATOM     34  N   UNL A   1      41.076  27.951  28.781  1.00  0.00    -0.248 NA
ATOM     35  C   UNL A   1      39.298  26.440  28.850  1.00  0.00     0.031 C 
ATOM     36  C   UNL A   1      43.503  24.932  26.543  1.00  0.00     0.029 A 
ATOM     37  N   UNL A   1      43.532  26.946  27.517  1.00  0.00    -0.354 N 
ATOM     38  C   UNL A   1      39.999  28.542  29.428  1.00  0.00     0.074 A 
ATOM     39  C   UNL A   1      38.920  27.576  29.420  1.00  0.00     0.031 C 
ATOM     40  C   UNL A   1      44.718  25.464  26.332  1.00  0.00     0.029 A 
ATOM     41  C   UNL A   1      44.754  26.808  26.900  1.00  0.00     0.049 A 
ATOM     42  H   UNL A   1      43.287  27.730  28.060  1.00  0.00     0.167 HD
ATOM     43  C   UNL A   1      39.919  29.772  29.989  1.00  0.00     0.034 A 
ATOM     44  C   UNL A   1      45.774  27.678  26.772  1.00  0.00     0.034 A 
ATOM     45  C   UNL A   1      41.009  30.711  30.033  1.00  0.00     0.049 A 
ATOM     46  C   UNL A   1      45.656  29.041  27.396  1.00  0.00     0.074 A 
ATOM     47  C   UNL A   1      41.045  31.958  30.634  1.00  0.00     0.029 A 
ATOM     48  N   UNL A   1      42.250  30.511  29.450  1.00  0.00    -0.354 N 
ATOM     49  N   UNL A   1      44.670  29.544  28.097  1.00  0.00    -0.248 NA
ATOM     50  C   UNL A   1      46.801  29.949  27.229  1.00  0.00     0.031 C 
ATOM     51  C   UNL A   1      42.308  32.516  30.403  1.00  0.00     0.029 A 
ATOM     52  C   UNL A   1      43.059  31.614  29.668  1.00  0.00     0.049 A 
ATOM     53  H   UNL A   1      42.517  29.704  28.954  1.00  0.00     0.167 HD
ATOM     54  C   UNL A   1      45.081  30.817  28.475  1.00  0.00     0.074 A 
ATOM     55  C   UNL A   1      46.417  30.998  27.945  1.00  0.00     0.031 C 
ATOM     56  C   UNL A   1      44.406  31.758  29.179  1.00  0.00     0.034 A 
BRANCH  43  57
ATOM     57  C   UNL A   1      38.620  30.164  30.639  1.00  0.00     0.023 A 
ATOM     58  C   UNL A   1      38.392  29.831  31.989  1.00  0.00     0.012 A 
ATOM     59  C   UNL A   1      37.656  30.915  29.939  1.00  0.00     0.148 A 
ATOM     60  C   UNL A   1      37.214  30.219  32.627  1.00  0.00     0.002 A 
ATOM     61  C   UNL A   1      36.499  31.328  30.591  1.00  0.00     0.091 A 
ATOM     62  F   UNL A   1      37.879  31.200  28.648  1.00  0.00    -0.205 F 
ATOM     63  C   UNL A   1      36.273  30.975  31.932  1.00  0.00     0.022 A 
BRANCH  61  64
ATOM     64  S   UNL A   1      35.262  32.363  29.798  1.00  0.00     0.127 S 
ATOM     65  O   UNL A   1      34.732  31.460  28.779  1.00  0.00    -0.237 OA
ATOM     66  O   UNL A   1      34.341  32.648  30.899  1.00  0.00    -0.237 OA
ATOM     67  O   UNL A   1      35.981  33.526  29.295  1.00  0.00    -0.744 OA
ENDBRANCH  61  64
ENDBRANCH  43  57
BRANCH  44  68
ATOM     68  C   UNL A   1      47.007  27.269  26.042  1.00  0.00     0.023 A 
ATOM     69  C   UNL A   1      47.152  27.615  24.686  1.00  0.00     0.012 A 
ATOM     70  C   UNL A   1      48.053  26.586  26.693  1.00  0.00     0.148 A 
ATOM     71  C   UNL A   1      48.308  27.273  23.985  1.00  0.00     0.002 A 
ATOM     72  C   UNL A   1      49.225  26.296  26.004  1.00  0.00     0.091 A 
ATOM     73  F   UNL A   1      47.888  26.245  27.979  1.00  0.00    -0.205 F 
ATOM     74  C   UNL A   1      49.349  26.626  24.646  1.00  0.00     0.022 A 
BRANCH  72  75
ATOM     75  S   UNL A   1      50.662  25.590  26.819  1.00  0.00     0.127 S 
ATOM     76  O   UNL A   1      51.541  25.312  25.687  1.00  0.00    -0.237 OA
ATOM     77  O   UNL A   1      51.097  26.689  27.682  1.00  0.00    -0.237 OA
ATOM     78  O   UNL A   1      50.165  24.427  27.542  1.00  0.00    -0.744 OA
ENDBRANCH  72  75
ENDBRANCH  44  68
BRANCH  56  79
ATOM     79  C   UNL A   1      45.103  33.067  29.438  1.00  0.00     0.023 A 
ATOM     80  C   UNL A   1      45.925  33.202  30.573  1.00  0.00     0.012 A 
ATOM     81  C   UNL A   1      45.007  34.133  28.521  1.00  0.00     0.148 A 
ATOM     82  C   UNL A   1      46.622  34.387  30.806  1.00  0.00     0.002 A 
ATOM     83  C   UNL A   1      45.737  35.295  28.738  1.00  0.00     0.091 A 
ATOM     84  F   UNL A   1      44.201  33.991  27.457  1.00  0.00    -0.205 F 
ATOM     85  C   UNL A   1      46.538  35.427  29.884  1.00  0.00     0.022 A 
BRANCH  83  86
ATOM     86  S   UNL A   1      45.755  36.650  27.558  1.00  0.00     0.127 S 
ATOM     87  O   UNL A   1      44.345  36.736  27.181  1.00  0.00    -0.237 OA
ATOM     88  O   UNL A   1      46.238  37.767  28.371  1.00  0.00    -0.237 OA
ATOM     89  O   UNL A   1      46.667  36.242  26.497  1.00  0.00    -0.744 OA
ENDBRANCH  83  86
ENDBRANCH  56  79
ENDBRANCH  30  31
ENDBRANCH  23  25
ENDBRANCH  22  23
ENDBRANCH  21  22
ENDBRANCH   1  21
TORSDOF 18
ENDMDL
MODEL 2
REMARK VINA RESULT:     -10.9      5.731     10.390
REMARK SMILES COCCS(=O)(=O)N1C[C@@H](C(=O)OCCOC(=O)c2ccc(-c3c4nc(c(-c5cccc(S(=O)(=O)[O-])c5F)c5ccc([nH]5)c(-c5cccc(S(=O)(=O)[O-])c5F)c5nc(c(-c6cccc(S(=O)(=O)[O-])c6F)c6ccc3[nH]6)C=C5)C=C4)cc2)c2ccccc21
REMARK SMILES IDX 14 1 13 2 11 3 12 4 10 5 8 6 9 7 87 8 82 9 86 10 83 11 85 12
REMARK SMILES IDX 84 13 5 14 6 15 7 16 4 17 3 18 2 19 1 20 15 21 16 22 17 23
REMARK SMILES IDX 18 24 19 25 20 26 81 27 21 28 80 29 22 30 23 31 24 32 74 33
REMARK SMILES IDX 25 34 79 35 73 36 75 37 26 38 78 39 72 40 71 41 27 43 59 44
REMARK SMILES IDX 39 45 58 46 40 47 43 48 57 49 76 50 41 51 42 52 56 54 77 55
REMARK SMILES IDX 44 56 28 57 29 58 37 59 30 60 32 61 38 62 31 63 33 64 34 65
REMARK SMILES IDX 35 66 36 67 60 68 61 69 69 70 62 71 64 72 70 73 63 74 65 75
REMARK SMILES IDX 66 76 67 77 68 78 45 79 46 80 54 81 47 82 49 83 55 84 48 85
REMARK SMILES IDX 50 86 51 87 52 88 53 89
REMARK H PARENT 75 42 43 53
REMARK Flexibility Score: inf
ROOT
ATOM      1  C   UNL A   1      33.733  34.388  28.822  1.00  0.00     0.274 C 
ENDROOT
BRANCH   1   2
ATOM      2  O   UNL A   1      34.928  34.365  29.627  1.00  0.00    -0.462 OA
BRANCH   2   3
ATOM      3  C   UNL A   1      34.784  33.911  30.900  1.00  0.00     0.315 C 
ATOM      4  O   UNL A   1      33.767  34.041  31.573  1.00  0.00    -0.251 OA
BRANCH   3   5
ATOM      5  C   UNL A   1      36.009  33.230  31.451  1.00  0.00     0.152 C 
ATOM      6  N   UNL A   1      37.572  33.768  33.183  1.00  0.00    -0.269 N 
ATOM      7  C   UNL A   1      36.126  33.563  32.953  1.00  0.00     0.155 C 
ATOM      8  C   UNL A   1      38.219  33.993  31.944  1.00  0.00     0.056 A 
ATOM      9  C   UNL A   1      37.358  33.626  30.911  1.00  0.00    -0.008 A 
ATOM     10  C   UNL A   1      39.521  34.380  31.691  1.00  0.00     0.027 A 
ATOM     11  C   UNL A   1      37.823  33.527  29.606  1.00  0.00     0.007 A 
ATOM     12  C   UNL A   1      39.990  34.305  30.378  1.00  0.00     0.002 A 
ATOM     13  C   UNL A   1      39.153  33.861  29.346  1.00  0.00     0.000 A 
BRANCH   6  14
ATOM     14  S   UNL A   1      38.215  33.934  34.691  1.00  0.00     0.237 S 
ATOM     15  O   UNL A   1      38.597  35.324  34.861  1.00  0.00    -0.206 OA
ATOM     16  O   UNL A   1      39.202  32.890  34.887  1.00  0.00    -0.206 OA
BRANCH  14  17
ATOM     17  C   UNL A   1      36.870  33.621  35.835  1.00  0.00     0.188 C 
BRANCH  17  18
ATOM     18  C   UNL A   1      37.326  33.441  37.267  1.00  0.00     0.178 C 
BRANCH  18  19
ATOM     19  O   UNL A   1      37.004  32.126  37.714  1.00  0.00    -0.384 OA
ATOM     20  C   UNL A   1      37.169  31.974  39.118  1.00  0.00     0.194 C 
ENDBRANCH  18  19
ENDBRANCH  17  18
ENDBRANCH  14  17
ENDBRANCH   6  14
ENDBRANCH   3   5
ENDBRANCH   2   3
ENDBRANCH   1   2
BRANCH   1  21
ATOM     21  C   UNL A   1      33.425  32.999  28.269  1.00  0.00     0.275 C 
BRANCH  21  22
ATOM     22  O   UNL A   1      34.609  32.413  27.701  1.00  0.00    -0.458 OA
BRANCH  22  23
ATOM     23  C   UNL A   1      34.622  31.065  27.641  1.00  0.00     0.338 C 
ATOM     24  O   UNL A   1      33.776  30.328  27.152  1.00  0.00    -0.246 OA
BRANCH  23  25
ATOM     25  C   UNL A   1      35.860  30.560  28.242  1.00  0.00     0.060 A 
ATOM     26  C   UNL A   1      37.070  30.711  27.561  1.00  0.00     0.016 A 
ATOM     27  C   UNL A   1      35.800  29.853  29.441  1.00  0.00     0.016 A 
ATOM     28  C   UNL A   1      38.230  30.128  28.068  1.00  0.00     0.010 A 
ATOM     29  C   UNL A   1      36.970  29.306  29.969  1.00  0.00     0.010 A 
ATOM     30  C   UNL A   1      38.190  29.423  29.279  1.00  0.00    -0.014 A 
BRANCH  30  31
ATOM     31  C   UNL A   1      39.414  28.802  29.841  1.00  0.00     0.031 A 
ATOM     32  C   UNL A   1      40.073  29.397  31.054  1.00  0.00     0.074 A 
ATOM     33  C   UNL A   1      39.971  27.747  29.217  1.00  0.00     0.049 A 
ATOM     34  N   UNL A   1      41.223  29.097  31.599  1.00  0.00    -0.248 NA
ATOM     35  C   UNL A   1      39.345  30.478  31.740  1.00  0.00     0.031 C 
ATOM     36  C   UNL A   1      39.428  27.089  28.028  1.00  0.00     0.029 A 
ATOM     37  N   UNL A   1      41.136  27.069  29.473  1.00  0.00    -0.354 N 
ATOM     38  C   UNL A   1      41.384  29.981  32.659  1.00  0.00     0.074 A 
ATOM     39  C   UNL A   1      40.209  30.826  32.685  1.00  0.00     0.031 C 
ATOM     40  C   UNL A   1      40.271  26.117  27.642  1.00  0.00     0.029 A 
ATOM     41  C   UNL A   1      41.432  26.116  28.526  1.00  0.00     0.049 A 
ATOM     42  H   UNL A   1      41.704  27.247  30.257  1.00  0.00     0.167 HD
ATOM     43  C   UNL A   1      42.410  30.071  33.537  1.00  0.00     0.034 A 
ATOM     44  C   UNL A   1      42.532  25.355  28.364  1.00  0.00     0.034 A 
ATOM     45  C   UNL A   1      43.555  29.199  33.533  1.00  0.00     0.049 A 
ATOM     46  C   UNL A   1      43.662  25.482  29.348  1.00  0.00     0.074 A 
ATOM     47  C   UNL A   1      44.617  29.171  34.420  1.00  0.00     0.029 A 
ATOM     48  N   UNL A   1      43.791  28.206  32.595  1.00  0.00    -0.354 N 
ATOM     49  N   UNL A   1      43.749  26.248  30.407  1.00  0.00    -0.248 NA
ATOM     50  C   UNL A   1      44.835  24.623  29.127  1.00  0.00     0.031 C 
ATOM     51  C   UNL A   1      45.502  28.167  34.010  1.00  0.00     0.029 A 
ATOM     52  C   UNL A   1      44.985  27.564  32.875  1.00  0.00     0.049 A 
ATOM     53  H   UNL A   1      43.196  27.989  31.841  1.00  0.00     0.167 HD
ATOM     54  C   UNL A   1      44.975  25.951  30.993  1.00  0.00     0.074 A 
ATOM     55  C   UNL A   1      45.583  24.915  30.183  1.00  0.00     0.031 C 
ATOM     56  C   UNL A   1      45.553  26.499  32.089  1.00  0.00     0.034 A 
BRANCH  43  57
ATOM     57  C   UNL A   1      42.328  31.127  34.606  1.00  0.00     0.023 A 
ATOM     58  C   UNL A   1      41.878  30.776  35.893  1.00  0.00     0.012 A 
ATOM     59  C   UNL A   1      42.756  32.445  34.358  1.00  0.00     0.148 A 
ATOM     60  C   UNL A   1      41.832  31.726  36.913  1.00  0.00     0.002 A 
ATOM     61  C   UNL A   1      42.740  33.379  35.388  1.00  0.00     0.091 A 
ATOM     62  F   UNL A   1      43.157  32.768  33.119  1.00  0.00    -0.205 F 
ATOM     63  C   UNL A   1      42.272  33.024  36.664  1.00  0.00     0.022 A 
BRANCH  61  64
ATOM     64  S   UNL A   1      43.352  35.057  35.179  1.00  0.00     0.127 S 
ATOM     65  O   UNL A   1      44.719  34.816  34.721  1.00  0.00    -0.237 OA
ATOM     66  O   UNL A   1      42.452  35.592  34.157  1.00  0.00    -0.237 OA
ATOM     67  O   UNL A   1      43.228  35.689  36.485  1.00  0.00    -0.744 OA
ENDBRANCH  61  64
ENDBRANCH  43  57
BRANCH  44  68
ATOM     68  C   UNL A   1      42.598  24.385  27.236  1.00  0.00     0.023 A 
ATOM     69  C   UNL A   1      43.270  24.747  26.054  1.00  0.00     0.012 A 
ATOM     70  C   UNL A   1      42.046  23.093  27.344  1.00  0.00     0.148 A 
ATOM     71  C   UNL A   1      43.376  23.848  24.993  1.00  0.00     0.002 A 
ATOM     72  C   UNL A   1      42.201  22.184  26.305  1.00  0.00     0.091 A 
ATOM     73  F   UNL A   1      41.389  22.773  28.469  1.00  0.00    -0.205 F 
ATOM     74  C   UNL A   1      42.854  22.564  25.122  1.00  0.00     0.022 A 
BRANCH  72  75
ATOM     75  S   UNL A   1      41.681  20.470  26.448  1.00  0.00     0.127 S 
ATOM     76  O   UNL A   1      42.403  19.845  25.344  1.00  0.00    -0.237 OA
ATOM     77  O   UNL A   1      42.164  20.112  27.782  1.00  0.00    -0.237 OA
ATOM     78  O   UNL A   1      40.229  20.496  26.328  1.00  0.00    -0.744 OA
ENDBRANCH  72  75
ENDBRANCH  44  68
BRANCH  56  79
ATOM     79  C   UNL A   1      46.907  25.981  32.495  1.00  0.00     0.023 A 
ATOM     80  C   UNL A   1      48.065  26.563  31.944  1.00  0.00     0.012 A 
ATOM     81  C   UNL A   1      47.035  24.975  33.473  1.00  0.00     0.148 A 
ATOM     82  C   UNL A   1      49.331  26.136  32.343  1.00  0.00     0.002 A 
ATOM     83  C   UNL A   1      48.300  24.583  33.895  1.00  0.00     0.091 A 
ATOM     84  F   UNL A   1      45.919  24.418  33.969  1.00  0.00    -0.205 F 
ATOM     85  C   UNL A   1      49.448  25.156  33.326  1.00  0.00     0.022 A 
BRANCH  83  86
ATOM     86  S   UNL A   1      48.542  23.391  35.217  1.00  0.00     0.127 S 
ATOM     87  O   UNL A   1      47.776  23.993  36.307  1.00  0.00    -0.237 OA
ATOM     88  O   UNL A   1      47.951  22.175  34.655  1.00  0.00    -0.237 OA
ATOM     89  O   UNL A   1      49.982  23.316  35.428  1.00  0.00    -0.744 OA
ENDBRANCH  83  86
ENDBRANCH  56  79
ENDBRANCH  30  31
ENDBRANCH  23  25
ENDBRANCH  22  23
ENDBRANCH  21  22
ENDBRANCH   1  21
TORSDOF 18
ENDMDL
MODEL 3
REMARK VINA RESULT:     -10.9      1.889      2.361
REMARK SMILES COCCS(=O)(=O)N1C[C@@H](C(=O)OCCOC(=O)c2ccc(-c3c4nc(c(-c5cccc(S(=O)(=O)[O-])c5F)c5ccc([nH]5)c(-c5cccc(S(=O)(=O)[O-])c5F)c5nc(c(-c6cccc(S(=O)(=O)[O-])c6F)c6ccc3[nH]6)C=C5)C=C4)cc2)c2ccccc21
REMARK SMILES IDX 14 1 13 2 11 3 12 4 10 5 8 6 9 7 87 8 82 9 86 10 83 11 85 12
REMARK SMILES IDX 84 13 5 14 6 15 7 16 4 17 3 18 2 19 1 20 15 21 16 22 17 23
REMARK SMILES IDX 18 24 19 25 20 26 81 27 21 28 80 29 22 30 23 31 24 32 74 33
REMARK SMILES IDX 25 34 79 35 73 36 75 37 26 38 78 39 72 40 71 41 27 43 59 44
REMARK SMILES IDX 39 45 58 46 40 47 43 48 57 49 76 50 41 51 42 52 56 54 77 55
REMARK SMILES IDX 44 56 28 57 29 58 37 59 30 60 32 61 38 62 31 63 33 64 34 65
REMARK SMILES IDX 35 66 36 67 60 68 61 69 69 70 62 71 64 72 70 73 63 74 65 75
REMARK SMILES IDX 66 76 67 77 68 78 45 79 46 80 54 81 47 82 49 83 55 84 48 85
REMARK SMILES IDX 50 86 51 87 52 88 53 89
REMARK H PARENT 75 42 43 53
REMARK Flexibility Score: inf
ROOT
ATOM      1  C   UNL A   1      35.077  21.191  25.565  1.00  0.00     0.274 C 
ENDROOT
BRANCH   1   2
ATOM      2  O   UNL A   1      35.289  22.394  26.331  1.00  0.00    -0.462 OA
BRANCH   2   3
ATOM      3  C   UNL A   1      34.380  23.386  26.152  1.00  0.00     0.315 C 
ATOM      4  O   UNL A   1      33.343  23.503  26.798  1.00  0.00    -0.251 OA
BRANCH   3   5
ATOM      5  C   UNL A   1      34.736  24.357  25.057  1.00  0.00     0.152 C 
ATOM      6  N   UNL A   1      33.804  26.432  24.307  1.00  0.00    -0.269 N 
ATOM      7  C   UNL A   1      34.355  25.781  25.515  1.00  0.00     0.155 C 
ATOM      8  C   UNL A   1      33.453  25.442  23.357  1.00  0.00     0.056 A 
ATOM      9  C   UNL A   1      34.037  24.231  23.729  1.00  0.00    -0.008 A 
ATOM     10  C   UNL A   1      32.769  25.574  22.164  1.00  0.00     0.027 A 
ATOM     11  C   UNL A   1      34.045  23.154  22.852  1.00  0.00     0.007 A 
ATOM     12  C   UNL A   1      32.754  24.488  21.286  1.00  0.00     0.002 A 
ATOM     13  C   UNL A   1      33.407  23.294  21.619  1.00  0.00     0.000 A 
BRANCH   6  14
ATOM     14  S   UNL A   1      33.459  28.041  24.248  1.00  0.00     0.237 S 
ATOM     15  O   UNL A   1      34.276  28.633  23.204  1.00  0.00    -0.206 OA
ATOM     16  O   UNL A   1      33.520  28.574  25.595  1.00  0.00    -0.206 OA
BRANCH  14  17
ATOM     17  C   UNL A   1      31.754  28.158  23.701  1.00  0.00     0.188 C 
BRANCH  17  18
ATOM     18  C   UNL A   1      31.049  29.404  24.192  1.00  0.00     0.178 C 
BRANCH  18  19
ATOM     19  O   UNL A   1      29.708  29.422  23.707  1.00  0.00    -0.384 OA
ATOM     20  C   UNL A   1      29.584  30.127  22.479  1.00  0.00     0.194 C 
ENDBRANCH  18  19
ENDBRANCH  17  18
ENDBRANCH  14  17
ENDBRANCH   6  14
ENDBRANCH   3   5
ENDBRANCH   2   3
ENDBRANCH   1   2
BRANCH   1  21
ATOM     21  C   UNL A   1      36.410  20.554  25.177  1.00  0.00     0.275 C 
BRANCH  21  22
ATOM     22  O   UNL A   1      37.457  21.538  25.191  1.00  0.00    -0.458 OA
BRANCH  22  23
ATOM     23  C   UNL A   1      38.594  21.173  25.821  1.00  0.00     0.338 C 
ATOM     24  O   UNL A   1      39.063  20.048  25.929  1.00  0.00    -0.246 OA
BRANCH  23  25
ATOM     25  C   UNL A   1      39.251  22.362  26.371  1.00  0.00     0.060 A 
ATOM     26  C   UNL A   1      38.741  23.630  26.081  1.00  0.00     0.016 A 
ATOM     27  C   UNL A   1      40.432  22.218  27.097  1.00  0.00     0.016 A 
ATOM     28  C   UNL A   1      39.429  24.768  26.497  1.00  0.00     0.010 A 
ATOM     29  C   UNL A   1      41.097  23.358  27.550  1.00  0.00     0.010 A 
ATOM     30  C   UNL A   1      40.612  24.641  27.240  1.00  0.00    -0.014 A 
BRANCH  30  31
ATOM     31  C   UNL A   1      41.356  25.838  27.700  1.00  0.00     0.031 A 
ATOM     32  C   UNL A   1      40.657  26.896  28.508  1.00  0.00     0.074 A 
ATOM     33  C   UNL A   1      42.640  26.007  27.331  1.00  0.00     0.049 A 
ATOM     34  N   UNL A   1      41.086  28.077  28.869  1.00  0.00    -0.248 NA
ATOM     35  C   UNL A   1      39.290  26.588  28.962  1.00  0.00     0.031 C 
ATOM     36  C   UNL A   1      43.421  25.054  26.542  1.00  0.00     0.029 A 
ATOM     37  N   UNL A   1      43.499  27.056  27.538  1.00  0.00    -0.354 N 
ATOM     38  C   UNL A   1      40.031  28.674  29.547  1.00  0.00     0.074 A 
ATOM     39  C   UNL A   1      38.941  27.722  29.554  1.00  0.00     0.031 C 
ATOM     40  C   UNL A   1      44.638  25.573  26.309  1.00  0.00     0.029 A 
ATOM     41  C   UNL A   1      44.705  26.909  26.890  1.00  0.00     0.049 A 
ATOM     42  H   UNL A   1      43.276  27.836  28.094  1.00  0.00     0.167 HD
ATOM     43  C   UNL A   1      39.980  29.898  30.124  1.00  0.00     0.034 A 
ATOM     44  C   UNL A   1      45.732  27.768  26.748  1.00  0.00     0.034 A 
ATOM     45  C   UNL A   1      41.083  30.823  30.153  1.00  0.00     0.049 A 
ATOM     46  C   UNL A   1      45.646  29.125  27.390  1.00  0.00     0.074 A 
ATOM     47  C   UNL A   1      41.149  32.062  30.766  1.00  0.00     0.029 A 
ATOM     48  N   UNL A   1      42.307  30.614  29.539  1.00  0.00    -0.354 N 
ATOM     49  N   UNL A   1      44.683  29.632  28.120  1.00  0.00    -0.248 NA
ATOM     50  C   UNL A   1      46.798  30.021  27.208  1.00  0.00     0.031 C 
ATOM     51  C   UNL A   1      42.413  32.608  30.512  1.00  0.00     0.029 A 
ATOM     52  C   UNL A   1      43.135  31.704  29.751  1.00  0.00     0.049 A 
ATOM     53  H   UNL A   1      42.553  29.809  29.028  1.00  0.00     0.167 HD
ATOM     54  C   UNL A   1      45.119  30.896  28.503  1.00  0.00     0.074 A 
ATOM     55  C   UNL A   1      46.445  31.066  27.944  1.00  0.00     0.031 C 
ATOM     56  C   UNL A   1      44.472  31.837  29.232  1.00  0.00     0.034 A 
BRANCH  43  57
ATOM     57  C   UNL A   1      38.701  30.299  30.808  1.00  0.00     0.023 A 
ATOM     58  C   UNL A   1      38.513  29.980  32.167  1.00  0.00     0.012 A 
ATOM     59  C   UNL A   1      37.719  31.045  30.129  1.00  0.00     0.148 A 
ATOM     60  C   UNL A   1      37.355  30.376  32.835  1.00  0.00     0.002 A 
ATOM     61  C   UNL A   1      36.582  31.467  30.811  1.00  0.00     0.091 A 
ATOM     62  F   UNL A   1      37.904  31.317  28.829  1.00  0.00    -0.205 F 
ATOM     63  C   UNL A   1      36.395  31.127  32.161  1.00  0.00     0.022 A 
BRANCH  61  64
ATOM     64  S   UNL A   1      35.324  32.497  30.044  1.00  0.00     0.127 S 
ATOM     65  O   UNL A   1      36.103  33.671  29.653  1.00  0.00    -0.237 OA
ATOM     66  O   UNL A   1      34.875  31.664  28.928  1.00  0.00    -0.237 OA
ATOM     67  O   UNL A   1      34.318  32.724  31.072  1.00  0.00    -0.744 OA
ENDBRANCH  61  64
ENDBRANCH  43  57
BRANCH  44  68
ATOM     68  C   UNL A   1      46.942  27.352  25.986  1.00  0.00     0.023 A 
ATOM     69  C   UNL A   1      47.896  26.522  26.605  1.00  0.00     0.012 A 
ATOM     70  C   UNL A   1      47.131  27.731  24.643  1.00  0.00     0.148 A 
ATOM     71  C   UNL A   1      49.023  26.091  25.907  1.00  0.00     0.002 A 
ATOM     72  C   UNL A   1      48.229  27.255  23.936  1.00  0.00     0.091 A 
ATOM     73  F   UNL A   1      46.225  28.541  24.076  1.00  0.00    -0.205 F 
ATOM     74  C   UNL A   1      49.183  26.446  24.570  1.00  0.00     0.022 A 
BRANCH  72  75
ATOM     75  S   UNL A   1      48.434  27.551  22.175  1.00  0.00     0.127 S 
ATOM     76  O   UNL A   1      49.591  28.441  22.155  1.00  0.00    -0.237 OA
ATOM     77  O   UNL A   1      48.682  26.203  21.663  1.00  0.00    -0.237 OA
ATOM     78  O   UNL A   1      47.174  28.133  21.732  1.00  0.00    -0.744 OA
ENDBRANCH  72  75
ENDBRANCH  44  68
BRANCH  56  79
ATOM     79  C   UNL A   1      45.192  33.134  29.489  1.00  0.00     0.023 A 
ATOM     80  C   UNL A   1      46.025  33.253  30.618  1.00  0.00     0.012 A 
ATOM     81  C   UNL A   1      45.104  34.204  28.577  1.00  0.00     0.148 A 
ATOM     82  C   UNL A   1      46.743  34.426  30.849  1.00  0.00     0.002 A 
ATOM     83  C   UNL A   1      45.855  35.354  28.792  1.00  0.00     0.091 A 
ATOM     84  F   UNL A   1      44.288  34.079  27.520  1.00  0.00    -0.205 F 
ATOM     85  C   UNL A   1      46.667  35.470  29.930  1.00  0.00     0.022 A 
BRANCH  83  86
ATOM     86  S   UNL A   1      45.883  36.713  27.616  1.00  0.00     0.127 S 
ATOM     87  O   UNL A   1      44.493  37.162  27.644  1.00  0.00    -0.237 OA
ATOM     88  O   UNL A   1      46.836  37.639  28.231  1.00  0.00    -0.237 OA
ATOM     89  O   UNL A   1      46.334  36.139  26.355  1.00  0.00    -0.744 OA
ENDBRANCH  83  86
ENDBRANCH  56  79
ENDBRANCH  30  31
ENDBRANCH  23  25
ENDBRANCH  22  23
ENDBRANCH  21  22
ENDBRANCH   1  21
TORSDOF 18
ENDMDL
