MODEL 1
REMARK VINA RESULT:     -10.2      0.000      0.000
REMARK SMILES O=C(OCCOC(=O)c1cc(Br)cc2c1OCC2)c1ccc(-c2c3nc(c(-c4cccc(S(=O)(=O)[O-])c4F)c4ccc([nH]4)c(-c4cccc(S(=O)(=O)[O-])c4F)c4nc(c(-c5cccc(S(=O)(=O)[O-])c5F)c5ccc2[nH]5)C=C4)C=C3)cc1
REMARK SMILES IDX 3 1 2 2 1 3 19 4 20 5 81 6 21 7 80 8 22 9 23 10 24 11 74 12
REMARK SMILES IDX 25 13 79 14 73 15 75 16 26 17 78 18 72 19 71 20 27 22 59 23
REMARK SMILES IDX 39 24 58 25 40 26 43 27 57 28 76 29 41 30 42 31 56 33 77 34
REMARK SMILES IDX 44 35 28 36 29 37 37 38 30 39 32 40 38 41 31 42 33 43 34 44
REMARK SMILES IDX 35 45 36 46 60 47 61 48 69 49 62 50 64 51 70 52 63 53 65 54
REMARK SMILES IDX 66 55 67 56 68 57 45 58 46 59 54 60 47 61 49 62 55 63 48 64
REMARK SMILES IDX 50 65 51 66 52 67 53 68 4 69 5 70 6 71 7 72 8 73 9 74 10 75
REMARK SMILES IDX 15 76 11 77 14 78 16 79 12 80 13 81 18 82 17 83
REMARK H PARENT 75 21 43 32
REMARK Flexibility Score: inf
ROOT
ATOM      1  O   UNL A   1      33.960  32.237  27.776  1.00  0.00    -0.458 OA
ENDROOT
BRANCH   1   2
ATOM      2  C   UNL A   1      34.304  30.951  27.516  1.00  0.00     0.338 C 
ATOM      3  O   UNL A   1      33.517  30.239  26.893  1.00  0.00    -0.246 OA
BRANCH   2   4
ATOM      4  C   UNL A   1      35.538  30.313  28.070  1.00  0.00     0.060 A 
ATOM      5  C   UNL A   1      35.658  29.703  29.320  1.00  0.00     0.016 A 
ATOM      6  C   UNL A   1      36.679  30.352  27.251  1.00  0.00     0.016 A 
ATOM      7  C   UNL A   1      36.844  29.082  29.707  1.00  0.00     0.010 A 
ATOM      8  C   UNL A   1      37.863  29.706  27.616  1.00  0.00     0.010 A 
ATOM      9  C   UNL A   1      37.953  29.078  28.862  1.00  0.00    -0.014 A 
BRANCH   9  10
ATOM     10  C   UNL A   1      39.245  28.590  29.385  1.00  0.00     0.031 A 
ATOM     11  C   UNL A   1      39.829  29.284  30.580  1.00  0.00     0.074 A 
ATOM     12  C   UNL A   1      39.832  27.493  28.869  1.00  0.00     0.049 A 
ATOM     13  N   UNL A   1      40.903  28.988  31.258  1.00  0.00    -0.248 NA
ATOM     14  C   UNL A   1      39.086  30.444  31.103  1.00  0.00     0.031 C 
ATOM     15  C   UNL A   1      39.304  26.692  27.765  1.00  0.00     0.029 A 
ATOM     16  N   UNL A   1      41.005  26.866  29.200  1.00  0.00    -0.354 N 
ATOM     17  C   UNL A   1      40.950  29.906  32.298  1.00  0.00     0.074 A 
ATOM     18  C   UNL A   1      39.839  30.812  32.125  1.00  0.00     0.031 C 
ATOM     19  C   UNL A   1      40.178  25.714  27.472  1.00  0.00     0.029 A 
ATOM     20  C   UNL A   1      41.331  25.831  28.355  1.00  0.00     0.049 A 
ATOM     21  H   UNL A   1      41.561  27.130  29.968  1.00  0.00     0.167 HD
ATOM     22  C   UNL A   1      41.811  29.953  33.339  1.00  0.00     0.034 A 
ATOM     23  C   UNL A   1      42.443  25.075  28.291  1.00  0.00     0.034 A 
ATOM     24  C   UNL A   1      42.916  29.053  33.494  1.00  0.00     0.049 A 
ATOM     25  C   UNL A   1      43.470  25.241  29.377  1.00  0.00     0.074 A 
ATOM     26  C   UNL A   1      43.861  29.012  34.500  1.00  0.00     0.029 A 
ATOM     27  N   UNL A   1      43.232  28.039  32.600  1.00  0.00    -0.354 N 
ATOM     28  N   UNL A   1      43.452  26.056  30.405  1.00  0.00    -0.248 NA
ATOM     29  C   UNL A   1      44.628  24.339  29.342  1.00  0.00     0.031 C 
ATOM     30  C   UNL A   1      44.772  27.995  34.195  1.00  0.00     0.029 A 
ATOM     31  C   UNL A   1      44.368  27.375  33.022  1.00  0.00     0.049 A 
ATOM     32  H   UNL A   1      42.722  27.825  31.786  1.00  0.00     0.167 HD
ATOM     33  C   UNL A   1      44.558  25.723  31.173  1.00  0.00     0.074 A 
ATOM     34  C   UNL A   1      45.225  24.631  30.489  1.00  0.00     0.031 C 
ATOM     35  C   UNL A   1      44.982  26.263  32.342  1.00  0.00     0.034 A 
BRANCH  22  36
ATOM     36  C   UNL A   1      41.560  31.008  34.381  1.00  0.00     0.023 A 
ATOM     37  C   UNL A   1      40.759  30.704  35.502  1.00  0.00     0.012 A 
ATOM     38  C   UNL A   1      42.103  32.298  34.246  1.00  0.00     0.148 A 
ATOM     39  C   UNL A   1      40.465  31.682  36.451  1.00  0.00     0.002 A 
ATOM     40  C   UNL A   1      41.843  33.255  35.219  1.00  0.00     0.091 A 
ATOM     41  F   UNL A   1      42.838  32.571  33.159  1.00  0.00    -0.205 F 
ATOM     42  C   UNL A   1      41.013  32.954  36.313  1.00  0.00     0.022 A 
BRANCH  40  43
ATOM     43  S   UNL A   1      42.547  34.904  35.167  1.00  0.00     0.127 S 
ATOM     44  O   UNL A   1      41.943  35.445  33.950  1.00  0.00    -0.237 OA
ATOM     45  O   UNL A   1      42.045  35.488  36.410  1.00  0.00    -0.237 OA
ATOM     46  O   UNL A   1      43.992  34.726  35.115  1.00  0.00    -0.744 OA
ENDBRANCH  40  43
ENDBRANCH  22  36
BRANCH  23  47
ATOM     47  C   UNL A   1      42.629  24.080  27.197  1.00  0.00     0.023 A 
ATOM     48  C   UNL A   1      43.290  24.450  26.010  1.00  0.00     0.012 A 
ATOM     49  C   UNL A   1      42.124  22.769  27.322  1.00  0.00     0.148 A 
ATOM     50  C   UNL A   1      43.409  23.547  24.951  1.00  0.00     0.002 A 
ATOM     51  C   UNL A   1      42.281  21.862  26.280  1.00  0.00     0.091 A 
ATOM     52  F   UNL A   1      41.485  22.441  28.454  1.00  0.00    -0.205 F 
ATOM     53  C   UNL A   1      42.909  22.254  25.087  1.00  0.00     0.022 A 
BRANCH  51  54
ATOM     54  S   UNL A   1      41.734  20.153  26.383  1.00  0.00     0.127 S 
ATOM     55  O   UNL A   1      40.281  20.303  26.344  1.00  0.00    -0.237 OA
ATOM     56  O   UNL A   1      42.325  19.577  25.174  1.00  0.00    -0.237 OA
ATOM     57  O   UNL A   1      42.276  19.636  27.631  1.00  0.00    -0.744 OA
ENDBRANCH  51  54
ENDBRANCH  23  47
BRANCH  35  58
ATOM     58  C   UNL A   1      46.190  25.644  32.989  1.00  0.00     0.023 A 
ATOM     59  C   UNL A   1      47.467  26.200  32.784  1.00  0.00     0.012 A 
ATOM     60  C   UNL A   1      46.039  24.548  33.862  1.00  0.00     0.148 A 
ATOM     61  C   UNL A   1      48.583  25.651  33.411  1.00  0.00     0.002 A 
ATOM     62  C   UNL A   1      47.147  24.045  34.529  1.00  0.00     0.091 A 
ATOM     63  F   UNL A   1      44.815  24.023  34.025  1.00  0.00    -0.205 F 
ATOM     64  C   UNL A   1      48.421  24.585  34.293  1.00  0.00     0.022 A 
BRANCH  62  65
ATOM     65  S   UNL A   1      47.015  22.749  35.764  1.00  0.00     0.127 S 
ATOM     66  O   UNL A   1      48.383  22.687  36.277  1.00  0.00    -0.237 OA
ATOM     67  O   UNL A   1      46.037  23.311  36.696  1.00  0.00    -0.237 OA
ATOM     68  O   UNL A   1      46.559  21.561  35.054  1.00  0.00    -0.744 OA
ENDBRANCH  62  65
ENDBRANCH  35  58
ENDBRANCH   9  10
ENDBRANCH   2   4
ENDBRANCH   1   2
BRANCH   1  69
ATOM     69  C   UNL A   1      34.702  33.234  28.496  1.00  0.00     0.275 C 
BRANCH  69  70
ATOM     70  C   UNL A   1      33.860  34.162  29.378  1.00  0.00     0.275 C 
BRANCH  70  71
ATOM     71  O   UNL A   1      34.475  34.495  30.630  1.00  0.00    -0.458 OA
BRANCH  71  72
ATOM     72  C   UNL A   1      34.930  33.439  31.352  1.00  0.00     0.342 C 
ATOM     73  O   UNL A   1      34.308  32.420  31.620  1.00  0.00    -0.246 OA
BRANCH  72  74
ATOM     74  C   UNL A   1      36.319  33.697  31.766  1.00  0.00     0.103 A 
ATOM     75  C   UNL A   1      37.325  33.860  30.807  1.00  0.00     0.035 A 
ATOM     76  C   UNL A   1      36.650  33.833  33.106  1.00  0.00     0.137 A 
ATOM     77  C   UNL A   1      38.633  34.154  31.220  1.00  0.00     0.019 A 
ATOM     78  C   UNL A   1      37.959  34.062  33.503  1.00  0.00    -0.000 A 
ATOM     79  O   UNL A   1      35.776  33.745  34.157  1.00  0.00    -0.492 OA
ATOM     80  Br  UNL A   1      39.940  34.576  29.924  1.00  0.00    -0.051 Br
ATOM     81  C   UNL A   1      38.972  34.219  32.572  1.00  0.00     0.023 A 
ATOM     82  C   UNL A   1      38.037  34.163  34.975  1.00  0.00     0.081 C 
ATOM     83  C   UNL A   1      36.593  33.829  35.346  1.00  0.00     0.234 C 
ENDBRANCH  72  74
ENDBRANCH  71  72
ENDBRANCH  70  71
ENDBRANCH  69  70
ENDBRANCH   1  69
TORSDOF 14
ENDMDL
MODEL 2
REMARK VINA RESULT:     -10.1      3.061      5.359
REMARK SMILES O=C(OCCOC(=O)c1cc(Br)cc2c1OCC2)c1ccc(-c2c3nc(c(-c4cccc(S(=O)(=O)[O-])c4F)c4ccc([nH]4)c(-c4cccc(S(=O)(=O)[O-])c4F)c4nc(c(-c5cccc(S(=O)(=O)[O-])c5F)c5ccc2[nH]5)C=C4)C=C3)cc1
REMARK SMILES IDX 3 1 2 2 1 3 19 4 20 5 81 6 21 7 80 8 22 9 23 10 24 11 74 12
REMARK SMILES IDX 25 13 79 14 73 15 75 16 26 17 78 18 72 19 71 20 27 22 59 23
REMARK SMILES IDX 39 24 58 25 40 26 43 27 57 28 76 29 41 30 42 31 56 33 77 34
REMARK SMILES IDX 44 35 28 36 29 37 37 38 30 39 32 40 38 41 31 42 33 43 34 44
REMARK SMILES IDX 35 45 36 46 60 47 61 48 69 49 62 50 64 51 70 52 63 53 65 54
REMARK SMILES IDX 66 55 67 56 68 57 45 58 46 59 54 60 47 61 49 62 55 63 48 64
REMARK SMILES IDX 50 65 51 66 52 67 53 68 4 69 5 70 6 71 7 72 8 73 9 74 10 75
REMARK SMILES IDX 15 76 11 77 14 78 16 79 12 80 13 81 18 82 17 83
REMARK H PARENT 75 21 43 32
REMARK Flexibility Score: inf
ROOT
ATOM      1  O   UNL A   1      32.695  32.597  26.771  1.00  0.00    -0.458 OA
ENDROOT
BRANCH   1   2
ATOM      2  C   UNL A   1      33.469  33.141  27.742  1.00  0.00     0.338 C 
ATOM      3  O   UNL A   1      33.249  34.296  28.102  1.00  0.00    -0.246 OA
BRANCH   2   4
ATOM      4  C   UNL A   1      34.670  32.449  28.306  1.00  0.00     0.060 A 
ATOM      5  C   UNL A   1      34.689  31.182  28.892  1.00  0.00     0.016 A 
ATOM      6  C   UNL A   1      35.881  33.159  28.248  1.00  0.00     0.016 A 
ATOM      7  C   UNL A   1      35.883  30.608  29.328  1.00  0.00     0.010 A 
ATOM      8  C   UNL A   1      37.087  32.582  28.653  1.00  0.00     0.010 A 
ATOM      9  C   UNL A   1      37.087  31.301  29.213  1.00  0.00    -0.014 A 
BRANCH   9  10
ATOM     10  C   UNL A   1      38.291  30.748  29.866  1.00  0.00     0.031 A 
ATOM     11  C   UNL A   1      38.639  31.244  31.238  1.00  0.00     0.074 A 
ATOM     12  C   UNL A   1      38.997  29.756  29.291  1.00  0.00     0.049 A 
ATOM     13  N   UNL A   1      39.596  30.852  32.035  1.00  0.00    -0.248 NA
ATOM     14  C   UNL A   1      37.776  32.295  31.804  1.00  0.00     0.031 C 
ATOM     15  C   UNL A   1      38.692  29.140  27.999  1.00  0.00     0.029 A 
ATOM     16  N   UNL A   1      40.121  29.095  29.714  1.00  0.00    -0.354 N 
ATOM     17  C   UNL A   1      39.433  31.588  33.200  1.00  0.00     0.074 A 
ATOM     18  C   UNL A   1      38.333  32.500  32.985  1.00  0.00     0.031 C 
ATOM     19  C   UNL A   1      39.640  28.232  27.709  1.00  0.00     0.029 A 
ATOM     20  C   UNL A   1      40.623  28.215  28.783  1.00  0.00     0.049 A 
ATOM     21  H   UNL A   1      40.530  29.236  30.598  1.00  0.00     0.167 HD
ATOM     22  C   UNL A   1      40.104  31.474  34.367  1.00  0.00     0.034 A 
ATOM     23  C   UNL A   1      41.758  27.491  28.792  1.00  0.00     0.034 A 
ATOM     24  C   UNL A   1      41.201  30.572  34.564  1.00  0.00     0.049 A 
ATOM     25  C   UNL A   1      42.582  27.489  30.050  1.00  0.00     0.074 A 
ATOM     26  C   UNL A   1      41.965  30.378  35.698  1.00  0.00     0.029 A 
ATOM     27  N   UNL A   1      41.701  29.721  33.588  1.00  0.00    -0.354 N 
ATOM     28  N   UNL A   1      42.361  28.125  31.176  1.00  0.00    -0.248 NA
ATOM     29  C   UNL A   1      43.762  26.616  30.072  1.00  0.00     0.031 C 
ATOM     30  C   UNL A   1      42.953  29.434  35.396  1.00  0.00     0.029 A 
ATOM     31  C   UNL A   1      42.775  29.008  34.088  1.00  0.00     0.049 A 
ATOM     32  H   UNL A   1      41.344  29.637  32.675  1.00  0.00     0.167 HD
ATOM     33  C   UNL A   1      43.335  27.682  32.060  1.00  0.00     0.074 A 
ATOM     34  C   UNL A   1      44.147  26.724  31.336  1.00  0.00     0.031 C 
ATOM     35  C   UNL A   1      43.536  28.029  33.355  1.00  0.00     0.034 A 
BRANCH  22  36
ATOM     36  C   UNL A   1      39.643  32.342  35.504  1.00  0.00     0.023 A 
ATOM     37  C   UNL A   1      38.738  31.823  36.455  1.00  0.00     0.012 A 
ATOM     38  C   UNL A   1      40.090  33.669  35.627  1.00  0.00     0.148 A 
ATOM     39  C   UNL A   1      38.251  32.627  37.485  1.00  0.00     0.002 A 
ATOM     40  C   UNL A   1      39.636  34.451  36.682  1.00  0.00     0.091 A 
ATOM     41  F   UNL A   1      40.928  34.148  34.696  1.00  0.00    -0.205 F 
ATOM     42  C   UNL A   1      38.706  33.937  37.602  1.00  0.00     0.022 A 
BRANCH  40  43
ATOM     43  S   UNL A   1      40.204  36.131  36.956  1.00  0.00     0.127 S 
ATOM     44  O   UNL A   1      39.397  36.531  38.109  1.00  0.00    -0.237 OA
ATOM     45  O   UNL A   1      41.624  35.927  37.246  1.00  0.00    -0.237 OA
ATOM     46  O   UNL A   1      39.929  36.857  35.725  1.00  0.00    -0.744 OA
ENDBRANCH  40  43
ENDBRANCH  22  36
BRANCH  23  47
ATOM     47  C   UNL A   1      42.162  26.690  27.602  1.00  0.00     0.023 A 
ATOM     48  C   UNL A   1      42.786  27.317  26.507  1.00  0.00     0.012 A 
ATOM     49  C   UNL A   1      41.903  25.305  27.544  1.00  0.00     0.148 A 
ATOM     50  C   UNL A   1      43.107  26.589  25.359  1.00  0.00     0.002 A 
ATOM     51  C   UNL A   1      42.261  24.578  26.414  1.00  0.00     0.091 A 
ATOM     52  F   UNL A   1      41.295  24.730  28.591  1.00  0.00    -0.205 F 
ATOM     53  C   UNL A   1      42.848  25.221  25.314  1.00  0.00     0.022 A 
BRANCH  51  54
ATOM     54  S   UNL A   1      42.033  22.800  26.285  1.00  0.00     0.127 S 
ATOM     55  O   UNL A   1      40.578  22.682  26.327  1.00  0.00    -0.237 OA
ATOM     56  O   UNL A   1      42.636  22.515  24.982  1.00  0.00    -0.237 OA
ATOM     57  O   UNL A   1      42.739  22.224  27.421  1.00  0.00    -0.744 OA
ENDBRANCH  51  54
ENDBRANCH  23  47
BRANCH  35  58
ATOM     58  C   UNL A   1      44.641  27.325  34.093  1.00  0.00     0.023 A 
ATOM     59  C   UNL A   1      45.954  27.833  34.055  1.00  0.00     0.012 A 
ATOM     60  C   UNL A   1      44.353  26.196  34.885  1.00  0.00     0.148 A 
ATOM     61  C   UNL A   1      46.972  27.204  34.767  1.00  0.00     0.002 A 
ATOM     62  C   UNL A   1      45.361  25.612  35.638  1.00  0.00     0.091 A 
ATOM     63  F   UNL A   1      43.099  25.720  34.889  1.00  0.00    -0.205 F 
ATOM     64  C   UNL A   1      46.674  26.104  35.568  1.00  0.00     0.022 A 
BRANCH  62  65
ATOM     65  S   UNL A   1      45.045  24.264  36.781  1.00  0.00     0.127 S 
ATOM     66  O   UNL A   1      46.368  24.054  37.367  1.00  0.00    -0.237 OA
ATOM     67  O   UNL A   1      44.061  24.855  37.689  1.00  0.00    -0.237 OA
ATOM     68  O   UNL A   1      44.536  23.162  35.975  1.00  0.00    -0.744 OA
ENDBRANCH  62  65
ENDBRANCH  35  58
ENDBRANCH   9  10
ENDBRANCH   2   4
ENDBRANCH   1   2
BRANCH   1  69
ATOM     69  C   UNL A   1      31.691  31.576  26.892  1.00  0.00     0.275 C 
BRANCH  69  70
ATOM     70  C   UNL A   1      31.929  30.325  26.040  1.00  0.00     0.275 C 
BRANCH  70  71
ATOM     71  O   UNL A   1      32.649  29.286  26.717  1.00  0.00    -0.458 OA
BRANCH  71  72
ATOM     72  C   UNL A   1      32.003  28.093  26.804  1.00  0.00     0.342 C 
ATOM     73  O   UNL A   1      31.141  27.792  27.619  1.00  0.00    -0.246 OA
BRANCH  72  74
ATOM     74  C   UNL A   1      32.493  27.199  25.743  1.00  0.00     0.103 A 
ATOM     75  C   UNL A   1      33.606  26.380  25.964  1.00  0.00     0.035 A 
ATOM     76  C   UNL A   1      31.836  27.112  24.524  1.00  0.00     0.137 A 
ATOM     77  C   UNL A   1      34.028  25.500  24.957  1.00  0.00     0.019 A 
ATOM     78  C   UNL A   1      32.301  26.283  23.515  1.00  0.00    -0.000 A 
ATOM     79  O   UNL A   1      30.713  27.812  24.172  1.00  0.00    -0.492 OA
ATOM     80  Br  UNL A   1      35.397  24.254  25.332  1.00  0.00    -0.051 Br
ATOM     81  C   UNL A   1      33.405  25.470  23.709  1.00  0.00     0.023 A 
ATOM     82  C   UNL A   1      31.426  26.380  22.328  1.00  0.00     0.081 C 
ATOM     83  C   UNL A   1      30.475  27.486  22.784  1.00  0.00     0.234 C 
ENDBRANCH  72  74
ENDBRANCH  71  72
ENDBRANCH  70  71
ENDBRANCH  69  70
ENDBRANCH   1  69
TORSDOF 14
ENDMDL
MODEL 3
REMARK VINA RESULT:     -10.0      4.557     11.628
REMARK SMILES O=C(OCCOC(=O)c1cc(Br)cc2c1OCC2)c1ccc(-c2c3nc(c(-c4cccc(S(=O)(=O)[O-])c4F)c4ccc([nH]4)c(-c4cccc(S(=O)(=O)[O-])c4F)c4nc(c(-c5cccc(S(=O)(=O)[O-])c5F)c5ccc2[nH]5)C=C4)C=C3)cc1
REMARK SMILES IDX 3 1 2 2 1 3 19 4 20 5 81 6 21 7 80 8 22 9 23 10 24 11 74 12
REMARK SMILES IDX 25 13 79 14 73 15 75 16 26 17 78 18 72 19 71 20 27 22 59 23
REMARK SMILES IDX 39 24 58 25 40 26 43 27 57 28 76 29 41 30 42 31 56 33 77 34
REMARK SMILES IDX 44 35 28 36 29 37 37 38 30 39 32 40 38 41 31 42 33 43 34 44
REMARK SMILES IDX 35 45 36 46 60 47 61 48 69 49 62 50 64 51 70 52 63 53 65 54
REMARK SMILES IDX 66 55 67 56 68 57 45 58 46 59 54 60 47 61 49 62 55 63 48 64
REMARK SMILES IDX 50 65 51 66 52 67 53 68 4 69 5 70 6 71 7 72 8 73 9 74 10 75
REMARK SMILES IDX 15 76 11 77 14 78 16 79 12 80 13 81 18 82 17 83
REMARK H PARENT 75 21 43 32
REMARK Flexibility Score: inf
ROOT
ATOM      1  O   UNL A   1      39.861  21.446  26.740  1.00  0.00    -0.458 OA
ENDROOT
BRANCH   1   2
ATOM      2  C   UNL A   1      39.114  22.529  26.410  1.00  0.00     0.338 C 
ATOM      3  O   UNL A   1      38.148  22.381  25.663  1.00  0.00    -0.246 OA
BRANCH   2   4
ATOM      4  C   UNL A   1      39.488  23.923  26.802  1.00  0.00     0.060 A 
ATOM      5  C   UNL A   1      40.162  24.849  26.004  1.00  0.00     0.016 A 
ATOM      6  C   UNL A   1      39.137  24.318  28.104  1.00  0.00     0.016 A 
ATOM      7  C   UNL A   1      40.402  26.147  26.452  1.00  0.00     0.010 A 
ATOM      8  C   UNL A   1      39.345  25.625  28.552  1.00  0.00     0.010 A 
ATOM      9  C   UNL A   1      39.998  26.544  27.726  1.00  0.00    -0.014 A 
BRANCH   9  10
ATOM     10  C   UNL A   1      40.447  27.855  28.238  1.00  0.00     0.031 A 
ATOM     11  C   UNL A   1      41.919  28.141  28.248  1.00  0.00     0.074 A 
ATOM     12  C   UNL A   1      39.557  28.803  28.590  1.00  0.00     0.049 A 
ATOM     13  N   UNL A   1      42.540  29.241  28.576  1.00  0.00    -0.248 NA
ATOM     14  C   UNL A   1      42.810  27.058  27.796  1.00  0.00     0.031 C 
ATOM     15  C   UNL A   1      38.102  28.660  28.535  1.00  0.00     0.029 A 
ATOM     16  N   UNL A   1      39.745  30.072  29.072  1.00  0.00    -0.354 N 
ATOM     17  C   UNL A   1      43.886  28.990  28.345  1.00  0.00     0.074 A 
ATOM     18  C   UNL A   1      44.002  27.615  27.918  1.00  0.00     0.031 C 
ATOM     19  C   UNL A   1      37.531  29.775  29.020  1.00  0.00     0.029 A 
ATOM     20  C   UNL A   1      38.576  30.700  29.434  1.00  0.00     0.049 A 
ATOM     21  H   UNL A   1      40.631  30.494  29.153  1.00  0.00     0.167 HD
ATOM     22  C   UNL A   1      44.926  29.848  28.427  1.00  0.00     0.034 A 
ATOM     23  C   UNL A   1      38.375  31.882  30.047  1.00  0.00     0.034 A 
ATOM     24  C   UNL A   1      44.799  31.209  28.862  1.00  0.00     0.049 A 
ATOM     25  C   UNL A   1      39.567  32.771  30.270  1.00  0.00     0.074 A 
ATOM     26  C   UNL A   1      45.783  32.167  28.996  1.00  0.00     0.029 A 
ATOM     27  N   UNL A   1      43.604  31.798  29.251  1.00  0.00    -0.354 N 
ATOM     28  N   UNL A   1      40.824  32.550  29.962  1.00  0.00    -0.248 NA
ATOM     29  C   UNL A   1      39.312  34.095  30.850  1.00  0.00     0.031 C 
ATOM     30  C   UNL A   1      45.189  33.328  29.503  1.00  0.00     0.029 A 
ATOM     31  C   UNL A   1      43.827  33.105  29.642  1.00  0.00     0.049 A 
ATOM     32  H   UNL A   1      42.726  31.351  29.249  1.00  0.00     0.167 HD
ATOM     33  C   UNL A   1      41.497  33.729  30.250  1.00  0.00     0.074 A 
ATOM     34  C   UNL A   1      40.508  34.659  30.759  1.00  0.00     0.031 C 
ATOM     35  C   UNL A   1      42.813  34.020  30.101  1.00  0.00     0.034 A 
BRANCH  22  36
ATOM     36  C   UNL A   1      46.274  29.323  28.019  1.00  0.00     0.023 A 
ATOM     37  C   UNL A   1      46.720  29.501  26.691  1.00  0.00     0.012 A 
ATOM     38  C   UNL A   1      47.092  28.643  28.939  1.00  0.00     0.148 A 
ATOM     39  C   UNL A   1      47.940  28.972  26.275  1.00  0.00     0.002 A 
ATOM     40  C   UNL A   1      48.328  28.158  28.528  1.00  0.00     0.091 A 
ATOM     41  F   UNL A   1      46.636  28.462  30.186  1.00  0.00    -0.205 F 
ATOM     42  C   UNL A   1      48.746  28.308  27.195  1.00  0.00     0.022 A 
BRANCH  40  43
ATOM     43  S   UNL A   1      49.467  27.340  29.647  1.00  0.00     0.127 S 
ATOM     44  O   UNL A   1      48.727  26.123  29.985  1.00  0.00    -0.237 OA
ATOM     45  O   UNL A   1      50.634  27.128  28.791  1.00  0.00    -0.237 OA
ATOM     46  O   UNL A   1      49.679  28.262  30.754  1.00  0.00    -0.744 OA
ENDBRANCH  40  43
ENDBRANCH  22  36
BRANCH  23  47
ATOM     47  C   UNL A   1      37.007  32.307  30.457  1.00  0.00     0.023 A 
ATOM     48  C   UNL A   1      36.516  31.975  31.733  1.00  0.00     0.012 A 
ATOM     49  C   UNL A   1      36.177  33.021  29.566  1.00  0.00     0.148 A 
ATOM     50  C   UNL A   1      35.211  32.308  32.102  1.00  0.00     0.002 A 
ATOM     51  C   UNL A   1      34.893  33.385  29.954  1.00  0.00     0.091 A 
ATOM     52  F   UNL A   1      36.658  33.314  28.350  1.00  0.00    -0.205 F 
ATOM     53  C   UNL A   1      34.402  33.015  31.216  1.00  0.00     0.022 A 
BRANCH  51  54
ATOM     54  S   UNL A   1      33.797  34.356  28.912  1.00  0.00     0.127 S 
ATOM     55  O   UNL A   1      33.349  33.359  27.941  1.00  0.00    -0.237 OA
ATOM     56  O   UNL A   1      32.776  34.784  29.869  1.00  0.00    -0.237 OA
ATOM     57  O   UNL A   1      34.612  35.433  28.370  1.00  0.00    -0.744 OA
ENDBRANCH  51  54
ENDBRANCH  23  47
BRANCH  35  58
ATOM     58  C   UNL A   1      43.251  35.419  30.435  1.00  0.00     0.023 A 
ATOM     59  C   UNL A   1      43.738  35.721  31.722  1.00  0.00     0.012 A 
ATOM     60  C   UNL A   1      43.245  36.417  29.441  1.00  0.00     0.148 A 
ATOM     61  C   UNL A   1      44.178  37.007  32.023  1.00  0.00     0.002 A 
ATOM     62  C   UNL A   1      43.741  37.679  29.732  1.00  0.00     0.091 A 
ATOM     63  F   UNL A   1      42.758  36.109  28.229  1.00  0.00    -0.205 F 
ATOM     64  C   UNL A   1      44.193  37.981  31.027  1.00  0.00     0.022 A 
BRANCH  62  65
ATOM     65  S   UNL A   1      43.902  38.958  28.483  1.00  0.00     0.127 S 
ATOM     66  O   UNL A   1      44.182  40.138  29.299  1.00  0.00    -0.237 OA
ATOM     67  O   UNL A   1      45.037  38.476  27.694  1.00  0.00    -0.237 OA
ATOM     68  O   UNL A   1      42.634  38.981  27.765  1.00  0.00    -0.744 OA
ENDBRANCH  62  65
ENDBRANCH  35  58
ENDBRANCH   9  10
ENDBRANCH   2   4
ENDBRANCH   1   2
BRANCH   1  69
ATOM     69  C   UNL A   1      41.245  21.396  27.121  1.00  0.00     0.275 C 
BRANCH  69  70
ATOM     70  C   UNL A   1      42.171  20.693  26.123  1.00  0.00     0.275 C 
BRANCH  70  71
ATOM     71  O   UNL A   1      43.493  21.245  26.064  1.00  0.00    -0.458 OA
BRANCH  71  72
ATOM     72  C   UNL A   1      43.570  22.519  25.599  1.00  0.00     0.342 C 
ATOM     73  O   UNL A   1      43.025  22.960  24.596  1.00  0.00    -0.246 OA
BRANCH  72  74
ATOM     74  C   UNL A   1      44.414  23.315  26.504  1.00  0.00     0.103 A 
ATOM     75  C   UNL A   1      44.064  23.467  27.850  1.00  0.00     0.035 A 
ATOM     76  C   UNL A   1      45.596  23.888  26.057  1.00  0.00     0.137 A 
ATOM     77  C   UNL A   1      44.906  24.189  28.708  1.00  0.00     0.019 A 
ATOM     78  C   UNL A   1      46.389  24.651  26.901  1.00  0.00    -0.000 A 
ATOM     79  O   UNL A   1      46.098  23.794  24.786  1.00  0.00    -0.492 OA
ATOM     80  Br  UNL A   1      44.538  24.217  30.560  1.00  0.00    -0.051 Br
ATOM     81  C   UNL A   1      46.057  24.821  28.234  1.00  0.00     0.023 A 
ATOM     82  C   UNL A   1      47.580  25.144  26.178  1.00  0.00     0.081 C 
ATOM     83  C   UNL A   1      47.266  24.644  24.768  1.00  0.00     0.234 C 
ENDBRANCH  72  74
ENDBRANCH  71  72
ENDBRANCH  70  71
ENDBRANCH  69  70
ENDBRANCH   1  69
TORSDOF 14
ENDMDL
