MODEL 1
REMARK VINA RESULT:     -11.4      0.000      0.000
REMARK SMILES CCC[NH2+][C@@]1(C(=O)OCCOC(=O)c2ccc(-c3c4nc(c(-c5cccc(S(=O)(=O)[O-])c5F)c5ccc([nH]5)c(-c5cccc(S(=O)(=O)[O-])c5F)c5nc(c(-c6cccc(S(=O)(=O)[O-])c6F)c6ccc3[nH]6)C=C5)C=C4)cc2)CCC[C@H](n2nc(C)c(C)c2C)C1
REMARK SMILES IDX 9 1 8 2 6 3 7 4 5 5 77 6 89 7 78 8 80 9 79 10 4 11 3 14 2 15
REMARK SMILES IDX 1 16 81 17 82 18 87 19 83 20 85 21 88 22 84 23 86 24 10 25
REMARK SMILES IDX 11 26 12 27 13 28 14 29 15 30 76 31 16 32 75 33 17 34 18 35
REMARK SMILES IDX 19 36 69 37 20 38 74 39 68 40 70 41 21 42 73 43 67 44 66 45
REMARK SMILES IDX 22 47 54 48 34 49 53 50 35 51 38 52 52 53 71 54 36 55 37 56
REMARK SMILES IDX 51 58 72 59 39 60 23 61 24 62 32 63 25 64 27 65 33 66 26 67
REMARK SMILES IDX 28 68 29 69 30 70 31 71 55 72 56 73 64 74 57 75 59 76 65 77
REMARK SMILES IDX 58 78 60 79 61 80 62 81 63 82 40 83 41 84 49 85 42 86 44 87
REMARK SMILES IDX 50 88 43 89 45 90 46 91 47 92 48 93
REMARK H PARENT 4 12 4 13 70 46 38 57
REMARK Flexibility Score: inf
ROOT
ATOM      1  C   UNL A   1      36.398  22.254  23.922  1.00  0.00     0.274 C 
ENDROOT
BRANCH   1   2
ATOM      2  O   UNL A   1      35.040  22.576  23.550  1.00  0.00    -0.457 OA
BRANCH   2   3
ATOM      3  C   UNL A   1      34.336  23.353  24.404  1.00  0.00     0.368 C 
ATOM      4  O   UNL A   1      34.823  24.286  25.036  1.00  0.00    -0.245 OA
BRANCH   3   5
ATOM      5  C   UNL A   1      32.836  22.914  24.541  1.00  0.00     0.196 C 
ATOM      6  C   UNL A   1      32.338  22.713  23.094  1.00  0.00     0.081 C 
ATOM      7  C   UNL A   1      31.881  23.881  25.293  1.00  0.00     0.108 C 
ATOM      8  C   UNL A   1      32.095  24.049  22.390  1.00  0.00     0.009 C 
ATOM      9  C   UNL A   1      31.426  25.187  24.591  1.00  0.00     0.114 C 
ATOM     10  C   UNL A   1      31.031  24.858  23.127  1.00  0.00     0.028 C 
BRANCH   5  11
ATOM     11  N   UNL A   1      32.898  21.684  25.379  1.00  0.00    -0.332 N 
ATOM     12  H   UNL A   1      33.879  21.411  25.426  1.00  0.00     0.347 HD
ATOM     13  H   UNL A   1      32.444  21.973  26.246  1.00  0.00     0.347 HD
BRANCH  11  14
ATOM     14  C   UNL A   1      32.153  20.497  25.000  1.00  0.00     0.261 C 
BRANCH  14  15
ATOM     15  C   UNL A   1      33.105  19.387  24.531  1.00  0.00     0.058 C 
ATOM     16  C   UNL A   1      32.529  18.464  23.464  1.00  0.00     0.010 C 
ENDBRANCH  14  15
ENDBRANCH  11  14
ENDBRANCH   5  11
BRANCH   9  17
ATOM     17  N   UNL A   1      32.262  26.388  24.735  1.00  0.00    -0.266 N 
ATOM     18  N   UNL A   1      32.952  26.811  23.647  1.00  0.00    -0.178 NA
ATOM     19  C   UNL A   1      32.290  27.342  25.739  1.00  0.00     0.039 A 
ATOM     20  C   UNL A   1      33.576  27.923  24.040  1.00  0.00     0.063 A 
ATOM     21  C   UNL A   1      33.302  28.228  25.393  1.00  0.00    -0.007 A 
ATOM     22  C   UNL A   1      31.409  27.361  26.934  1.00  0.00     0.066 C 
ATOM     23  C   UNL A   1      34.366  28.718  23.068  1.00  0.00     0.069 C 
ATOM     24  C   UNL A   1      33.893  29.328  26.199  1.00  0.00     0.048 C 
ENDBRANCH   9  17
ENDBRANCH   3   5
ENDBRANCH   2   3
ENDBRANCH   1   2
BRANCH   1  25
ATOM     25  C   UNL A   1      36.385  21.267  25.081  1.00  0.00     0.275 C 
BRANCH  25  26
ATOM     26  O   UNL A   1      37.219  21.784  26.115  1.00  0.00    -0.458 OA
BRANCH  26  27
ATOM     27  C   UNL A   1      38.518  21.427  26.069  1.00  0.00     0.338 C 
ATOM     28  O   UNL A   1      38.999  20.349  25.752  1.00  0.00    -0.246 OA
BRANCH  27  29
ATOM     29  C   UNL A   1      39.290  22.600  26.476  1.00  0.00     0.060 A 
ATOM     30  C   UNL A   1      38.878  23.869  26.056  1.00  0.00     0.016 A 
ATOM     31  C   UNL A   1      40.404  22.432  27.294  1.00  0.00     0.016 A 
ATOM     32  C   UNL A   1      39.593  24.984  26.450  1.00  0.00     0.010 A 
ATOM     33  C   UNL A   1      41.080  23.561  27.741  1.00  0.00     0.010 A 
ATOM     34  C   UNL A   1      40.685  24.838  27.308  1.00  0.00    -0.014 A 
BRANCH  34  35
ATOM     35  C   UNL A   1      41.450  26.026  27.731  1.00  0.00     0.031 A 
ATOM     36  C   UNL A   1      40.762  27.049  28.581  1.00  0.00     0.074 A 
ATOM     37  C   UNL A   1      42.718  26.174  27.308  1.00  0.00     0.049 A 
ATOM     38  N   UNL A   1      41.139  28.258  28.887  1.00  0.00    -0.248 NA
ATOM     39  C   UNL A   1      39.450  26.668  29.136  1.00  0.00     0.031 C 
ATOM     40  C   UNL A   1      43.453  25.204  26.488  1.00  0.00     0.029 A 
ATOM     41  N   UNL A   1      43.608  27.198  27.485  1.00  0.00    -0.354 N 
ATOM     42  C   UNL A   1      40.076  28.816  29.587  1.00  0.00     0.074 A 
ATOM     43  C   UNL A   1      39.045  27.807  29.679  1.00  0.00     0.031 C 
ATOM     44  C   UNL A   1      44.682  25.679  26.238  1.00  0.00     0.029 A 
ATOM     45  C   UNL A   1      44.792  27.012  26.811  1.00  0.00     0.049 A 
ATOM     46  H   UNL A   1      43.419  27.989  28.040  1.00  0.00     0.167 HD
ATOM     47  C   UNL A   1      39.982  30.065  30.098  1.00  0.00     0.034 A 
ATOM     48  C   UNL A   1      45.829  27.853  26.641  1.00  0.00     0.034 A 
ATOM     49  C   UNL A   1      41.062  31.013  30.022  1.00  0.00     0.049 A 
ATOM     50  C   UNL A   1      45.724  29.211  27.274  1.00  0.00     0.074 A 
ATOM     51  C   UNL A   1      41.123  32.299  30.522  1.00  0.00     0.029 A 
ATOM     52  N   UNL A   1      42.283  30.759  29.408  1.00  0.00    -0.354 N 
ATOM     53  N   UNL A   1      44.726  29.724  27.957  1.00  0.00    -0.248 NA
ATOM     54  C   UNL A   1      46.883  30.098  27.137  1.00  0.00     0.031 C 
ATOM     55  C   UNL A   1      42.379  32.826  30.197  1.00  0.00     0.029 A 
ATOM     56  C   UNL A   1      43.112  31.859  29.523  1.00  0.00     0.049 A 
ATOM     57  H   UNL A   1      42.523  29.918  28.958  1.00  0.00     0.167 HD
ATOM     58  C   UNL A   1      45.140  30.989  28.348  1.00  0.00     0.074 A 
ATOM     59  C   UNL A   1      46.496  31.146  27.851  1.00  0.00     0.031 C 
ATOM     60  C   UNL A   1      44.465  31.945  29.034  1.00  0.00     0.034 A 
BRANCH  47  61
ATOM     61  C   UNL A   1      38.687  30.459  30.761  1.00  0.00     0.023 A 
ATOM     62  C   UNL A   1      38.455  30.139  32.115  1.00  0.00     0.012 A 
ATOM     63  C   UNL A   1      37.694  31.157  30.043  1.00  0.00     0.148 A 
ATOM     64  C   UNL A   1      37.246  30.467  32.730  1.00  0.00     0.002 A 
ATOM     65  C   UNL A   1      36.510  31.524  30.675  1.00  0.00     0.091 A 
ATOM     66  F   UNL A   1      37.915  31.432  28.749  1.00  0.00    -0.205 F 
ATOM     67  C   UNL A   1      36.279  31.166  32.014  1.00  0.00     0.022 A 
BRANCH  65  68
ATOM     68  S   UNL A   1      35.231  32.490  29.865  1.00  0.00     0.127 S 
ATOM     69  O   UNL A   1      34.284  32.705  30.959  1.00  0.00    -0.237 OA
ATOM     70  O   UNL A   1      35.967  33.686  29.453  1.00  0.00    -0.237 OA
ATOM     71  O   UNL A   1      34.738  31.669  28.768  1.00  0.00    -0.744 OA
ENDBRANCH  65  68
ENDBRANCH  47  61
BRANCH  48  72
ATOM     72  C   UNL A   1      47.030  27.415  25.872  1.00  0.00     0.023 A 
ATOM     73  C   UNL A   1      47.945  26.524  26.464  1.00  0.00     0.012 A 
ATOM     74  C   UNL A   1      47.228  27.808  24.532  1.00  0.00     0.148 A 
ATOM     75  C   UNL A   1      49.042  26.044  25.743  1.00  0.00     0.002 A 
ATOM     76  C   UNL A   1      48.288  27.279  23.801  1.00  0.00     0.091 A 
ATOM     77  F   UNL A   1      46.361  28.672  23.988  1.00  0.00    -0.205 F 
ATOM     78  C   UNL A   1      49.204  26.409  24.409  1.00  0.00     0.022 A 
BRANCH  76  79
ATOM     79  S   UNL A   1      48.477  27.576  22.038  1.00  0.00     0.127 S 
ATOM     80  O   UNL A   1      48.653  26.221  21.523  1.00  0.00    -0.237 OA
ATOM     81  O   UNL A   1      47.198  28.203  21.695  1.00  0.00    -0.237 OA
ATOM     82  O   UNL A   1      49.627  28.461  21.913  1.00  0.00    -0.744 OA
ENDBRANCH  76  79
ENDBRANCH  48  72
BRANCH  60  83
ATOM     83  C   UNL A   1      45.209  33.222  29.303  1.00  0.00     0.023 A 
ATOM     84  C   UNL A   1      45.994  33.345  30.465  1.00  0.00     0.012 A 
ATOM     85  C   UNL A   1      45.160  34.281  28.378  1.00  0.00     0.148 A 
ATOM     86  C   UNL A   1      46.687  34.524  30.726  1.00  0.00     0.002 A 
ATOM     87  C   UNL A   1      45.895  35.433  28.617  1.00  0.00     0.091 A 
ATOM     88  F   UNL A   1      44.387  34.148  27.290  1.00  0.00    -0.205 F 
ATOM     89  C   UNL A   1      46.647  35.563  29.797  1.00  0.00     0.022 A 
BRANCH  87  90
ATOM     90  S   UNL A   1      45.978  36.772  27.425  1.00  0.00     0.127 S 
ATOM     91  O   UNL A   1      46.823  37.739  28.122  1.00  0.00    -0.237 OA
ATOM     92  O   UNL A   1      46.610  36.125  26.274  1.00  0.00    -0.237 OA
ATOM     93  O   UNL A   1      44.600  37.187  27.198  1.00  0.00    -0.744 OA
ENDBRANCH  87  90
ENDBRANCH  60  83
ENDBRANCH  34  35
ENDBRANCH  27  29
ENDBRANCH  26  27
ENDBRANCH  25  26
ENDBRANCH   1  25
TORSDOF 18
ENDMDL
MODEL 2
REMARK VINA RESULT:     -11.4      1.160      3.223
REMARK SMILES CCC[NH2+][C@@]1(C(=O)OCCOC(=O)c2ccc(-c3c4nc(c(-c5cccc(S(=O)(=O)[O-])c5F)c5ccc([nH]5)c(-c5cccc(S(=O)(=O)[O-])c5F)c5nc(c(-c6cccc(S(=O)(=O)[O-])c6F)c6ccc3[nH]6)C=C5)C=C4)cc2)CCC[C@H](n2nc(C)c(C)c2C)C1
REMARK SMILES IDX 9 1 8 2 6 3 7 4 5 5 77 6 89 7 78 8 80 9 79 10 4 11 3 14 2 15
REMARK SMILES IDX 1 16 81 17 82 18 87 19 83 20 85 21 88 22 84 23 86 24 10 25
REMARK SMILES IDX 11 26 12 27 13 28 14 29 15 30 76 31 16 32 75 33 17 34 18 35
REMARK SMILES IDX 19 36 69 37 20 38 74 39 68 40 70 41 21 42 73 43 67 44 66 45
REMARK SMILES IDX 22 47 54 48 34 49 53 50 35 51 38 52 52 53 71 54 36 55 37 56
REMARK SMILES IDX 51 58 72 59 39 60 23 61 24 62 32 63 25 64 27 65 33 66 26 67
REMARK SMILES IDX 28 68 29 69 30 70 31 71 55 72 56 73 64 74 57 75 59 76 65 77
REMARK SMILES IDX 58 78 60 79 61 80 62 81 63 82 40 83 41 84 49 85 42 86 44 87
REMARK SMILES IDX 50 88 43 89 45 90 46 91 47 92 48 93
REMARK H PARENT 4 12 4 13 70 46 38 57
REMARK Flexibility Score: inf
ROOT
ATOM      1  C   UNL A   1      36.681  22.219  23.787  1.00  0.00     0.274 C 
ENDROOT
BRANCH   1   2
ATOM      2  O   UNL A   1      35.783  23.221  24.312  1.00  0.00    -0.457 OA
BRANCH   2   3
ATOM      3  C   UNL A   1      34.636  23.437  23.629  1.00  0.00     0.368 C 
ATOM      4  O   UNL A   1      34.479  23.141  22.448  1.00  0.00    -0.245 OA
BRANCH   3   5
ATOM      5  C   UNL A   1      33.532  24.148  24.488  1.00  0.00     0.196 C 
ATOM      6  C   UNL A   1      34.147  24.296  25.896  1.00  0.00     0.081 C 
ATOM      7  C   UNL A   1      32.152  23.444  24.592  1.00  0.00     0.108 C 
ATOM      8  C   UNL A   1      34.163  22.965  26.648  1.00  0.00     0.009 C 
ATOM      9  C   UNL A   1      32.017  22.179  25.481  1.00  0.00     0.114 C 
ATOM     10  C   UNL A   1      32.743  22.433  26.828  1.00  0.00     0.028 C 
BRANCH   5  11
ATOM     11  N   UNL A   1      33.275  25.422  23.758  1.00  0.00    -0.332 N 
ATOM     12  H   UNL A   1      33.290  26.166  24.456  1.00  0.00     0.347 HD
ATOM     13  H   UNL A   1      34.001  25.427  23.042  1.00  0.00     0.347 HD
BRANCH  11  14
ATOM     14  C   UNL A   1      32.056  25.596  22.990  1.00  0.00     0.261 C 
BRANCH  14  15
ATOM     15  C   UNL A   1      32.347  26.324  21.670  1.00  0.00     0.058 C 
ATOM     16  C   UNL A   1      32.561  25.406  20.472  1.00  0.00     0.010 C 
ENDBRANCH  14  15
ENDBRANCH  11  14
ENDBRANCH   5  11
BRANCH   9  17
ATOM     17  N   UNL A   1      32.300  20.868  24.880  1.00  0.00    -0.266 N 
ATOM     18  N   UNL A   1      32.444  19.808  25.713  1.00  0.00    -0.178 NA
ATOM     19  C   UNL A   1      32.205  20.449  23.562  1.00  0.00     0.039 A 
ATOM     20  C   UNL A   1      32.643  18.759  24.915  1.00  0.00     0.063 A 
ATOM     21  C   UNL A   1      32.640  19.130  23.550  1.00  0.00    -0.007 A 
ATOM     22  C   UNL A   1      31.743  21.284  22.424  1.00  0.00     0.066 C 
ATOM     23  C   UNL A   1      32.754  17.396  25.489  1.00  0.00     0.069 C 
ATOM     24  C   UNL A   1      32.924  18.254  22.385  1.00  0.00     0.048 C 
ENDBRANCH   9  17
ENDBRANCH   3   5
ENDBRANCH   2   3
ENDBRANCH   1   2
BRANCH   1  25
ATOM     25  C   UNL A   1      36.878  21.123  24.824  1.00  0.00     0.275 C 
BRANCH  25  26
ATOM     26  O   UNL A   1      37.557  21.688  25.944  1.00  0.00    -0.458 OA
BRANCH  26  27
ATOM     27  C   UNL A   1      38.846  21.326  26.105  1.00  0.00     0.338 C 
ATOM     28  O   UNL A   1      39.352  20.226  25.940  1.00  0.00    -0.246 OA
BRANCH  27  29
ATOM     29  C   UNL A   1      39.568  22.525  26.526  1.00  0.00     0.060 A 
ATOM     30  C   UNL A   1      39.096  23.782  26.134  1.00  0.00     0.016 A 
ATOM     31  C   UNL A   1      40.699  22.392  27.329  1.00  0.00     0.016 A 
ATOM     32  C   UNL A   1      39.765  24.920  26.542  1.00  0.00     0.010 A 
ATOM     33  C   UNL A   1      41.328  23.542  27.791  1.00  0.00     0.010 A 
ATOM     34  C   UNL A   1      40.871  24.808  27.385  1.00  0.00    -0.014 A 
BRANCH  34  35
ATOM     35  C   UNL A   1      41.587  26.021  27.823  1.00  0.00     0.031 A 
ATOM     36  C   UNL A   1      40.843  27.028  28.644  1.00  0.00     0.074 A 
ATOM     37  C   UNL A   1      42.863  26.204  27.437  1.00  0.00     0.049 A 
ATOM     38  N   UNL A   1      41.174  28.250  28.952  1.00  0.00    -0.248 NA
ATOM     39  C   UNL A   1      39.527  26.611  29.162  1.00  0.00     0.031 C 
ATOM     40  C   UNL A   1      43.651  25.251  26.648  1.00  0.00     0.029 A 
ATOM     41  N   UNL A   1      43.715  27.255  27.634  1.00  0.00    -0.354 N 
ATOM     42  C   UNL A   1      40.074  28.780  29.615  1.00  0.00     0.074 A 
ATOM     43  C   UNL A   1      39.072  27.741  29.683  1.00  0.00     0.031 C 
ATOM     44  C   UNL A   1      44.872  25.761  26.432  1.00  0.00     0.029 A 
ATOM     45  C   UNL A   1      44.925  27.101  26.997  1.00  0.00     0.049 A 
ATOM     46  H   UNL A   1      43.486  28.044  28.177  1.00  0.00     0.167 HD
ATOM     47  C   UNL A   1      39.927  30.029  30.113  1.00  0.00     0.034 A 
ATOM     48  C   UNL A   1      45.941  27.972  26.853  1.00  0.00     0.034 A 
ATOM     49  C   UNL A   1      40.980  31.008  30.064  1.00  0.00     0.049 A 
ATOM     50  C   UNL A   1      45.776  29.330  27.472  1.00  0.00     0.074 A 
ATOM     51  C   UNL A   1      40.987  32.299  30.555  1.00  0.00     0.029 A 
ATOM     52  N   UNL A   1      42.226  30.788  29.489  1.00  0.00    -0.354 N 
ATOM     53  N   UNL A   1      44.742  29.817  28.121  1.00  0.00    -0.248 NA
ATOM     54  C   UNL A   1      46.911  30.251  27.365  1.00  0.00     0.031 C 
ATOM     55  C   UNL A   1      42.236  32.862  30.265  1.00  0.00     0.029 A 
ATOM     56  C   UNL A   1      43.018  31.913  29.621  1.00  0.00     0.049 A 
ATOM     57  H   UNL A   1      42.505  29.951  29.052  1.00  0.00     0.167 HD
ATOM     58  C   UNL A   1      45.106  31.097  28.515  1.00  0.00     0.074 A 
ATOM     59  C   UNL A   1      46.471  31.291  28.058  1.00  0.00     0.031 C 
ATOM     60  C   UNL A   1      44.383  32.037  29.172  1.00  0.00     0.034 A 
BRANCH  47  61
ATOM     61  C   UNL A   1      38.601  30.388  30.734  1.00  0.00     0.023 A 
ATOM     62  C   UNL A   1      38.304  29.993  32.055  1.00  0.00     0.012 A 
ATOM     63  C   UNL A   1      37.643  31.128  30.009  1.00  0.00     0.148 A 
ATOM     64  C   UNL A   1      37.066  30.288  32.628  1.00  0.00     0.002 A 
ATOM     65  C   UNL A   1      36.430  31.461  30.603  1.00  0.00     0.091 A 
ATOM     66  F   UNL A   1      37.927  31.474  28.745  1.00  0.00    -0.205 F 
ATOM     67  C   UNL A   1      36.134  31.029  31.906  1.00  0.00     0.022 A 
BRANCH  65  68
ATOM     68  S   UNL A   1      35.191  32.473  29.786  1.00  0.00     0.127 S 
ATOM     69  O   UNL A   1      34.696  31.562  28.755  1.00  0.00    -0.237 OA
ATOM     70  O   UNL A   1      34.246  32.734  30.873  1.00  0.00    -0.237 OA
ATOM     71  O   UNL A   1      35.892  33.650  29.293  1.00  0.00    -0.744 OA
ENDBRANCH  65  68
ENDBRANCH  47  61
BRANCH  48  72
ATOM     72  C   UNL A   1      47.178  27.565  26.125  1.00  0.00     0.023 A 
ATOM     73  C   UNL A   1      48.160  26.810  26.793  1.00  0.00     0.012 A 
ATOM     74  C   UNL A   1      47.349  27.848  24.754  1.00  0.00     0.148 A 
ATOM     75  C   UNL A   1      49.296  26.358  26.116  1.00  0.00     0.002 A 
ATOM     76  C   UNL A   1      48.452  27.344  24.071  1.00  0.00     0.091 A 
ATOM     77  F   UNL A   1      46.417  28.586  24.135  1.00  0.00    -0.205 F 
ATOM     78  C   UNL A   1      49.434  26.611  24.754  1.00  0.00     0.022 A 
BRANCH  76  79
ATOM     79  S   UNL A   1      48.625  27.493  22.288  1.00  0.00     0.127 S 
ATOM     80  O   UNL A   1      49.858  28.266  22.170  1.00  0.00    -0.237 OA
ATOM     81  O   UNL A   1      48.735  26.093  21.873  1.00  0.00    -0.237 OA
ATOM     82  O   UNL A   1      47.411  28.156  21.833  1.00  0.00    -0.744 OA
ENDBRANCH  76  79
ENDBRANCH  48  72
BRANCH  60  83
ATOM     83  C   UNL A   1      45.079  33.337  29.455  1.00  0.00     0.023 A 
ATOM     84  C   UNL A   1      45.808  33.498  30.649  1.00  0.00     0.012 A 
ATOM     85  C   UNL A   1      45.043  34.381  28.513  1.00  0.00     0.148 A 
ATOM     86  C   UNL A   1      46.456  34.699  30.922  1.00  0.00     0.002 A 
ATOM     87  C   UNL A   1      45.736  35.556  28.766  1.00  0.00     0.091 A 
ATOM     88  F   UNL A   1      44.323  34.211  27.393  1.00  0.00    -0.205 F 
ATOM     89  C   UNL A   1      46.430  35.723  29.976  1.00  0.00     0.022 A 
BRANCH  87  90
ATOM     90  S   UNL A   1      45.836  36.879  27.559  1.00  0.00     0.127 S 
ATOM     91  O   UNL A   1      46.734  37.821  28.223  1.00  0.00    -0.237 OA
ATOM     92  O   UNL A   1      46.413  36.199  26.398  1.00  0.00    -0.237 OA
ATOM     93  O   UNL A   1      44.468  37.343  27.363  1.00  0.00    -0.744 OA
ENDBRANCH  87  90
ENDBRANCH  60  83
ENDBRANCH  34  35
ENDBRANCH  27  29
ENDBRANCH  26  27
ENDBRANCH  25  26
ENDBRANCH   1  25
TORSDOF 18
ENDMDL
MODEL 3
REMARK VINA RESULT:     -11.3      5.276     10.243
REMARK SMILES CCC[NH2+][C@@]1(C(=O)OCCOC(=O)c2ccc(-c3c4nc(c(-c5cccc(S(=O)(=O)[O-])c5F)c5ccc([nH]5)c(-c5cccc(S(=O)(=O)[O-])c5F)c5nc(c(-c6cccc(S(=O)(=O)[O-])c6F)c6ccc3[nH]6)C=C5)C=C4)cc2)CCC[C@H](n2nc(C)c(C)c2C)C1
REMARK SMILES IDX 9 1 8 2 6 3 7 4 5 5 77 6 89 7 78 8 80 9 79 10 4 11 3 14 2 15
REMARK SMILES IDX 1 16 81 17 82 18 87 19 83 20 85 21 88 22 84 23 86 24 10 25
REMARK SMILES IDX 11 26 12 27 13 28 14 29 15 30 76 31 16 32 75 33 17 34 18 35
REMARK SMILES IDX 19 36 69 37 20 38 74 39 68 40 70 41 21 42 73 43 67 44 66 45
REMARK SMILES IDX 22 47 54 48 34 49 53 50 35 51 38 52 52 53 71 54 36 55 37 56
REMARK SMILES IDX 51 58 72 59 39 60 23 61 24 62 32 63 25 64 27 65 33 66 26 67
REMARK SMILES IDX 28 68 29 69 30 70 31 71 55 72 56 73 64 74 57 75 59 76 65 77
REMARK SMILES IDX 58 78 60 79 61 80 62 81 63 82 40 83 41 84 49 85 42 86 44 87
REMARK SMILES IDX 50 88 43 89 45 90 46 91 47 92 48 93
REMARK H PARENT 4 12 4 13 70 46 38 57
REMARK Flexibility Score: inf
ROOT
ATOM      1  C   UNL A   1      32.011  28.127  26.307  1.00  0.00     0.274 C 
ENDROOT
BRANCH   1   2
ATOM      2  O   UNL A   1      31.597  27.817  24.957  1.00  0.00    -0.457 OA
BRANCH   2   3
ATOM      3  C   UNL A   1      31.840  26.564  24.511  1.00  0.00     0.368 C 
ATOM      4  O   UNL A   1      32.965  26.127  24.286  1.00  0.00    -0.245 OA
BRANCH   3   5
ATOM      5  C   UNL A   1      30.532  25.733  24.268  1.00  0.00     0.196 C 
ATOM      6  C   UNL A   1      29.921  25.518  25.669  1.00  0.00     0.081 C 
ATOM      7  C   UNL A   1      30.686  24.365  23.549  1.00  0.00     0.108 C 
ATOM      8  C   UNL A   1      30.688  24.461  26.463  1.00  0.00     0.009 C 
ATOM      9  C   UNL A   1      31.291  23.168  24.330  1.00  0.00     0.114 C 
ATOM     10  C   UNL A   1      30.651  23.116  25.742  1.00  0.00     0.028 C 
BRANCH   5  11
ATOM     11  N   UNL A   1      29.735  26.583  23.339  1.00  0.00    -0.332 N 
ATOM     12  H   UNL A   1      30.288  27.422  23.164  1.00  0.00     0.347 HD
ATOM     13  H   UNL A   1      29.557  25.959  22.552  1.00  0.00     0.347 HD
BRANCH  11  14
ATOM     14  C   UNL A   1      28.406  27.031  23.710  1.00  0.00     0.261 C 
BRANCH  14  15
ATOM     15  C   UNL A   1      28.120  28.422  23.126  1.00  0.00     0.058 C 
ATOM     16  C   UNL A   1      29.326  29.106  22.494  1.00  0.00     0.010 C 
ENDBRANCH  14  15
ENDBRANCH  11  14
ENDBRANCH   5  11
BRANCH   9  17
ATOM     17  N   UNL A   1      32.750  22.993  24.322  1.00  0.00    -0.266 N 
ATOM     18  N   UNL A   1      33.335  22.508  25.444  1.00  0.00    -0.178 NA
ATOM     19  C   UNL A   1      33.645  23.000  23.264  1.00  0.00     0.039 A 
ATOM     20  C   UNL A   1      34.632  22.407  25.148  1.00  0.00     0.063 A 
ATOM     21  C   UNL A   1      34.904  22.836  23.829  1.00  0.00    -0.007 A 
ATOM     22  C   UNL A   1      33.287  23.172  21.833  1.00  0.00     0.066 C 
ATOM     23  C   UNL A   1      35.576  21.819  26.129  1.00  0.00     0.069 C 
ATOM     24  C   UNL A   1      36.236  22.959  23.185  1.00  0.00     0.048 C 
ENDBRANCH   9  17
ENDBRANCH   3   5
ENDBRANCH   2   3
ENDBRANCH   1   2
BRANCH   1  25
ATOM     25  C   UNL A   1      31.795  29.609  26.574  1.00  0.00     0.275 C 
BRANCH  25  26
ATOM     26  O   UNL A   1      33.021  30.290  26.312  1.00  0.00    -0.458 OA
BRANCH  26  27
ATOM     27  C   UNL A   1      33.279  31.370  27.079  1.00  0.00     0.338 C 
ATOM     28  O   UNL A   1      32.625  32.395  27.191  1.00  0.00    -0.246 OA
BRANCH  27  29
ATOM     29  C   UNL A   1      34.528  31.091  27.786  1.00  0.00     0.060 A 
ATOM     30  C   UNL A   1      35.437  32.131  28.004  1.00  0.00     0.016 A 
ATOM     31  C   UNL A   1      34.775  29.801  28.250  1.00  0.00     0.016 A 
ATOM     32  C   UNL A   1      36.612  31.878  28.686  1.00  0.00     0.010 A 
ATOM     33  C   UNL A   1      35.926  29.568  28.992  1.00  0.00     0.010 A 
ATOM     34  C   UNL A   1      36.854  30.603  29.199  1.00  0.00    -0.014 A 
BRANCH  34  35
ATOM     35  C   UNL A   1      38.107  30.330  29.928  1.00  0.00     0.031 A 
ATOM     36  C   UNL A   1      39.133  29.455  29.276  1.00  0.00     0.074 A 
ATOM     37  C   UNL A   1      38.270  30.838  31.163  1.00  0.00     0.049 A 
ATOM     38  N   UNL A   1      40.190  28.897  29.793  1.00  0.00    -0.248 NA
ATOM     39  C   UNL A   1      38.917  29.136  27.853  1.00  0.00     0.031 C 
ATOM     40  C   UNL A   1      37.314  31.713  31.849  1.00  0.00     0.029 A 
ATOM     41  N   UNL A   1      39.282  30.678  32.070  1.00  0.00    -0.354 N 
ATOM     42  C   UNL A   1      40.714  28.088  28.791  1.00  0.00     0.074 A 
ATOM     43  C   UNL A   1      39.869  28.242  27.629  1.00  0.00     0.031 C 
ATOM     44  C   UNL A   1      37.787  32.015  33.067  1.00  0.00     0.029 A 
ATOM     45  C   UNL A   1      39.034  31.296  33.274  1.00  0.00     0.049 A 
ATOM     46  H   UNL A   1      40.104  30.171  31.880  1.00  0.00     0.167 HD
ATOM     47  C   UNL A   1      41.803  27.288  28.854  1.00  0.00     0.034 A 
ATOM     48  C   UNL A   1      39.724  31.242  34.428  1.00  0.00     0.034 A 
ATOM     49  C   UNL A   1      42.640  27.213  30.022  1.00  0.00     0.049 A 
ATOM     50  C   UNL A   1      40.966  30.396  34.449  1.00  0.00     0.074 A 
ATOM     51  C   UNL A   1      43.790  26.475  30.219  1.00  0.00     0.029 A 
ATOM     52  N   UNL A   1      42.409  27.923  31.196  1.00  0.00    -0.354 N 
ATOM     53  N   UNL A   1      41.470  29.653  33.490  1.00  0.00    -0.248 NA
ATOM     54  C   UNL A   1      41.745  30.393  35.691  1.00  0.00     0.031 C 
ATOM     55  C   UNL A   1      44.247  26.730  31.518  1.00  0.00     0.029 A 
ATOM     56  C   UNL A   1      43.400  27.650  32.120  1.00  0.00     0.049 A 
ATOM     57  H   UNL A   1      41.650  28.531  31.346  1.00  0.00     0.167 HD
ATOM     58  C   UNL A   1      42.635  29.104  34.004  1.00  0.00     0.074 A 
ATOM     59  C   UNL A   1      42.776  29.633  35.350  1.00  0.00     0.031 C 
ATOM     60  C   UNL A   1      43.503  28.231  33.435  1.00  0.00     0.034 A 
BRANCH  47  61
ATOM     61  C   UNL A   1      42.130  26.448  27.645  1.00  0.00     0.023 A 
ATOM     62  C   UNL A   1      42.777  27.026  26.532  1.00  0.00     0.012 A 
ATOM     63  C   UNL A   1      41.804  25.077  27.612  1.00  0.00     0.148 A 
ATOM     64  C   UNL A   1      43.053  26.267  25.393  1.00  0.00     0.002 A 
ATOM     65  C   UNL A   1      42.126  24.315  26.493  1.00  0.00     0.091 A 
ATOM     66  F   UNL A   1      41.167  24.546  28.666  1.00  0.00    -0.205 F 
ATOM     67  C   UNL A   1      42.736  24.912  25.378  1.00  0.00     0.022 A 
BRANCH  65  68
ATOM     68  S   UNL A   1      41.828  22.546  26.401  1.00  0.00     0.127 S 
ATOM     69  O   UNL A   1      40.366  22.490  26.427  1.00  0.00    -0.237 OA
ATOM     70  O   UNL A   1      42.427  22.204  25.110  1.00  0.00    -0.237 OA
ATOM     71  O   UNL A   1      42.494  21.963  27.556  1.00  0.00    -0.744 OA
ENDBRANCH  65  68
ENDBRANCH  47  61
BRANCH  48  72
ATOM     72  C   UNL A   1      39.263  32.023  35.613  1.00  0.00     0.023 A 
ATOM     73  C   UNL A   1      39.461  33.416  35.645  1.00  0.00     0.012 A 
ATOM     74  C   UNL A   1      38.556  31.409  36.668  1.00  0.00     0.148 A 
ATOM     75  C   UNL A   1      38.979  34.181  36.711  1.00  0.00     0.002 A 
ATOM     76  C   UNL A   1      38.026  32.184  37.695  1.00  0.00     0.091 A 
ATOM     77  F   UNL A   1      38.393  30.079  36.634  1.00  0.00    -0.205 F 
ATOM     78  C   UNL A   1      38.249  33.568  37.726  1.00  0.00     0.022 A 
BRANCH  76  79
ATOM     79  S   UNL A   1      36.944  31.494  38.954  1.00  0.00     0.127 S 
ATOM     80  O   UNL A   1      37.777  31.592  40.150  1.00  0.00    -0.237 OA
ATOM     81  O   UNL A   1      35.807  32.415  38.919  1.00  0.00    -0.237 OA
ATOM     82  O   UNL A   1      36.633  30.144  38.504  1.00  0.00    -0.744 OA
ENDBRANCH  76  79
ENDBRANCH  48  72
BRANCH  60  83
ATOM     83  C   UNL A   1      44.687  27.830  34.267  1.00  0.00     0.023 A 
ATOM     84  C   UNL A   1      45.882  28.571  34.191  1.00  0.00     0.012 A 
ATOM     85  C   UNL A   1      44.595  26.744  35.157  1.00  0.00     0.148 A 
ATOM     86  C   UNL A   1      46.986  28.207  34.957  1.00  0.00     0.002 A 
ATOM     87  C   UNL A   1      45.681  26.420  35.957  1.00  0.00     0.091 A 
ATOM     88  F   UNL A   1      43.453  26.041  35.195  1.00  0.00    -0.205 F 
ATOM     89  C   UNL A   1      46.883  27.140  35.847  1.00  0.00     0.022 A 
BRANCH  87  90
ATOM     90  S   UNL A   1      45.595  25.128  37.198  1.00  0.00     0.127 S 
ATOM     91  O   UNL A   1      44.613  25.676  38.132  1.00  0.00    -0.237 OA
ATOM     92  O   UNL A   1      45.124  23.980  36.422  1.00  0.00    -0.237 OA
ATOM     93  O   UNL A   1      46.948  24.986  37.719  1.00  0.00    -0.744 OA
ENDBRANCH  87  90
ENDBRANCH  60  83
ENDBRANCH  34  35
ENDBRANCH  27  29
ENDBRANCH  26  27
ENDBRANCH  25  26
ENDBRANCH   1  25
TORSDOF 18
ENDMDL
