MODEL 1
REMARK VINA RESULT:     -11.1      0.000      0.000
REMARK SMILES [NH3+]CC1([C@H](O)C(=O)OCCOC(=O)c2ccc(-c3c4nc(c(-c5cccc(S(=O)(=O)[O-])c5F)c5ccc([nH]5)c(-c5cccc(S(=O)(=O)[O-])c5F)c5nc(c(-c6cccc(S(=O)(=O)[O-])c6F)c6ccc3[nH]6)C=C5)C=C4)cc2)Cc2ccccc2C1
REMARK SMILES IDX 9 1 8 2 6 3 7 4 4 5 3 6 77 7 84 8 78 9 83 10 79 11 82 12
REMARK SMILES IDX 80 13 81 14 2 15 1 16 5 20 10 22 11 23 12 24 13 25 14 26
REMARK SMILES IDX 15 27 76 28 16 29 75 30 17 31 18 32 19 33 69 34 20 35 74 36
REMARK SMILES IDX 68 37 70 38 21 39 73 40 67 41 66 42 22 44 54 45 34 46 53 47
REMARK SMILES IDX 35 48 38 49 52 50 71 51 36 52 37 53 51 55 72 56 39 57 23 58
REMARK SMILES IDX 24 59 32 60 25 61 27 62 33 63 26 64 28 65 29 66 30 67 31 68
REMARK SMILES IDX 55 69 56 70 64 71 57 72 59 73 65 74 58 75 60 76 61 77 62 78
REMARK SMILES IDX 63 79 40 80 41 81 49 82 42 83 44 84 50 85 43 86 45 87 46 88
REMARK SMILES IDX 47 89 48 90
REMARK H PARENT 1 17 1 18 1 19 5 21 70 43 38 54
REMARK Flexibility Score: inf
ROOT
ATOM      1  C   UNL A   1      36.508  22.225  23.860  1.00  0.00     0.274 C 
ENDROOT
BRANCH   1   2
ATOM      2  O   UNL A   1      35.098  21.991  24.035  1.00  0.00    -0.460 OA
BRANCH   2   3
ATOM      3  C   UNL A   1      34.273  23.007  23.659  1.00  0.00     0.335 C 
ATOM      4  O   UNL A   1      34.503  23.785  22.740  1.00  0.00    -0.249 OA
BRANCH   3   5
ATOM      5  C   UNL A   1      32.982  23.042  24.493  1.00  0.00     0.236 C 
BRANCH   5   6
ATOM      6  C   UNL A   1      33.156  23.517  25.980  1.00  0.00     0.064 C 
ATOM      7  C   UNL A   1      31.860  24.186  26.545  1.00  0.00     0.052 C 
ATOM      8  C   UNL A   1      34.222  24.677  26.014  1.00  0.00     0.052 C 
ATOM      9  C   UNL A   1      32.055  25.638  26.228  1.00  0.00    -0.044 A 
ATOM     10  C   UNL A   1      33.388  25.913  25.926  1.00  0.00    -0.044 A 
ATOM     11  C   UNL A   1      31.107  26.648  26.238  1.00  0.00     0.004 A 
ATOM     12  C   UNL A   1      33.811  27.201  25.639  1.00  0.00     0.004 A 
ATOM     13  C   UNL A   1      31.518  27.950  25.935  1.00  0.00     0.000 A 
ATOM     14  C   UNL A   1      32.862  28.224  25.640  1.00  0.00     0.000 A 
BRANCH   6  15
ATOM     15  C   UNL A   1      33.664  22.407  26.938  1.00  0.00     0.269 C 
BRANCH  15  16
ATOM     16  N   UNL A   1      35.110  22.352  27.153  1.00  0.00    -0.357 N 
ATOM     17  H   UNL A   1      35.591  22.555  26.277  1.00  0.00     0.344 HD
ATOM     18  H   UNL A   1      35.370  21.420  27.476  1.00  0.00     0.344 HD
ATOM     19  H   UNL A   1      35.376  23.043  27.855  1.00  0.00     0.344 HD
ENDBRANCH  15  16
ENDBRANCH   6  15
ENDBRANCH   5   6
BRANCH   5  20
ATOM     20  O   UNL A   1      32.244  21.822  24.395  1.00  0.00    -0.381 OA
ATOM     21  H   UNL A   1      32.007  21.516  25.285  1.00  0.00     0.211 HD
ENDBRANCH   5  20
ENDBRANCH   3   5
ENDBRANCH   2   3
ENDBRANCH   1   2
BRANCH   1  22
ATOM     22  C   UNL A   1      37.349  21.105  24.486  1.00  0.00     0.275 C 
BRANCH  22  23
ATOM     23  O   UNL A   1      37.713  21.381  25.853  1.00  0.00    -0.458 OA
BRANCH  23  24
ATOM     24  C   UNL A   1      39.031  21.236  26.133  1.00  0.00     0.338 C 
ATOM     25  O   UNL A   1      39.747  20.308  25.788  1.00  0.00    -0.246 OA
BRANCH  24  26
ATOM     26  C   UNL A   1      39.576  22.445  26.783  1.00  0.00     0.060 A 
ATOM     27  C   UNL A   1      39.011  23.667  26.404  1.00  0.00     0.016 A 
ATOM     28  C   UNL A   1      40.656  22.414  27.669  1.00  0.00     0.016 A 
ATOM     29  C   UNL A   1      39.526  24.861  26.888  1.00  0.00     0.010 A 
ATOM     30  C   UNL A   1      41.185  23.621  28.147  1.00  0.00     0.010 A 
ATOM     31  C   UNL A   1      40.637  24.849  27.737  1.00  0.00    -0.014 A 
BRANCH  31  32
ATOM     32  C   UNL A   1      41.267  26.146  28.074  1.00  0.00     0.031 A 
ATOM     33  C   UNL A   1      42.656  26.440  27.581  1.00  0.00     0.074 A 
ATOM     34  C   UNL A   1      40.565  27.085  28.733  1.00  0.00     0.049 A 
ATOM     35  N   UNL A   1      43.363  27.532  27.706  1.00  0.00    -0.248 NA
ATOM     36  C   UNL A   1      43.337  25.365  26.841  1.00  0.00     0.031 C 
ATOM     37  C   UNL A   1      39.201  26.919  29.235  1.00  0.00     0.029 A 
ATOM     38  N   UNL A   1      40.900  28.367  29.088  1.00  0.00    -0.354 N 
ATOM     39  C   UNL A   1      44.581  27.267  27.094  1.00  0.00     0.074 A 
ATOM     40  C   UNL A   1      44.521  25.908  26.600  1.00  0.00     0.031 C 
ATOM     41  C   UNL A   1      38.816  28.056  29.838  1.00  0.00     0.029 A 
ATOM     42  C   UNL A   1      39.912  29.020  29.784  1.00  0.00     0.049 A 
ATOM     43  H   UNL A   1      41.766  28.779  28.865  1.00  0.00     0.167 HD
ATOM     44  C   UNL A   1      45.646  28.088  26.940  1.00  0.00     0.034 A 
ATOM     45  C   UNL A   1      39.899  30.255  30.325  1.00  0.00     0.034 A 
ATOM     46  C   UNL A   1      45.688  29.450  27.399  1.00  0.00     0.049 A 
ATOM     47  C   UNL A   1      41.098  31.147  30.137  1.00  0.00     0.074 A 
ATOM     48  C   UNL A   1      46.712  30.372  27.270  1.00  0.00     0.029 A 
ATOM     49  N   UNL A   1      44.660  30.087  28.075  1.00  0.00    -0.354 N 
ATOM     50  N   UNL A   1      42.206  30.912  29.475  1.00  0.00    -0.248 NA
ATOM     51  C   UNL A   1      41.033  32.484  30.743  1.00  0.00     0.031 C 
ATOM     52  C   UNL A   1      46.306  31.564  27.880  1.00  0.00     0.029 A 
ATOM     53  C   UNL A   1      45.024  31.389  28.374  1.00  0.00     0.049 A 
ATOM     54  H   UNL A   1      43.797  29.675  28.310  1.00  0.00     0.167 HD
ATOM     55  C   UNL A   1      42.957  32.078  29.561  1.00  0.00     0.074 A 
ATOM     56  C   UNL A   1      42.164  33.029  30.315  1.00  0.00     0.031 C 
ATOM     57  C   UNL A   1      44.199  32.336  29.081  1.00  0.00     0.034 A 
BRANCH  44  58
ATOM     58  C   UNL A   1      46.849  27.535  26.223  1.00  0.00     0.023 A 
ATOM     59  C   UNL A   1      46.989  27.743  24.835  1.00  0.00     0.012 A 
ATOM     60  C   UNL A   1      47.855  26.844  26.925  1.00  0.00     0.148 A 
ATOM     61  C   UNL A   1      48.100  27.246  24.152  1.00  0.00     0.002 A 
ATOM     62  C   UNL A   1      48.978  26.385  26.244  1.00  0.00     0.091 A 
ATOM     63  F   UNL A   1      47.689  26.634  28.238  1.00  0.00    -0.205 F 
ATOM     64  C   UNL A   1      49.097  26.576  24.858  1.00  0.00     0.022 A 
BRANCH  62  65
ATOM     65  S   UNL A   1      50.345  25.570  27.077  1.00  0.00     0.127 S 
ATOM     66  O   UNL A   1      50.674  26.540  28.121  1.00  0.00    -0.237 OA
ATOM     67  O   UNL A   1      49.721  24.339  27.564  1.00  0.00    -0.237 OA
ATOM     68  O   UNL A   1      51.369  25.369  26.062  1.00  0.00    -0.744 OA
ENDBRANCH  62  65
ENDBRANCH  44  58
BRANCH  45  69
ATOM     69  C   UNL A   1      38.692  30.734  31.056  1.00  0.00     0.023 A 
ATOM     70  C   UNL A   1      38.615  30.578  32.453  1.00  0.00     0.012 A 
ATOM     71  C   UNL A   1      37.631  31.364  30.377  1.00  0.00     0.148 A 
ATOM     72  C   UNL A   1      37.493  31.017  33.158  1.00  0.00     0.002 A 
ATOM     73  C   UNL A   1      36.542  31.850  31.091  1.00  0.00     0.091 A 
ATOM     74  F   UNL A   1      37.710  31.482  29.043  1.00  0.00    -0.205 F 
ATOM     75  C   UNL A   1      36.463  31.664  32.479  1.00  0.00     0.022 A 
BRANCH  73  76
ATOM     76  S   UNL A   1      35.239  32.809  30.310  1.00  0.00     0.127 S 
ATOM     77  O   UNL A   1      34.770  31.891  29.275  1.00  0.00    -0.237 OA
ATOM     78  O   UNL A   1      34.306  33.017  31.419  1.00  0.00    -0.237 OA
ATOM     79  O   UNL A   1      35.884  34.027  29.837  1.00  0.00    -0.744 OA
ENDBRANCH  73  76
ENDBRANCH  45  69
BRANCH  57  80
ATOM     80  C   UNL A   1      44.771  33.705  29.336  1.00  0.00     0.023 A 
ATOM     81  C   UNL A   1      45.455  33.960  30.542  1.00  0.00     0.012 A 
ATOM     82  C   UNL A   1      44.686  34.719  28.362  1.00  0.00     0.148 A 
ATOM     83  C   UNL A   1      46.014  35.213  30.789  1.00  0.00     0.002 A 
ATOM     84  C   UNL A   1      45.287  35.951  28.596  1.00  0.00     0.091 A 
ATOM     85  F   UNL A   1      44.013  34.467  27.230  1.00  0.00    -0.205 F 
ATOM     86  C   UNL A   1      45.940  36.204  29.812  1.00  0.00     0.022 A 
BRANCH  84  87
ATOM     87  S   UNL A   1      45.315  37.246  27.350  1.00  0.00     0.127 S 
ATOM     88  O   UNL A   1      46.044  36.598  26.262  1.00  0.00    -0.237 OA
ATOM     89  O   UNL A   1      43.891  37.460  27.087  1.00  0.00    -0.237 OA
ATOM     90  O   UNL A   1      45.984  38.379  27.976  1.00  0.00    -0.744 OA
ENDBRANCH  84  87
ENDBRANCH  57  80
ENDBRANCH  31  32
ENDBRANCH  24  26
ENDBRANCH  23  24
ENDBRANCH  22  23
ENDBRANCH   1  22
TORSDOF 18
ENDMDL
MODEL 2
REMARK VINA RESULT:     -10.9      5.289     10.127
REMARK SMILES [NH3+]CC1([C@H](O)C(=O)OCCOC(=O)c2ccc(-c3c4nc(c(-c5cccc(S(=O)(=O)[O-])c5F)c5ccc([nH]5)c(-c5cccc(S(=O)(=O)[O-])c5F)c5nc(c(-c6cccc(S(=O)(=O)[O-])c6F)c6ccc3[nH]6)C=C5)C=C4)cc2)Cc2ccccc2C1
REMARK SMILES IDX 9 1 8 2 6 3 7 4 4 5 3 6 77 7 84 8 78 9 83 10 79 11 82 12
REMARK SMILES IDX 80 13 81 14 2 15 1 16 5 20 10 22 11 23 12 24 13 25 14 26
REMARK SMILES IDX 15 27 76 28 16 29 75 30 17 31 18 32 19 33 69 34 20 35 74 36
REMARK SMILES IDX 68 37 70 38 21 39 73 40 67 41 66 42 22 44 54 45 34 46 53 47
REMARK SMILES IDX 35 48 38 49 52 50 71 51 36 52 37 53 51 55 72 56 39 57 23 58
REMARK SMILES IDX 24 59 32 60 25 61 27 62 33 63 26 64 28 65 29 66 30 67 31 68
REMARK SMILES IDX 55 69 56 70 64 71 57 72 59 73 65 74 58 75 60 76 61 77 62 78
REMARK SMILES IDX 63 79 40 80 41 81 49 82 42 83 44 84 50 85 43 86 45 87 46 88
REMARK SMILES IDX 47 89 48 90
REMARK H PARENT 1 17 1 18 1 19 5 21 70 43 38 54
REMARK Flexibility Score: inf
ROOT
ATOM      1  C   UNL A   1      31.799  28.224  27.114  1.00  0.00     0.274 C 
ENDROOT
BRANCH   1   2
ATOM      2  O   UNL A   1      31.008  27.724  26.020  1.00  0.00    -0.460 OA
BRANCH   2   3
ATOM      3  C   UNL A   1      31.319  26.473  25.580  1.00  0.00     0.335 C 
ATOM      4  O   UNL A   1      31.429  25.491  26.303  1.00  0.00    -0.249 OA
BRANCH   3   5
ATOM      5  C   UNL A   1      31.471  26.420  24.052  1.00  0.00     0.236 C 
BRANCH   5   6
ATOM      6  C   UNL A   1      32.914  26.721  23.509  1.00  0.00     0.064 C 
ATOM      7  C   UNL A   1      33.395  25.653  22.473  1.00  0.00     0.052 C 
ATOM      8  C   UNL A   1      33.937  26.576  24.699  1.00  0.00     0.052 C 
ATOM      9  C   UNL A   1      34.101  24.640  23.324  1.00  0.00    -0.044 A 
ATOM     10  C   UNL A   1      34.404  25.162  24.580  1.00  0.00    -0.044 A 
ATOM     11  C   UNL A   1      34.472  23.350  22.983  1.00  0.00     0.004 A 
ATOM     12  C   UNL A   1      35.093  24.416  25.523  1.00  0.00     0.004 A 
ATOM     13  C   UNL A   1      35.154  22.581  23.931  1.00  0.00     0.000 A 
ATOM     14  C   UNL A   1      35.464  23.112  25.192  1.00  0.00     0.000 A 
BRANCH   6  15
ATOM     15  C   UNL A   1      33.084  28.155  22.939  1.00  0.00     0.269 C 
BRANCH  15  16
ATOM     16  N   UNL A   1      32.506  29.238  23.734  1.00  0.00    -0.357 N 
ATOM     17  H   UNL A   1      33.191  29.559  24.420  1.00  0.00     0.344 HD
ATOM     18  H   UNL A   1      31.675  28.897  24.218  1.00  0.00     0.344 HD
ATOM     19  H   UNL A   1      32.251  30.012  23.121  1.00  0.00     0.344 HD
ENDBRANCH  15  16
ENDBRANCH   6  15
ENDBRANCH   5   6
BRANCH   5  20
ATOM     20  O   UNL A   1      30.468  27.187  23.381  1.00  0.00    -0.381 OA
ATOM     21  H   UNL A   1      30.518  27.020  22.427  1.00  0.00     0.211 HD
ENDBRANCH   5  20
ENDBRANCH   3   5
ENDBRANCH   2   3
ENDBRANCH   1   2
BRANCH   1  22
ATOM     22  C   UNL A   1      31.826  29.758  27.139  1.00  0.00     0.275 C 
BRANCH  22  23
ATOM     23  O   UNL A   1      33.036  30.302  26.575  1.00  0.00    -0.458 OA
BRANCH  23  24
ATOM     24  C   UNL A   1      33.561  31.350  27.254  1.00  0.00     0.338 C 
ATOM     25  O   UNL A   1      32.967  32.361  27.599  1.00  0.00    -0.246 OA
BRANCH  24  26
ATOM     26  C   UNL A   1      34.939  31.063  27.699  1.00  0.00     0.060 A 
ATOM     27  C   UNL A   1      35.265  29.717  27.897  1.00  0.00     0.016 A 
ATOM     28  C   UNL A   1      35.869  32.063  27.998  1.00  0.00     0.016 A 
ATOM     29  C   UNL A   1      36.505  29.361  28.408  1.00  0.00     0.010 A 
ATOM     30  C   UNL A   1      37.116  31.703  28.528  1.00  0.00     0.010 A 
ATOM     31  C   UNL A   1      37.427  30.351  28.758  1.00  0.00    -0.014 A 
BRANCH  31  32
ATOM     32  C   UNL A   1      38.655  29.935  29.474  1.00  0.00     0.031 A 
ATOM     33  C   UNL A   1      38.913  30.458  30.859  1.00  0.00     0.074 A 
ATOM     34  C   UNL A   1      39.479  29.025  28.925  1.00  0.00     0.049 A 
ATOM     35  N   UNL A   1      39.886  30.171  31.682  1.00  0.00    -0.248 NA
ATOM     36  C   UNL A   1      37.941  31.427  31.392  1.00  0.00     0.031 C 
ATOM     37  C   UNL A   1      39.313  28.430  27.599  1.00  0.00     0.029 A 
ATOM     38  N   UNL A   1      40.617  28.438  29.417  1.00  0.00    -0.354 N 
ATOM     39  C   UNL A   1      39.666  30.946  32.814  1.00  0.00     0.074 A 
ATOM     40  C   UNL A   1      38.468  31.720  32.571  1.00  0.00     0.031 C 
ATOM     41  C   UNL A   1      40.316  27.563  27.380  1.00  0.00     0.029 A 
ATOM     42  C   UNL A   1      41.206  27.560  28.539  1.00  0.00     0.049 A 
ATOM     43  H   UNL A   1      40.977  28.628  30.314  1.00  0.00     0.167 HD
ATOM     44  C   UNL A   1      40.386  30.994  33.960  1.00  0.00     0.034 A 
ATOM     45  C   UNL A   1      42.340  26.842  28.656  1.00  0.00     0.034 A 
ATOM     46  C   UNL A   1      41.555  30.196  34.211  1.00  0.00     0.049 A 
ATOM     47  C   UNL A   1      43.121  26.914  29.941  1.00  0.00     0.074 A 
ATOM     48  C   UNL A   1      42.341  30.153  35.349  1.00  0.00     0.029 A 
ATOM     49  N   UNL A   1      42.106  29.298  33.311  1.00  0.00    -0.354 N 
ATOM     50  N   UNL A   1      42.847  27.582  31.037  1.00  0.00    -0.248 NA
ATOM     51  C   UNL A   1      44.348  26.110  30.020  1.00  0.00     0.031 C 
ATOM     52  C   UNL A   1      43.375  29.237  35.132  1.00  0.00     0.029 A 
ATOM     53  C   UNL A   1      43.224  28.697  33.864  1.00  0.00     0.049 A 
ATOM     54  H   UNL A   1      41.755  29.114  32.410  1.00  0.00     0.167 HD
ATOM     55  C   UNL A   1      43.851  27.259  31.943  1.00  0.00     0.074 A 
ATOM     56  C   UNL A   1      44.723  26.311  31.276  1.00  0.00     0.031 C 
ATOM     57  C   UNL A   1      44.049  27.718  33.203  1.00  0.00     0.034 A 
BRANCH  44  58
ATOM     58  C   UNL A   1      39.911  31.930  35.038  1.00  0.00     0.023 A 
ATOM     59  C   UNL A   1      40.274  33.292  34.988  1.00  0.00     0.012 A 
ATOM     60  C   UNL A   1      39.078  31.473  36.078  1.00  0.00     0.148 A 
ATOM     61  C   UNL A   1      39.838  34.179  35.972  1.00  0.00     0.002 A 
ATOM     62  C   UNL A   1      38.617  32.372  37.035  1.00  0.00     0.091 A 
ATOM     63  F   UNL A   1      38.769  30.170  36.123  1.00  0.00    -0.205 F 
ATOM     64  C   UNL A   1      39.003  33.721  36.989  1.00  0.00     0.022 A 
BRANCH  62  65
ATOM     65  S   UNL A   1      37.485  31.888  38.344  1.00  0.00     0.127 S 
ATOM     66  O   UNL A   1      38.315  32.073  39.533  1.00  0.00    -0.237 OA
ATOM     67  O   UNL A   1      36.406  32.865  38.196  1.00  0.00    -0.237 OA
ATOM     68  O   UNL A   1      37.102  30.514  38.053  1.00  0.00    -0.744 OA
ENDBRANCH  62  65
ENDBRANCH  44  58
BRANCH  45  69
ATOM     69  C   UNL A   1      42.780  25.959  27.539  1.00  0.00     0.023 A 
ATOM     70  C   UNL A   1      43.743  26.422  26.622  1.00  0.00     0.012 A 
ATOM     71  C   UNL A   1      42.266  24.656  27.394  1.00  0.00     0.148 A 
ATOM     72  C   UNL A   1      44.167  25.612  25.566  1.00  0.00     0.002 A 
ATOM     73  C   UNL A   1      42.734  23.835  26.376  1.00  0.00     0.091 A 
ATOM     74  F   UNL A   1      41.332  24.241  28.262  1.00  0.00    -0.205 F 
ATOM     75  C   UNL A   1      43.672  24.315  25.451  1.00  0.00     0.022 A 
BRANCH  73  76
ATOM     76  S   UNL A   1      42.246  22.112  26.237  1.00  0.00     0.127 S 
ATOM     77  O   UNL A   1      43.038  21.667  25.093  1.00  0.00    -0.237 OA
ATOM     78  O   UNL A   1      42.669  21.569  27.528  1.00  0.00    -0.237 OA
ATOM     79  O   UNL A   1      40.802  22.131  26.043  1.00  0.00    -0.744 OA
ENDBRANCH  73  76
ENDBRANCH  45  69
BRANCH  57  80
ATOM     80  C   UNL A   1      45.242  27.189  33.955  1.00  0.00     0.023 A 
ATOM     81  C   UNL A   1      46.468  27.881  33.889  1.00  0.00     0.012 A 
ATOM     82  C   UNL A   1      45.135  26.046  34.771  1.00  0.00     0.148 A 
ATOM     83  C   UNL A   1      47.579  27.423  34.597  1.00  0.00     0.002 A 
ATOM     84  C   UNL A   1      46.235  25.623  35.510  1.00  0.00     0.091 A 
ATOM     85  F   UNL A   1      43.968  25.387  34.805  1.00  0.00    -0.205 F 
ATOM     86  C   UNL A   1      47.459  26.302  35.415  1.00  0.00     0.022 A 
BRANCH  84  87
ATOM     87  S   UNL A   1      46.133  24.244  36.657  1.00  0.00     0.127 S 
ATOM     88  O   UNL A   1      45.832  23.129  35.761  1.00  0.00    -0.237 OA
ATOM     89  O   UNL A   1      47.479  24.213  37.234  1.00  0.00    -0.237 OA
ATOM     90  O   UNL A   1      45.085  24.597  37.605  1.00  0.00    -0.744 OA
ENDBRANCH  84  87
ENDBRANCH  57  80
ENDBRANCH  31  32
ENDBRANCH  24  26
ENDBRANCH  23  24
ENDBRANCH  22  23
ENDBRANCH   1  22
TORSDOF 18
ENDMDL
MODEL 3
REMARK VINA RESULT:     -10.9      1.890      2.947
REMARK SMILES [NH3+]CC1([C@H](O)C(=O)OCCOC(=O)c2ccc(-c3c4nc(c(-c5cccc(S(=O)(=O)[O-])c5F)c5ccc([nH]5)c(-c5cccc(S(=O)(=O)[O-])c5F)c5nc(c(-c6cccc(S(=O)(=O)[O-])c6F)c6ccc3[nH]6)C=C5)C=C4)cc2)Cc2ccccc2C1
REMARK SMILES IDX 9 1 8 2 6 3 7 4 4 5 3 6 77 7 84 8 78 9 83 10 79 11 82 12
REMARK SMILES IDX 80 13 81 14 2 15 1 16 5 20 10 22 11 23 12 24 13 25 14 26
REMARK SMILES IDX 15 27 76 28 16 29 75 30 17 31 18 32 19 33 69 34 20 35 74 36
REMARK SMILES IDX 68 37 70 38 21 39 73 40 67 41 66 42 22 44 54 45 34 46 53 47
REMARK SMILES IDX 35 48 38 49 52 50 71 51 36 52 37 53 51 55 72 56 39 57 23 58
REMARK SMILES IDX 24 59 32 60 25 61 27 62 33 63 26 64 28 65 29 66 30 67 31 68
REMARK SMILES IDX 55 69 56 70 64 71 57 72 59 73 65 74 58 75 60 76 61 77 62 78
REMARK SMILES IDX 63 79 40 80 41 81 49 82 42 83 44 84 50 85 43 86 45 87 46 88
REMARK SMILES IDX 47 89 48 90
REMARK H PARENT 1 17 1 18 1 19 5 21 70 43 38 54
REMARK Flexibility Score: inf
ROOT
ATOM      1  C   UNL A   1      36.125  20.411  25.105  1.00  0.00     0.274 C 
ENDROOT
BRANCH   1   2
ATOM      2  O   UNL A   1      35.545  21.406  24.240  1.00  0.00    -0.460 OA
BRANCH   2   3
ATOM      3  C   UNL A   1      34.952  22.464  24.861  1.00  0.00     0.335 C 
ATOM      4  O   UNL A   1      35.212  22.836  25.998  1.00  0.00    -0.249 OA
BRANCH   3   5
ATOM      5  C   UNL A   1      33.942  23.177  23.948  1.00  0.00     0.236 C 
BRANCH   5   6
ATOM      6  C   UNL A   1      32.446  22.736  24.127  1.00  0.00     0.064 C 
ATOM      7  C   UNL A   1      32.259  21.735  25.314  1.00  0.00     0.052 C 
ATOM      8  C   UNL A   1      32.014  21.902  22.862  1.00  0.00     0.052 C 
ATOM      9  C   UNL A   1      32.408  20.393  24.661  1.00  0.00    -0.044 A 
ATOM     10  C   UNL A   1      32.271  20.490  23.277  1.00  0.00    -0.044 A 
ATOM     11  C   UNL A   1      32.621  19.168  25.269  1.00  0.00     0.004 A 
ATOM     12  C   UNL A   1      32.332  19.367  22.467  1.00  0.00     0.004 A 
ATOM     13  C   UNL A   1      32.700  18.029  24.462  1.00  0.00     0.000 A 
ATOM     14  C   UNL A   1      32.554  18.129  23.070  1.00  0.00     0.000 A 
BRANCH   6  15
ATOM     15  C   UNL A   1      31.451  23.922  24.247  1.00  0.00     0.269 C 
BRANCH  15  16
ATOM     16  N   UNL A   1      31.862  25.175  23.615  1.00  0.00    -0.357 N 
ATOM     17  H   UNL A   1      31.056  25.605  23.159  1.00  0.00     0.344 HD
ATOM     18  H   UNL A   1      32.583  24.983  22.919  1.00  0.00     0.344 HD
ATOM     19  H   UNL A   1      32.232  25.809  24.323  1.00  0.00     0.344 HD
ENDBRANCH  15  16
ENDBRANCH   6  15
ENDBRANCH   5   6
BRANCH   5  20
ATOM     20  O   UNL A   1      34.351  23.165  22.578  1.00  0.00    -0.381 OA
ATOM     21  H   UNL A   1      34.782  24.007  22.362  1.00  0.00     0.211 HD
ENDBRANCH   5  20
ENDBRANCH   3   5
ENDBRANCH   2   3
ENDBRANCH   1   2
BRANCH   1  22
ATOM     22  C   UNL A   1      37.641  20.297  24.898  1.00  0.00     0.275 C 
BRANCH  22  23
ATOM     23  O   UNL A   1      38.354  21.462  25.357  1.00  0.00    -0.458 OA
BRANCH  23  24
ATOM     24  C   UNL A   1      39.416  21.203  26.158  1.00  0.00     0.338 C 
ATOM     25  O   UNL A   1      40.017  20.142  26.244  1.00  0.00    -0.246 OA
BRANCH  24  26
ATOM     26  C   UNL A   1      39.899  22.431  26.820  1.00  0.00     0.060 A 
ATOM     27  C   UNL A   1      39.307  23.633  26.417  1.00  0.00     0.016 A 
ATOM     28  C   UNL A   1      40.950  22.439  27.741  1.00  0.00     0.016 A 
ATOM     29  C   UNL A   1      39.766  24.845  26.913  1.00  0.00     0.010 A 
ATOM     30  C   UNL A   1      41.423  23.665  28.230  1.00  0.00     0.010 A 
ATOM     31  C   UNL A   1      40.849  24.872  27.798  1.00  0.00    -0.014 A 
BRANCH  31  32
ATOM     32  C   UNL A   1      41.424  26.191  28.150  1.00  0.00     0.031 A 
ATOM     33  C   UNL A   1      42.813  26.535  27.691  1.00  0.00     0.074 A 
ATOM     34  C   UNL A   1      40.673  27.104  28.793  1.00  0.00     0.049 A 
ATOM     35  N   UNL A   1      43.477  27.651  27.833  1.00  0.00    -0.248 NA
ATOM     36  C   UNL A   1      43.549  25.484  26.967  1.00  0.00     0.031 C 
ATOM     37  C   UNL A   1      39.304  26.889  29.262  1.00  0.00     0.029 A 
ATOM     38  N   UNL A   1      40.954  28.396  29.156  1.00  0.00    -0.354 N 
ATOM     39  C   UNL A   1      44.718  27.430  27.250  1.00  0.00     0.074 A 
ATOM     40  C   UNL A   1      44.718  26.070  26.754  1.00  0.00     0.031 C 
ATOM     41  C   UNL A   1      38.865  28.011  29.856  1.00  0.00     0.029 A 
ATOM     42  C   UNL A   1      39.928  29.013  29.828  1.00  0.00     0.049 A 
ATOM     43  H   UNL A   1      41.810  28.839  28.953  1.00  0.00     0.167 HD
ATOM     44  C   UNL A   1      45.757  28.288  27.121  1.00  0.00     0.034 A 
ATOM     45  C   UNL A   1      39.858  30.246  30.368  1.00  0.00     0.034 A 
ATOM     46  C   UNL A   1      45.740  29.650  27.581  1.00  0.00     0.049 A 
ATOM     47  C   UNL A   1      41.028  31.180  30.210  1.00  0.00     0.074 A 
ATOM     48  C   UNL A   1      46.733  30.607  27.476  1.00  0.00     0.029 A 
ATOM     49  N   UNL A   1      44.674  30.249  28.233  1.00  0.00    -0.354 N 
ATOM     50  N   UNL A   1      42.160  30.985  29.574  1.00  0.00    -0.248 NA
ATOM     51  C   UNL A   1      40.902  32.513  30.814  1.00  0.00     0.031 C 
ATOM     52  C   UNL A   1      46.271  31.784  28.077  1.00  0.00     0.029 A 
ATOM     53  C   UNL A   1      44.984  31.563  28.541  1.00  0.00     0.049 A 
ATOM     54  H   UNL A   1      43.821  29.806  28.446  1.00  0.00     0.167 HD
ATOM     55  C   UNL A   1      42.867  32.177  29.678  1.00  0.00     0.074 A 
ATOM     56  C   UNL A   1      42.022  33.099  30.413  1.00  0.00     0.031 C 
ATOM     57  C   UNL A   1      44.109  32.480  29.227  1.00  0.00     0.034 A 
BRANCH  44  58
ATOM     58  C   UNL A   1      46.995  27.779  26.432  1.00  0.00     0.023 A 
ATOM     59  C   UNL A   1      47.980  27.103  27.181  1.00  0.00     0.012 A 
ATOM     60  C   UNL A   1      47.168  27.937  25.043  1.00  0.00     0.148 A 
ATOM     61  C   UNL A   1      49.132  26.616  26.562  1.00  0.00     0.002 A 
ATOM     62  C   UNL A   1      48.300  27.416  24.428  1.00  0.00     0.091 A 
ATOM     63  F   UNL A   1      46.233  28.607  24.356  1.00  0.00    -0.205 F 
ATOM     64  C   UNL A   1      49.287  26.764  25.185  1.00  0.00     0.022 A 
BRANCH  62  65
ATOM     65  S   UNL A   1      48.556  27.499  22.651  1.00  0.00     0.127 S 
ATOM     66  O   UNL A   1      48.616  26.082  22.295  1.00  0.00    -0.237 OA
ATOM     67  O   UNL A   1      47.350  28.192  22.197  1.00  0.00    -0.237 OA
ATOM     68  O   UNL A   1      49.791  28.247  22.460  1.00  0.00    -0.744 OA
ENDBRANCH  62  65
ENDBRANCH  44  58
BRANCH  45  69
ATOM     69  C   UNL A   1      38.618  30.681  31.071  1.00  0.00     0.023 A 
ATOM     70  C   UNL A   1      38.494  30.478  32.458  1.00  0.00     0.012 A 
ATOM     71  C   UNL A   1      37.570  31.316  30.375  1.00  0.00     0.148 A 
ATOM     72  C   UNL A   1      37.340  30.876  33.136  1.00  0.00     0.002 A 
ATOM     73  C   UNL A   1      36.449  31.760  31.064  1.00  0.00     0.091 A 
ATOM     74  F   UNL A   1      37.695  31.479  29.049  1.00  0.00    -0.205 F 
ATOM     75  C   UNL A   1      36.323  31.528  32.442  1.00  0.00     0.022 A 
BRANCH  73  76
ATOM     76  S   UNL A   1      35.158  32.723  30.269  1.00  0.00     0.127 S 
ATOM     77  O   UNL A   1      34.695  31.805  29.230  1.00  0.00    -0.237 OA
ATOM     78  O   UNL A   1      34.214  32.937  31.367  1.00  0.00    -0.237 OA
ATOM     79  O   UNL A   1      35.812  33.938  29.800  1.00  0.00    -0.744 OA
ENDBRANCH  73  76
ENDBRANCH  45  69
BRANCH  57  80
ATOM     80  C   UNL A   1      44.626  33.868  29.497  1.00  0.00     0.023 A 
ATOM     81  C   UNL A   1      45.296  34.139  30.707  1.00  0.00     0.012 A 
ATOM     82  C   UNL A   1      44.504  34.886  28.531  1.00  0.00     0.148 A 
ATOM     83  C   UNL A   1      45.805  35.411  30.966  1.00  0.00     0.002 A 
ATOM     84  C   UNL A   1      45.055  36.139  28.778  1.00  0.00     0.091 A 
ATOM     85  F   UNL A   1      43.845  34.618  27.395  1.00  0.00    -0.205 F 
ATOM     86  C   UNL A   1      45.695  36.406  29.998  1.00  0.00     0.022 A 
BRANCH  84  87
ATOM     87  S   UNL A   1      45.036  37.445  27.544  1.00  0.00     0.127 S 
ATOM     88  O   UNL A   1      45.595  38.571  28.289  1.00  0.00    -0.237 OA
ATOM     89  O   UNL A   1      45.914  36.908  26.503  1.00  0.00    -0.237 OA
ATOM     90  O   UNL A   1      43.643  37.582  27.139  1.00  0.00    -0.744 OA
ENDBRANCH  84  87
ENDBRANCH  57  80
ENDBRANCH  31  32
ENDBRANCH  24  26
ENDBRANCH  23  24
ENDBRANCH  22  23
ENDBRANCH   1  22
TORSDOF 18
ENDMDL
