MODEL 1
REMARK VINA RESULT:     -12.8      0.000      0.000
REMARK SMILES O=C(CSc1nnc2sc3ccccc3n12)N[C@H](Cc1c[nH]c2ccccc12)C(=O)OCCOC(=O)c1ccc(-c2c3nc(c(-c4cccc(S(=O)(=O)[O-])c4F)c4ccc([nH]4)c(-c4cccc(S(=O)(=O)[O-])c4F)c4nc(c(-c5cccc(S(=O)(=O)[O-])c5F)c5ccc2[nH]5)C=C4)C=C3)cc1
REMARK SMILES IDX 32 1 31 2 29 3 30 4 18 5 17 6 1 7 2 8 3 10 4 11 5 12 6 13
REMARK SMILES IDX 16 14 7 15 8 16 15 17 9 18 10 19 14 20 11 21 13 22 12 23
REMARK SMILES IDX 19 24 20 25 21 26 28 27 22 28 23 29 27 30 24 32 26 33 25 34
REMARK SMILES IDX 33 35 34 36 35 37 36 38 37 39 38 40 99 41 39 42 98 43 40 44
REMARK SMILES IDX 41 45 42 46 92 47 43 48 97 49 91 50 93 51 44 52 96 53 90 54
REMARK SMILES IDX 89 55 45 57 77 58 57 59 76 60 58 61 61 62 75 63 94 64 59 65
REMARK SMILES IDX 60 66 74 68 95 69 62 70 46 71 47 72 55 73 48 74 50 75 56 76
REMARK SMILES IDX 49 77 51 78 52 79 53 80 54 81 78 82 79 83 87 84 80 85 82 86
REMARK SMILES IDX 88 87 81 88 83 89 84 90 85 91 86 92 63 93 64 94 72 95 65 96
REMARK SMILES IDX 67 97 73 98 66 99 68 100 69 101 70 102 71 103
REMARK H PARENT 17 9 22 31 93 56 61 67
REMARK Flexibility Score: inf
ROOT
ATOM      1  C   UNL A   1      32.488  29.580  25.883  1.00  0.00     0.274 C 
ENDROOT
BRANCH   1   2
ATOM      2  O   UNL A   1      32.792  28.363  26.596  1.00  0.00    -0.461 OA
BRANCH   2   3
ATOM      3  C   UNL A   1      33.139  27.282  25.855  1.00  0.00     0.329 C 
ATOM      4  O   UNL A   1      34.276  26.815  25.822  1.00  0.00    -0.250 OA
BRANCH   3   5
ATOM      5  C   UNL A   1      31.971  26.650  25.062  1.00  0.00     0.196 C 
BRANCH   5   6
ATOM      6  N   UNL A   1      31.829  25.332  25.664  1.00  0.00    -0.342 N 
ATOM      7  O   UNL A   1      29.663  25.265  26.433  1.00  0.00    -0.274 OA
ATOM      8  C   UNL A   1      30.762  24.746  26.287  1.00  0.00     0.231 C 
ATOM      9  H   UNL A   1      32.634  24.769  25.615  1.00  0.00     0.164 HD
BRANCH   8  10
ATOM     10  C   UNL A   1      31.084  23.349  26.787  1.00  0.00     0.178 C 
BRANCH  10  11
ATOM     11  S   UNL A   1      31.423  22.256  25.340  1.00  0.00    -0.076 SA
BRANCH  11  12
ATOM     12  C   UNL A   1      33.140  22.197  25.452  1.00  0.00     0.197 A 
ATOM     13  N   UNL A   1      33.941  23.171  25.847  1.00  0.00    -0.122 NA
ATOM     14  N   UNL A   1      33.877  21.101  25.138  1.00  0.00    -0.260 N 
ATOM     15  N   UNL A   1      35.254  22.699  25.788  1.00  0.00    -0.118 NA
ATOM     16  C   UNL A   1      35.170  21.467  25.361  1.00  0.00     0.217 A 
ATOM     17  C   UNL A   1      33.674  19.793  24.716  1.00  0.00     0.068 A 
ATOM     18  S   UNL A   1      36.299  20.189  25.068  1.00  0.00    -0.094 S 
ATOM     19  C   UNL A   1      34.908  19.132  24.633  1.00  0.00     0.055 A 
ATOM     20  C   UNL A   1      32.474  19.170  24.415  1.00  0.00     0.028 A 
ATOM     21  C   UNL A   1      34.953  17.801  24.257  1.00  0.00     0.021 A 
ATOM     22  C   UNL A   1      32.524  17.834  24.023  1.00  0.00     0.002 A 
ATOM     23  C   UNL A   1      33.749  17.154  23.951  1.00  0.00     0.002 A 
ENDBRANCH  11  12
ENDBRANCH  10  11
ENDBRANCH   8  10
ENDBRANCH   5   6
BRANCH   5  24
ATOM     24  C   UNL A   1      32.027  26.764  23.543  1.00  0.00     0.074 C 
BRANCH  24  25
ATOM     25  C   UNL A   1      31.393  28.014  22.959  1.00  0.00    -0.020 A 
ATOM     26  C   UNL A   1      32.125  28.999  22.317  1.00  0.00     0.087 A 
ATOM     27  C   UNL A   1      30.012  28.438  22.896  1.00  0.00     0.003 A 
ATOM     28  N   UNL A   1      31.265  29.926  21.806  1.00  0.00    -0.361 N 
ATOM     29  C   UNL A   1      29.971  29.604  22.125  1.00  0.00     0.046 A 
ATOM     30  C   UNL A   1      28.780  27.951  23.390  1.00  0.00     0.010 A 
ATOM     31  H   UNL A   1      31.535  30.715  21.283  1.00  0.00     0.166 HD
ATOM     32  C   UNL A   1      28.780  30.257  21.776  1.00  0.00     0.026 A 
ATOM     33  C   UNL A   1      27.581  28.606  23.074  1.00  0.00     0.001 A 
ATOM     34  C   UNL A   1      27.581  29.732  22.262  1.00  0.00     0.002 A 
ENDBRANCH  24  25
ENDBRANCH   5  24
ENDBRANCH   3   5
ENDBRANCH   2   3
ENDBRANCH   1   2
BRANCH   1  35
ATOM     35  C   UNL A   1      32.458  30.743  26.879  1.00  0.00     0.275 C 
BRANCH  35  36
ATOM     36  O   UNL A   1      33.543  30.586  27.806  1.00  0.00    -0.458 OA
BRANCH  36  37
ATOM     37  C   UNL A   1      34.419  31.628  27.878  1.00  0.00     0.338 C 
ATOM     38  O   UNL A   1      34.161  32.772  28.162  1.00  0.00    -0.246 OA
BRANCH  37  39
ATOM     39  C   UNL A   1      35.774  31.020  27.901  1.00  0.00     0.060 A 
ATOM     40  C   UNL A   1      35.965  29.651  27.682  1.00  0.00     0.016 A 
ATOM     41  C   UNL A   1      36.803  31.801  28.427  1.00  0.00     0.016 A 
ATOM     42  C   UNL A   1      37.109  29.031  28.174  1.00  0.00     0.010 A 
ATOM     43  C   UNL A   1      37.939  31.172  28.927  1.00  0.00     0.010 A 
ATOM     44  C   UNL A   1      38.054  29.779  28.883  1.00  0.00    -0.014 A 
BRANCH  44  45
ATOM     45  C   UNL A   1      39.308  29.151  29.297  1.00  0.00     0.031 A 
ATOM     46  C   UNL A   1      39.572  29.421  30.721  1.00  0.00     0.074 A 
ATOM     47  C   UNL A   1      40.162  28.385  28.583  1.00  0.00     0.049 A 
ATOM     48  N   UNL A   1      40.358  30.344  31.167  1.00  0.00    -0.248 NA
ATOM     49  C   UNL A   1      38.746  28.769  31.745  1.00  0.00     0.031 C 
ATOM     50  C   UNL A   1      40.009  27.881  27.223  1.00  0.00     0.029 A 
ATOM     51  N   UNL A   1      41.350  27.820  28.975  1.00  0.00    -0.354 N 
ATOM     52  C   UNL A   1      40.315  30.201  32.542  1.00  0.00     0.074 A 
ATOM     53  C   UNL A   1      39.152  29.406  32.844  1.00  0.00     0.031 C 
ATOM     54  C   UNL A   1      40.917  26.898  26.996  1.00  0.00     0.029 A 
ATOM     55  C   UNL A   1      41.819  26.819  28.126  1.00  0.00     0.049 A 
ATOM     56  H   UNL A   1      41.830  28.099  29.787  1.00  0.00     0.167 HD
ATOM     57  C   UNL A   1      41.417  30.449  33.295  1.00  0.00     0.034 A 
ATOM     58  C   UNL A   1      42.896  26.017  28.321  1.00  0.00     0.034 A 
ATOM     59  C   UNL A   1      42.459  31.088  32.541  1.00  0.00     0.049 A 
ATOM     60  C   UNL A   1      43.846  26.802  29.130  1.00  0.00     0.074 A 
ATOM     61  C   UNL A   1      42.718  32.341  32.034  1.00  0.00     0.029 A 
ATOM     62  N   UNL A   1      43.262  30.201  31.875  1.00  0.00    -0.354 N 
ATOM     63  N   UNL A   1      44.451  27.865  28.682  1.00  0.00    -0.248 NA
ATOM     64  C   UNL A   1      43.954  26.564  30.562  1.00  0.00     0.031 C 
ATOM     65  C   UNL A   1      43.609  32.154  30.935  1.00  0.00     0.029 A 
ATOM     66  C   UNL A   1      43.884  30.795  30.811  1.00  0.00     0.049 A 
ATOM     67  H   UNL A   1      43.376  29.256  32.129  1.00  0.00     0.167 HD
ATOM     68  C   UNL A   1      44.590  28.648  29.807  1.00  0.00     0.074 A 
ATOM     69  C   UNL A   1      44.469  27.737  30.936  1.00  0.00     0.031 C 
ATOM     70  C   UNL A   1      44.432  29.997  29.737  1.00  0.00     0.034 A 
BRANCH  57  71
ATOM     71  C   UNL A   1      41.728  29.688  34.551  1.00  0.00     0.023 A 
ATOM     72  C   UNL A   1      42.243  30.399  35.648  1.00  0.00     0.012 A 
ATOM     73  C   UNL A   1      41.770  28.275  34.609  1.00  0.00     0.148 A 
ATOM     74  C   UNL A   1      42.742  29.730  36.771  1.00  0.00     0.002 A 
ATOM     75  C   UNL A   1      42.178  27.618  35.760  1.00  0.00     0.091 A 
ATOM     76  F   UNL A   1      41.550  27.561  33.498  1.00  0.00    -0.205 F 
ATOM     77  C   UNL A   1      42.684  28.341  36.840  1.00  0.00     0.022 A 
BRANCH  75  78
ATOM     78  S   UNL A   1      42.068  25.832  35.903  1.00  0.00     0.127 S 
ATOM     79  O   UNL A   1      43.030  25.397  34.896  1.00  0.00    -0.237 OA
ATOM     80  O   UNL A   1      42.479  25.618  37.291  1.00  0.00    -0.237 OA
ATOM     81  O   UNL A   1      40.670  25.512  35.639  1.00  0.00    -0.744 OA
ENDBRANCH  75  78
ENDBRANCH  57  71
BRANCH  58  82
ATOM     82  C   UNL A   1      43.189  24.596  27.994  1.00  0.00     0.023 A 
ATOM     83  C   UNL A   1      42.291  23.593  28.435  1.00  0.00     0.012 A 
ATOM     84  C   UNL A   1      44.096  24.260  26.971  1.00  0.00     0.148 A 
ATOM     85  C   UNL A   1      42.221  22.345  27.806  1.00  0.00     0.002 A 
ATOM     86  C   UNL A   1      44.027  23.010  26.352  1.00  0.00     0.091 A 
ATOM     87  F   UNL A   1      44.956  25.192  26.542  1.00  0.00    -0.205 F 
ATOM     88  C   UNL A   1      43.073  22.062  26.747  1.00  0.00     0.022 A 
BRANCH  86  89
ATOM     89  S   UNL A   1      45.109  22.568  24.987  1.00  0.00     0.127 S 
ATOM     90  O   UNL A   1      44.558  21.279  24.563  1.00  0.00    -0.237 OA
ATOM     91  O   UNL A   1      44.887  23.668  24.055  1.00  0.00    -0.237 OA
ATOM     92  O   UNL A   1      46.440  22.478  25.577  1.00  0.00    -0.744 OA
ENDBRANCH  86  89
ENDBRANCH  58  82
BRANCH  70  93
ATOM     93  C   UNL A   1      44.661  30.654  28.410  1.00  0.00     0.023 A 
ATOM     94  C   UNL A   1      43.679  30.715  27.402  1.00  0.00     0.012 A 
ATOM     95  C   UNL A   1      45.887  31.309  28.219  1.00  0.00     0.148 A 
ATOM     96  C   UNL A   1      43.923  31.421  26.220  1.00  0.00     0.002 A 
ATOM     97  C   UNL A   1      46.114  32.037  27.060  1.00  0.00     0.091 A 
ATOM     98  F   UNL A   1      46.806  31.223  29.193  1.00  0.00    -0.205 F 
ATOM     99  C   UNL A   1      45.135  32.092  26.054  1.00  0.00     0.022 A 
BRANCH  97 100
ATOM    100  S   UNL A   1      47.614  32.991  26.824  1.00  0.00     0.127 S 
ATOM    101  O   UNL A   1      48.584  31.956  26.474  1.00  0.00    -0.237 OA
ATOM    102  O   UNL A   1      47.242  33.881  25.723  1.00  0.00    -0.237 OA
ATOM    103  O   UNL A   1      47.863  33.674  28.087  1.00  0.00    -0.744 OA
ENDBRANCH  97 100
ENDBRANCH  70  93
ENDBRANCH  44  45
ENDBRANCH  37  39
ENDBRANCH  36  37
ENDBRANCH  35  36
ENDBRANCH   1  35
TORSDOF 20
ENDMDL
MODEL 2
REMARK VINA RESULT:     -12.6      2.967      7.136
REMARK SMILES O=C(CSc1nnc2sc3ccccc3n12)N[C@H](Cc1c[nH]c2ccccc12)C(=O)OCCOC(=O)c1ccc(-c2c3nc(c(-c4cccc(S(=O)(=O)[O-])c4F)c4ccc([nH]4)c(-c4cccc(S(=O)(=O)[O-])c4F)c4nc(c(-c5cccc(S(=O)(=O)[O-])c5F)c5ccc2[nH]5)C=C4)C=C3)cc1
REMARK SMILES IDX 32 1 31 2 29 3 30 4 18 5 17 6 1 7 2 8 3 10 4 11 5 12 6 13
REMARK SMILES IDX 16 14 7 15 8 16 15 17 9 18 10 19 14 20 11 21 13 22 12 23
REMARK SMILES IDX 19 24 20 25 21 26 28 27 22 28 23 29 27 30 24 32 26 33 25 34
REMARK SMILES IDX 33 35 34 36 35 37 36 38 37 39 38 40 99 41 39 42 98 43 40 44
REMARK SMILES IDX 41 45 42 46 92 47 43 48 97 49 91 50 93 51 44 52 96 53 90 54
REMARK SMILES IDX 89 55 45 57 77 58 57 59 76 60 58 61 61 62 75 63 94 64 59 65
REMARK SMILES IDX 60 66 74 68 95 69 62 70 46 71 47 72 55 73 48 74 50 75 56 76
REMARK SMILES IDX 49 77 51 78 52 79 53 80 54 81 78 82 79 83 87 84 80 85 82 86
REMARK SMILES IDX 88 87 81 88 83 89 84 90 85 91 86 92 63 93 64 94 72 95 65 96
REMARK SMILES IDX 67 97 73 98 66 99 68 100 69 101 70 102 71 103
REMARK H PARENT 17 9 22 31 93 56 61 67
REMARK Flexibility Score: inf
ROOT
ATOM      1  C   UNL A   1      32.848  31.558  27.187  1.00  0.00     0.274 C 
ENDROOT
BRANCH   1   2
ATOM      2  O   UNL A   1      31.788  30.976  26.400  1.00  0.00    -0.461 OA
BRANCH   2   3
ATOM      3  C   UNL A   1      31.831  29.636  26.197  1.00  0.00     0.329 C 
ATOM      4  O   UNL A   1      31.805  28.807  27.105  1.00  0.00    -0.250 OA
BRANCH   3   5
ATOM      5  C   UNL A   1      31.889  29.218  24.709  1.00  0.00     0.196 C 
BRANCH   5   6
ATOM      6  N   UNL A   1      30.891  28.162  24.616  1.00  0.00    -0.342 N 
ATOM      7  O   UNL A   1      29.933  28.436  22.543  1.00  0.00    -0.274 OA
ATOM      8  C   UNL A   1      30.014  27.850  23.615  1.00  0.00     0.231 C 
ATOM      9  H   UNL A   1      30.838  27.577  25.405  1.00  0.00     0.164 HD
BRANCH   8  10
ATOM     10  C   UNL A   1      29.132  26.665  23.972  1.00  0.00     0.178 C 
BRANCH  10  11
ATOM     11  S   UNL A   1      29.992  25.107  23.487  1.00  0.00    -0.076 SA
BRANCH  11  12
ATOM     12  C   UNL A   1      30.628  24.669  25.025  1.00  0.00     0.197 A 
ATOM     13  N   UNL A   1      30.522  25.355  26.150  1.00  0.00    -0.122 NA
ATOM     14  N   UNL A   1      31.327  23.528  25.254  1.00  0.00    -0.260 N 
ATOM     15  N   UNL A   1      31.178  24.640  27.154  1.00  0.00    -0.118 NA
ATOM     16  C   UNL A   1      31.643  23.563  26.577  1.00  0.00     0.217 A 
ATOM     17  C   UNL A   1      31.743  22.403  24.553  1.00  0.00     0.068 A 
ATOM     18  S   UNL A   1      32.506  22.161  27.108  1.00  0.00    -0.094 S 
ATOM     19  C   UNL A   1      32.405  21.527  25.426  1.00  0.00     0.055 A 
ATOM     20  C   UNL A   1      31.561  22.116  23.211  1.00  0.00     0.028 A 
ATOM     21  C   UNL A   1      32.888  20.319  24.956  1.00  0.00     0.021 A 
ATOM     22  C   UNL A   1      32.061  20.906  22.737  1.00  0.00     0.002 A 
ATOM     23  C   UNL A   1      32.711  20.012  23.601  1.00  0.00     0.002 A 
ENDBRANCH  11  12
ENDBRANCH  10  11
ENDBRANCH   8  10
ENDBRANCH   5   6
BRANCH   5  24
ATOM     24  C   UNL A   1      33.273  28.979  24.113  1.00  0.00     0.074 C 
BRANCH  24  25
ATOM     25  C   UNL A   1      33.501  27.596  23.530  1.00  0.00    -0.020 A 
ATOM     26  C   UNL A   1      33.288  27.299  22.193  1.00  0.00     0.087 A 
ATOM     27  C   UNL A   1      33.979  26.374  24.139  1.00  0.00     0.003 A 
ATOM     28  N   UNL A   1      33.690  26.017  21.957  1.00  0.00    -0.361 N 
ATOM     29  C   UNL A   1      34.133  25.433  23.116  1.00  0.00     0.046 A 
ATOM     30  C   UNL A   1      34.322  25.962  25.447  1.00  0.00     0.010 A 
ATOM     31  H   UNL A   1      33.665  25.574  21.078  1.00  0.00     0.166 HD
ATOM     32  C   UNL A   1      34.662  24.151  23.320  1.00  0.00     0.026 A 
ATOM     33  C   UNL A   1      34.828  24.674  25.675  1.00  0.00     0.001 A 
ATOM     34  C   UNL A   1      35.013  23.789  24.621  1.00  0.00     0.002 A 
ENDBRANCH  24  25
ENDBRANCH   5  24
ENDBRANCH   3   5
ENDBRANCH   2   3
ENDBRANCH   1   2
BRANCH   1  35
ATOM     35  C   UNL A   1      32.555  33.048  27.387  1.00  0.00     0.275 C 
BRANCH  35  36
ATOM     36  O   UNL A   1      32.611  33.346  28.790  1.00  0.00    -0.458 OA
BRANCH  36  37
ATOM     37  C   UNL A   1      33.171  34.544  29.120  1.00  0.00     0.338 C 
ATOM     38  O   UNL A   1      32.589  35.558  29.417  1.00  0.00    -0.246 OA
BRANCH  37  39
ATOM     39  C   UNL A   1      34.603  34.261  29.399  1.00  0.00     0.060 A 
ATOM     40  C   UNL A   1      35.604  34.582  28.476  1.00  0.00     0.016 A 
ATOM     41  C   UNL A   1      34.877  33.414  30.473  1.00  0.00     0.016 A 
ATOM     42  C   UNL A   1      36.817  33.901  28.515  1.00  0.00     0.010 A 
ATOM     43  C   UNL A   1      36.087  32.728  30.498  1.00  0.00     0.010 A 
ATOM     44  C   UNL A   1      37.021  32.902  29.472  1.00  0.00    -0.014 A 
BRANCH  44  45
ATOM     45  C   UNL A   1      38.336  32.270  29.586  1.00  0.00     0.031 A 
ATOM     46  C   UNL A   1      38.282  30.884  29.089  1.00  0.00     0.074 A 
ATOM     47  C   UNL A   1      39.503  32.788  30.027  1.00  0.00     0.049 A 
ATOM     48  N   UNL A   1      38.163  29.834  29.834  1.00  0.00    -0.248 NA
ATOM     49  C   UNL A   1      38.133  30.637  27.650  1.00  0.00     0.031 C 
ATOM     50  C   UNL A   1      39.798  34.163  30.412  1.00  0.00     0.029 A 
ATOM     51  N   UNL A   1      40.726  32.178  30.151  1.00  0.00    -0.354 N 
ATOM     52  C   UNL A   1      38.190  28.775  28.945  1.00  0.00     0.074 A 
ATOM     53  C   UNL A   1      37.929  29.319  27.637  1.00  0.00     0.031 C 
ATOM     54  C   UNL A   1      41.142  34.339  30.480  1.00  0.00     0.029 A 
ATOM     55  C   UNL A   1      41.795  33.058  30.310  1.00  0.00     0.049 A 
ATOM     56  H   UNL A   1      40.838  31.200  30.131  1.00  0.00     0.167 HD
ATOM     57  C   UNL A   1      38.763  27.595  29.297  1.00  0.00     0.034 A 
ATOM     58  C   UNL A   1      43.115  32.746  30.342  1.00  0.00     0.034 A 
ATOM     59  C   UNL A   1      39.064  27.534  30.700  1.00  0.00     0.049 A 
ATOM     60  C   UNL A   1      43.198  31.381  30.892  1.00  0.00     0.074 A 
ATOM     61  C   UNL A   1      38.371  27.367  31.877  1.00  0.00     0.029 A 
ATOM     62  N   UNL A   1      40.280  28.080  31.013  1.00  0.00    -0.354 N 
ATOM     63  N   UNL A   1      42.880  31.092  32.122  1.00  0.00    -0.248 NA
ATOM     64  C   UNL A   1      43.396  30.247  30.002  1.00  0.00     0.031 C 
ATOM     65  C   UNL A   1      39.165  27.967  32.901  1.00  0.00     0.029 A 
ATOM     66  C   UNL A   1      40.328  28.467  32.324  1.00  0.00     0.049 A 
ATOM     67  H   UNL A   1      41.024  28.180  30.376  1.00  0.00     0.167 HD
ATOM     68  C   UNL A   1      42.384  29.809  32.028  1.00  0.00     0.074 A 
ATOM     69  C   UNL A   1      42.911  29.277  30.780  1.00  0.00     0.031 C 
ATOM     70  C   UNL A   1      41.315  29.423  32.775  1.00  0.00     0.034 A 
BRANCH  57  71
ATOM     71  C   UNL A   1      39.482  26.719  28.313  1.00  0.00     0.023 A 
ATOM     72  C   UNL A   1      39.152  25.353  28.275  1.00  0.00     0.012 A 
ATOM     73  C   UNL A   1      40.636  27.133  27.608  1.00  0.00     0.148 A 
ATOM     74  C   UNL A   1      39.916  24.446  27.534  1.00  0.00     0.002 A 
ATOM     75  C   UNL A   1      41.335  26.249  26.800  1.00  0.00     0.091 A 
ATOM     76  F   UNL A   1      41.145  28.350  27.829  1.00  0.00    -0.205 F 
ATOM     77  C   UNL A   1      40.991  24.898  26.773  1.00  0.00     0.022 A 
BRANCH  75  78
ATOM     78  S   UNL A   1      42.693  26.806  25.766  1.00  0.00     0.127 S 
ATOM     79  O   UNL A   1      43.061  25.574  25.077  1.00  0.00    -0.237 OA
ATOM     80  O   UNL A   1      42.039  27.815  24.932  1.00  0.00    -0.237 OA
ATOM     81  O   UNL A   1      43.681  27.348  26.690  1.00  0.00    -0.744 OA
ENDBRANCH  75  78
ENDBRANCH  57  71
BRANCH  58  82
ATOM     82  C   UNL A   1      44.343  33.431  29.855  1.00  0.00     0.023 A 
ATOM     83  C   UNL A   1      45.485  33.463  30.692  1.00  0.00     0.012 A 
ATOM     84  C   UNL A   1      44.524  33.707  28.486  1.00  0.00     0.148 A 
ATOM     85  C   UNL A   1      46.770  33.649  30.169  1.00  0.00     0.002 A 
ATOM     86  C   UNL A   1      45.808  33.900  27.971  1.00  0.00     0.091 A 
ATOM     87  F   UNL A   1      43.456  33.685  27.679  1.00  0.00    -0.205 F 
ATOM     88  C   UNL A   1      46.935  33.843  28.804  1.00  0.00     0.022 A 
BRANCH  86  89
ATOM     89  S   UNL A   1      46.095  34.173  26.219  1.00  0.00     0.127 S 
ATOM     90  O   UNL A   1      45.516  35.502  26.016  1.00  0.00    -0.237 OA
ATOM     91  O   UNL A   1      47.550  34.118  26.137  1.00  0.00    -0.237 OA
ATOM     92  O   UNL A   1      45.368  33.101  25.548  1.00  0.00    -0.744 OA
ENDBRANCH  86  89
ENDBRANCH  58  82
BRANCH  70  93
ATOM     93  C   UNL A   1      41.052  30.169  34.047  1.00  0.00     0.023 A 
ATOM     94  C   UNL A   1      41.851  30.033  35.199  1.00  0.00     0.012 A 
ATOM     95  C   UNL A   1      40.010  31.110  34.038  1.00  0.00     0.148 A 
ATOM     96  C   UNL A   1      41.608  30.825  36.325  1.00  0.00     0.002 A 
ATOM     97  C   UNL A   1      39.793  31.917  35.144  1.00  0.00     0.091 A 
ATOM     98  F   UNL A   1      39.260  31.209  32.930  1.00  0.00    -0.205 F 
ATOM     99  C   UNL A   1      40.588  31.775  36.294  1.00  0.00     0.022 A 
BRANCH  97 100
ATOM    100  S   UNL A   1      38.555  33.215  35.136  1.00  0.00     0.127 S 
ATOM    101  O   UNL A   1      38.872  33.949  36.359  1.00  0.00    -0.237 OA
ATOM    102  O   UNL A   1      38.864  33.926  33.895  1.00  0.00    -0.237 OA
ATOM    103  O   UNL A   1      37.262  32.542  35.133  1.00  0.00    -0.744 OA
ENDBRANCH  97 100
ENDBRANCH  70  93
ENDBRANCH  44  45
ENDBRANCH  37  39
ENDBRANCH  36  37
ENDBRANCH  35  36
ENDBRANCH   1  35
TORSDOF 20
ENDMDL
MODEL 3
REMARK VINA RESULT:     -12.6      2.503      3.648
REMARK SMILES O=C(CSc1nnc2sc3ccccc3n12)N[C@H](Cc1c[nH]c2ccccc12)C(=O)OCCOC(=O)c1ccc(-c2c3nc(c(-c4cccc(S(=O)(=O)[O-])c4F)c4ccc([nH]4)c(-c4cccc(S(=O)(=O)[O-])c4F)c4nc(c(-c5cccc(S(=O)(=O)[O-])c5F)c5ccc2[nH]5)C=C4)C=C3)cc1
REMARK SMILES IDX 32 1 31 2 29 3 30 4 18 5 17 6 1 7 2 8 3 10 4 11 5 12 6 13
REMARK SMILES IDX 16 14 7 15 8 16 15 17 9 18 10 19 14 20 11 21 13 22 12 23
REMARK SMILES IDX 19 24 20 25 21 26 28 27 22 28 23 29 27 30 24 32 26 33 25 34
REMARK SMILES IDX 33 35 34 36 35 37 36 38 37 39 38 40 99 41 39 42 98 43 40 44
REMARK SMILES IDX 41 45 42 46 92 47 43 48 97 49 91 50 93 51 44 52 96 53 90 54
REMARK SMILES IDX 89 55 45 57 77 58 57 59 76 60 58 61 61 62 75 63 94 64 59 65
REMARK SMILES IDX 60 66 74 68 95 69 62 70 46 71 47 72 55 73 48 74 50 75 56 76
REMARK SMILES IDX 49 77 51 78 52 79 53 80 54 81 78 82 79 83 87 84 80 85 82 86
REMARK SMILES IDX 88 87 81 88 83 89 84 90 85 91 86 92 63 93 64 94 72 95 65 96
REMARK SMILES IDX 67 97 73 98 66 99 68 100 69 101 70 102 71 103
REMARK H PARENT 17 9 22 31 93 56 61 67
REMARK Flexibility Score: inf
ROOT
ATOM      1  C   UNL A   1      32.955  28.439  26.655  1.00  0.00     0.274 C 
ENDROOT
BRANCH   1   2
ATOM      2  O   UNL A   1      32.583  28.545  25.265  1.00  0.00    -0.461 OA
BRANCH   2   3
ATOM      3  C   UNL A   1      33.293  27.807  24.376  1.00  0.00     0.329 C 
ATOM      4  O   UNL A   1      34.414  28.115  23.975  1.00  0.00    -0.250 OA
BRANCH   3   5
ATOM      5  C   UNL A   1      32.587  26.510  23.916  1.00  0.00     0.196 C 
BRANCH   5   6
ATOM      6  N   UNL A   1      33.659  25.526  23.910  1.00  0.00    -0.342 N 
ATOM      7  O   UNL A   1      32.773  23.681  24.958  1.00  0.00    -0.274 OA
ATOM      8  C   UNL A   1      33.704  24.252  24.406  1.00  0.00     0.231 C 
ATOM      9  H   UNL A   1      34.491  25.827  23.479  1.00  0.00     0.164 HD
BRANCH   8  10
ATOM     10  C   UNL A   1      35.058  23.599  24.191  1.00  0.00     0.178 C 
BRANCH  10  11
ATOM     11  S   UNL A   1      36.215  24.162  25.513  1.00  0.00    -0.076 SA
BRANCH  11  12
ATOM     12  C   UNL A   1      37.275  22.807  25.529  1.00  0.00     0.197 A 
ATOM     13  N   UNL A   1      37.083  21.644  24.930  1.00  0.00    -0.122 NA
ATOM     14  N   UNL A   1      38.467  22.792  26.178  1.00  0.00    -0.260 N 
ATOM     15  N   UNL A   1      38.188  20.833  25.199  1.00  0.00    -0.118 NA
ATOM     16  C   UNL A   1      38.984  21.554  25.945  1.00  0.00     0.217 A 
ATOM     17  C   UNL A   1      39.255  23.653  26.932  1.00  0.00     0.068 A 
ATOM     18  S   UNL A   1      40.548  21.325  26.648  1.00  0.00    -0.094 S 
ATOM     19  C   UNL A   1      40.456  23.012  27.271  1.00  0.00     0.055 A 
ATOM     20  C   UNL A   1      38.972  24.953  27.317  1.00  0.00     0.028 A 
ATOM     21  C   UNL A   1      41.416  23.689  28.002  1.00  0.00     0.021 A 
ATOM     22  C   UNL A   1      39.934  25.627  28.065  1.00  0.00     0.002 A 
ATOM     23  C   UNL A   1      41.147  25.005  28.399  1.00  0.00     0.002 A 
ENDBRANCH  11  12
ENDBRANCH  10  11
ENDBRANCH   8  10
ENDBRANCH   5   6
BRANCH   5  24
ATOM     24  C   UNL A   1      31.678  26.616  22.696  1.00  0.00     0.074 C 
BRANCH  24  25
ATOM     25  C   UNL A   1      30.216  26.900  22.995  1.00  0.00    -0.020 A 
ATOM     26  C   UNL A   1      29.373  25.969  23.578  1.00  0.00     0.087 A 
ATOM     27  C   UNL A   1      29.422  28.094  22.804  1.00  0.00     0.003 A 
ATOM     28  N   UNL A   1      28.167  26.557  23.822  1.00  0.00    -0.361 N 
ATOM     29  C   UNL A   1      28.171  27.856  23.381  1.00  0.00     0.046 A 
ATOM     30  C   UNL A   1      29.630  29.366  22.224  1.00  0.00     0.010 A 
ATOM     31  H   UNL A   1      27.403  26.113  24.255  1.00  0.00     0.166 HD
ATOM     32  C   UNL A   1      27.161  28.825  23.461  1.00  0.00     0.026 A 
ATOM     33  C   UNL A   1      28.622  30.340  22.271  1.00  0.00     0.001 A 
ATOM     34  C   UNL A   1      27.412  30.078  22.899  1.00  0.00     0.002 A 
ENDBRANCH  24  25
ENDBRANCH   5  24
ENDBRANCH   3   5
ENDBRANCH   2   3
ENDBRANCH   1   2
BRANCH   1  35
ATOM     35  C   UNL A   1      33.303  29.835  27.181  1.00  0.00     0.275 C 
BRANCH  35  36
ATOM     36  O   UNL A   1      34.731  29.963  27.245  1.00  0.00    -0.458 OA
BRANCH  36  37
ATOM     37  C   UNL A   1      35.206  30.896  28.118  1.00  0.00     0.338 C 
ATOM     38  O   UNL A   1      34.578  31.783  28.641  1.00  0.00    -0.246 OA
BRANCH  37  39
ATOM     39  C   UNL A   1      36.527  30.391  28.574  1.00  0.00     0.060 A 
ATOM     40  C   UNL A   1      37.472  31.242  29.157  1.00  0.00     0.016 A 
ATOM     41  C   UNL A   1      36.894  29.117  28.142  1.00  0.00     0.016 A 
ATOM     42  C   UNL A   1      38.820  30.895  29.125  1.00  0.00     0.010 A 
ATOM     43  C   UNL A   1      38.244  28.783  28.103  1.00  0.00     0.010 A 
ATOM     44  C   UNL A   1      39.215  29.703  28.509  1.00  0.00    -0.014 A 
BRANCH  44  45
ATOM     45  C   UNL A   1      40.614  29.285  28.579  1.00  0.00     0.031 A 
ATOM     46  C   UNL A   1      41.037  29.144  29.984  1.00  0.00     0.074 A 
ATOM     47  C   UNL A   1      41.479  29.006  27.579  1.00  0.00     0.049 A 
ATOM     48  N   UNL A   1      41.692  30.034  30.654  1.00  0.00    -0.248 NA
ATOM     49  C   UNL A   1      40.520  28.028  30.785  1.00  0.00     0.031 C 
ATOM     50  C   UNL A   1      41.218  28.938  26.146  1.00  0.00     0.029 A 
ATOM     51  N   UNL A   1      42.799  28.638  27.656  1.00  0.00    -0.354 N 
ATOM     52  C   UNL A   1      41.889  29.456  31.895  1.00  0.00     0.074 A 
ATOM     53  C   UNL A   1      40.961  28.360  31.999  1.00  0.00     0.031 C 
ATOM     54  C   UNL A   1      42.252  28.317  25.523  1.00  0.00     0.029 A 
ATOM     55  C   UNL A   1      43.315  28.096  26.481  1.00  0.00     0.049 A 
ATOM     56  H   UNL A   1      43.336  28.748  28.473  1.00  0.00     0.167 HD
ATOM     57  C   UNL A   1      43.026  29.701  32.596  1.00  0.00     0.034 A 
ATOM     58  C   UNL A   1      44.543  27.546  26.301  1.00  0.00     0.034 A 
ATOM     59  C   UNL A   1      43.797  30.770  32.024  1.00  0.00     0.049 A 
ATOM     60  C   UNL A   1      45.438  28.232  27.251  1.00  0.00     0.074 A 
ATOM     61  C   UNL A   1      43.730  32.144  31.959  1.00  0.00     0.029 A 
ATOM     62  N   UNL A   1      44.643  30.352  31.032  1.00  0.00    -0.354 N 
ATOM     63  N   UNL A   1      45.751  29.492  27.147  1.00  0.00    -0.248 NA
ATOM     64  C   UNL A   1      45.808  27.584  28.501  1.00  0.00     0.031 C 
ATOM     65  C   UNL A   1      44.460  32.527  30.794  1.00  0.00     0.029 A 
ATOM     66  C   UNL A   1      44.968  31.380  30.190  1.00  0.00     0.049 A 
ATOM     67  H   UNL A   1      44.973  29.430  30.937  1.00  0.00     0.167 HD
ATOM     68  C   UNL A   1      45.909  29.888  28.457  1.00  0.00     0.074 A 
ATOM     69  C   UNL A   1      46.140  28.664  29.211  1.00  0.00     0.031 C 
ATOM     70  C   UNL A   1      45.486  31.114  28.867  1.00  0.00     0.034 A 
BRANCH  57  71
ATOM     71  C   UNL A   1      43.666  28.676  33.485  1.00  0.00     0.023 A 
ATOM     72  C   UNL A   1      43.945  29.032  34.816  1.00  0.00     0.012 A 
ATOM     73  C   UNL A   1      44.229  27.474  32.997  1.00  0.00     0.148 A 
ATOM     74  C   UNL A   1      44.718  28.204  35.637  1.00  0.00     0.002 A 
ATOM     75  C   UNL A   1      44.916  26.612  33.840  1.00  0.00     0.091 A 
ATOM     76  F   UNL A   1      44.226  27.227  31.682  1.00  0.00    -0.205 F 
ATOM     77  C   UNL A   1      45.180  26.982  35.159  1.00  0.00     0.022 A 
BRANCH  75  78
ATOM     78  S   UNL A   1      45.480  25.006  33.272  1.00  0.00     0.127 S 
ATOM     79  O   UNL A   1      46.467  25.381  32.264  1.00  0.00    -0.237 OA
ATOM     80  O   UNL A   1      46.031  24.431  34.500  1.00  0.00    -0.237 OA
ATOM     81  O   UNL A   1      44.284  24.330  32.783  1.00  0.00    -0.744 OA
ENDBRANCH  75  78
ENDBRANCH  57  71
BRANCH  58  82
ATOM     82  C   UNL A   1      45.049  26.411  25.484  1.00  0.00     0.023 A 
ATOM     83  C   UNL A   1      46.384  26.449  25.014  1.00  0.00     0.012 A 
ATOM     84  C   UNL A   1      44.388  25.168  25.481  1.00  0.00     0.148 A 
ATOM     85  C   UNL A   1      47.071  25.280  24.666  1.00  0.00     0.002 A 
ATOM     86  C   UNL A   1      45.075  24.006  25.124  1.00  0.00     0.091 A 
ATOM     87  F   UNL A   1      43.123  25.111  25.918  1.00  0.00    -0.205 F 
ATOM     88  C   UNL A   1      46.424  24.054  24.744  1.00  0.00     0.022 A 
BRANCH  86  89
ATOM     89  S   UNL A   1      44.297  22.388  25.185  1.00  0.00     0.127 S 
ATOM     90  O   UNL A   1      45.315  21.533  24.572  1.00  0.00    -0.237 OA
ATOM     91  O   UNL A   1      44.113  22.193  26.619  1.00  0.00    -0.237 OA
ATOM     92  O   UNL A   1      43.081  22.525  24.390  1.00  0.00    -0.744 OA
ENDBRANCH  86  89
ENDBRANCH  58  82
BRANCH  70  93
ATOM     93  C   UNL A   1      45.378  32.192  27.832  1.00  0.00     0.023 A 
ATOM     94  C   UNL A   1      44.179  32.494  27.158  1.00  0.00     0.012 A 
ATOM     95  C   UNL A   1      46.515  32.982  27.603  1.00  0.00     0.148 A 
ATOM     96  C   UNL A   1      44.120  33.571  26.268  1.00  0.00     0.002 A 
ATOM     97  C   UNL A   1      46.445  34.070  26.747  1.00  0.00     0.091 A 
ATOM     98  F   UNL A   1      47.645  32.662  28.252  1.00  0.00    -0.205 F 
ATOM     99  C   UNL A   1      45.250  34.367  26.072  1.00  0.00     0.022 A 
BRANCH  97 100
ATOM    100  S   UNL A   1      47.834  35.181  26.518  1.00  0.00     0.127 S 
ATOM    101  O   UNL A   1      47.264  36.211  25.652  1.00  0.00    -0.237 OA
ATOM    102  O   UNL A   1      48.111  35.614  27.888  1.00  0.00    -0.237 OA
ATOM    103  O   UNL A   1      48.897  34.383  25.917  1.00  0.00    -0.744 OA
ENDBRANCH  97 100
ENDBRANCH  70  93
ENDBRANCH  44  45
ENDBRANCH  37  39
ENDBRANCH  36  37
ENDBRANCH  35  36
ENDBRANCH   1  35
TORSDOF 20
ENDMDL
