MODEL 1
REMARK VINA RESULT:     -11.7      0.000      0.000
REMARK SMILES O=C1NC(=O)/C(=C/c2ccc(OCc3cn(-c4ccc(C(=O)OCCOC(=O)c5ccc(-c6c7nc(c(-c8cccc(S(=O)(=O)[O-])c8F)c8ccc([nH]8)c(-c8cccc(S(=O)(=O)[O-])c8F)c8nc(c(-c9cccc(S(=O)(=O)[O-])c9F)c9ccc6[nH]9)C=C8)C=C7)cc5)cc4)nn3)cc2)S1
REMARK SMILES IDX 24 1 23 2 21 3 22 4 20 5 17 6 18 7 93 8 19 9 92 10 16 11
REMARK SMILES IDX 14 12 15 13 95 14 94 15 13 16 12 17 11 18 8 19 9 20 97 21
REMARK SMILES IDX 10 22 96 23 7 24 1 25 2 26 3 27 98 28 4 29 6 31 5 32 25 33
REMARK SMILES IDX 26 34 27 35 28 36 29 37 30 38 91 39 31 40 90 41 32 42 33 43
REMARK SMILES IDX 34 44 84 45 35 46 89 47 83 48 85 49 36 50 88 51 82 52 81 53
REMARK SMILES IDX 37 55 69 56 49 57 68 58 50 59 53 60 67 61 86 62 51 63 52 64
REMARK SMILES IDX 66 66 87 67 54 68 38 69 39 70 47 71 40 72 42 73 48 74 41 75
REMARK SMILES IDX 43 76 44 77 45 78 46 79 70 80 71 81 79 82 72 83 74 84 80 85
REMARK SMILES IDX 73 86 75 87 76 88 77 89 78 90 55 91 56 92 64 93 57 94 59 95
REMARK SMILES IDX 65 96 58 97 60 98 61 99 62 100 63 101
REMARK H PARENT 3 30 85 54 53 65
REMARK Flexibility Score: inf
ROOT
ATOM      1  C   UNL A   1      34.474  34.161  29.489  1.00  0.00     0.275 C 
ENDROOT
BRANCH   1   2
ATOM      2  O   UNL A   1      33.952  32.922  28.984  1.00  0.00    -0.458 OA
BRANCH   2   3
ATOM      3  C   UNL A   1      34.707  32.339  28.020  1.00  0.00     0.338 C 
ATOM      4  O   UNL A   1      35.839  32.656  27.689  1.00  0.00    -0.246 OA
BRANCH   3   5
ATOM      5  C   UNL A   1      33.994  31.182  27.435  1.00  0.00     0.060 A 
ATOM      6  C   UNL A   1      32.508  29.014  26.511  1.00  0.00     0.066 A 
ATOM      7  C   UNL A   1      31.914  30.282  26.591  1.00  0.00     0.029 A 
ATOM      8  C   UNL A   1      33.864  28.845  26.819  1.00  0.00     0.029 A 
ATOM      9  C   UNL A   1      32.651  31.357  27.082  1.00  0.00     0.018 A 
ATOM     10  C   UNL A   1      34.613  29.939  27.259  1.00  0.00     0.018 A 
BRANCH   6  11
ATOM     11  N   UNL A   1      31.693  27.907  26.188  1.00  0.00    -0.220 N 
ATOM     12  C   UNL A   1      30.719  26.230  25.184  1.00  0.00     0.120 A 
ATOM     13  C   UNL A   1      31.351  27.431  24.939  1.00  0.00     0.144 A 
ATOM     14  N   UNL A   1      30.667  26.034  26.537  1.00  0.00    -0.131 NA
ATOM     15  N   UNL A   1      31.263  27.048  27.134  1.00  0.00    -0.062 NA
BRANCH  12  16
ATOM     16  C   UNL A   1      30.253  25.159  24.254  1.00  0.00     0.289 C 
BRANCH  16  17
ATOM     17  O   UNL A   1      30.297  23.821  24.778  1.00  0.00    -0.487 OA
BRANCH  17  18
ATOM     18  C   UNL A   1      31.470  23.125  24.673  1.00  0.00     0.119 A 
ATOM     19  C   UNL A   1      33.985  21.873  24.804  1.00  0.00    -0.024 A 
ATOM     20  C   UNL A   1      33.129  21.846  25.907  1.00  0.00     0.012 A 
ATOM     21  C   UNL A   1      33.538  22.449  23.612  1.00  0.00     0.012 A 
ATOM     22  C   UNL A   1      31.879  22.474  25.840  1.00  0.00     0.047 A 
ATOM     23  C   UNL A   1      32.277  23.045  23.541  1.00  0.00     0.047 A 
BRANCH  19  24
ATOM     24  C   UNL A   1      35.331  21.299  24.883  1.00  0.00     0.029 C 
ATOM     25  O   UNL A   1      39.021  24.400  26.338  1.00  0.00    -0.261 OA
ATOM     26  C   UNL A   1      38.307  23.484  25.962  1.00  0.00     0.290 C 
ATOM     27  N   UNL A   1      38.724  22.242  25.610  1.00  0.00    -0.282 N 
ATOM     28  S   UNL A   1      36.568  23.593  25.806  1.00  0.00    -0.022 SA
ATOM     29  C   UNL A   1      37.782  21.335  25.227  1.00  0.00     0.265 C 
ATOM     30  H   UNL A   1      39.679  22.003  25.633  1.00  0.00     0.174 HD
ATOM     31  C   UNL A   1      36.434  21.963  25.258  1.00  0.00     0.083 C 
ATOM     32  O   UNL A   1      38.009  20.182  24.892  1.00  0.00    -0.268 OA
ENDBRANCH  19  24
ENDBRANCH  17  18
ENDBRANCH  16  17
ENDBRANCH  12  16
ENDBRANCH   6  11
ENDBRANCH   3   5
ENDBRANCH   2   3
ENDBRANCH   1   2
BRANCH   1  33
ATOM     33  C   UNL A   1      35.101  33.978  30.865  1.00  0.00     0.275 C 
BRANCH  33  34
ATOM     34  O   UNL A   1      36.359  33.304  30.813  1.00  0.00    -0.458 OA
BRANCH  34  35
ATOM     35  C   UNL A   1      36.334  32.035  31.283  1.00  0.00     0.338 C 
ATOM     36  O   UNL A   1      35.538  31.558  32.075  1.00  0.00    -0.246 OA
BRANCH  35  37
ATOM     37  C   UNL A   1      37.565  31.344  30.886  1.00  0.00     0.060 A 
ATOM     38  C   UNL A   1      37.514  29.958  30.712  1.00  0.00     0.016 A 
ATOM     39  C   UNL A   1      38.784  32.036  30.929  1.00  0.00     0.016 A 
ATOM     40  C   UNL A   1      38.701  29.252  30.673  1.00  0.00     0.010 A 
ATOM     41  C   UNL A   1      39.966  31.329  30.905  1.00  0.00     0.010 A 
ATOM     42  C   UNL A   1      39.915  29.938  30.822  1.00  0.00    -0.014 A 
BRANCH  42  43
ATOM     43  C   UNL A   1      41.152  29.193  30.650  1.00  0.00     0.031 A 
ATOM     44  C   UNL A   1      41.783  28.879  31.957  1.00  0.00     0.074 A 
ATOM     45  C   UNL A   1      41.584  28.727  29.461  1.00  0.00     0.049 A 
ATOM     46  N   UNL A   1      42.903  29.334  32.413  1.00  0.00    -0.248 NA
ATOM     47  C   UNL A   1      40.984  28.148  32.957  1.00  0.00     0.031 C 
ATOM     48  C   UNL A   1      40.865  28.776  28.185  1.00  0.00     0.029 A 
ATOM     49  N   UNL A   1      42.688  27.982  29.161  1.00  0.00    -0.354 N 
ATOM     50  C   UNL A   1      43.072  28.702  33.641  1.00  0.00     0.074 A 
ATOM     51  C   UNL A   1      41.780  28.204  34.024  1.00  0.00     0.031 C 
ATOM     52  C   UNL A   1      41.417  27.887  27.329  1.00  0.00     0.029 A 
ATOM     53  C   UNL A   1      42.588  27.294  27.951  1.00  0.00     0.049 A 
ATOM     54  H   UNL A   1      43.481  27.934  29.744  1.00  0.00     0.167 HD
ATOM     55  C   UNL A   1      44.315  28.338  34.053  1.00  0.00     0.034 A 
ATOM     56  C   UNL A   1      43.356  26.253  27.533  1.00  0.00     0.034 A 
ATOM     57  C   UNL A   1      45.331  29.071  33.337  1.00  0.00     0.049 A 
ATOM     58  C   UNL A   1      44.601  26.276  28.328  1.00  0.00     0.074 A 
ATOM     59  C   UNL A   1      45.633  30.402  33.138  1.00  0.00     0.029 A 
ATOM     60  N   UNL A   1      45.988  28.374  32.356  1.00  0.00    -0.354 N 
ATOM     61  N   UNL A   1      45.510  27.201  28.216  1.00  0.00    -0.248 NA
ATOM     62  C   UNL A   1      44.661  25.479  29.540  1.00  0.00     0.031 C 
ATOM     63  C   UNL A   1      46.121  30.479  31.801  1.00  0.00     0.029 A 
ATOM     64  C   UNL A   1      46.167  29.187  31.275  1.00  0.00     0.049 A 
ATOM     65  H   UNL A   1      46.282  27.436  32.420  1.00  0.00     0.167 HD
ATOM     66  C   UNL A   1      45.908  27.433  29.524  1.00  0.00     0.074 A 
ATOM     67  C   UNL A   1      45.471  26.252  30.266  1.00  0.00     0.031 C 
ATOM     68  C   UNL A   1      46.269  28.688  29.920  1.00  0.00     0.034 A 
BRANCH  55  69
ATOM     69  C   UNL A   1      44.629  27.008  34.718  1.00  0.00     0.023 A 
ATOM     70  C   UNL A   1      45.506  27.042  35.826  1.00  0.00     0.012 A 
ATOM     71  C   UNL A   1      44.375  25.736  34.150  1.00  0.00     0.148 A 
ATOM     72  C   UNL A   1      46.153  25.891  36.289  1.00  0.00     0.002 A 
ATOM     73  C   UNL A   1      44.954  24.583  34.666  1.00  0.00     0.091 A 
ATOM     74  F   UNL A   1      43.680  25.625  33.018  1.00  0.00    -0.205 F 
ATOM     75  C   UNL A   1      45.874  24.658  35.712  1.00  0.00     0.022 A 
BRANCH  73  76
ATOM     76  S   UNL A   1      44.591  22.958  33.985  1.00  0.00     0.127 S 
ATOM     77  O   UNL A   1      45.612  22.137  34.630  1.00  0.00    -0.237 OA
ATOM     78  O   UNL A   1      43.226  22.739  34.460  1.00  0.00    -0.237 OA
ATOM     79  O   UNL A   1      44.706  23.098  32.539  1.00  0.00    -0.744 OA
ENDBRANCH  73  76
ENDBRANCH  55  69
BRANCH  56  80
ATOM     80  C   UNL A   1      43.019  25.079  26.688  1.00  0.00     0.023 A 
ATOM     81  C   UNL A   1      43.629  24.935  25.422  1.00  0.00     0.012 A 
ATOM     82  C   UNL A   1      42.358  23.958  27.234  1.00  0.00     0.148 A 
ATOM     83  C   UNL A   1      43.624  23.706  24.749  1.00  0.00     0.002 A 
ATOM     84  C   UNL A   1      42.350  22.740  26.558  1.00  0.00     0.091 A 
ATOM     85  F   UNL A   1      41.823  24.054  28.457  1.00  0.00    -0.205 F 
ATOM     86  C   UNL A   1      42.995  22.606  25.323  1.00  0.00     0.022 A 
BRANCH  84  87
ATOM     87  S   UNL A   1      41.585  21.269  27.256  1.00  0.00     0.127 S 
ATOM     88  O   UNL A   1      41.254  20.503  26.055  1.00  0.00    -0.237 OA
ATOM     89  O   UNL A   1      42.673  20.714  28.056  1.00  0.00    -0.237 OA
ATOM     90  O   UNL A   1      40.426  21.740  28.004  1.00  0.00    -0.744 OA
ENDBRANCH  84  87
ENDBRANCH  56  80
BRANCH  68  91
ATOM     91  C   UNL A   1      46.603  29.694  28.851  1.00  0.00     0.023 A 
ATOM     92  C   UNL A   1      47.895  29.853  28.307  1.00  0.00     0.012 A 
ATOM     93  C   UNL A   1      45.541  30.431  28.303  1.00  0.00     0.148 A 
ATOM     94  C   UNL A   1      48.124  30.757  27.265  1.00  0.00     0.002 A 
ATOM     95  C   UNL A   1      45.762  31.289  27.236  1.00  0.00     0.091 A 
ATOM     96  F   UNL A   1      44.319  30.273  28.833  1.00  0.00    -0.205 F 
ATOM     97  C   UNL A   1      47.055  31.467  26.720  1.00  0.00     0.022 A 
BRANCH  95  98
ATOM     98  S   UNL A   1      44.399  32.139  26.438  1.00  0.00     0.127 S 
ATOM     99  O   UNL A   1      43.998  33.101  27.462  1.00  0.00    -0.237 OA
ATOM    100  O   UNL A   1      45.037  32.729  25.260  1.00  0.00    -0.237 OA
ATOM    101  O   UNL A   1      43.418  31.107  26.124  1.00  0.00    -0.744 OA
ENDBRANCH  95  98
ENDBRANCH  68  91
ENDBRANCH  42  43
ENDBRANCH  35  37
ENDBRANCH  34  35
ENDBRANCH  33  34
ENDBRANCH   1  33
TORSDOF 19
ENDMDL
MODEL 2
REMARK VINA RESULT:     -11.3      3.167      9.089
REMARK SMILES O=C1NC(=O)/C(=C/c2ccc(OCc3cn(-c4ccc(C(=O)OCCOC(=O)c5ccc(-c6c7nc(c(-c8cccc(S(=O)(=O)[O-])c8F)c8ccc([nH]8)c(-c8cccc(S(=O)(=O)[O-])c8F)c8nc(c(-c9cccc(S(=O)(=O)[O-])c9F)c9ccc6[nH]9)C=C8)C=C7)cc5)cc4)nn3)cc2)S1
REMARK SMILES IDX 24 1 23 2 21 3 22 4 20 5 17 6 18 7 93 8 19 9 92 10 16 11
REMARK SMILES IDX 14 12 15 13 95 14 94 15 13 16 12 17 11 18 8 19 9 20 97 21
REMARK SMILES IDX 10 22 96 23 7 24 1 25 2 26 3 27 98 28 4 29 6 31 5 32 25 33
REMARK SMILES IDX 26 34 27 35 28 36 29 37 30 38 91 39 31 40 90 41 32 42 33 43
REMARK SMILES IDX 34 44 84 45 35 46 89 47 83 48 85 49 36 50 88 51 82 52 81 53
REMARK SMILES IDX 37 55 69 56 49 57 68 58 50 59 53 60 67 61 86 62 51 63 52 64
REMARK SMILES IDX 66 66 87 67 54 68 38 69 39 70 47 71 40 72 42 73 48 74 41 75
REMARK SMILES IDX 43 76 44 77 45 78 46 79 70 80 71 81 79 82 72 83 74 84 80 85
REMARK SMILES IDX 73 86 75 87 76 88 77 89 78 90 55 91 56 92 64 93 57 94 59 95
REMARK SMILES IDX 65 96 58 97 60 98 61 99 62 100 63 101
REMARK H PARENT 3 30 85 54 53 65
REMARK Flexibility Score: inf
ROOT
ATOM      1  C   UNL A   1      43.015  18.399  25.853  1.00  0.00     0.275 C 
ENDROOT
BRANCH   1   2
ATOM      2  O   UNL A   1      41.884  19.211  25.501  1.00  0.00    -0.458 OA
BRANCH   2   3
ATOM      3  C   UNL A   1      41.139  19.634  26.552  1.00  0.00     0.338 C 
ATOM      4  O   UNL A   1      41.441  19.570  27.732  1.00  0.00    -0.246 OA
BRANCH   3   5
ATOM      5  C   UNL A   1      39.890  20.269  26.077  1.00  0.00     0.060 A 
ATOM      6  C   UNL A   1      37.604  21.414  24.969  1.00  0.00     0.066 A 
ATOM      7  C   UNL A   1      37.821  20.033  24.847  1.00  0.00     0.029 A 
ATOM      8  C   UNL A   1      38.489  22.209  25.709  1.00  0.00     0.029 A 
ATOM      9  C   UNL A   1      38.980  19.470  25.375  1.00  0.00     0.018 A 
ATOM     10  C   UNL A   1      39.622  21.627  26.284  1.00  0.00     0.018 A 
BRANCH   6  11
ATOM     11  N   UNL A   1      36.521  21.991  24.269  1.00  0.00    -0.220 N 
ATOM     12  C   UNL A   1      34.592  22.847  23.708  1.00  0.00     0.120 A 
ATOM     13  C   UNL A   1      35.183  21.978  24.602  1.00  0.00     0.144 A 
ATOM     14  N   UNL A   1      35.556  23.322  22.862  1.00  0.00    -0.131 NA
ATOM     15  N   UNL A   1      36.718  22.805  23.212  1.00  0.00    -0.062 NA
BRANCH  12  16
ATOM     16  C   UNL A   1      33.202  23.386  23.637  1.00  0.00     0.289 C 
BRANCH  16  17
ATOM     17  O   UNL A   1      32.947  24.302  22.559  1.00  0.00    -0.487 OA
BRANCH  17  18
ATOM     18  C   UNL A   1      32.234  25.438  22.831  1.00  0.00     0.119 A 
ATOM     19  C   UNL A   1      31.119  27.927  23.516  1.00  0.00    -0.024 A 
ATOM     20  C   UNL A   1      32.259  27.865  22.712  1.00  0.00     0.012 A 
ATOM     21  C   UNL A   1      30.492  26.738  23.897  1.00  0.00     0.012 A 
ATOM     22  C   UNL A   1      32.814  26.624  22.376  1.00  0.00     0.047 A 
ATOM     23  C   UNL A   1      31.032  25.502  23.531  1.00  0.00     0.047 A 
BRANCH  19  24
ATOM     24  C   UNL A   1      30.575  29.216  23.952  1.00  0.00     0.029 C 
ATOM     25  O   UNL A   1      27.573  31.608  20.693  1.00  0.00    -0.261 OA
ATOM     26  C   UNL A   1      28.265  31.226  21.623  1.00  0.00     0.290 C 
ATOM     27  N   UNL A   1      28.526  31.920  22.759  1.00  0.00    -0.282 N 
ATOM     28  S   UNL A   1      29.068  29.673  21.678  1.00  0.00    -0.022 SA
ATOM     29  C   UNL A   1      29.313  31.331  23.704  1.00  0.00     0.265 C 
ATOM     30  H   UNL A   1      28.157  32.822  22.898  1.00  0.00     0.174 HD
ATOM     31  C   UNL A   1      29.752  29.991  23.229  1.00  0.00     0.083 C 
ATOM     32  O   UNL A   1      29.624  31.832  24.773  1.00  0.00    -0.268 OA
ENDBRANCH  19  24
ENDBRANCH  17  18
ENDBRANCH  16  17
ENDBRANCH  12  16
ENDBRANCH   6  11
ENDBRANCH   3   5
ENDBRANCH   2   3
ENDBRANCH   1   2
BRANCH   1  33
ATOM     33  C   UNL A   1      44.174  18.615  24.889  1.00  0.00     0.275 C 
BRANCH  33  34
ATOM     34  O   UNL A   1      44.906  19.810  25.164  1.00  0.00    -0.458 OA
BRANCH  34  35
ATOM     35  C   UNL A   1      44.588  20.857  24.368  1.00  0.00     0.338 C 
ATOM     36  O   UNL A   1      44.789  20.958  23.169  1.00  0.00    -0.246 OA
BRANCH  35  37
ATOM     37  C   UNL A   1      44.168  21.991  25.197  1.00  0.00     0.060 A 
ATOM     38  C   UNL A   1      44.424  23.281  24.726  1.00  0.00     0.016 A 
ATOM     39  C   UNL A   1      43.752  21.759  26.516  1.00  0.00     0.016 A 
ATOM     40  C   UNL A   1      44.351  24.337  25.613  1.00  0.00     0.010 A 
ATOM     41  C   UNL A   1      43.694  22.811  27.404  1.00  0.00     0.010 A 
ATOM     42  C   UNL A   1      44.037  24.086  26.957  1.00  0.00    -0.014 A 
BRANCH  42  43
ATOM     43  C   UNL A   1      43.842  25.223  27.842  1.00  0.00     0.031 A 
ATOM     44  C   UNL A   1      42.475  25.788  27.708  1.00  0.00     0.074 A 
ATOM     45  C   UNL A   1      44.743  25.614  28.765  1.00  0.00     0.049 A 
ATOM     46  N   UNL A   1      42.152  26.948  27.239  1.00  0.00    -0.248 NA
ATOM     47  C   UNL A   1      41.327  24.887  27.917  1.00  0.00     0.031 C 
ATOM     48  C   UNL A   1      45.989  24.929  29.122  1.00  0.00     0.029 A 
ATOM     49  N   UNL A   1      44.675  26.623  29.683  1.00  0.00    -0.354 N 
ATOM     50  C   UNL A   1      40.769  27.016  27.376  1.00  0.00     0.074 A 
ATOM     51  C   UNL A   1      40.309  25.667  27.550  1.00  0.00     0.031 C 
ATOM     52  C   UNL A   1      46.416  25.381  30.322  1.00  0.00     0.029 A 
ATOM     53  C   UNL A   1      45.547  26.458  30.761  1.00  0.00     0.049 A 
ATOM     54  H   UNL A   1      44.068  27.394  29.594  1.00  0.00     0.167 HD
ATOM     55  C   UNL A   1      40.174  28.197  27.691  1.00  0.00     0.034 A 
ATOM     56  C   UNL A   1      45.499  27.098  31.959  1.00  0.00     0.034 A 
ATOM     57  C   UNL A   1      41.046  29.309  27.397  1.00  0.00     0.049 A 
ATOM     58  C   UNL A   1      44.694  28.323  31.774  1.00  0.00     0.074 A 
ATOM     59  C   UNL A   1      41.707  29.777  26.280  1.00  0.00     0.029 A 
ATOM     60  N   UNL A   1      41.656  29.890  28.479  1.00  0.00    -0.354 N 
ATOM     61  N   UNL A   1      45.085  29.341  31.064  1.00  0.00    -0.248 NA
ATOM     62  C   UNL A   1      43.271  28.262  32.058  1.00  0.00     0.031 C 
ATOM     63  C   UNL A   1      42.944  30.294  26.765  1.00  0.00     0.029 A 
ATOM     64  C   UNL A   1      42.948  30.188  28.157  1.00  0.00     0.049 A 
ATOM     65  H   UNL A   1      41.229  30.065  29.349  1.00  0.00     0.167 HD
ATOM     66  C   UNL A   1      43.935  29.743  30.402  1.00  0.00     0.074 A 
ATOM     67  C   UNL A   1      42.836  29.150  31.162  1.00  0.00     0.031 C 
ATOM     68  C   UNL A   1      44.011  30.249  29.137  1.00  0.00     0.034 A 
BRANCH  55  69
ATOM     69  C   UNL A   1      39.045  28.332  28.699  1.00  0.00     0.023 A 
ATOM     70  C   UNL A   1      37.891  29.028  28.272  1.00  0.00     0.012 A 
ATOM     71  C   UNL A   1      39.166  28.101  30.091  1.00  0.00     0.148 A 
ATOM     72  C   UNL A   1      36.956  29.532  29.182  1.00  0.00     0.002 A 
ATOM     73  C   UNL A   1      38.192  28.530  30.985  1.00  0.00     0.091 A 
ATOM     74  F   UNL A   1      40.285  27.584  30.598  1.00  0.00    -0.205 F 
ATOM     75  C   UNL A   1      37.103  29.280  30.540  1.00  0.00     0.022 A 
BRANCH  73  76
ATOM     76  S   UNL A   1      38.312  28.189  32.747  1.00  0.00     0.127 S 
ATOM     77  O   UNL A   1      37.085  28.804  33.246  1.00  0.00    -0.237 OA
ATOM     78  O   UNL A   1      38.325  26.727  32.763  1.00  0.00    -0.237 OA
ATOM     79  O   UNL A   1      39.558  28.803  33.187  1.00  0.00    -0.744 OA
ENDBRANCH  73  76
ENDBRANCH  55  69
BRANCH  56  80
ATOM     80  C   UNL A   1      45.867  26.633  33.321  1.00  0.00     0.023 A 
ATOM     81  C   UNL A   1      46.791  27.379  34.085  1.00  0.00     0.012 A 
ATOM     82  C   UNL A   1      45.097  25.656  33.986  1.00  0.00     0.148 A 
ATOM     83  C   UNL A   1      46.906  27.193  35.470  1.00  0.00     0.002 A 
ATOM     84  C   UNL A   1      45.219  25.470  35.361  1.00  0.00     0.091 A 
ATOM     85  F   UNL A   1      44.174  24.977  33.294  1.00  0.00    -0.205 F 
ATOM     86  C   UNL A   1      46.112  26.248  36.109  1.00  0.00     0.022 A 
BRANCH  84  87
ATOM     87  S   UNL A   1      44.201  24.289  36.257  1.00  0.00     0.127 S 
ATOM     88  O   UNL A   1      44.597  23.022  35.643  1.00  0.00    -0.237 OA
ATOM     89  O   UNL A   1      44.661  24.474  37.631  1.00  0.00    -0.237 OA
ATOM     90  O   UNL A   1      42.820  24.675  35.996  1.00  0.00    -0.744 OA
ENDBRANCH  84  87
ENDBRANCH  56  80
BRANCH  68  91
ATOM     91  C   UNL A   1      45.355  30.724  28.650  1.00  0.00     0.023 A 
ATOM     92  C   UNL A   1      45.901  31.984  28.975  1.00  0.00     0.012 A 
ATOM     93  C   UNL A   1      46.137  29.812  27.924  1.00  0.00     0.148 A 
ATOM     94  C   UNL A   1      47.185  32.336  28.549  1.00  0.00     0.002 A 
ATOM     95  C   UNL A   1      47.430  30.146  27.546  1.00  0.00     0.091 A 
ATOM     96  F   UNL A   1      45.603  28.620  27.618  1.00  0.00    -0.205 F 
ATOM     97  C   UNL A   1      47.955  31.412  27.844  1.00  0.00     0.022 A 
BRANCH  95  98
ATOM     98  S   UNL A   1      48.490  28.949  26.733  1.00  0.00     0.127 S 
ATOM     99  O   UNL A   1      48.475  27.836  27.680  1.00  0.00    -0.237 OA
ATOM    100  O   UNL A   1      47.781  28.695  25.478  1.00  0.00    -0.237 OA
ATOM    101  O   UNL A   1      49.777  29.612  26.560  1.00  0.00    -0.744 OA
ENDBRANCH  95  98
ENDBRANCH  68  91
ENDBRANCH  42  43
ENDBRANCH  35  37
ENDBRANCH  34  35
ENDBRANCH  33  34
ENDBRANCH   1  33
TORSDOF 19
ENDMDL
MODEL 3
REMARK VINA RESULT:     -11.2      1.655      2.224
REMARK SMILES O=C1NC(=O)/C(=C/c2ccc(OCc3cn(-c4ccc(C(=O)OCCOC(=O)c5ccc(-c6c7nc(c(-c8cccc(S(=O)(=O)[O-])c8F)c8ccc([nH]8)c(-c8cccc(S(=O)(=O)[O-])c8F)c8nc(c(-c9cccc(S(=O)(=O)[O-])c9F)c9ccc6[nH]9)C=C8)C=C7)cc5)cc4)nn3)cc2)S1
REMARK SMILES IDX 24 1 23 2 21 3 22 4 20 5 17 6 18 7 93 8 19 9 92 10 16 11
REMARK SMILES IDX 14 12 15 13 95 14 94 15 13 16 12 17 11 18 8 19 9 20 97 21
REMARK SMILES IDX 10 22 96 23 7 24 1 25 2 26 3 27 98 28 4 29 6 31 5 32 25 33
REMARK SMILES IDX 26 34 27 35 28 36 29 37 30 38 91 39 31 40 90 41 32 42 33 43
REMARK SMILES IDX 34 44 84 45 35 46 89 47 83 48 85 49 36 50 88 51 82 52 81 53
REMARK SMILES IDX 37 55 69 56 49 57 68 58 50 59 53 60 67 61 86 62 51 63 52 64
REMARK SMILES IDX 66 66 87 67 54 68 38 69 39 70 47 71 40 72 42 73 48 74 41 75
REMARK SMILES IDX 43 76 44 77 45 78 46 79 70 80 71 81 79 82 72 83 74 84 80 85
REMARK SMILES IDX 73 86 75 87 76 88 77 89 78 90 55 91 56 92 64 93 57 94 59 95
REMARK SMILES IDX 65 96 58 97 60 98 61 99 62 100 63 101
REMARK H PARENT 3 30 85 54 53 65
REMARK Flexibility Score: inf
ROOT
ATOM      1  C   UNL A   1      35.602  34.594  28.438  1.00  0.00     0.275 C 
ENDROOT
BRANCH   1   2
ATOM      2  O   UNL A   1      34.743  33.786  27.618  1.00  0.00    -0.458 OA
BRANCH   2   3
ATOM      3  C   UNL A   1      33.518  33.543  28.146  1.00  0.00     0.338 C 
ATOM      4  O   UNL A   1      32.955  34.193  29.011  1.00  0.00    -0.246 OA
BRANCH   3   5
ATOM      5  C   UNL A   1      32.887  32.385  27.474  1.00  0.00     0.060 A 
ATOM      6  C   UNL A   1      31.883  30.196  26.072  1.00  0.00     0.066 A 
ATOM      7  C   UNL A   1      33.058  30.061  26.827  1.00  0.00     0.029 A 
ATOM      8  C   UNL A   1      31.170  31.402  26.080  1.00  0.00     0.029 A 
ATOM      9  C   UNL A   1      33.573  31.165  27.501  1.00  0.00     0.018 A 
ATOM     10  C   UNL A   1      31.664  32.491  26.804  1.00  0.00     0.018 A 
BRANCH   6  11
ATOM     11  N   UNL A   1      31.482  29.120  25.251  1.00  0.00    -0.220 N 
ATOM     12  C   UNL A   1      30.771  27.199  24.493  1.00  0.00     0.120 A 
ATOM     13  C   UNL A   1      31.407  27.780  25.571  1.00  0.00     0.144 A 
ATOM     14  N   UNL A   1      30.516  28.169  23.564  1.00  0.00    -0.131 NA
ATOM     15  N   UNL A   1      30.942  29.326  24.032  1.00  0.00    -0.062 NA
BRANCH  12  16
ATOM     16  C   UNL A   1      30.254  25.813  24.290  1.00  0.00     0.289 C 
BRANCH  16  17
ATOM     17  O   UNL A   1      30.952  25.029  23.308  1.00  0.00    -0.487 OA
BRANCH  17  18
ATOM     18  C   UNL A   1      32.093  24.379  23.692  1.00  0.00     0.119 A 
ATOM     19  C   UNL A   1      34.368  22.797  24.170  1.00  0.00    -0.024 A 
ATOM     20  C   UNL A   1      34.124  23.308  22.894  1.00  0.00     0.012 A 
ATOM     21  C   UNL A   1      33.519  23.157  25.220  1.00  0.00     0.012 A 
ATOM     22  C   UNL A   1      32.988  24.092  22.658  1.00  0.00     0.047 A 
ATOM     23  C   UNL A   1      32.405  23.967  24.985  1.00  0.00     0.047 A 
BRANCH  19  24
ATOM     24  C   UNL A   1      35.503  21.903  24.418  1.00  0.00     0.029 C 
ATOM     25  O   UNL A   1      39.463  23.898  26.803  1.00  0.00    -0.261 OA
ATOM     26  C   UNL A   1      38.641  23.212  26.216  1.00  0.00     0.290 C 
ATOM     27  N   UNL A   1      38.817  21.929  25.812  1.00  0.00    -0.282 N 
ATOM     28  S   UNL A   1      37.038  23.758  25.776  1.00  0.00    -0.022 SA
ATOM     29  C   UNL A   1      37.782  21.308  25.179  1.00  0.00     0.265 C 
ATOM     30  H   UNL A   1      39.667  21.460  25.973  1.00  0.00     0.174 HD
ATOM     31  C   UNL A   1      36.637  22.249  25.045  1.00  0.00     0.083 C 
ATOM     32  O   UNL A   1      37.794  20.158  24.770  1.00  0.00    -0.268 OA
ENDBRANCH  19  24
ENDBRANCH  17  18
ENDBRANCH  16  17
ENDBRANCH  12  16
ENDBRANCH   6  11
ENDBRANCH   3   5
ENDBRANCH   2   3
ENDBRANCH   1   2
BRANCH   1  33
ATOM     33  C   UNL A   1      36.420  33.739  29.396  1.00  0.00     0.275 C 
BRANCH  33  34
ATOM     34  O   UNL A   1      36.904  32.540  28.789  1.00  0.00    -0.458 OA
BRANCH  34  35
ATOM     35  C   UNL A   1      36.762  31.430  29.550  1.00  0.00     0.338 C 
ATOM     36  O   UNL A   1      35.817  31.146  30.268  1.00  0.00    -0.246 OA
BRANCH  35  37
ATOM     37  C   UNL A   1      38.030  30.695  29.585  1.00  0.00     0.060 A 
ATOM     38  C   UNL A   1      38.001  29.320  29.341  1.00  0.00     0.016 A 
ATOM     39  C   UNL A   1      39.176  31.330  30.088  1.00  0.00     0.016 A 
ATOM     40  C   UNL A   1      39.101  28.561  29.694  1.00  0.00     0.010 A 
ATOM     41  C   UNL A   1      40.266  30.570  30.452  1.00  0.00     0.010 A 
ATOM     42  C   UNL A   1      40.203  29.187  30.294  1.00  0.00    -0.014 A 
BRANCH  42  43
ATOM     43  C   UNL A   1      41.396  28.391  30.539  1.00  0.00     0.031 A 
ATOM     44  C   UNL A   1      41.774  28.405  31.975  1.00  0.00     0.074 A 
ATOM     45  C   UNL A   1      41.989  27.627  29.600  1.00  0.00     0.049 A 
ATOM     46  N   UNL A   1      42.830  28.933  32.500  1.00  0.00    -0.248 NA
ATOM     47  C   UNL A   1      40.767  27.974  32.962  1.00  0.00     0.031 C 
ATOM     48  C   UNL A   1      41.501  27.366  28.243  1.00  0.00     0.029 A 
ATOM     49  N   UNL A   1      43.073  26.802  29.699  1.00  0.00    -0.354 N 
ATOM     50  C   UNL A   1      42.743  28.632  33.856  1.00  0.00     0.074 A 
ATOM     51  C   UNL A   1      41.374  28.281  34.109  1.00  0.00     0.031 C 
ATOM     52  C   UNL A   1      42.126  26.275  27.747  1.00  0.00     0.029 A 
ATOM     53  C   UNL A   1      43.130  25.831  28.698  1.00  0.00     0.049 A 
ATOM     54  H   UNL A   1      43.751  26.884  30.409  1.00  0.00     0.167 HD
ATOM     55  C   UNL A   1      43.870  28.353  34.563  1.00  0.00     0.034 A 
ATOM     56  C   UNL A   1      43.883  24.699  28.696  1.00  0.00     0.034 A 
ATOM     57  C   UNL A   1      45.042  28.853  33.885  1.00  0.00     0.049 A 
ATOM     58  C   UNL A   1      44.974  24.892  29.673  1.00  0.00     0.074 A 
ATOM     59  C   UNL A   1      45.466  30.082  33.422  1.00  0.00     0.029 A 
ATOM     60  N   UNL A   1      45.804  27.913  33.242  1.00  0.00    -0.354 N 
ATOM     61  N   UNL A   1      45.952  25.734  29.503  1.00  0.00    -0.248 NA
ATOM     62  C   UNL A   1      44.772  24.429  31.034  1.00  0.00     0.031 C 
ATOM     63  C   UNL A   1      46.178  29.802  32.218  1.00  0.00     0.029 A 
ATOM     64  C   UNL A   1      46.221  28.418  32.045  1.00  0.00     0.049 A 
ATOM     65  H   UNL A   1      46.017  27.015  33.587  1.00  0.00     0.167 HD
ATOM     66  C   UNL A   1      46.138  26.282  30.763  1.00  0.00     0.074 A 
ATOM     67  C   UNL A   1      45.501  25.341  31.681  1.00  0.00     0.031 C 
ATOM     68  C   UNL A   1      46.514  27.588  30.896  1.00  0.00     0.034 A 
BRANCH  55  69
ATOM     69  C   UNL A   1      43.973  27.229  35.581  1.00  0.00     0.023 A 
ATOM     70  C   UNL A   1      44.060  27.608  36.940  1.00  0.00     0.012 A 
ATOM     71  C   UNL A   1      44.294  25.884  35.276  1.00  0.00     0.148 A 
ATOM     72  C   UNL A   1      44.517  26.723  37.923  1.00  0.00     0.002 A 
ATOM     73  C   UNL A   1      44.666  24.985  36.268  1.00  0.00     0.091 A 
ATOM     74  F   UNL A   1      44.381  25.478  34.010  1.00  0.00    -0.205 F 
ATOM     75  C   UNL A   1      44.816  25.409  37.589  1.00  0.00     0.022 A 
BRANCH  73  76
ATOM     76  S   UNL A   1      45.020  23.261  35.896  1.00  0.00     0.127 S 
ATOM     77  O   UNL A   1      43.759  22.827  35.301  1.00  0.00    -0.237 OA
ATOM     78  O   UNL A   1      46.138  23.387  34.961  1.00  0.00    -0.237 OA
ATOM     79  O   UNL A   1      45.372  22.643  37.168  1.00  0.00    -0.744 OA
ENDBRANCH  73  76
ENDBRANCH  55  69
BRANCH  56  80
ATOM     80  C   UNL A   1      43.612  23.357  28.120  1.00  0.00     0.023 A 
ATOM     81  C   UNL A   1      42.420  22.680  28.462  1.00  0.00     0.012 A 
ATOM     82  C   UNL A   1      44.348  22.880  27.015  1.00  0.00     0.148 A 
ATOM     83  C   UNL A   1      41.953  21.601  27.699  1.00  0.00     0.002 A 
ATOM     84  C   UNL A   1      43.884  21.803  26.263  1.00  0.00     0.091 A 
ATOM     85  F   UNL A   1      45.449  23.540  26.637  1.00  0.00    -0.205 F 
ATOM     86  C   UNL A   1      42.679  21.170  26.593  1.00  0.00     0.022 A 
BRANCH  84  87
ATOM     87  S   UNL A   1      44.753  21.215  24.803  1.00  0.00     0.127 S 
ATOM     88  O   UNL A   1      44.121  19.915  24.578  1.00  0.00    -0.237 OA
ATOM     89  O   UNL A   1      44.415  22.240  23.818  1.00  0.00    -0.237 OA
ATOM     90  O   UNL A   1      46.159  21.140  25.179  1.00  0.00    -0.744 OA
ENDBRANCH  84  87
ENDBRANCH  56  80
BRANCH  68  91
ATOM     91  C   UNL A   1      47.094  28.279  29.691  1.00  0.00     0.023 A 
ATOM     92  C   UNL A   1      48.453  28.192  29.321  1.00  0.00     0.012 A 
ATOM     93  C   UNL A   1      46.202  28.954  28.842  1.00  0.00     0.148 A 
ATOM     94  C   UNL A   1      48.914  28.800  28.150  1.00  0.00     0.002 A 
ATOM     95  C   UNL A   1      46.654  29.513  27.655  1.00  0.00     0.091 A 
ATOM     96  F   UNL A   1      44.914  29.032  29.208  1.00  0.00    -0.205 F 
ATOM     97  C   UNL A   1      48.011  29.450  27.309  1.00  0.00     0.022 A 
BRANCH  95  98
ATOM     98  S   UNL A   1      45.509  30.263  26.497  1.00  0.00     0.127 S 
ATOM     99  O   UNL A   1      46.361  30.494  25.332  1.00  0.00    -0.237 OA
ATOM    100  O   UNL A   1      44.501  29.217  26.320  1.00  0.00    -0.237 OA
ATOM    101  O   UNL A   1      45.006  31.463  27.156  1.00  0.00    -0.744 OA
ENDBRANCH  95  98
ENDBRANCH  68  91
ENDBRANCH  42  43
ENDBRANCH  35  37
ENDBRANCH  34  35
ENDBRANCH  33  34
ENDBRANCH   1  33
TORSDOF 19
ENDMDL
