MODEL 1
REMARK VINA RESULT:     -11.4      0.000      0.000
REMARK SMILES O=C(OCCOC(=O)c1ccccc1C[NH2+]C1CCCC1)c1ccc(-c2c3nc(c(-c4cccc(S(=O)(=O)[O-])c4F)c4ccc([nH]4)c(-c4cccc(S(=O)(=O)[O-])c4F)c4nc(c(-c5cccc(S(=O)(=O)[O-])c5F)c5ccc2[nH]5)C=C4)C=C3)cc1
REMARK SMILES IDX 4 1 3 2 2 3 1 4 22 5 23 6 84 7 24 8 83 9 25 10 26 11 27 12
REMARK SMILES IDX 77 13 28 14 82 15 76 16 78 17 29 18 81 19 75 20 74 21 30 23
REMARK SMILES IDX 62 24 42 25 61 26 43 27 46 28 60 29 79 30 44 31 45 32 59 34
REMARK SMILES IDX 80 35 47 36 31 37 32 38 40 39 33 40 35 41 41 42 34 43 36 44
REMARK SMILES IDX 37 45 38 46 39 47 63 48 64 49 72 50 65 51 67 52 73 53 66 54
REMARK SMILES IDX 68 55 69 56 70 57 71 58 48 59 49 60 57 61 50 62 52 63 58 64
REMARK SMILES IDX 51 65 53 66 54 67 55 68 56 69 5 70 6 71 7 72 8 73 9 74 10 75
REMARK SMILES IDX 14 76 11 77 13 78 12 79 15 80 16 81 17 84 18 85 21 86 19 87
REMARK SMILES IDX 20 88
REMARK H PARENT 78 22 46 33 16 82 16 83
REMARK Flexibility Score: inf
ROOT
ATOM      1  C   UNL A   1      31.675  32.162  26.899  1.00  0.00     0.275 C 
ENDROOT
BRANCH   1   2
ATOM      2  O   UNL A   1      32.508  33.327  27.040  1.00  0.00    -0.458 OA
BRANCH   2   3
ATOM      3  C   UNL A   1      33.214  33.799  28.095  1.00  0.00     0.338 C 
ATOM      4  O   UNL A   1      32.862  34.877  28.576  1.00  0.00    -0.246 OA
BRANCH   3   5
ATOM      5  C   UNL A   1      34.418  33.134  28.706  1.00  0.00     0.060 A 
ATOM      6  C   UNL A   1      34.408  32.039  29.573  1.00  0.00     0.016 A 
ATOM      7  C   UNL A   1      35.678  33.669  28.359  1.00  0.00     0.016 A 
ATOM      8  C   UNL A   1      35.594  31.472  30.041  1.00  0.00     0.010 A 
ATOM      9  C   UNL A   1      36.873  33.109  28.829  1.00  0.00     0.010 A 
ATOM     10  C   UNL A   1      36.832  32.006  29.682  1.00  0.00    -0.014 A 
BRANCH  10  11
ATOM     11  C   UNL A   1      38.043  31.437  30.314  1.00  0.00     0.031 A 
ATOM     12  C   UNL A   1      38.337  31.787  31.731  1.00  0.00     0.074 A 
ATOM     13  C   UNL A   1      38.788  30.529  29.659  1.00  0.00     0.049 A 
ATOM     14  N   UNL A   1      39.248  31.290  32.518  1.00  0.00    -0.248 NA
ATOM     15  C   UNL A   1      37.487  32.818  32.351  1.00  0.00     0.031 C 
ATOM     16  C   UNL A   1      38.550  30.140  28.282  1.00  0.00     0.029 A 
ATOM     17  N   UNL A   1      39.859  29.761  30.032  1.00  0.00    -0.354 N 
ATOM     18  C   UNL A   1      39.101  31.959  33.721  1.00  0.00     0.074 A 
ATOM     19  C   UNL A   1      38.012  32.898  33.564  1.00  0.00     0.031 C 
ATOM     20  C   UNL A   1      39.428  29.198  27.911  1.00  0.00     0.029 A 
ATOM     21  C   UNL A   1      40.312  28.925  29.032  1.00  0.00     0.049 A 
ATOM     22  H   UNL A   1      40.266  29.801  30.927  1.00  0.00     0.167 HD
ATOM     23  C   UNL A   1      39.821  31.799  34.852  1.00  0.00     0.034 A 
ATOM     24  C   UNL A   1      41.329  28.042  29.026  1.00  0.00     0.034 A 
ATOM     25  C   UNL A   1      40.922  30.884  34.965  1.00  0.00     0.049 A 
ATOM     26  C   UNL A   1      42.114  27.895  30.299  1.00  0.00     0.074 A 
ATOM     27  C   UNL A   1      41.751  30.664  36.049  1.00  0.00     0.029 A 
ATOM     28  N   UNL A   1      41.364  30.049  33.946  1.00  0.00    -0.354 N 
ATOM     29  N   UNL A   1      41.917  28.486  31.455  1.00  0.00    -0.248 NA
ATOM     30  C   UNL A   1      43.246  26.961  30.284  1.00  0.00     0.031 C 
ATOM     31  C   UNL A   1      42.712  29.720  35.674  1.00  0.00     0.029 A 
ATOM     32  C   UNL A   1      42.457  29.316  34.372  1.00  0.00     0.049 A 
ATOM     33  H   UNL A   1      40.959  29.989  33.051  1.00  0.00     0.167 HD
ATOM     34  C   UNL A   1      42.893  27.993  32.307  1.00  0.00     0.074 A 
ATOM     35  C   UNL A   1      43.649  27.015  31.546  1.00  0.00     0.031 C 
ATOM     36  C   UNL A   1      43.163  28.334  33.590  1.00  0.00     0.034 A 
BRANCH  23  37
ATOM     37  C   UNL A   1      39.448  32.661  36.022  1.00  0.00     0.023 A 
ATOM     38  C   UNL A   1      40.008  33.948  36.157  1.00  0.00     0.012 A 
ATOM     39  C   UNL A   1      38.548  32.189  36.995  1.00  0.00     0.148 A 
ATOM     40  C   UNL A   1      39.705  34.739  37.263  1.00  0.00     0.002 A 
ATOM     41  C   UNL A   1      38.215  33.001  38.071  1.00  0.00     0.091 A 
ATOM     42  F   UNL A   1      38.054  30.951  36.859  1.00  0.00    -0.205 F 
ATOM     43  C   UNL A   1      38.803  34.270  38.214  1.00  0.00     0.022 A 
BRANCH  41  44
ATOM     44  S   UNL A   1      37.021  32.514  39.319  1.00  0.00     0.127 S 
ATOM     45  O   UNL A   1      35.761  32.647  38.590  1.00  0.00    -0.237 OA
ATOM     46  O   UNL A   1      37.423  31.136  39.597  1.00  0.00    -0.237 OA
ATOM     47  O   UNL A   1      37.193  33.440  40.428  1.00  0.00    -0.744 OA
ENDBRANCH  41  44
ENDBRANCH  23  37
BRANCH  24  48
ATOM     48  C   UNL A   1      41.659  27.238  27.809  1.00  0.00     0.023 A 
ATOM     49  C   UNL A   1      42.200  27.867  26.670  1.00  0.00     0.012 A 
ATOM     50  C   UNL A   1      41.419  25.850  27.764  1.00  0.00     0.148 A 
ATOM     51  C   UNL A   1      42.450  27.141  25.500  1.00  0.00     0.002 A 
ATOM     52  C   UNL A   1      41.729  25.122  26.620  1.00  0.00     0.091 A 
ATOM     53  F   UNL A   1      40.878  25.262  28.842  1.00  0.00    -0.205 F 
ATOM     54  C   UNL A   1      42.224  25.768  25.479  1.00  0.00     0.022 A 
BRANCH  52  55
ATOM     55  S   UNL A   1      41.587  23.332  26.561  1.00  0.00     0.127 S 
ATOM     56  O   UNL A   1      42.217  22.939  27.819  1.00  0.00    -0.237 OA
ATOM     57  O   UNL A   1      40.137  23.140  26.513  1.00  0.00    -0.237 OA
ATOM     58  O   UNL A   1      42.281  22.927  25.346  1.00  0.00    -0.744 OA
ENDBRANCH  52  55
ENDBRANCH  24  48
BRANCH  36  59
ATOM     59  C   UNL A   1      44.313  27.622  34.248  1.00  0.00     0.023 A 
ATOM     60  C   UNL A   1      45.613  28.158  34.167  1.00  0.00     0.012 A 
ATOM     61  C   UNL A   1      44.088  26.447  34.989  1.00  0.00     0.148 A 
ATOM     62  C   UNL A   1      46.682  27.509  34.781  1.00  0.00     0.002 A 
ATOM     63  C   UNL A   1      45.147  25.839  35.646  1.00  0.00     0.091 A 
ATOM     64  F   UNL A   1      42.844  25.947  35.031  1.00  0.00    -0.205 F 
ATOM     65  C   UNL A   1      46.447  26.359  35.529  1.00  0.00     0.022 A 
BRANCH  63  66
ATOM     66  S   UNL A   1      44.917  24.417  36.716  1.00  0.00     0.127 S 
ATOM     67  O   UNL A   1      43.931  24.920  37.670  1.00  0.00    -0.237 OA
ATOM     68  O   UNL A   1      44.409  23.410  35.784  1.00  0.00    -0.237 OA
ATOM     69  O   UNL A   1      46.228  24.117  37.273  1.00  0.00    -0.744 OA
ENDBRANCH  63  66
ENDBRANCH  36  59
ENDBRANCH  10  11
ENDBRANCH   3   5
ENDBRANCH   2   3
ENDBRANCH   1   2
BRANCH   1  70
ATOM     70  C   UNL A   1      32.444  30.842  26.911  1.00  0.00     0.275 C 
BRANCH  70  71
ATOM     71  O   UNL A   1      31.684  29.770  26.345  1.00  0.00    -0.458 OA
BRANCH  71  72
ATOM     72  C   UNL A   1      32.384  28.817  25.679  1.00  0.00     0.338 C 
ATOM     73  O   UNL A   1      33.598  28.774  25.545  1.00  0.00    -0.246 OA
BRANCH  72  74
ATOM     74  C   UNL A   1      31.465  27.767  25.179  1.00  0.00     0.068 A 
ATOM     75  C   UNL A   1      31.069  26.792  26.106  1.00  0.00     0.016 A 
ATOM     76  C   UNL A   1      31.005  27.728  23.841  1.00  0.00     0.021 A 
ATOM     77  C   UNL A   1      30.193  25.780  25.724  1.00  0.00     0.001 A 
ATOM     78  C   UNL A   1      30.191  26.647  23.462  1.00  0.00     0.010 A 
ATOM     79  C   UNL A   1      29.769  25.699  24.400  1.00  0.00     0.001 A 
BRANCH  76  80
ATOM     80  C   UNL A   1      31.242  28.919  22.937  1.00  0.00     0.298 C 
BRANCH  80  81
ATOM     81  N   UNL A   1      30.308  29.133  21.837  1.00  0.00    -0.340 N 
ATOM     82  H   UNL A   1      29.968  28.225  21.521  1.00  0.00     0.346 HD
ATOM     83  H   UNL A   1      30.814  29.632  21.105  1.00  0.00     0.346 HD
BRANCH  81  84
ATOM     84  C   UNL A   1      29.150  29.961  22.203  1.00  0.00     0.182 C 
ATOM     85  C   UNL A   1      29.249  30.659  23.564  1.00  0.00     0.065 C 
ATOM     86  C   UNL A   1      28.784  31.119  21.261  1.00  0.00     0.065 C 
ATOM     87  C   UNL A   1      28.086  31.646  23.547  1.00  0.00     0.006 C 
ATOM     88  C   UNL A   1      27.901  32.053  22.087  1.00  0.00     0.006 C 
ENDBRANCH  81  84
ENDBRANCH  80  81
ENDBRANCH  76  80
ENDBRANCH  72  74
ENDBRANCH  71  72
ENDBRANCH  70  71
ENDBRANCH   1  70
TORSDOF 17
ENDMDL
MODEL 2
REMARK VINA RESULT:     -11.4      1.915      2.317
REMARK SMILES O=C(OCCOC(=O)c1ccccc1C[NH2+]C1CCCC1)c1ccc(-c2c3nc(c(-c4cccc(S(=O)(=O)[O-])c4F)c4ccc([nH]4)c(-c4cccc(S(=O)(=O)[O-])c4F)c4nc(c(-c5cccc(S(=O)(=O)[O-])c5F)c5ccc2[nH]5)C=C4)C=C3)cc1
REMARK SMILES IDX 4 1 3 2 2 3 1 4 22 5 23 6 84 7 24 8 83 9 25 10 26 11 27 12
REMARK SMILES IDX 77 13 28 14 82 15 76 16 78 17 29 18 81 19 75 20 74 21 30 23
REMARK SMILES IDX 62 24 42 25 61 26 43 27 46 28 60 29 79 30 44 31 45 32 59 34
REMARK SMILES IDX 80 35 47 36 31 37 32 38 40 39 33 40 35 41 41 42 34 43 36 44
REMARK SMILES IDX 37 45 38 46 39 47 63 48 64 49 72 50 65 51 67 52 73 53 66 54
REMARK SMILES IDX 68 55 69 56 70 57 71 58 48 59 49 60 57 61 50 62 52 63 58 64
REMARK SMILES IDX 51 65 53 66 54 67 55 68 56 69 5 70 6 71 7 72 8 73 9 74 10 75
REMARK SMILES IDX 14 76 11 77 13 78 12 79 15 80 16 81 17 84 18 85 21 86 19 87
REMARK SMILES IDX 20 88
REMARK H PARENT 78 22 46 33 16 82 16 83
REMARK Flexibility Score: inf
ROOT
ATOM      1  C   UNL A   1      31.754  30.117  26.203  1.00  0.00     0.275 C 
ENDROOT
BRANCH   1   2
ATOM      2  O   UNL A   1      32.936  30.939  26.215  1.00  0.00    -0.458 OA
BRANCH   2   3
ATOM      3  C   UNL A   1      33.567  31.584  27.225  1.00  0.00     0.338 C 
ATOM      4  O   UNL A   1      33.080  32.648  27.609  1.00  0.00    -0.246 OA
BRANCH   3   5
ATOM      5  C   UNL A   1      34.836  31.126  27.894  1.00  0.00     0.060 A 
ATOM      6  C   UNL A   1      35.103  29.842  28.371  1.00  0.00     0.016 A 
ATOM      7  C   UNL A   1      35.853  32.093  28.043  1.00  0.00     0.016 A 
ATOM      8  C   UNL A   1      36.339  29.517  28.932  1.00  0.00     0.010 A 
ATOM      9  C   UNL A   1      37.095  31.778  28.609  1.00  0.00     0.010 A 
ATOM     10  C   UNL A   1      37.339  30.482  29.064  1.00  0.00    -0.014 A 
BRANCH  10  11
ATOM     11  C   UNL A   1      38.576  30.104  29.781  1.00  0.00     0.031 A 
ATOM     12  C   UNL A   1      38.755  30.569  31.185  1.00  0.00     0.074 A 
ATOM     13  C   UNL A   1      39.458  29.258  29.218  1.00  0.00     0.049 A 
ATOM     14  N   UNL A   1      39.679  30.234  32.040  1.00  0.00    -0.248 NA
ATOM     15  C   UNL A   1      37.757  31.521  31.701  1.00  0.00     0.031 C 
ATOM     16  C   UNL A   1      39.337  28.765  27.859  1.00  0.00     0.029 A 
ATOM     17  N   UNL A   1      40.594  28.651  29.684  1.00  0.00    -0.354 N 
ATOM     18  C   UNL A   1      39.393  30.949  33.190  1.00  0.00     0.074 A 
ATOM     19  C   UNL A   1      38.207  31.735  32.928  1.00  0.00     0.031 C 
ATOM     20  C   UNL A   1      40.340  27.918  27.586  1.00  0.00     0.029 A 
ATOM     21  C   UNL A   1      41.193  27.822  28.759  1.00  0.00     0.049 A 
ATOM     22  H   UNL A   1      40.947  28.793  30.591  1.00  0.00     0.167 HD
ATOM     23  C   UNL A   1      40.070  30.944  34.359  1.00  0.00     0.034 A 
ATOM     24  C   UNL A   1      42.308  27.072  28.852  1.00  0.00     0.034 A 
ATOM     25  C   UNL A   1      41.266  30.180  34.577  1.00  0.00     0.049 A 
ATOM     26  C   UNL A   1      43.041  27.097  30.164  1.00  0.00     0.074 A 
ATOM     27  C   UNL A   1      42.060  30.128  35.707  1.00  0.00     0.029 A 
ATOM     28  N   UNL A   1      41.856  29.349  33.632  1.00  0.00    -0.354 N 
ATOM     29  N   UNL A   1      42.716  27.725  31.271  1.00  0.00    -0.248 NA
ATOM     30  C   UNL A   1      44.276  26.310  30.257  1.00  0.00     0.031 C 
ATOM     31  C   UNL A   1      43.146  29.289  35.433  1.00  0.00     0.029 A 
ATOM     32  C   UNL A   1      43.006  28.782  34.149  1.00  0.00     0.049 A 
ATOM     33  H   UNL A   1      41.506  29.188  32.726  1.00  0.00     0.167 HD
ATOM     34  C   UNL A   1      43.702  27.406  32.193  1.00  0.00     0.074 A 
ATOM     35  C   UNL A   1      44.607  26.486  31.529  1.00  0.00     0.031 C 
ATOM     36  C   UNL A   1      43.864  27.851  33.462  1.00  0.00     0.034 A 
BRANCH  23  37
ATOM     37  C   UNL A   1      39.537  31.820  35.455  1.00  0.00     0.023 A 
ATOM     38  C   UNL A   1      38.588  31.311  36.365  1.00  0.00     0.012 A 
ATOM     39  C   UNL A   1      39.968  33.154  35.573  1.00  0.00     0.148 A 
ATOM     40  C   UNL A   1      38.051  32.129  37.357  1.00  0.00     0.002 A 
ATOM     41  C   UNL A   1      39.463  33.949  36.592  1.00  0.00     0.091 A 
ATOM     42  F   UNL A   1      40.847  33.621  34.676  1.00  0.00    -0.205 F 
ATOM     43  C   UNL A   1      38.494  33.443  37.477  1.00  0.00     0.022 A 
BRANCH  41  44
ATOM     44  S   UNL A   1      40.011  35.636  36.867  1.00  0.00     0.127 S 
ATOM     45  O   UNL A   1      39.307  35.978  38.102  1.00  0.00    -0.237 OA
ATOM     46  O   UNL A   1      41.455  35.462  37.014  1.00  0.00    -0.237 OA
ATOM     47  O   UNL A   1      39.599  36.392  35.693  1.00  0.00    -0.744 OA
ENDBRANCH  41  44
ENDBRANCH  23  37
BRANCH  24  48
ATOM     48  C   UNL A   1      42.793  26.246  27.703  1.00  0.00     0.023 A 
ATOM     49  C   UNL A   1      43.734  26.775  26.798  1.00  0.00     0.012 A 
ATOM     50  C   UNL A   1      42.309  24.939  27.489  1.00  0.00     0.148 A 
ATOM     51  C   UNL A   1      44.146  26.041  25.680  1.00  0.00     0.002 A 
ATOM     52  C   UNL A   1      42.771  24.190  26.412  1.00  0.00     0.091 A 
ATOM     53  F   UNL A   1      41.394  24.452  28.339  1.00  0.00    -0.205 F 
ATOM     54  C   UNL A   1      43.672  24.746  25.493  1.00  0.00     0.022 A 
BRANCH  52  55
ATOM     55  S   UNL A   1      42.306  22.470  26.177  1.00  0.00     0.127 S 
ATOM     56  O   UNL A   1      42.930  22.163  24.893  1.00  0.00    -0.237 OA
ATOM     57  O   UNL A   1      42.928  21.824  27.333  1.00  0.00    -0.237 OA
ATOM     58  O   UNL A   1      40.849  22.455  26.200  1.00  0.00    -0.744 OA
ENDBRANCH  52  55
ENDBRANCH  24  48
BRANCH  36  59
ATOM     59  C   UNL A   1      45.057  27.326  34.212  1.00  0.00     0.023 A 
ATOM     60  C   UNL A   1      46.280  28.023  34.169  1.00  0.00     0.012 A 
ATOM     61  C   UNL A   1      44.943  26.166  35.000  1.00  0.00     0.148 A 
ATOM     62  C   UNL A   1      47.387  27.548  34.868  1.00  0.00     0.002 A 
ATOM     63  C   UNL A   1      46.033  25.731  35.739  1.00  0.00     0.091 A 
ATOM     64  F   UNL A   1      43.774  25.508  35.005  1.00  0.00    -0.205 F 
ATOM     65  C   UNL A   1      47.260  26.411  35.661  1.00  0.00     0.022 A 
BRANCH  63  66
ATOM     66  S   UNL A   1      45.929  24.339  36.867  1.00  0.00     0.127 S 
ATOM     67  O   UNL A   1      45.508  23.263  35.972  1.00  0.00    -0.237 OA
ATOM     68  O   UNL A   1      47.305  24.230  37.350  1.00  0.00    -0.237 OA
ATOM     69  O   UNL A   1      44.960  24.719  37.885  1.00  0.00    -0.744 OA
ENDBRANCH  63  66
ENDBRANCH  36  59
ENDBRANCH  10  11
ENDBRANCH   3   5
ENDBRANCH   2   3
ENDBRANCH   1   2
BRANCH   1  70
ATOM     70  C   UNL A   1      31.733  29.041  27.288  1.00  0.00     0.275 C 
BRANCH  70  71
ATOM     71  O   UNL A   1      32.547  27.914  26.945  1.00  0.00    -0.458 OA
BRANCH  71  72
ATOM     72  C   UNL A   1      31.894  26.809  26.506  1.00  0.00     0.338 C 
ATOM     73  O   UNL A   1      30.864  26.345  26.970  1.00  0.00    -0.246 OA
BRANCH  72  74
ATOM     74  C   UNL A   1      32.577  26.257  25.310  1.00  0.00     0.068 A 
ATOM     75  C   UNL A   1      33.634  25.368  25.551  1.00  0.00     0.016 A 
ATOM     76  C   UNL A   1      32.202  26.602  23.990  1.00  0.00     0.021 A 
ATOM     77  C   UNL A   1      34.316  24.790  24.484  1.00  0.00     0.001 A 
ATOM     78  C   UNL A   1      32.964  26.071  22.935  1.00  0.00     0.010 A 
ATOM     79  C   UNL A   1      33.993  25.154  23.180  1.00  0.00     0.001 A 
BRANCH  76  80
ATOM     80  C   UNL A   1      30.911  27.358  23.754  1.00  0.00     0.298 C 
BRANCH  80  81
ATOM     81  N   UNL A   1      30.975  28.580  22.959  1.00  0.00    -0.340 N 
ATOM     82  H   UNL A   1      31.415  28.361  22.066  1.00  0.00     0.346 HD
ATOM     83  H   UNL A   1      31.511  29.260  23.498  1.00  0.00     0.346 HD
BRANCH  81  84
ATOM     84  C   UNL A   1      29.658  29.177  22.696  1.00  0.00     0.182 C 
ATOM     85  C   UNL A   1      28.456  28.301  23.064  1.00  0.00     0.065 C 
ATOM     86  C   UNL A   1      29.331  30.503  23.401  1.00  0.00     0.065 C 
ATOM     87  C   UNL A   1      27.272  29.257  22.965  1.00  0.00     0.006 C 
ATOM     88  C   UNL A   1      27.811  30.636  23.335  1.00  0.00     0.006 C 
ENDBRANCH  81  84
ENDBRANCH  80  81
ENDBRANCH  76  80
ENDBRANCH  72  74
ENDBRANCH  71  72
ENDBRANCH  70  71
ENDBRANCH   1  70
TORSDOF 17
ENDMDL
MODEL 3
REMARK VINA RESULT:     -11.2      1.429      2.887
REMARK SMILES O=C(OCCOC(=O)c1ccccc1C[NH2+]C1CCCC1)c1ccc(-c2c3nc(c(-c4cccc(S(=O)(=O)[O-])c4F)c4ccc([nH]4)c(-c4cccc(S(=O)(=O)[O-])c4F)c4nc(c(-c5cccc(S(=O)(=O)[O-])c5F)c5ccc2[nH]5)C=C4)C=C3)cc1
REMARK SMILES IDX 4 1 3 2 2 3 1 4 22 5 23 6 84 7 24 8 83 9 25 10 26 11 27 12
REMARK SMILES IDX 77 13 28 14 82 15 76 16 78 17 29 18 81 19 75 20 74 21 30 23
REMARK SMILES IDX 62 24 42 25 61 26 43 27 46 28 60 29 79 30 44 31 45 32 59 34
REMARK SMILES IDX 80 35 47 36 31 37 32 38 40 39 33 40 35 41 41 42 34 43 36 44
REMARK SMILES IDX 37 45 38 46 39 47 63 48 64 49 72 50 65 51 67 52 73 53 66 54
REMARK SMILES IDX 68 55 69 56 70 57 71 58 48 59 49 60 57 61 50 62 52 63 58 64
REMARK SMILES IDX 51 65 53 66 54 67 55 68 56 69 5 70 6 71 7 72 8 73 9 74 10 75
REMARK SMILES IDX 14 76 11 77 13 78 12 79 15 80 16 81 17 84 18 85 21 86 19 87
REMARK SMILES IDX 20 88
REMARK H PARENT 78 22 46 33 16 82 16 83
REMARK Flexibility Score: inf
ROOT
ATOM      1  C   UNL A   1      31.658  29.816  26.033  1.00  0.00     0.275 C 
ENDROOT
BRANCH   1   2
ATOM      2  O   UNL A   1      32.532  30.961  26.062  1.00  0.00    -0.458 OA
BRANCH   2   3
ATOM      3  C   UNL A   1      33.138  31.597  27.093  1.00  0.00     0.338 C 
ATOM      4  O   UNL A   1      32.624  32.641  27.494  1.00  0.00    -0.246 OA
BRANCH   3   5
ATOM      5  C   UNL A   1      34.410  31.152  27.764  1.00  0.00     0.060 A 
ATOM      6  C   UNL A   1      34.725  29.852  28.163  1.00  0.00     0.016 A 
ATOM      7  C   UNL A   1      35.378  32.152  28.003  1.00  0.00     0.016 A 
ATOM      8  C   UNL A   1      35.961  29.546  28.735  1.00  0.00     0.010 A 
ATOM      9  C   UNL A   1      36.619  31.855  28.582  1.00  0.00     0.010 A 
ATOM     10  C   UNL A   1      36.911  30.543  28.956  1.00  0.00    -0.014 A 
BRANCH  10  11
ATOM     11  C   UNL A   1      38.147  30.174  29.681  1.00  0.00     0.031 A 
ATOM     12  C   UNL A   1      38.321  30.651  31.082  1.00  0.00     0.074 A 
ATOM     13  C   UNL A   1      39.032  29.325  29.128  1.00  0.00     0.049 A 
ATOM     14  N   UNL A   1      39.242  30.326  31.942  1.00  0.00    -0.248 NA
ATOM     15  C   UNL A   1      37.320  31.606  31.586  1.00  0.00     0.031 C 
ATOM     16  C   UNL A   1      38.916  28.819  27.773  1.00  0.00     0.029 A 
ATOM     17  N   UNL A   1      40.167  28.724  29.603  1.00  0.00    -0.354 N 
ATOM     18  C   UNL A   1      38.952  31.050  33.085  1.00  0.00     0.074 A 
ATOM     19  C   UNL A   1      37.766  31.831  32.812  1.00  0.00     0.031 C 
ATOM     20  C   UNL A   1      39.921  27.972  27.511  1.00  0.00     0.029 A 
ATOM     21  C   UNL A   1      40.771  27.887  28.687  1.00  0.00     0.049 A 
ATOM     22  H   UNL A   1      40.518  28.874  30.510  1.00  0.00     0.167 HD
ATOM     23  C   UNL A   1      39.625  31.056  34.256  1.00  0.00     0.034 A 
ATOM     24  C   UNL A   1      41.887  27.140  28.790  1.00  0.00     0.034 A 
ATOM     25  C   UNL A   1      40.822  30.296  34.484  1.00  0.00     0.049 A 
ATOM     26  C   UNL A   1      42.615  27.178  30.104  1.00  0.00     0.074 A 
ATOM     27  C   UNL A   1      41.612  30.255  35.617  1.00  0.00     0.029 A 
ATOM     28  N   UNL A   1      41.416  29.458  33.548  1.00  0.00    -0.354 N 
ATOM     29  N   UNL A   1      42.287  27.815  31.204  1.00  0.00    -0.248 NA
ATOM     30  C   UNL A   1      43.852  26.394  30.207  1.00  0.00     0.031 C 
ATOM     31  C   UNL A   1      42.701  29.415  35.354  1.00  0.00     0.029 A 
ATOM     32  C   UNL A   1      42.565  28.897  34.074  1.00  0.00     0.049 A 
ATOM     33  H   UNL A   1      41.069  29.288  32.643  1.00  0.00     0.167 HD
ATOM     34  C   UNL A   1      43.270  27.505  32.132  1.00  0.00     0.074 A 
ATOM     35  C   UNL A   1      44.178  26.582  31.478  1.00  0.00     0.031 C 
ATOM     36  C   UNL A   1      43.427  27.962  33.398  1.00  0.00     0.034 A 
BRANCH  23  37
ATOM     37  C   UNL A   1      39.087  31.941  35.342  1.00  0.00     0.023 A 
ATOM     38  C   UNL A   1      39.250  33.338  35.259  1.00  0.00     0.012 A 
ATOM     39  C   UNL A   1      38.430  31.383  36.454  1.00  0.00     0.148 A 
ATOM     40  C   UNL A   1      38.797  34.166  36.284  1.00  0.00     0.002 A 
ATOM     41  C   UNL A   1      37.940  32.217  37.450  1.00  0.00     0.091 A 
ATOM     42  F   UNL A   1      38.315  30.049  36.524  1.00  0.00    -0.205 F 
ATOM     43  C   UNL A   1      38.135  33.607  37.374  1.00  0.00     0.022 A 
BRANCH  41  44
ATOM     44  S   UNL A   1      37.023  31.601  38.865  1.00  0.00     0.127 S 
ATOM     45  O   UNL A   1      37.999  31.762  39.942  1.00  0.00    -0.237 OA
ATOM     46  O   UNL A   1      35.895  32.531  38.918  1.00  0.00    -0.237 OA
ATOM     47  O   UNL A   1      36.671  30.224  38.552  1.00  0.00    -0.744 OA
ENDBRANCH  41  44
ENDBRANCH  23  37
BRANCH  24  48
ATOM     48  C   UNL A   1      42.377  26.305  27.650  1.00  0.00     0.023 A 
ATOM     49  C   UNL A   1      43.270  26.849  26.706  1.00  0.00     0.012 A 
ATOM     50  C   UNL A   1      41.944  24.974  27.483  1.00  0.00     0.148 A 
ATOM     51  C   UNL A   1      43.684  26.104  25.596  1.00  0.00     0.002 A 
ATOM     52  C   UNL A   1      42.409  24.216  26.413  1.00  0.00     0.091 A 
ATOM     53  F   UNL A   1      41.073  24.471  28.369  1.00  0.00    -0.205 F 
ATOM     54  C   UNL A   1      43.261  24.786  25.456  1.00  0.00     0.022 A 
BRANCH  52  55
ATOM     55  S   UNL A   1      42.013  22.473  26.235  1.00  0.00     0.127 S 
ATOM     56  O   UNL A   1      42.542  21.917  27.478  1.00  0.00    -0.237 OA
ATOM     57  O   UNL A   1      40.553  22.497  26.145  1.00  0.00    -0.237 OA
ATOM     58  O   UNL A   1      42.678  22.046  25.011  1.00  0.00    -0.744 OA
ENDBRANCH  52  55
ENDBRANCH  24  48
BRANCH  36  59
ATOM     59  C   UNL A   1      44.618  27.446  34.156  1.00  0.00     0.023 A 
ATOM     60  C   UNL A   1      45.834  28.157  34.129  1.00  0.00     0.012 A 
ATOM     61  C   UNL A   1      44.511  26.279  34.935  1.00  0.00     0.148 A 
ATOM     62  C   UNL A   1      46.940  27.690  34.835  1.00  0.00     0.002 A 
ATOM     63  C   UNL A   1      45.598  25.852  35.682  1.00  0.00     0.091 A 
ATOM     64  F   UNL A   1      43.349  25.609  34.926  1.00  0.00    -0.205 F 
ATOM     65  C   UNL A   1      46.818  26.546  35.620  1.00  0.00     0.022 A 
BRANCH  63  66
ATOM     66  S   UNL A   1      45.498  24.452  36.801  1.00  0.00     0.127 S 
ATOM     67  O   UNL A   1      46.863  24.392  37.322  1.00  0.00    -0.237 OA
ATOM     68  O   UNL A   1      44.494  24.900  37.765  1.00  0.00    -0.237 OA
ATOM     69  O   UNL A   1      45.090  23.316  35.988  1.00  0.00    -0.744 OA
ENDBRANCH  63  66
ENDBRANCH  36  59
ENDBRANCH  10  11
ENDBRANCH   3   5
ENDBRANCH   2   3
ENDBRANCH   1   2
BRANCH   1  70
ATOM     70  C   UNL A   1      32.217  28.627  25.253  1.00  0.00     0.275 C 
BRANCH  70  71
ATOM     71  O   UNL A   1      32.300  28.894  23.850  1.00  0.00    -0.458 OA
BRANCH  71  72
ATOM     72  C   UNL A   1      31.672  28.016  23.029  1.00  0.00     0.338 C 
ATOM     73  O   UNL A   1      32.188  27.074  22.446  1.00  0.00    -0.246 OA
BRANCH  72  74
ATOM     74  C   UNL A   1      30.220  28.314  22.980  1.00  0.00     0.068 A 
ATOM     75  C   UNL A   1      29.854  29.532  22.389  1.00  0.00     0.016 A 
ATOM     76  C   UNL A   1      29.242  27.435  23.502  1.00  0.00     0.021 A 
ATOM     77  C   UNL A   1      28.510  29.882  22.286  1.00  0.00     0.001 A 
ATOM     78  C   UNL A   1      27.901  27.853  23.462  1.00  0.00     0.010 A 
ATOM     79  C   UNL A   1      27.538  29.052  22.837  1.00  0.00     0.001 A 
BRANCH  76  80
ATOM     80  C   UNL A   1      29.639  26.030  23.903  1.00  0.00     0.298 C 
BRANCH  80  81
ATOM     81  N   UNL A   1      29.999  25.797  25.298  1.00  0.00    -0.340 N 
ATOM     82  H   UNL A   1      29.151  25.568  25.816  1.00  0.00     0.346 HD
ATOM     83  H   UNL A   1      30.442  26.650  25.639  1.00  0.00     0.346 HD
BRANCH  81  84
ATOM     84  C   UNL A   1      30.965  24.705  25.479  1.00  0.00     0.182 C 
ATOM     85  C   UNL A   1      32.388  25.143  25.841  1.00  0.00     0.065 C 
ATOM     86  C   UNL A   1      30.653  23.660  26.563  1.00  0.00     0.065 C 
ATOM     87  C   UNL A   1      33.073  23.842  26.246  1.00  0.00     0.006 C 
ATOM     88  C   UNL A   1      31.981  22.961  26.850  1.00  0.00     0.006 C 
ENDBRANCH  81  84
ENDBRANCH  80  81
ENDBRANCH  76  80
ENDBRANCH  72  74
ENDBRANCH  71  72
ENDBRANCH  70  71
ENDBRANCH   1  70
TORSDOF 17
ENDMDL
