MODEL 1
REMARK VINA RESULT:     -10.5      0.000      0.000
REMARK SMILES O=C(OCCOC(=O)c1noc(-c2ccccc2C(F)(F)F)n1)c1ccc(-c2c3nc(c(-c4cccc(S(=O)(=O)[O-])c4F)c4ccc([nH]4)c(-c4cccc(S(=O)(=O)[O-])c4F)c4nc(c(-c5cccc(S(=O)(=O)[O-])c5F)c5ccc2[nH]5)C=C4)C=C3)cc1
REMARK SMILES IDX 4 1 3 2 2 3 1 4 24 5 25 6 86 7 26 8 85 9 27 10 28 11 29 12
REMARK SMILES IDX 79 13 30 14 84 15 78 16 80 17 31 18 83 19 77 20 76 21 32 23
REMARK SMILES IDX 64 24 44 25 63 26 45 27 48 28 62 29 81 30 46 31 47 32 61 34
REMARK SMILES IDX 82 35 49 36 33 37 34 38 42 39 35 40 37 41 43 42 36 43 38 44
REMARK SMILES IDX 39 45 40 46 41 47 65 48 66 49 74 50 67 51 69 52 75 53 68 54
REMARK SMILES IDX 70 55 71 56 72 57 73 58 50 59 51 60 59 61 52 62 54 63 60 64
REMARK SMILES IDX 53 65 55 66 56 67 57 68 58 69 5 70 6 71 7 72 8 73 9 74 10 75
REMARK SMILES IDX 23 76 11 77 12 78 13 79 14 80 18 81 15 82 17 83 16 84 19 85
REMARK SMILES IDX 20 86 21 87 22 88
REMARK H PARENT 80 22 48 33
REMARK Flexibility Score: inf
ROOT
ATOM      1  C   UNL A   1      42.157  19.086  26.107  1.00  0.00     0.275 C 
ENDROOT
BRANCH   1   2
ATOM      2  O   UNL A   1      42.124  20.455  26.551  1.00  0.00    -0.458 OA
BRANCH   2   3
ATOM      3  C   UNL A   1      41.049  21.258  26.741  1.00  0.00     0.338 C 
ATOM      4  O   UNL A   1      39.958  20.921  26.287  1.00  0.00    -0.246 OA
BRANCH   3   5
ATOM      5  C   UNL A   1      41.166  22.624  27.330  1.00  0.00     0.060 A 
ATOM      6  C   UNL A   1      40.403  23.728  26.943  1.00  0.00     0.016 A 
ATOM      7  C   UNL A   1      42.185  22.817  28.283  1.00  0.00     0.016 A 
ATOM      8  C   UNL A   1      40.618  24.981  27.519  1.00  0.00     0.010 A 
ATOM      9  C   UNL A   1      42.416  24.076  28.849  1.00  0.00     0.010 A 
ATOM     10  C   UNL A   1      41.639  25.170  28.456  1.00  0.00    -0.014 A 
BRANCH  10  11
ATOM     11  C   UNL A   1      41.967  26.551  28.871  1.00  0.00     0.031 A 
ATOM     12  C   UNL A   1      43.400  26.998  28.803  1.00  0.00     0.074 A 
ATOM     13  C   UNL A   1      40.997  27.415  29.218  1.00  0.00     0.049 A 
ATOM     14  N   UNL A   1      43.891  28.204  28.906  1.00  0.00    -0.248 NA
ATOM     15  C   UNL A   1      44.409  25.954  28.557  1.00  0.00     0.031 C 
ATOM     16  C   UNL A   1      39.571  27.100  29.295  1.00  0.00     0.029 A 
ATOM     17  N   UNL A   1      41.065  28.740  29.565  1.00  0.00    -0.354 N 
ATOM     18  C   UNL A   1      45.260  28.070  28.714  1.00  0.00     0.074 A 
ATOM     19  C   UNL A   1      45.529  26.661  28.531  1.00  0.00     0.031 C 
ATOM     20  C   UNL A   1      38.901  28.194  29.700  1.00  0.00     0.029 A 
ATOM     21  C   UNL A   1      39.845  29.294  29.874  1.00  0.00     0.049 A 
ATOM     22  H   UNL A   1      41.909  29.246  29.591  1.00  0.00     0.167 HD
ATOM     23  C   UNL A   1      46.204  29.037  28.659  1.00  0.00     0.034 A 
ATOM     24  C   UNL A   1      39.529  30.556  30.226  1.00  0.00     0.034 A 
ATOM     25  C   UNL A   1      45.932  30.434  28.856  1.00  0.00     0.049 A 
ATOM     26  C   UNL A   1      40.610  31.605  30.214  1.00  0.00     0.074 A 
ATOM     27  C   UNL A   1      46.810  31.500  28.804  1.00  0.00     0.029 A 
ATOM     28  N   UNL A   1      44.684  30.954  29.163  1.00  0.00    -0.354 N 
ATOM     29  N   UNL A   1      41.871  31.487  29.872  1.00  0.00    -0.248 NA
ATOM     30  C   UNL A   1      40.212  32.972  30.580  1.00  0.00     0.031 C 
ATOM     31  C   UNL A   1      46.094  32.666  29.103  1.00  0.00     0.029 A 
ATOM     32  C   UNL A   1      44.769  32.325  29.322  1.00  0.00     0.049 A 
ATOM     33  H   UNL A   1      43.859  30.425  29.255  1.00  0.00     0.167 HD
ATOM     34  C   UNL A   1      42.402  32.772  29.925  1.00  0.00     0.074 A 
ATOM     35  C   UNL A   1      41.324  33.651  30.332  1.00  0.00     0.031 C 
ATOM     36  C   UNL A   1      43.666  33.187  29.666  1.00  0.00     0.034 A 
BRANCH  23  37
ATOM     37  C   UNL A   1      47.608  28.607  28.340  1.00  0.00     0.023 A 
ATOM     38  C   UNL A   1      48.022  28.552  26.992  1.00  0.00     0.012 A 
ATOM     39  C   UNL A   1      48.515  28.261  29.358  1.00  0.00     0.148 A 
ATOM     40  C   UNL A   1      49.309  28.131  26.662  1.00  0.00     0.002 A 
ATOM     41  C   UNL A   1      49.807  27.870  29.022  1.00  0.00     0.091 A 
ATOM     42  F   UNL A   1      48.091  28.290  30.629  1.00  0.00    -0.205 F 
ATOM     43  C   UNL A   1      50.202  27.796  27.677  1.00  0.00     0.022 A 
BRANCH  41  44
ATOM     44  S   UNL A   1      51.041  27.464  30.262  1.00  0.00     0.127 S 
ATOM     45  O   UNL A   1      50.425  26.316  30.925  1.00  0.00    -0.237 OA
ATOM     46  O   UNL A   1      52.210  27.141  29.441  1.00  0.00    -0.237 OA
ATOM     47  O   UNL A   1      51.191  28.659  31.080  1.00  0.00    -0.744 OA
ENDBRANCH  41  44
ENDBRANCH  23  37
BRANCH  24  48
ATOM     48  C   UNL A   1      38.116  30.922  30.520  1.00  0.00     0.023 A 
ATOM     49  C   UNL A   1      37.632  30.827  31.839  1.00  0.00     0.012 A 
ATOM     50  C   UNL A   1      37.249  31.363  29.502  1.00  0.00     0.148 A 
ATOM     51  C   UNL A   1      36.304  31.134  32.134  1.00  0.00     0.002 A 
ATOM     52  C   UNL A   1      35.937  31.709  29.810  1.00  0.00     0.091 A 
ATOM     53  F   UNL A   1      37.728  31.443  28.255  1.00  0.00    -0.205 F 
ATOM     54  C   UNL A   1      35.458  31.579  31.121  1.00  0.00     0.022 A 
BRANCH  52  55
ATOM     55  S   UNL A   1      34.797  32.357  28.582  1.00  0.00     0.127 S 
ATOM     56  O   UNL A   1      35.637  33.301  27.848  1.00  0.00    -0.237 OA
ATOM     57  O   UNL A   1      34.437  31.145  27.849  1.00  0.00    -0.237 OA
ATOM     58  O   UNL A   1      33.709  32.969  29.333  1.00  0.00    -0.744 OA
ENDBRANCH  52  55
ENDBRANCH  24  48
BRANCH  36  59
ATOM     59  C   UNL A   1      43.954  34.660  29.774  1.00  0.00     0.023 A 
ATOM     60  C   UNL A   1      44.414  35.194  30.993  1.00  0.00     0.012 A 
ATOM     61  C   UNL A   1      43.856  35.495  28.643  1.00  0.00     0.148 A 
ATOM     62  C   UNL A   1      44.750  36.544  31.090  1.00  0.00     0.002 A 
ATOM     63  C   UNL A   1      44.236  36.827  28.737  1.00  0.00     0.091 A 
ATOM     64  F   UNL A   1      43.391  34.973  27.498  1.00  0.00    -0.205 F 
ATOM     65  C   UNL A   1      44.674  37.357  29.962  1.00  0.00     0.022 A 
BRANCH  63  66
ATOM     66  S   UNL A   1      44.262  37.907  27.301  1.00  0.00     0.127 S 
ATOM     67  O   UNL A   1      42.974  37.610  26.679  1.00  0.00    -0.237 OA
ATOM     68  O   UNL A   1      44.356  39.237  27.906  1.00  0.00    -0.237 OA
ATOM     69  O   UNL A   1      45.440  37.515  26.539  1.00  0.00    -0.744 OA
ENDBRANCH  63  66
ENDBRANCH  36  59
ENDBRANCH  10  11
ENDBRANCH   3   5
ENDBRANCH   2   3
ENDBRANCH   1   2
BRANCH   1  70
ATOM     70  C   UNL A   1      43.407  18.706  25.310  1.00  0.00     0.275 C 
BRANCH  70  71
ATOM     71  O   UNL A   1      44.627  19.001  26.001  1.00  0.00    -0.456 OA
BRANCH  71  72
ATOM     72  C   UNL A   1      45.550  19.703  25.264  1.00  0.00     0.380 C 
ATOM     73  O   UNL A   1      46.646  19.248  24.944  1.00  0.00    -0.242 OA
BRANCH  72  74
ATOM     74  C   UNL A   1      45.058  21.015  24.842  1.00  0.00     0.281 A 
ATOM     75  N   UNL A   1      44.539  21.208  23.615  1.00  0.00    -0.049 NA
ATOM     76  N   UNL A   1      45.053  22.148  25.639  1.00  0.00    -0.181 NA
ATOM     77  O   UNL A   1      44.183  22.553  23.615  1.00  0.00    -0.333 OA
ATOM     78  C   UNL A   1      44.543  23.052  24.831  1.00  0.00     0.259 A 
BRANCH  78  79
ATOM     79  C   UNL A   1      44.430  24.493  24.969  1.00  0.00     0.052 A 
ATOM     80  C   UNL A   1      43.148  25.070  25.046  1.00  0.00     0.014 A 
ATOM     81  C   UNL A   1      45.572  25.321  25.001  1.00  0.00     0.068 A 
ATOM     82  C   UNL A   1      42.996  26.450  25.161  1.00  0.00     0.001 A 
ATOM     83  C   UNL A   1      45.395  26.710  25.120  1.00  0.00     0.014 A 
ATOM     84  C   UNL A   1      44.119  27.267  25.191  1.00  0.00     0.001 A 
BRANCH  81  85
ATOM     85  C   UNL A   1      46.975  24.771  24.934  1.00  0.00     0.417 C 
ATOM     86  F   UNL A   1      47.373  24.165  26.090  1.00  0.00    -0.166 F 
ATOM     87  F   UNL A   1      47.138  23.848  23.947  1.00  0.00    -0.166 F 
ATOM     88  F   UNL A   1      47.931  25.722  24.712  1.00  0.00    -0.166 F 
ENDBRANCH  81  85
ENDBRANCH  78  79
ENDBRANCH  72  74
ENDBRANCH  71  72
ENDBRANCH  70  71
ENDBRANCH   1  70
TORSDOF 16
ENDMDL
MODEL 2
REMARK VINA RESULT:     -10.4      3.933      6.704
REMARK SMILES O=C(OCCOC(=O)c1noc(-c2ccccc2C(F)(F)F)n1)c1ccc(-c2c3nc(c(-c4cccc(S(=O)(=O)[O-])c4F)c4ccc([nH]4)c(-c4cccc(S(=O)(=O)[O-])c4F)c4nc(c(-c5cccc(S(=O)(=O)[O-])c5F)c5ccc2[nH]5)C=C4)C=C3)cc1
REMARK SMILES IDX 4 1 3 2 2 3 1 4 24 5 25 6 86 7 26 8 85 9 27 10 28 11 29 12
REMARK SMILES IDX 79 13 30 14 84 15 78 16 80 17 31 18 83 19 77 20 76 21 32 23
REMARK SMILES IDX 64 24 44 25 63 26 45 27 48 28 62 29 81 30 46 31 47 32 61 34
REMARK SMILES IDX 82 35 49 36 33 37 34 38 42 39 35 40 37 41 43 42 36 43 38 44
REMARK SMILES IDX 39 45 40 46 41 47 65 48 66 49 74 50 67 51 69 52 75 53 68 54
REMARK SMILES IDX 70 55 71 56 72 57 73 58 50 59 51 60 59 61 52 62 54 63 60 64
REMARK SMILES IDX 53 65 55 66 56 67 57 68 58 69 5 70 6 71 7 72 8 73 9 74 10 75
REMARK SMILES IDX 23 76 11 77 12 78 13 79 14 80 18 81 15 82 17 83 16 84 19 85
REMARK SMILES IDX 20 86 21 87 22 88
REMARK H PARENT 80 22 48 33
REMARK Flexibility Score: inf
ROOT
ATOM      1  C   UNL A   1      36.430  22.035  25.397  1.00  0.00     0.275 C 
ENDROOT
BRANCH   1   2
ATOM      2  O   UNL A   1      37.494  21.080  25.565  1.00  0.00    -0.458 OA
BRANCH   2   3
ATOM      3  C   UNL A   1      38.802  21.309  25.837  1.00  0.00     0.338 C 
ATOM      4  O   UNL A   1      39.616  20.399  25.691  1.00  0.00    -0.246 OA
BRANCH   3   5
ATOM      5  C   UNL A   1      39.277  22.570  26.478  1.00  0.00     0.060 A 
ATOM      6  C   UNL A   1      38.796  23.847  26.178  1.00  0.00     0.016 A 
ATOM      7  C   UNL A   1      40.347  22.455  27.386  1.00  0.00     0.016 A 
ATOM      8  C   UNL A   1      39.337  24.976  26.797  1.00  0.00     0.010 A 
ATOM      9  C   UNL A   1      40.904  23.586  27.993  1.00  0.00     0.010 A 
ATOM     10  C   UNL A   1      40.408  24.857  27.688  1.00  0.00    -0.014 A 
BRANCH  10  11
ATOM     11  C   UNL A   1      41.084  26.090  28.145  1.00  0.00     0.031 A 
ATOM     12  C   UNL A   1      42.514  26.315  27.743  1.00  0.00     0.074 A 
ATOM     13  C   UNL A   1      40.410  27.032  28.831  1.00  0.00     0.049 A 
ATOM     14  N   UNL A   1      43.234  27.400  27.841  1.00  0.00    -0.248 NA
ATOM     15  C   UNL A   1      43.215  25.177  27.126  1.00  0.00     0.031 C 
ATOM     16  C   UNL A   1      39.014  26.933  29.253  1.00  0.00     0.029 A 
ATOM     17  N   UNL A   1      40.811  28.261  29.287  1.00  0.00    -0.354 N 
ATOM     18  C   UNL A   1      44.464  27.086  27.275  1.00  0.00     0.074 A 
ATOM     19  C   UNL A   1      44.408  25.697  26.876  1.00  0.00     0.031 C 
ATOM     20  C   UNL A   1      38.683  28.043  29.937  1.00  0.00     0.029 A 
ATOM     21  C   UNL A   1      39.832  28.943  29.969  1.00  0.00     0.049 A 
ATOM     22  H   UNL A   1      41.716  28.620  29.139  1.00  0.00     0.167 HD
ATOM     23  C   UNL A   1      45.532  27.892  27.073  1.00  0.00     0.034 A 
ATOM     24  C   UNL A   1      39.857  30.170  30.526  1.00  0.00     0.034 A 
ATOM     25  C   UNL A   1      45.586  29.267  27.484  1.00  0.00     0.049 A 
ATOM     26  C   UNL A   1      41.081  31.028  30.338  1.00  0.00     0.074 A 
ATOM     27  C   UNL A   1      46.610  30.179  27.313  1.00  0.00     0.029 A 
ATOM     28  N   UNL A   1      44.573  29.921  28.169  1.00  0.00    -0.354 N 
ATOM     29  N   UNL A   1      42.174  30.770  29.660  1.00  0.00    -0.248 NA
ATOM     30  C   UNL A   1      41.051  32.369  30.942  1.00  0.00     0.031 C 
ATOM     31  C   UNL A   1      46.223  31.383  27.916  1.00  0.00     0.029 A 
ATOM     32  C   UNL A   1      44.952  31.222  28.445  1.00  0.00     0.049 A 
ATOM     33  H   UNL A   1      43.711  29.519  28.421  1.00  0.00     0.167 HD
ATOM     34  C   UNL A   1      42.935  31.933  29.706  1.00  0.00     0.074 A 
ATOM     35  C   UNL A   1      42.176  32.896  30.478  1.00  0.00     0.031 C 
ATOM     36  C   UNL A   1      44.152  32.182  29.163  1.00  0.00     0.034 A 
BRANCH  23  37
ATOM     37  C   UNL A   1      46.707  27.303  26.344  1.00  0.00     0.023 A 
ATOM     38  C   UNL A   1      46.727  27.331  24.934  1.00  0.00     0.012 A 
ATOM     39  C   UNL A   1      47.784  26.728  27.042  1.00  0.00     0.148 A 
ATOM     40  C   UNL A   1      47.790  26.768  24.229  1.00  0.00     0.002 A 
ATOM     41  C   UNL A   1      48.855  26.196  26.331  1.00  0.00     0.091 A 
ATOM     42  F   UNL A   1      47.730  26.684  28.380  1.00  0.00    -0.205 F 
ATOM     43  C   UNL A   1      48.855  26.207  24.927  1.00  0.00     0.022 A 
BRANCH  41  44
ATOM     44  S   UNL A   1      50.294  25.493  27.145  1.00  0.00     0.127 S 
ATOM     45  O   UNL A   1      51.193  25.273  26.013  1.00  0.00    -0.237 OA
ATOM     46  O   UNL A   1      50.699  26.574  28.046  1.00  0.00    -0.237 OA
ATOM     47  O   UNL A   1      49.823  24.291  27.818  1.00  0.00    -0.744 OA
ENDBRANCH  41  44
ENDBRANCH  23  37
BRANCH  24  48
ATOM     48  C   UNL A   1      38.655  30.702  31.226  1.00  0.00     0.023 A 
ATOM     49  C   UNL A   1      38.530  30.535  32.619  1.00  0.00     0.012 A 
ATOM     50  C   UNL A   1      37.636  31.371  30.522  1.00  0.00     0.148 A 
ATOM     51  C   UNL A   1      37.398  30.997  33.292  1.00  0.00     0.002 A 
ATOM     52  C   UNL A   1      36.530  31.867  31.205  1.00  0.00     0.091 A 
ATOM     53  F   UNL A   1      37.774  31.516  29.198  1.00  0.00    -0.205 F 
ATOM     54  C   UNL A   1      36.401  31.665  32.587  1.00  0.00     0.022 A 
BRANCH  52  55
ATOM     55  S   UNL A   1      35.231  32.800  30.388  1.00  0.00     0.127 S 
ATOM     56  O   UNL A   1      34.769  31.861  29.368  1.00  0.00    -0.237 OA
ATOM     57  O   UNL A   1      34.298  33.029  31.490  1.00  0.00    -0.237 OA
ATOM     58  O   UNL A   1      35.871  33.999  29.865  1.00  0.00    -0.744 OA
ENDBRANCH  52  55
ENDBRANCH  24  48
BRANCH  36  59
ATOM     59  C   UNL A   1      44.731  33.558  29.347  1.00  0.00     0.023 A 
ATOM     60  C   UNL A   1      45.468  33.856  30.509  1.00  0.00     0.012 A 
ATOM     61  C   UNL A   1      44.622  34.525  28.328  1.00  0.00     0.148 A 
ATOM     62  C   UNL A   1      46.069  35.104  30.664  1.00  0.00     0.002 A 
ATOM     63  C   UNL A   1      45.261  35.750  28.470  1.00  0.00     0.091 A 
ATOM     64  F   UNL A   1      43.894  34.232  27.240  1.00  0.00    -0.205 F 
ATOM     65  C   UNL A   1      45.978  36.046  29.641  1.00  0.00     0.022 A 
BRANCH  63  66
ATOM     66  S   UNL A   1      45.273  36.970  27.151  1.00  0.00     0.127 S 
ATOM     67  O   UNL A   1      45.955  36.247  26.080  1.00  0.00    -0.237 OA
ATOM     68  O   UNL A   1      43.846  37.201  26.920  1.00  0.00    -0.237 OA
ATOM     69  O   UNL A   1      45.984  38.122  27.691  1.00  0.00    -0.744 OA
ENDBRANCH  63  66
ENDBRANCH  36  59
ENDBRANCH  10  11
ENDBRANCH   3   5
ENDBRANCH   2   3
ENDBRANCH   1   2
BRANCH   1  70
ATOM     70  C   UNL A   1      35.064  21.558  25.895  1.00  0.00     0.275 C 
BRANCH  70  71
ATOM     71  O   UNL A   1      34.259  22.615  26.430  1.00  0.00    -0.456 OA
BRANCH  71  72
ATOM     72  C   UNL A   1      32.923  22.535  26.119  1.00  0.00     0.380 C 
ATOM     73  O   UNL A   1      32.348  21.475  25.878  1.00  0.00    -0.242 OA
BRANCH  72  74
ATOM     74  C   UNL A   1      32.248  23.832  26.179  1.00  0.00     0.281 A 
ATOM     75  N   UNL A   1      31.317  24.096  27.114  1.00  0.00    -0.049 NA
ATOM     76  N   UNL A   1      32.505  24.894  25.326  1.00  0.00    -0.181 NA
ATOM     77  O   UNL A   1      30.941  25.408  26.844  1.00  0.00    -0.333 OA
ATOM     78  C   UNL A   1      31.660  25.805  25.757  1.00  0.00     0.259 A 
BRANCH  78  79
ATOM     79  C   UNL A   1      31.278  27.088  25.194  1.00  0.00     0.052 A 
ATOM     80  C   UNL A   1      30.412  27.113  24.085  1.00  0.00     0.014 A 
ATOM     81  C   UNL A   1      31.775  28.299  25.721  1.00  0.00     0.068 A 
ATOM     82  C   UNL A   1      30.035  28.322  23.505  1.00  0.00     0.001 A 
ATOM     83  C   UNL A   1      31.379  29.508  25.122  1.00  0.00     0.014 A 
ATOM     84  C   UNL A   1      30.524  29.516  24.021  1.00  0.00     0.001 A 
BRANCH  81  85
ATOM     85  C   UNL A   1      32.696  28.348  26.914  1.00  0.00     0.417 C 
ATOM     86  F   UNL A   1      32.086  27.997  28.082  1.00  0.00    -0.166 F 
ATOM     87  F   UNL A   1      33.774  27.526  26.788  1.00  0.00    -0.166 F 
ATOM     88  F   UNL A   1      33.207  29.590  27.167  1.00  0.00    -0.166 F 
ENDBRANCH  81  85
ENDBRANCH  78  79
ENDBRANCH  72  74
ENDBRANCH  71  72
ENDBRANCH  70  71
ENDBRANCH   1  70
TORSDOF 16
ENDMDL
MODEL 3
REMARK VINA RESULT:     -10.4      1.803      2.145
REMARK SMILES O=C(OCCOC(=O)c1noc(-c2ccccc2C(F)(F)F)n1)c1ccc(-c2c3nc(c(-c4cccc(S(=O)(=O)[O-])c4F)c4ccc([nH]4)c(-c4cccc(S(=O)(=O)[O-])c4F)c4nc(c(-c5cccc(S(=O)(=O)[O-])c5F)c5ccc2[nH]5)C=C4)C=C3)cc1
REMARK SMILES IDX 4 1 3 2 2 3 1 4 24 5 25 6 86 7 26 8 85 9 27 10 28 11 29 12
REMARK SMILES IDX 79 13 30 14 84 15 78 16 80 17 31 18 83 19 77 20 76 21 32 23
REMARK SMILES IDX 64 24 44 25 63 26 45 27 48 28 62 29 81 30 46 31 47 32 61 34
REMARK SMILES IDX 82 35 49 36 33 37 34 38 42 39 35 40 37 41 43 42 36 43 38 44
REMARK SMILES IDX 39 45 40 46 41 47 65 48 66 49 74 50 67 51 69 52 75 53 68 54
REMARK SMILES IDX 70 55 71 56 72 57 73 58 50 59 51 60 59 61 52 62 54 63 60 64
REMARK SMILES IDX 53 65 55 66 56 67 57 68 58 69 5 70 6 71 7 72 8 73 9 74 10 75
REMARK SMILES IDX 23 76 11 77 12 78 13 79 14 80 18 81 15 82 17 83 16 84 19 85
REMARK SMILES IDX 20 86 21 87 22 88
REMARK H PARENT 80 22 48 33
REMARK Flexibility Score: inf
ROOT
ATOM      1  C   UNL A   1      42.040  18.973  26.141  1.00  0.00     0.275 C 
ENDROOT
BRANCH   1   2
ATOM      2  O   UNL A   1      42.009  20.355  26.542  1.00  0.00    -0.458 OA
BRANCH   2   3
ATOM      3  C   UNL A   1      40.947  21.099  26.940  1.00  0.00     0.338 C 
ATOM      4  O   UNL A   1      39.810  20.708  26.686  1.00  0.00    -0.246 OA
BRANCH   3   5
ATOM      5  C   UNL A   1      41.101  22.464  27.522  1.00  0.00     0.060 A 
ATOM      6  C   UNL A   1      40.258  23.545  27.254  1.00  0.00     0.016 A 
ATOM      7  C   UNL A   1      42.233  22.683  28.330  1.00  0.00     0.016 A 
ATOM      8  C   UNL A   1      40.510  24.801  27.809  1.00  0.00     0.010 A 
ATOM      9  C   UNL A   1      42.499  23.945  28.873  1.00  0.00     0.010 A 
ATOM     10  C   UNL A   1      41.642  25.016  28.601  1.00  0.00    -0.014 A 
BRANCH  10  11
ATOM     11  C   UNL A   1      41.981  26.405  28.983  1.00  0.00     0.031 A 
ATOM     12  C   UNL A   1      43.416  26.841  28.896  1.00  0.00     0.074 A 
ATOM     13  C   UNL A   1      41.018  27.282  29.315  1.00  0.00     0.049 A 
ATOM     14  N   UNL A   1      43.914  28.047  28.969  1.00  0.00    -0.248 NA
ATOM     15  C   UNL A   1      44.418  25.787  28.669  1.00  0.00     0.031 C 
ATOM     16  C   UNL A   1      39.591  26.977  29.408  1.00  0.00     0.029 A 
ATOM     17  N   UNL A   1      41.095  28.614  29.632  1.00  0.00    -0.354 N 
ATOM     18  C   UNL A   1      45.282  27.900  28.773  1.00  0.00     0.074 A 
ATOM     19  C   UNL A   1      45.542  26.486  28.620  1.00  0.00     0.031 C 
ATOM     20  C   UNL A   1      38.929  28.083  29.791  1.00  0.00     0.029 A 
ATOM     21  C   UNL A   1      39.881  29.182  29.934  1.00  0.00     0.049 A 
ATOM     22  H   UNL A   1      41.942  29.116  29.641  1.00  0.00     0.167 HD
ATOM     23  C   UNL A   1      46.231  28.861  28.691  1.00  0.00     0.034 A 
ATOM     24  C   UNL A   1      39.573  30.453  30.259  1.00  0.00     0.034 A 
ATOM     25  C   UNL A   1      45.968  30.263  28.857  1.00  0.00     0.049 A 
ATOM     26  C   UNL A   1      40.660  31.496  30.218  1.00  0.00     0.074 A 
ATOM     27  C   UNL A   1      46.852  31.323  28.776  1.00  0.00     0.029 A 
ATOM     28  N   UNL A   1      44.724  30.797  29.159  1.00  0.00    -0.354 N 
ATOM     29  N   UNL A   1      41.919  31.363  29.872  1.00  0.00    -0.248 NA
ATOM     30  C   UNL A   1      40.272  32.873  30.555  1.00  0.00     0.031 C 
ATOM     31  C   UNL A   1      46.144  32.499  29.051  1.00  0.00     0.029 A 
ATOM     32  C   UNL A   1      44.818  32.171  29.286  1.00  0.00     0.049 A 
ATOM     33  H   UNL A   1      43.897  30.275  29.267  1.00  0.00     0.167 HD
ATOM     34  C   UNL A   1      42.457  32.645  29.892  1.00  0.00     0.074 A 
ATOM     35  C   UNL A   1      41.387  33.540  30.285  1.00  0.00     0.031 C 
ATOM     36  C   UNL A   1      43.722  33.047  29.616  1.00  0.00     0.034 A 
BRANCH  23  37
ATOM     37  C   UNL A   1      47.631  28.415  28.373  1.00  0.00     0.023 A 
ATOM     38  C   UNL A   1      48.463  27.961  29.417  1.00  0.00     0.012 A 
ATOM     39  C   UNL A   1      48.123  28.441  27.055  1.00  0.00     0.148 A 
ATOM     40  C   UNL A   1      49.775  27.566  29.158  1.00  0.00     0.002 A 
ATOM     41  C   UNL A   1      49.423  28.017  26.801  1.00  0.00     0.091 A 
ATOM     42  F   UNL A   1      47.325  28.905  26.083  1.00  0.00    -0.205 F 
ATOM     43  C   UNL A   1      50.252  27.588  27.850  1.00  0.00     0.022 A 
BRANCH  41  44
ATOM     44  S   UNL A   1      50.110  27.967  25.142  1.00  0.00     0.127 S 
ATOM     45  O   UNL A   1      50.742  26.649  25.126  1.00  0.00    -0.237 OA
ATOM     46  O   UNL A   1      48.912  28.080  24.307  1.00  0.00    -0.237 OA
ATOM     47  O   UNL A   1      51.017  29.102  25.052  1.00  0.00    -0.744 OA
ENDBRANCH  41  44
ENDBRANCH  23  37
BRANCH  24  48
ATOM     48  C   UNL A   1      38.164  30.835  30.553  1.00  0.00     0.023 A 
ATOM     49  C   UNL A   1      37.677  30.736  31.871  1.00  0.00     0.012 A 
ATOM     50  C   UNL A   1      37.305  31.293  29.536  1.00  0.00     0.148 A 
ATOM     51  C   UNL A   1      36.351  31.057  32.165  1.00  0.00     0.002 A 
ATOM     52  C   UNL A   1      35.997  31.652  29.843  1.00  0.00     0.091 A 
ATOM     53  F   UNL A   1      37.788  31.375  28.291  1.00  0.00    -0.205 F 
ATOM     54  C   UNL A   1      35.513  31.519  31.153  1.00  0.00     0.022 A 
BRANCH  52  55
ATOM     55  S   UNL A   1      34.867  32.321  28.617  1.00  0.00     0.127 S 
ATOM     56  O   UNL A   1      34.274  31.112  28.051  1.00  0.00    -0.237 OA
ATOM     57  O   UNL A   1      33.971  33.121  29.450  1.00  0.00    -0.237 OA
ATOM     58  O   UNL A   1      35.692  33.085  27.691  1.00  0.00    -0.744 OA
ENDBRANCH  52  55
ENDBRANCH  24  48
BRANCH  36  59
ATOM     59  C   UNL A   1      44.019  34.520  29.689  1.00  0.00     0.023 A 
ATOM     60  C   UNL A   1      43.950  35.305  28.522  1.00  0.00     0.012 A 
ATOM     61  C   UNL A   1      44.274  35.141  30.928  1.00  0.00     0.148 A 
ATOM     62  C   UNL A   1      44.155  36.683  28.584  1.00  0.00     0.002 A 
ATOM     63  C   UNL A   1      44.431  36.519  30.988  1.00  0.00     0.091 A 
ATOM     64  F   UNL A   1      44.361  34.373  32.025  1.00  0.00    -0.205 F 
ATOM     65  C   UNL A   1      44.382  37.292  29.816  1.00  0.00     0.022 A 
BRANCH  63  66
ATOM     66  S   UNL A   1      44.623  37.383  32.552  1.00  0.00     0.127 S 
ATOM     67  O   UNL A   1      45.908  36.870  33.022  1.00  0.00    -0.237 OA
ATOM     68  O   UNL A   1      44.640  38.787  32.139  1.00  0.00    -0.237 OA
ATOM     69  O   UNL A   1      43.462  37.009  33.350  1.00  0.00    -0.744 OA
ENDBRANCH  63  66
ENDBRANCH  36  59
ENDBRANCH  10  11
ENDBRANCH   3   5
ENDBRANCH   2   3
ENDBRANCH   1   2
BRANCH   1  70
ATOM     70  C   UNL A   1      43.295  18.564  25.366  1.00  0.00     0.275 C 
BRANCH  70  71
ATOM     71  O   UNL A   1      44.510  18.915  26.038  1.00  0.00    -0.456 OA
BRANCH  71  72
ATOM     72  C   UNL A   1      45.437  19.555  25.252  1.00  0.00     0.380 C 
ATOM     73  O   UNL A   1      46.499  19.042  24.905  1.00  0.00    -0.242 OA
BRANCH  72  74
ATOM     74  C   UNL A   1      44.991  20.878  24.813  1.00  0.00     0.281 A 
ATOM     75  N   UNL A   1      44.681  21.124  23.527  1.00  0.00    -0.049 NA
ATOM     76  N   UNL A   1      44.824  21.971  25.650  1.00  0.00    -0.181 NA
ATOM     77  O   UNL A   1      44.297  22.461  23.529  1.00  0.00    -0.333 OA
ATOM     78  C   UNL A   1      44.436  22.905  24.811  1.00  0.00     0.259 A 
BRANCH  78  79
ATOM     79  C   UNL A   1      44.265  24.335  24.993  1.00  0.00     0.052 A 
ATOM     80  C   UNL A   1      42.962  24.863  25.058  1.00  0.00     0.014 A 
ATOM     81  C   UNL A   1      45.375  25.203  25.082  1.00  0.00     0.068 A 
ATOM     82  C   UNL A   1      42.756  26.231  25.215  1.00  0.00     0.001 A 
ATOM     83  C   UNL A   1      45.144  26.579  25.244  1.00  0.00     0.014 A 
ATOM     84  C   UNL A   1      43.847  27.087  25.301  1.00  0.00     0.001 A 
BRANCH  81  85
ATOM     85  C   UNL A   1      46.799  24.707  25.032  1.00  0.00     0.417 C 
ATOM     86  F   UNL A   1      47.155  23.977  26.128  1.00  0.00    -0.166 F 
ATOM     87  F   UNL A   1      47.049  23.916  23.952  1.00  0.00    -0.166 F 
ATOM     88  F   UNL A   1      47.730  25.705  24.982  1.00  0.00    -0.166 F 
ENDBRANCH  81  85
ENDBRANCH  78  79
ENDBRANCH  72  74
ENDBRANCH  71  72
ENDBRANCH  70  71
ENDBRANCH   1  70
TORSDOF 16
ENDMDL
