MODEL 1
REMARK VINA RESULT:     -11.7      0.000      0.000
REMARK SMILES CCOc1cccc(-c2ccc([C@@H](C)C(=O)OCCOC(=O)c3ccc(-c4c5nc(c(-c6cccc(S(=O)(=O)[O-])c6F)c6ccc([nH]6)c(-c6cccc(S(=O)(=O)[O-])c6F)c6nc(c(-c7cccc(S(=O)(=O)[O-])c7F)c7ccc4[nH]7)C=C6)C=C5)cc3)cc2F)c1
REMARK SMILES IDX 18 1 17 2 15 3 16 4 13 5 14 6 12 7 9 8 10 9 87 10 11 11
REMARK SMILES IDX 86 12 88 13 8 14 4 15 5 16 89 17 6 18 7 19 3 20 2 21 1 22
REMARK SMILES IDX 19 23 20 24 21 25 22 26 23 27 24 28 85 29 25 30 84 31 26 32
REMARK SMILES IDX 27 33 28 34 78 35 29 36 83 37 77 38 79 39 30 40 82 41 76 42
REMARK SMILES IDX 75 43 31 45 63 46 43 47 62 48 44 49 47 50 61 51 80 52 45 53
REMARK SMILES IDX 46 54 60 56 81 57 48 58 32 59 33 60 41 61 34 62 36 63 42 64
REMARK SMILES IDX 35 65 37 66 38 67 39 68 40 69 64 70 65 71 73 72 66 73 68 74
REMARK SMILES IDX 74 75 67 76 69 77 70 78 71 79 72 80 49 81 50 82 58 83 51 84
REMARK SMILES IDX 53 85 59 86 52 87 54 88 55 89 56 90 57 91
REMARK H PARENT 79 44 47 55
REMARK Flexibility Score: inf
ROOT
ATOM      1  C   UNL A   1      31.148  29.946  24.910  1.00  0.00     0.274 C 
ENDROOT
BRANCH   1   2
ATOM      2  O   UNL A   1      30.995  28.553  24.568  1.00  0.00    -0.462 OA
BRANCH   2   3
ATOM      3  C   UNL A   1      31.636  28.128  23.448  1.00  0.00     0.313 C 
ATOM      4  O   UNL A   1      31.076  27.895  22.382  1.00  0.00    -0.252 OA
BRANCH   3   5
ATOM      5  C   UNL A   1      33.129  27.892  23.639  1.00  0.00     0.126 C 
ATOM      6  C   UNL A   1      33.910  28.586  22.525  1.00  0.00     0.025 C 
BRANCH   5   7
ATOM      7  C   UNL A   1      33.570  26.448  23.834  1.00  0.00    -0.031 A 
ATOM      8  C   UNL A   1      34.450  23.767  24.264  1.00  0.00     0.018 A 
ATOM      9  C   UNL A   1      34.168  24.246  22.973  1.00  0.00     0.012 A 
ATOM     10  C   UNL A   1      34.273  24.662  25.327  1.00  0.00     0.131 A 
ATOM     11  C   UNL A   1      33.739  25.564  22.760  1.00  0.00     0.005 A 
ATOM     12  C   UNL A   1      33.848  25.975  25.123  1.00  0.00     0.044 A 
ATOM     13  F   UNL A   1      34.540  24.282  26.587  1.00  0.00    -0.206 F 
BRANCH   8  14
ATOM     14  C   UNL A   1      34.917  22.384  24.481  1.00  0.00    -0.012 A 
ATOM     15  C   UNL A   1      34.445  20.015  24.807  1.00  0.00     0.119 A 
ATOM     16  C   UNL A   1      35.802  19.746  24.957  1.00  0.00     0.046 A 
ATOM     17  C   UNL A   1      34.006  21.321  24.592  1.00  0.00     0.055 A 
ATOM     18  C   UNL A   1      36.725  20.782  24.852  1.00  0.00     0.004 A 
ATOM     19  C   UNL A   1      36.286  22.088  24.610  1.00  0.00     0.009 A 
BRANCH  15  20
ATOM     20  O   UNL A   1      33.560  18.991  24.996  1.00  0.00    -0.494 OA
BRANCH  20  21
ATOM     21  C   UNL A   1      32.921  18.574  23.783  1.00  0.00     0.226 C 
ATOM     22  C   UNL A   1      33.589  17.344  23.193  1.00  0.00     0.049 C 
ENDBRANCH  20  21
ENDBRANCH  15  20
ENDBRANCH   8  14
ENDBRANCH   5   7
ENDBRANCH   3   5
ENDBRANCH   2   3
ENDBRANCH   1   2
BRANCH   1  23
ATOM     23  C   UNL A   1      31.744  30.115  26.309  1.00  0.00     0.275 C 
BRANCH  23  24
ATOM     24  O   UNL A   1      33.141  30.453  26.247  1.00  0.00    -0.458 OA
BRANCH  24  25
ATOM     25  C   UNL A   1      33.534  31.408  27.123  1.00  0.00     0.338 C 
ATOM     26  O   UNL A   1      32.887  32.366  27.510  1.00  0.00    -0.246 OA
BRANCH  25  27
ATOM     27  C   UNL A   1      34.853  31.062  27.672  1.00  0.00     0.060 A 
ATOM     28  C   UNL A   1      35.085  29.731  28.020  1.00  0.00     0.016 A 
ATOM     29  C   UNL A   1      35.815  32.040  27.929  1.00  0.00     0.016 A 
ATOM     30  C   UNL A   1      36.266  29.368  28.656  1.00  0.00     0.010 A 
ATOM     31  C   UNL A   1      37.010  31.673  28.556  1.00  0.00     0.010 A 
ATOM     32  C   UNL A   1      37.234  30.339  28.943  1.00  0.00    -0.014 A 
BRANCH  32  33
ATOM     33  C   UNL A   1      38.457  29.951  29.687  1.00  0.00     0.031 A 
ATOM     34  C   UNL A   1      39.416  28.959  29.093  1.00  0.00     0.074 A 
ATOM     35  C   UNL A   1      38.709  30.502  30.888  1.00  0.00     0.049 A 
ATOM     36  N   UNL A   1      40.525  28.481  29.597  1.00  0.00    -0.248 NA
ATOM     37  C   UNL A   1      39.084  28.430  27.760  1.00  0.00     0.031 C 
ATOM     38  C   UNL A   1      37.851  31.474  31.566  1.00  0.00     0.029 A 
ATOM     39  N   UNL A   1      39.754  30.313  31.758  1.00  0.00    -0.354 N 
ATOM     40  C   UNL A   1      41.005  27.571  28.664  1.00  0.00     0.074 A 
ATOM     41  C   UNL A   1      40.064  27.559  27.563  1.00  0.00     0.031 C 
ATOM     42  C   UNL A   1      38.398  31.788  32.753  1.00  0.00     0.029 A 
ATOM     43  C   UNL A   1      39.628  31.021  32.929  1.00  0.00     0.049 A 
ATOM     44  H   UNL A   1      40.519  29.726  31.562  1.00  0.00     0.167 HD
ATOM     45  C   UNL A   1      42.134  26.827  28.711  1.00  0.00     0.034 A 
ATOM     46  C   UNL A   1      40.410  31.040  34.027  1.00  0.00     0.034 A 
ATOM     47  C   UNL A   1      43.091  26.874  29.784  1.00  0.00     0.049 A 
ATOM     48  C   UNL A   1      41.667  30.213  34.045  1.00  0.00     0.074 A 
ATOM     49  C   UNL A   1      44.291  26.194  29.898  1.00  0.00     0.029 A 
ATOM     50  N   UNL A   1      42.959  27.645  30.929  1.00  0.00    -0.354 N 
ATOM     51  N   UNL A   1      42.163  29.444  33.106  1.00  0.00    -0.248 NA
ATOM     52  C   UNL A   1      42.489  30.278  35.263  1.00  0.00     0.031 C 
ATOM     53  C   UNL A   1      44.881  26.547  31.118  1.00  0.00     0.029 A 
ATOM     54  C   UNL A   1      44.052  27.454  31.758  1.00  0.00     0.049 A 
ATOM     55  H   UNL A   1      42.200  28.240  31.123  1.00  0.00     0.167 HD
ATOM     56  C   UNL A   1      43.363  28.953  33.608  1.00  0.00     0.074 A 
ATOM     57  C   UNL A   1      43.533  29.535  34.924  1.00  0.00     0.031 C 
ATOM     58  C   UNL A   1      44.234  28.083  33.041  1.00  0.00     0.034 A 
BRANCH  45  59
ATOM     59  C   UNL A   1      42.422  25.920  27.545  1.00  0.00     0.023 A 
ATOM     60  C   UNL A   1      43.216  26.391  26.481  1.00  0.00     0.012 A 
ATOM     61  C   UNL A   1      41.959  24.590  27.528  1.00  0.00     0.148 A 
ATOM     62  C   UNL A   1      43.526  25.560  25.405  1.00  0.00     0.002 A 
ATOM     63  C   UNL A   1      42.302  23.755  26.470  1.00  0.00     0.091 A 
ATOM     64  F   UNL A   1      41.183  24.169  28.537  1.00  0.00    -0.205 F 
ATOM     65  C   UNL A   1      43.078  24.241  25.404  1.00  0.00     0.022 A 
BRANCH  63  66
ATOM     66  S   UNL A   1      41.826  22.024  26.414  1.00  0.00     0.127 S 
ATOM     67  O   UNL A   1      42.704  21.509  25.366  1.00  0.00    -0.237 OA
ATOM     68  O   UNL A   1      42.156  21.566  27.765  1.00  0.00    -0.237 OA
ATOM     69  O   UNL A   1      40.402  22.013  26.105  1.00  0.00    -0.744 OA
ENDBRANCH  63  66
ENDBRANCH  45  59
BRANCH  46  70
ATOM     70  C   UNL A   1      40.046  31.911  35.179  1.00  0.00     0.023 A 
ATOM     71  C   UNL A   1      40.570  33.216  35.252  1.00  0.00     0.012 A 
ATOM     72  C   UNL A   1      39.158  31.470  36.179  1.00  0.00     0.148 A 
ATOM     73  C   UNL A   1      40.232  34.059  36.313  1.00  0.00     0.002 A 
ATOM     74  C   UNL A   1      38.783  32.333  37.203  1.00  0.00     0.091 A 
ATOM     75  F   UNL A   1      38.689  30.216  36.107  1.00  0.00    -0.205 F 
ATOM     76  C   UNL A   1      39.329  33.623  37.280  1.00  0.00     0.022 A 
BRANCH  74  77
ATOM     77  S   UNL A   1      37.524  31.891  38.405  1.00  0.00     0.127 S 
ATOM     78  O   UNL A   1      37.147  30.550  37.967  1.00  0.00    -0.237 OA
ATOM     79  O   UNL A   1      38.269  31.940  39.665  1.00  0.00    -0.237 OA
ATOM     80  O   UNL A   1      36.497  32.918  38.283  1.00  0.00    -0.744 OA
ENDBRANCH  74  77
ENDBRANCH  46  70
BRANCH  58  81
ATOM     81  C   UNL A   1      45.462  27.713  33.831  1.00  0.00     0.023 A 
ATOM     82  C   UNL A   1      46.616  28.514  33.730  1.00  0.00     0.012 A 
ATOM     83  C   UNL A   1      45.450  26.622  34.720  1.00  0.00     0.148 A 
ATOM     84  C   UNL A   1      47.752  28.218  34.483  1.00  0.00     0.002 A 
ATOM     85  C   UNL A   1      46.573  26.357  35.498  1.00  0.00     0.091 A 
ATOM     86  F   UNL A   1      44.352  25.857  34.786  1.00  0.00    -0.205 F 
ATOM     87  C   UNL A   1      47.726  27.148  35.375  1.00  0.00     0.022 A 
BRANCH  85  88
ATOM     88  S   UNL A   1      46.589  25.051  36.733  1.00  0.00     0.127 S 
ATOM     89  O   UNL A   1      47.860  25.295  37.410  1.00  0.00    -0.237 OA
ATOM     90  O   UNL A   1      45.403  25.358  37.535  1.00  0.00    -0.237 OA
ATOM     91  O   UNL A   1      46.499  23.803  35.986  1.00  0.00    -0.744 OA
ENDBRANCH  85  88
ENDBRANCH  58  81
ENDBRANCH  32  33
ENDBRANCH  25  27
ENDBRANCH  24  25
ENDBRANCH  23  24
ENDBRANCH   1  23
TORSDOF 18
ENDMDL
MODEL 2
REMARK VINA RESULT:     -11.6      1.713      7.818
REMARK SMILES CCOc1cccc(-c2ccc([C@@H](C)C(=O)OCCOC(=O)c3ccc(-c4c5nc(c(-c6cccc(S(=O)(=O)[O-])c6F)c6ccc([nH]6)c(-c6cccc(S(=O)(=O)[O-])c6F)c6nc(c(-c7cccc(S(=O)(=O)[O-])c7F)c7ccc4[nH]7)C=C6)C=C5)cc3)cc2F)c1
REMARK SMILES IDX 18 1 17 2 15 3 16 4 13 5 14 6 12 7 9 8 10 9 87 10 11 11
REMARK SMILES IDX 86 12 88 13 8 14 4 15 5 16 89 17 6 18 7 19 3 20 2 21 1 22
REMARK SMILES IDX 19 23 20 24 21 25 22 26 23 27 24 28 85 29 25 30 84 31 26 32
REMARK SMILES IDX 27 33 28 34 78 35 29 36 83 37 77 38 79 39 30 40 82 41 76 42
REMARK SMILES IDX 75 43 31 45 63 46 43 47 62 48 44 49 47 50 61 51 80 52 45 53
REMARK SMILES IDX 46 54 60 56 81 57 48 58 32 59 33 60 41 61 34 62 36 63 42 64
REMARK SMILES IDX 35 65 37 66 38 67 39 68 40 69 64 70 65 71 73 72 66 73 68 74
REMARK SMILES IDX 74 75 67 76 69 77 70 78 71 79 72 80 49 81 50 82 58 83 51 84
REMARK SMILES IDX 53 85 59 86 52 87 54 88 55 89 56 90 57 91
REMARK H PARENT 79 44 47 55
REMARK Flexibility Score: inf
ROOT
ATOM      1  C   UNL A   1      31.428  29.749  24.695  1.00  0.00     0.274 C 
ENDROOT
BRANCH   1   2
ATOM      2  O   UNL A   1      30.160  29.796  24.010  1.00  0.00    -0.462 OA
BRANCH   2   3
ATOM      3  C   UNL A   1      30.093  29.153  22.814  1.00  0.00     0.313 C 
ATOM      4  O   UNL A   1      30.516  29.617  21.760  1.00  0.00    -0.252 OA
BRANCH   3   5
ATOM      5  C   UNL A   1      29.373  27.812  22.869  1.00  0.00     0.126 C 
ATOM      6  C   UNL A   1      27.990  27.991  23.494  1.00  0.00     0.025 C 
BRANCH   5   7
ATOM      7  C   UNL A   1      30.137  26.653  23.493  1.00  0.00    -0.031 A 
ATOM      8  C   UNL A   1      31.574  24.442  24.586  1.00  0.00     0.018 A 
ATOM      9  C   UNL A   1      30.576  25.102  25.323  1.00  0.00     0.012 A 
ATOM     10  C   UNL A   1      31.835  24.923  23.297  1.00  0.00     0.131 A 
ATOM     11  C   UNL A   1      29.866  26.185  24.786  1.00  0.00     0.005 A 
ATOM     12  C   UNL A   1      31.134  26.001  22.755  1.00  0.00     0.044 A 
ATOM     13  F   UNL A   1      32.762  24.333  22.526  1.00  0.00    -0.206 F 
BRANCH   8  14
ATOM     14  C   UNL A   1      32.305  23.292  25.150  1.00  0.00    -0.012 A 
ATOM     15  C   UNL A   1      32.588  20.885  25.419  1.00  0.00     0.119 A 
ATOM     16  C   UNL A   1      33.665  21.088  26.276  1.00  0.00     0.046 A 
ATOM     17  C   UNL A   1      31.903  21.973  24.879  1.00  0.00     0.055 A 
ATOM     18  C   UNL A   1      34.083  22.385  26.561  1.00  0.00     0.004 A 
ATOM     19  C   UNL A   1      33.413  23.476  25.998  1.00  0.00     0.009 A 
BRANCH  15  20
ATOM     20  O   UNL A   1      32.152  19.605  25.224  1.00  0.00    -0.494 OA
BRANCH  20  21
ATOM     21  C   UNL A   1      32.584  19.052  23.975  1.00  0.00     0.226 C 
ATOM     22  C   UNL A   1      33.748  18.093  24.160  1.00  0.00     0.049 C 
ENDBRANCH  20  21
ENDBRANCH  15  20
ENDBRANCH   8  14
ENDBRANCH   5   7
ENDBRANCH   3   5
ENDBRANCH   2   3
ENDBRANCH   1   2
BRANCH   1  23
ATOM     23  C   UNL A   1      31.480  30.765  25.839  1.00  0.00     0.275 C 
BRANCH  23  24
ATOM     24  O   UNL A   1      32.578  30.497  26.729  1.00  0.00    -0.458 OA
BRANCH  24  25
ATOM     25  C   UNL A   1      33.233  31.596  27.171  1.00  0.00     0.338 C 
ATOM     26  O   UNL A   1      32.813  32.739  27.212  1.00  0.00    -0.246 OA
BRANCH  25  27
ATOM     27  C   UNL A   1      34.531  31.203  27.739  1.00  0.00     0.060 A 
ATOM     28  C   UNL A   1      34.711  29.863  28.087  1.00  0.00     0.016 A 
ATOM     29  C   UNL A   1      35.523  32.146  28.014  1.00  0.00     0.016 A 
ATOM     30  C   UNL A   1      35.869  29.458  28.740  1.00  0.00     0.010 A 
ATOM     31  C   UNL A   1      36.695  31.735  28.658  1.00  0.00     0.010 A 
ATOM     32  C   UNL A   1      36.865  30.394  29.044  1.00  0.00    -0.014 A 
BRANCH  32  33
ATOM     33  C   UNL A   1      38.063  29.961  29.806  1.00  0.00     0.031 A 
ATOM     34  C   UNL A   1      38.288  30.466  31.203  1.00  0.00     0.074 A 
ATOM     35  C   UNL A   1      38.936  29.105  29.245  1.00  0.00     0.049 A 
ATOM     36  N   UNL A   1      39.280  30.217  32.019  1.00  0.00    -0.248 NA
ATOM     37  C   UNL A   1      37.267  31.371  31.755  1.00  0.00     0.031 C 
ATOM     38  C   UNL A   1      38.824  28.551  27.896  1.00  0.00     0.029 A 
ATOM     39  N   UNL A   1      40.098  28.564  29.735  1.00  0.00    -0.354 N 
ATOM     40  C   UNL A   1      39.026  30.961  33.164  1.00  0.00     0.074 A 
ATOM     41  C   UNL A   1      37.786  31.673  32.938  1.00  0.00     0.031 C 
ATOM     42  C   UNL A   1      39.881  27.755  27.660  1.00  0.00     0.029 A 
ATOM     43  C   UNL A   1      40.756  27.765  28.829  1.00  0.00     0.049 A 
ATOM     44  H   UNL A   1      40.429  28.731  30.646  1.00  0.00     0.167 HD
ATOM     45  C   UNL A   1      39.749  31.030  34.306  1.00  0.00     0.034 A 
ATOM     46  C   UNL A   1      41.937  27.124  28.927  1.00  0.00     0.034 A 
ATOM     47  C   UNL A   1      40.955  30.285  34.546  1.00  0.00     0.049 A 
ATOM     48  C   UNL A   1      42.712  27.208  30.213  1.00  0.00     0.074 A 
ATOM     49  C   UNL A   1      41.732  30.250  35.692  1.00  0.00     0.029 A 
ATOM     50  N   UNL A   1      41.563  29.444  33.628  1.00  0.00    -0.354 N 
ATOM     51  N   UNL A   1      42.399  27.826  31.327  1.00  0.00    -0.248 NA
ATOM     52  C   UNL A   1      43.990  26.481  30.270  1.00  0.00     0.031 C 
ATOM     53  C   UNL A   1      42.815  29.394  35.462  1.00  0.00     0.029 A 
ATOM     54  C   UNL A   1      42.707  28.888  34.176  1.00  0.00     0.049 A 
ATOM     55  H   UNL A   1      41.230  29.266  32.719  1.00  0.00     0.167 HD
ATOM     56  C   UNL A   1      43.425  27.544  32.222  1.00  0.00     0.074 A 
ATOM     57  C   UNL A   1      44.356  26.677  31.529  1.00  0.00     0.031 C 
ATOM     58  C   UNL A   1      43.594  27.982  33.494  1.00  0.00     0.034 A 
BRANCH  45  59
ATOM     59  C   UNL A   1      39.231  31.916  35.408  1.00  0.00     0.023 A 
ATOM     60  C   UNL A   1      38.260  31.418  36.298  1.00  0.00     0.012 A 
ATOM     61  C   UNL A   1      39.745  33.213  35.597  1.00  0.00     0.148 A 
ATOM     62  C   UNL A   1      37.789  32.206  37.347  1.00  0.00     0.002 A 
ATOM     63  C   UNL A   1      39.298  33.981  36.667  1.00  0.00     0.091 A 
ATOM     64  F   UNL A   1      40.650  33.678  34.723  1.00  0.00    -0.205 F 
ATOM     65  C   UNL A   1      38.315  33.482  37.538  1.00  0.00     0.022 A 
BRANCH  63  66
ATOM     66  S   UNL A   1      39.964  35.609  37.029  1.00  0.00     0.127 S 
ATOM     67  O   UNL A   1      39.229  35.967  38.241  1.00  0.00    -0.237 OA
ATOM     68  O   UNL A   1      41.385  35.326  37.240  1.00  0.00    -0.237 OA
ATOM     69  O   UNL A   1      39.679  36.425  35.856  1.00  0.00    -0.744 OA
ENDBRANCH  63  66
ENDBRANCH  45  59
BRANCH  46  70
ATOM     70  C   UNL A   1      42.432  26.309  27.783  1.00  0.00     0.023 A 
ATOM     71  C   UNL A   1      43.412  26.843  26.925  1.00  0.00     0.012 A 
ATOM     72  C   UNL A   1      41.967  24.998  27.562  1.00  0.00     0.148 A 
ATOM     73  C   UNL A   1      43.905  26.094  25.854  1.00  0.00     0.002 A 
ATOM     74  C   UNL A   1      42.502  24.237  26.528  1.00  0.00     0.091 A 
ATOM     75  F   UNL A   1      41.016  24.514  28.374  1.00  0.00    -0.205 F 
ATOM     76  C   UNL A   1      43.460  24.788  25.664  1.00  0.00     0.022 A 
BRANCH  74  77
ATOM     77  S   UNL A   1      42.079  22.506  26.304  1.00  0.00     0.127 S 
ATOM     78  O   UNL A   1      40.621  22.557  26.249  1.00  0.00    -0.237 OA
ATOM     79  O   UNL A   1      42.732  22.189  25.033  1.00  0.00    -0.237 OA
ATOM     80  O   UNL A   1      42.653  21.817  27.454  1.00  0.00    -0.744 OA
ENDBRANCH  74  77
ENDBRANCH  46  70
BRANCH  58  81
ATOM     81  C   UNL A   1      44.824  27.522  34.231  1.00  0.00     0.023 A 
ATOM     82  C   UNL A   1      45.976  28.331  34.225  1.00  0.00     0.012 A 
ATOM     83  C   UNL A   1      44.816  26.332  34.984  1.00  0.00     0.148 A 
ATOM     84  C   UNL A   1      47.115  27.949  34.935  1.00  0.00     0.002 A 
ATOM     85  C   UNL A   1      45.940  25.978  35.722  1.00  0.00     0.091 A 
ATOM     86  F   UNL A   1      43.719  25.563  34.960  1.00  0.00    -0.205 F 
ATOM     87  C   UNL A   1      47.092  26.781  35.692  1.00  0.00     0.022 A 
BRANCH  85  88
ATOM     88  S   UNL A   1      45.961  24.533  36.792  1.00  0.00     0.127 S 
ATOM     89  O   UNL A   1      45.866  23.443  35.824  1.00  0.00    -0.237 OA
ATOM     90  O   UNL A   1      47.261  24.648  37.455  1.00  0.00    -0.237 OA
ATOM     91  O   UNL A   1      44.819  24.689  37.684  1.00  0.00    -0.744 OA
ENDBRANCH  85  88
ENDBRANCH  58  81
ENDBRANCH  32  33
ENDBRANCH  25  27
ENDBRANCH  24  25
ENDBRANCH  23  24
ENDBRANCH   1  23
TORSDOF 18
ENDMDL
MODEL 3
REMARK VINA RESULT:     -11.6      5.031      8.073
REMARK SMILES CCOc1cccc(-c2ccc([C@@H](C)C(=O)OCCOC(=O)c3ccc(-c4c5nc(c(-c6cccc(S(=O)(=O)[O-])c6F)c6ccc([nH]6)c(-c6cccc(S(=O)(=O)[O-])c6F)c6nc(c(-c7cccc(S(=O)(=O)[O-])c7F)c7ccc4[nH]7)C=C6)C=C5)cc3)cc2F)c1
REMARK SMILES IDX 18 1 17 2 15 3 16 4 13 5 14 6 12 7 9 8 10 9 87 10 11 11
REMARK SMILES IDX 86 12 88 13 8 14 4 15 5 16 89 17 6 18 7 19 3 20 2 21 1 22
REMARK SMILES IDX 19 23 20 24 21 25 22 26 23 27 24 28 85 29 25 30 84 31 26 32
REMARK SMILES IDX 27 33 28 34 78 35 29 36 83 37 77 38 79 39 30 40 82 41 76 42
REMARK SMILES IDX 75 43 31 45 63 46 43 47 62 48 44 49 47 50 61 51 80 52 45 53
REMARK SMILES IDX 46 54 60 56 81 57 48 58 32 59 33 60 41 61 34 62 36 63 42 64
REMARK SMILES IDX 35 65 37 66 38 67 39 68 40 69 64 70 65 71 73 72 66 73 68 74
REMARK SMILES IDX 74 75 67 76 69 77 70 78 71 79 72 80 49 81 50 82 58 83 51 84
REMARK SMILES IDX 53 85 59 86 52 87 54 88 55 89 56 90 57 91
REMARK H PARENT 79 44 47 55
REMARK Flexibility Score: inf
ROOT
ATOM      1  C   UNL A   1      36.469  19.657  25.000  1.00  0.00     0.274 C 
ENDROOT
BRANCH   1   2
ATOM      2  O   UNL A   1      35.079  20.000  24.827  1.00  0.00    -0.462 OA
BRANCH   2   3
ATOM      3  C   UNL A   1      34.219  18.968  24.622  1.00  0.00     0.313 C 
ATOM      4  O   UNL A   1      34.556  17.789  24.588  1.00  0.00    -0.252 OA
BRANCH   3   5
ATOM      5  C   UNL A   1      32.781  19.400  24.363  1.00  0.00     0.126 C 
ATOM      6  C   UNL A   1      32.242  18.690  23.123  1.00  0.00     0.025 C 
BRANCH   5   7
ATOM      7  C   UNL A   1      32.516  20.899  24.326  1.00  0.00    -0.031 A 
ATOM      8  C   UNL A   1      31.959  23.699  24.319  1.00  0.00     0.018 A 
ATOM      9  C   UNL A   1      32.260  23.009  23.132  1.00  0.00     0.012 A 
ATOM     10  C   UNL A   1      31.953  22.951  25.504  1.00  0.00     0.131 A 
ATOM     11  C   UNL A   1      32.529  21.634  23.133  1.00  0.00     0.005 A 
ATOM     12  C   UNL A   1      32.220  21.581  25.514  1.00  0.00     0.044 A 
ATOM     13  F   UNL A   1      31.657  23.535  26.676  1.00  0.00    -0.206 F 
BRANCH   8  14
ATOM     14  C   UNL A   1      31.660  25.143  24.310  1.00  0.00    -0.012 A 
ATOM     15  C   UNL A   1      32.403  27.462  24.421  1.00  0.00     0.119 A 
ATOM     16  C   UNL A   1      31.086  27.907  24.355  1.00  0.00     0.046 A 
ATOM     17  C   UNL A   1      32.686  26.096  24.420  1.00  0.00     0.055 A 
ATOM     18  C   UNL A   1      30.052  26.982  24.246  1.00  0.00     0.004 A 
ATOM     19  C   UNL A   1      30.337  25.613  24.218  1.00  0.00     0.009 A 
BRANCH  15  20
ATOM     20  O   UNL A   1      33.389  28.390  24.608  1.00  0.00    -0.494 OA
BRANCH  20  21
ATOM     21  C   UNL A   1      33.155  29.232  25.743  1.00  0.00     0.226 C 
ATOM     22  C   UNL A   1      33.653  28.593  27.028  1.00  0.00     0.049 C 
ENDBRANCH  20  21
ENDBRANCH  15  20
ENDBRANCH   8  14
ENDBRANCH   5   7
ENDBRANCH   3   5
ENDBRANCH   2   3
ENDBRANCH   1   2
BRANCH   1  23
ATOM     23  C   UNL A   1      37.383  20.823  24.620  1.00  0.00     0.275 C 
BRANCH  23  24
ATOM     24  O   UNL A   1      37.771  21.585  25.777  1.00  0.00    -0.458 OA
BRANCH  24  25
ATOM     25  C   UNL A   1      39.070  21.453  26.136  1.00  0.00     0.338 C 
ATOM     26  O   UNL A   1      39.794  20.491  25.948  1.00  0.00    -0.246 OA
BRANCH  25  27
ATOM     27  C   UNL A   1      39.560  22.722  26.694  1.00  0.00     0.060 A 
ATOM     28  C   UNL A   1      39.011  23.906  26.199  1.00  0.00     0.016 A 
ATOM     29  C   UNL A   1      40.604  22.758  27.619  1.00  0.00     0.016 A 
ATOM     30  C   UNL A   1      39.520  25.136  26.599  1.00  0.00     0.010 A 
ATOM     31  C   UNL A   1      41.107  23.996  28.033  1.00  0.00     0.010 A 
ATOM     32  C   UNL A   1      40.583  25.191  27.510  1.00  0.00    -0.014 A 
BRANCH  32  33
ATOM     33  C   UNL A   1      41.164  26.507  27.872  1.00  0.00     0.031 A 
ATOM     34  C   UNL A   1      42.591  26.821  27.522  1.00  0.00     0.074 A 
ATOM     35  C   UNL A   1      40.404  27.421  28.501  1.00  0.00     0.049 A 
ATOM     36  N   UNL A   1      43.281  27.904  27.770  1.00  0.00    -0.248 NA
ATOM     37  C   UNL A   1      43.343  25.780  26.803  1.00  0.00     0.031 C 
ATOM     38  C   UNL A   1      39.007  27.229  28.894  1.00  0.00     0.029 A 
ATOM     39  N   UNL A   1      40.703  28.689  28.934  1.00  0.00    -0.354 N 
ATOM     40  C   UNL A   1      44.556  27.664  27.273  1.00  0.00     0.074 A 
ATOM     41  C   UNL A   1      44.546  26.331  26.711  1.00  0.00     0.031 C 
ATOM     42  C   UNL A   1      38.573  28.336  29.520  1.00  0.00     0.029 A 
ATOM     43  C   UNL A   1      39.666  29.302  29.596  1.00  0.00     0.049 A 
ATOM     44  H   UNL A   1      41.575  29.118  28.784  1.00  0.00     0.167 HD
ATOM     45  C   UNL A   1      45.631  28.487  27.268  1.00  0.00     0.034 A 
ATOM     46  C   UNL A   1      39.607  30.502  30.207  1.00  0.00     0.034 A 
ATOM     47  C   UNL A   1      45.625  29.829  27.785  1.00  0.00     0.049 A 
ATOM     48  C   UNL A   1      40.813  31.400  30.174  1.00  0.00     0.074 A 
ATOM     49  C   UNL A   1      46.652  30.758  27.780  1.00  0.00     0.029 A 
ATOM     50  N   UNL A   1      44.541  30.437  28.399  1.00  0.00    -0.354 N 
ATOM     51  N   UNL A   1      41.975  31.201  29.600  1.00  0.00    -0.248 NA
ATOM     52  C   UNL A   1      40.692  32.702  30.846  1.00  0.00     0.031 C 
ATOM     53  C   UNL A   1      46.190  31.925  28.400  1.00  0.00     0.029 A 
ATOM     54  C   UNL A   1      44.873  31.726  28.783  1.00  0.00     0.049 A 
ATOM     55  H   UNL A   1      43.664  30.014  28.541  1.00  0.00     0.167 HD
ATOM     56  C   UNL A   1      42.714  32.359  29.821  1.00  0.00     0.074 A 
ATOM     57  C   UNL A   1      41.857  33.265  30.557  1.00  0.00     0.031 C 
ATOM     58  C   UNL A   1      43.992  32.637  29.466  1.00  0.00     0.034 A 
BRANCH  45  59
ATOM     59  C   UNL A   1      46.901  27.973  26.646  1.00  0.00     0.023 A 
ATOM     60  C   UNL A   1      47.891  27.398  27.467  1.00  0.00     0.012 A 
ATOM     61  C   UNL A   1      47.091  28.006  25.251  1.00  0.00     0.148 A 
ATOM     62  C   UNL A   1      49.062  26.883  26.912  1.00  0.00     0.002 A 
ATOM     63  C   UNL A   1      48.245  27.459  24.700  1.00  0.00     0.091 A 
ATOM     64  F   UNL A   1      46.149  28.582  24.490  1.00  0.00    -0.205 F 
ATOM     65  C   UNL A   1      49.235  26.904  25.529  1.00  0.00     0.022 A 
BRANCH  63  66
ATOM     66  S   UNL A   1      48.524  27.382  22.928  1.00  0.00     0.127 S 
ATOM     67  O   UNL A   1      48.387  25.951  22.668  1.00  0.00    -0.237 OA
ATOM     68  O   UNL A   1      47.431  28.204  22.403  1.00  0.00    -0.237 OA
ATOM     69  O   UNL A   1      49.853  27.937  22.710  1.00  0.00    -0.744 OA
ENDBRANCH  63  66
ENDBRANCH  45  59
BRANCH  46  70
ATOM     70  C   UNL A   1      38.341  30.937  30.860  1.00  0.00     0.023 A 
ATOM     71  C   UNL A   1      38.160  30.711  32.238  1.00  0.00     0.012 A 
ATOM     72  C   UNL A   1      37.334  31.605  30.136  1.00  0.00     0.148 A 
ATOM     73  C   UNL A   1      36.990  31.123  32.879  1.00  0.00     0.002 A 
ATOM     74  C   UNL A   1      36.196  32.062  30.791  1.00  0.00     0.091 A 
ATOM     75  F   UNL A   1      37.513  31.789  28.819  1.00  0.00    -0.205 F 
ATOM     76  C   UNL A   1      36.015  31.810  32.159  1.00  0.00     0.022 A 
BRANCH  74  77
ATOM     77  S   UNL A   1      34.962  33.069  29.961  1.00  0.00     0.127 S 
ATOM     78  O   UNL A   1      35.779  34.134  29.386  1.00  0.00    -0.237 OA
ATOM     79  O   UNL A   1      34.400  32.131  28.988  1.00  0.00    -0.237 OA
ATOM     80  O   UNL A   1      34.028  33.471  31.005  1.00  0.00    -0.744 OA
ENDBRANCH  74  77
ENDBRANCH  46  70
BRANCH  58  81
ATOM     81  C   UNL A   1      44.545  33.982  29.855  1.00  0.00     0.023 A 
ATOM     82  C   UNL A   1      45.298  34.104  31.038  1.00  0.00     0.012 A 
ATOM     83  C   UNL A   1      44.381  35.104  29.019  1.00  0.00     0.148 A 
ATOM     84  C   UNL A   1      45.858  35.330  31.400  1.00  0.00     0.002 A 
ATOM     85  C   UNL A   1      44.976  36.313  29.365  1.00  0.00     0.091 A 
ATOM     86  F   UNL A   1      43.642  34.976  27.908  1.00  0.00    -0.205 F 
ATOM     87  C   UNL A   1      45.707  36.429  30.558  1.00  0.00     0.022 A 
BRANCH  85  88
ATOM     88  S   UNL A   1      44.902  37.752  28.291  1.00  0.00     0.127 S 
ATOM     89  O   UNL A   1      43.512  38.173  28.451  1.00  0.00    -0.237 OA
ATOM     90  O   UNL A   1      45.884  38.652  28.899  1.00  0.00    -0.237 OA
ATOM     91  O   UNL A   1      45.270  37.273  26.966  1.00  0.00    -0.744 OA
ENDBRANCH  85  88
ENDBRANCH  58  81
ENDBRANCH  32  33
ENDBRANCH  25  27
ENDBRANCH  24  25
ENDBRANCH  23  24
ENDBRANCH   1  23
TORSDOF 18
ENDMDL
