MODEL 1
REMARK VINA RESULT:     -12.2      0.000      0.000
REMARK SMILES CCc1c(Cl)ccc2c1C=C(C(=O)OCCOC(=O)c1ccc(-c3c4nc(c(-c5cccc(S(=O)(=O)[O-])c5F)c5ccc([nH]5)c(-c5cccc(S(=O)(=O)[O-])c5F)c5nc(c(-c6cccc(S(=O)(=O)[O-])c6F)c6ccc3[nH]6)C=C5)C=C4)cc1)[C@@H](C(F)(F)F)O2
REMARK SMILES IDX 16 1 15 2 14 3 12 4 13 5 11 6 3 7 4 8 9 9 5 10 6 11 8 12
REMARK SMILES IDX 10 13 7 14 88 15 83 16 2 17 1 18 84 19 85 20 86 21 87 22
REMARK SMILES IDX 17 23 18 24 19 25 20 26 21 27 82 28 22 29 81 30 23 31 24 32
REMARK SMILES IDX 25 33 75 34 26 35 80 36 74 37 76 38 27 39 79 40 73 41 72 42
REMARK SMILES IDX 28 44 60 45 40 46 59 47 41 48 44 49 58 50 77 51 42 52 43 53
REMARK SMILES IDX 57 55 78 56 45 57 29 58 30 59 38 60 31 61 33 62 39 63 32 64
REMARK SMILES IDX 34 65 35 66 36 67 37 68 61 69 62 70 70 71 63 72 65 73 71 74
REMARK SMILES IDX 64 75 66 76 67 77 68 78 69 79 46 80 47 81 55 82 48 83 50 84
REMARK SMILES IDX 56 85 49 86 51 87 52 88 53 89 54 90
REMARK H PARENT 76 43 44 54
REMARK Flexibility Score: inf
ROOT
ATOM      1  C   UNL A   1      35.864  21.098  25.517  1.00  0.00     0.275 C 
ENDROOT
BRANCH   1   2
ATOM      2  C   UNL A   1      34.653  21.638  24.757  1.00  0.00     0.275 C 
BRANCH   2   3
ATOM      3  O   UNL A   1      34.539  23.072  24.887  1.00  0.00    -0.459 OA
BRANCH   3   4
ATOM      4  C   UNL A   1      33.561  23.519  25.712  1.00  0.00     0.338 C 
ATOM      5  O   UNL A   1      33.189  22.995  26.749  1.00  0.00    -0.246 OA
BRANCH   4   6
ATOM      6  C   UNL A   1      32.977  24.770  25.180  1.00  0.00     0.087 C 
ATOM      7  C   UNL A   1      32.503  28.355  26.136  1.00  0.00    -0.019 A 
ATOM      8  C   UNL A   1      31.776  29.452  25.626  1.00  0.00     0.045 A 
ATOM      9  C   UNL A   1      32.425  27.118  25.436  1.00  0.00     0.022 A 
ATOM     10  Cl  UNL A   1      31.762  31.003  26.395  1.00  0.00    -0.084 Cl
ATOM     11  C   UNL A   1      31.030  29.339  24.451  1.00  0.00     0.024 A 
ATOM     12  C   UNL A   1      31.711  27.040  24.229  1.00  0.00     0.128 A 
ATOM     13  C   UNL A   1      33.039  25.883  25.922  1.00  0.00     0.027 C 
ATOM     14  C   UNL A   1      31.014  28.143  23.745  1.00  0.00     0.048 A 
ATOM     15  O   UNL A   1      31.645  25.932  23.432  1.00  0.00    -0.475 OA
ATOM     16  C   UNL A   1      32.244  24.691  23.876  1.00  0.00     0.316 C 
BRANCH   7  17
ATOM     17  C   UNL A   1      33.362  28.536  27.379  1.00  0.00     0.034 C 
ATOM     18  C   UNL A   1      34.747  29.099  27.091  1.00  0.00     0.009 C 
ENDBRANCH   7  17
BRANCH  16  19
ATOM     19  C   UNL A   1      31.139  23.620  23.914  1.00  0.00     0.430 C 
ATOM     20  F   UNL A   1      31.652  22.378  23.728  1.00  0.00    -0.167 F 
ATOM     21  F   UNL A   1      30.502  23.592  25.110  1.00  0.00    -0.167 F 
ATOM     22  F   UNL A   1      30.201  23.816  22.961  1.00  0.00    -0.167 F 
ENDBRANCH  16  19
ENDBRANCH   4   6
ENDBRANCH   3   4
ENDBRANCH   2   3
ENDBRANCH   1   2
BRANCH   1  23
ATOM     23  O   UNL A   1      37.080  21.562  24.906  1.00  0.00    -0.458 OA
BRANCH  23  24
ATOM     24  C   UNL A   1      38.221  21.145  25.501  1.00  0.00     0.338 C 
ATOM     25  O   UNL A   1      38.727  20.037  25.445  1.00  0.00    -0.246 OA
BRANCH  24  26
ATOM     26  C   UNL A   1      38.854  22.288  26.173  1.00  0.00     0.060 A 
ATOM     27  C   UNL A   1      40.017  22.145  26.918  1.00  0.00     0.016 A 
ATOM     28  C   UNL A   1      38.331  23.552  25.932  1.00  0.00     0.016 A 
ATOM     29  C   UNL A   1      40.641  23.292  27.427  1.00  0.00     0.010 A 
ATOM     30  C   UNL A   1      39.025  24.691  26.320  1.00  0.00     0.010 A 
ATOM     31  C   UNL A   1      40.177  24.585  27.102  1.00  0.00    -0.014 A 
BRANCH  31  32
ATOM     32  C   UNL A   1      40.893  25.816  27.550  1.00  0.00     0.031 A 
ATOM     33  C   UNL A   1      42.320  26.096  27.130  1.00  0.00     0.074 A 
ATOM     34  C   UNL A   1      40.281  26.663  28.404  1.00  0.00     0.049 A 
ATOM     35  N   UNL A   1      43.079  27.118  27.437  1.00  0.00    -0.248 NA
ATOM     36  C   UNL A   1      43.006  25.085  26.305  1.00  0.00     0.031 C 
ATOM     37  C   UNL A   1      38.967  26.448  29.017  1.00  0.00     0.029 A 
ATOM     38  N   UNL A   1      40.677  27.881  28.901  1.00  0.00    -0.354 N 
ATOM     39  C   UNL A   1      44.332  26.844  26.898  1.00  0.00     0.074 A 
ATOM     40  C   UNL A   1      44.251  25.539  26.285  1.00  0.00     0.031 C 
ATOM     41  C   UNL A   1      38.635  27.528  29.742  1.00  0.00     0.029 A 
ATOM     42  C   UNL A   1      39.720  28.500  29.672  1.00  0.00     0.049 A 
ATOM     43  H   UNL A   1      41.563  28.274  28.723  1.00  0.00     0.167 HD
ATOM     44  C   UNL A   1      45.437  27.627  26.860  1.00  0.00     0.034 A 
ATOM     45  C   UNL A   1      39.700  29.723  30.236  1.00  0.00     0.034 A 
ATOM     46  C   UNL A   1      45.479  28.975  27.350  1.00  0.00     0.049 A 
ATOM     47  C   UNL A   1      40.876  30.638  30.047  1.00  0.00     0.074 A 
ATOM     48  C   UNL A   1      46.501  29.899  27.229  1.00  0.00     0.029 A 
ATOM     49  N   UNL A   1      44.447  29.602  28.027  1.00  0.00    -0.354 N 
ATOM     50  N   UNL A   1      41.992  30.414  29.399  1.00  0.00    -0.248 NA
ATOM     51  C   UNL A   1      40.781  31.982  30.636  1.00  0.00     0.031 C 
ATOM     52  C   UNL A   1      46.082  31.092  27.825  1.00  0.00     0.029 A 
ATOM     53  C   UNL A   1      44.799  30.907  28.316  1.00  0.00     0.049 A 
ATOM     54  H   UNL A   1      43.589  29.181  28.265  1.00  0.00     0.167 HD
ATOM     55  C   UNL A   1      42.727  31.590  29.488  1.00  0.00     0.074 A 
ATOM     56  C   UNL A   1      41.921  32.533  30.235  1.00  0.00     0.031 C 
ATOM     57  C   UNL A   1      43.966  31.852  29.011  1.00  0.00     0.034 A 
BRANCH  44  58
ATOM     58  C   UNL A   1      46.660  27.099  26.158  1.00  0.00     0.023 A 
ATOM     59  C   UNL A   1      46.783  27.286  24.766  1.00  0.00     0.012 A 
ATOM     60  C   UNL A   1      47.724  26.515  26.874  1.00  0.00     0.148 A 
ATOM     61  C   UNL A   1      47.933  26.879  24.092  1.00  0.00     0.002 A 
ATOM     62  C   UNL A   1      48.883  26.145  26.201  1.00  0.00     0.091 A 
ATOM     63  F   UNL A   1      47.585  26.343  28.197  1.00  0.00    -0.205 F 
ATOM     64  C   UNL A   1      48.985  26.318  24.810  1.00  0.00     0.022 A 
BRANCH  62  65
ATOM     65  S   UNL A   1      50.328  25.474  27.032  1.00  0.00     0.127 S 
ATOM     66  O   UNL A   1      51.234  25.240  25.909  1.00  0.00    -0.237 OA
ATOM     67  O   UNL A   1      50.716  26.580  27.907  1.00  0.00    -0.237 OA
ATOM     68  O   UNL A   1      49.878  24.274  27.723  1.00  0.00    -0.744 OA
ENDBRANCH  62  65
ENDBRANCH  44  58
BRANCH  45  69
ATOM     69  C   UNL A   1      38.463  30.188  30.921  1.00  0.00     0.023 A 
ATOM     70  C   UNL A   1      38.293  29.892  32.288  1.00  0.00     0.012 A 
ATOM     71  C   UNL A   1      37.508  30.985  30.264  1.00  0.00     0.148 A 
ATOM     72  C   UNL A   1      37.188  30.376  32.988  1.00  0.00     0.002 A 
ATOM     73  C   UNL A   1      36.429  31.496  30.976  1.00  0.00     0.091 A 
ATOM     74  F   UNL A   1      37.696  31.253  28.963  1.00  0.00    -0.205 F 
ATOM     75  C   UNL A   1      36.262  31.185  32.335  1.00  0.00     0.022 A 
BRANCH  73  76
ATOM     76  S   UNL A   1      35.240  32.633  30.255  1.00  0.00     0.127 S 
ATOM     77  O   UNL A   1      34.689  31.835  29.162  1.00  0.00    -0.237 OA
ATOM     78  O   UNL A   1      34.327  32.858  31.376  1.00  0.00    -0.237 OA
ATOM     79  O   UNL A   1      36.004  33.804  29.850  1.00  0.00    -0.744 OA
ENDBRANCH  73  76
ENDBRANCH  45  69
BRANCH  57  80
ATOM     80  C   UNL A   1      44.550  33.213  29.257  1.00  0.00     0.023 A 
ATOM     81  C   UNL A   1      45.268  33.446  30.445  1.00  0.00     0.012 A 
ATOM     82  C   UNL A   1      44.515  34.201  28.255  1.00  0.00     0.148 A 
ATOM     83  C   UNL A   1      45.945  34.649  30.634  1.00  0.00     0.002 A 
ATOM     84  C   UNL A   1      45.220  35.384  28.436  1.00  0.00     0.091 A 
ATOM     85  F   UNL A   1      43.818  33.953  27.136  1.00  0.00    -0.205 F 
ATOM     86  C   UNL A   1      45.932  35.612  29.625  1.00  0.00     0.022 A 
BRANCH  84  87
ATOM     87  S   UNL A   1      45.330  36.650  27.166  1.00  0.00     0.127 S 
ATOM     88  O   UNL A   1      46.196  37.639  27.806  1.00  0.00    -0.237 OA
ATOM     89  O   UNL A   1      45.949  35.923  26.058  1.00  0.00    -0.237 OA
ATOM     90  O   UNL A   1      43.965  37.094  26.916  1.00  0.00    -0.744 OA
ENDBRANCH  84  87
ENDBRANCH  57  80
ENDBRANCH  31  32
ENDBRANCH  24  26
ENDBRANCH  23  24
ENDBRANCH   1  23
TORSDOF 16
ENDMDL
MODEL 2
REMARK VINA RESULT:     -12.2      4.758      9.886
REMARK SMILES CCc1c(Cl)ccc2c1C=C(C(=O)OCCOC(=O)c1ccc(-c3c4nc(c(-c5cccc(S(=O)(=O)[O-])c5F)c5ccc([nH]5)c(-c5cccc(S(=O)(=O)[O-])c5F)c5nc(c(-c6cccc(S(=O)(=O)[O-])c6F)c6ccc3[nH]6)C=C5)C=C4)cc1)[C@@H](C(F)(F)F)O2
REMARK SMILES IDX 16 1 15 2 14 3 12 4 13 5 11 6 3 7 4 8 9 9 5 10 6 11 8 12
REMARK SMILES IDX 10 13 7 14 88 15 83 16 2 17 1 18 84 19 85 20 86 21 87 22
REMARK SMILES IDX 17 23 18 24 19 25 20 26 21 27 82 28 22 29 81 30 23 31 24 32
REMARK SMILES IDX 25 33 75 34 26 35 80 36 74 37 76 38 27 39 79 40 73 41 72 42
REMARK SMILES IDX 28 44 60 45 40 46 59 47 41 48 44 49 58 50 77 51 42 52 43 53
REMARK SMILES IDX 57 55 78 56 45 57 29 58 30 59 38 60 31 61 33 62 39 63 32 64
REMARK SMILES IDX 34 65 35 66 36 67 37 68 61 69 62 70 70 71 63 72 65 73 71 74
REMARK SMILES IDX 64 75 66 76 67 77 68 78 69 79 46 80 47 81 55 82 48 83 50 84
REMARK SMILES IDX 56 85 49 86 51 87 52 88 53 89 54 90
REMARK H PARENT 76 43 44 54
REMARK Flexibility Score: inf
ROOT
ATOM      1  C   UNL A   1      31.774  29.956  25.415  1.00  0.00     0.275 C 
ENDROOT
BRANCH   1   2
ATOM      2  C   UNL A   1      32.750  29.208  24.506  1.00  0.00     0.275 C 
BRANCH   2   3
ATOM      3  O   UNL A   1      32.688  27.781  24.720  1.00  0.00    -0.459 OA
BRANCH   3   4
ATOM      4  C   UNL A   1      33.223  27.008  23.744  1.00  0.00     0.338 C 
ATOM      5  O   UNL A   1      33.663  27.392  22.673  1.00  0.00    -0.246 OA
BRANCH   4   6
ATOM      6  C   UNL A   1      33.208  25.586  24.151  1.00  0.00     0.087 C 
ATOM      7  C   UNL A   1      35.552  22.715  24.653  1.00  0.00    -0.019 A 
ATOM      8  C   UNL A   1      35.421  21.329  24.888  1.00  0.00     0.045 A 
ATOM      9  C   UNL A   1      34.363  23.488  24.536  1.00  0.00     0.022 A 
ATOM     10  Cl  UNL A   1      36.785  20.271  25.023  1.00  0.00    -0.084 Cl
ATOM     11  C   UNL A   1      34.164  20.738  25.036  1.00  0.00     0.024 A 
ATOM     12  C   UNL A   1      33.111  22.884  24.739  1.00  0.00     0.128 A 
ATOM     13  C   UNL A   1      34.361  24.906  24.183  1.00  0.00     0.027 C 
ATOM     14  C   UNL A   1      33.015  21.516  24.982  1.00  0.00     0.048 A 
ATOM     15  O   UNL A   1      31.916  23.546  24.740  1.00  0.00    -0.475 OA
ATOM     16  C   UNL A   1      31.874  24.953  24.399  1.00  0.00     0.316 C 
BRANCH   7  17
ATOM     17  C   UNL A   1      36.939  23.334  24.569  1.00  0.00     0.034 C 
ATOM     18  C   UNL A   1      37.493  23.782  25.915  1.00  0.00     0.009 C 
ENDBRANCH   7  17
BRANCH  16  19
ATOM     19  C   UNL A   1      30.937  25.118  23.190  1.00  0.00     0.430 C 
ATOM     20  F   UNL A   1      30.216  26.264  23.279  1.00  0.00    -0.167 F 
ATOM     21  F   UNL A   1      31.624  25.193  22.024  1.00  0.00    -0.167 F 
ATOM     22  F   UNL A   1      30.058  24.097  23.077  1.00  0.00    -0.167 F 
ENDBRANCH  16  19
ENDBRANCH   4   6
ENDBRANCH   3   4
ENDBRANCH   2   3
ENDBRANCH   1   2
BRANCH   1  23
ATOM     23  O   UNL A   1      32.319  30.070  26.740  1.00  0.00    -0.458 OA
BRANCH  23  24
ATOM     24  C   UNL A   1      32.918  31.251  27.018  1.00  0.00     0.338 C 
ATOM     25  O   UNL A   1      32.428  32.365  26.956  1.00  0.00    -0.246 OA
BRANCH  24  26
ATOM     26  C   UNL A   1      34.270  30.991  27.528  1.00  0.00     0.060 A 
ATOM     27  C   UNL A   1      35.122  32.024  27.900  1.00  0.00     0.016 A 
ATOM     28  C   UNL A   1      34.635  29.671  27.759  1.00  0.00     0.016 A 
ATOM     29  C   UNL A   1      36.350  31.708  28.497  1.00  0.00     0.010 A 
ATOM     30  C   UNL A   1      35.786  29.368  28.475  1.00  0.00     0.010 A 
ATOM     31  C   UNL A   1      36.682  30.379  28.831  1.00  0.00    -0.014 A 
BRANCH  31  32
ATOM     32  C   UNL A   1      37.939  30.039  29.563  1.00  0.00     0.031 A 
ATOM     33  C   UNL A   1      38.188  30.528  30.974  1.00  0.00     0.074 A 
ATOM     34  C   UNL A   1      38.905  29.341  28.930  1.00  0.00     0.049 A 
ATOM     35  N   UNL A   1      39.228  30.321  31.742  1.00  0.00    -0.248 NA
ATOM     36  C   UNL A   1      37.171  31.400  31.589  1.00  0.00     0.031 C 
ATOM     37  C   UNL A   1      38.875  28.935  27.522  1.00  0.00     0.029 A 
ATOM     38  N   UNL A   1      40.100  28.840  29.388  1.00  0.00    -0.354 N 
ATOM     39  C   UNL A   1      39.017  31.077  32.890  1.00  0.00     0.074 A 
ATOM     40  C   UNL A   1      37.773  31.788  32.704  1.00  0.00     0.031 C 
ATOM     41  C   UNL A   1      39.955  28.185  27.254  1.00  0.00     0.029 A 
ATOM     42  C   UNL A   1      40.772  28.081  28.458  1.00  0.00     0.049 A 
ATOM     43  H   UNL A   1      40.442  29.009  30.295  1.00  0.00     0.167 HD
ATOM     44  C   UNL A   1      39.754  31.134  34.025  1.00  0.00     0.034 A 
ATOM     45  C   UNL A   1      41.902  27.354  28.565  1.00  0.00     0.034 A 
ATOM     46  C   UNL A   1      40.917  30.327  34.264  1.00  0.00     0.049 A 
ATOM     47  C   UNL A   1      42.620  27.305  29.883  1.00  0.00     0.074 A 
ATOM     48  C   UNL A   1      41.648  30.204  35.432  1.00  0.00     0.029 A 
ATOM     49  N   UNL A   1      41.500  29.486  33.332  1.00  0.00    -0.354 N 
ATOM     50  N   UNL A   1      42.314  27.908  31.005  1.00  0.00    -0.248 NA
ATOM     51  C   UNL A   1      43.816  26.454  29.963  1.00  0.00     0.031 C 
ATOM     52  C   UNL A   1      42.671  29.278  35.208  1.00  0.00     0.029 A 
ATOM     53  C   UNL A   1      42.573  28.827  33.901  1.00  0.00     0.049 A 
ATOM     54  H   UNL A   1      41.195  29.374  32.402  1.00  0.00     0.167 HD
ATOM     55  C   UNL A   1      43.269  27.500  31.929  1.00  0.00     0.074 A 
ATOM     56  C   UNL A   1      44.153  26.581  31.242  1.00  0.00     0.031 C 
ATOM     57  C   UNL A   1      43.409  27.873  33.222  1.00  0.00     0.034 A 
BRANCH  44  58
ATOM     58  C   UNL A   1      39.264  32.006  35.150  1.00  0.00     0.023 A 
ATOM     59  C   UNL A   1      38.356  31.468  36.085  1.00  0.00     0.012 A 
ATOM     60  C   UNL A   1      39.767  33.307  35.345  1.00  0.00     0.148 A 
ATOM     61  C   UNL A   1      37.937  32.217  37.183  1.00  0.00     0.002 A 
ATOM     62  C   UNL A   1      39.372  34.035  36.462  1.00  0.00     0.091 A 
ATOM     63  F   UNL A   1      40.626  33.801  34.442  1.00  0.00    -0.205 F 
ATOM     64  C   UNL A   1      38.452  33.496  37.376  1.00  0.00     0.022 A 
BRANCH  62  65
ATOM     65  S   UNL A   1      40.021  35.667  36.848  1.00  0.00     0.127 S 
ATOM     66  O   UNL A   1      39.557  36.448  35.702  1.00  0.00    -0.237 OA
ATOM     67  O   UNL A   1      39.343  35.973  38.108  1.00  0.00    -0.237 OA
ATOM     68  O   UNL A   1      41.465  35.516  36.949  1.00  0.00    -0.744 OA
ENDBRANCH  62  65
ENDBRANCH  44  58
BRANCH  45  69
ATOM     69  C   UNL A   1      42.339  26.515  27.416  1.00  0.00     0.023 A 
ATOM     70  C   UNL A   1      43.182  27.086  26.442  1.00  0.00     0.012 A 
ATOM     71  C   UNL A   1      42.005  25.152  27.327  1.00  0.00     0.148 A 
ATOM     72  C   UNL A   1      43.679  26.314  25.392  1.00  0.00     0.002 A 
ATOM     73  C   UNL A   1      42.535  24.379  26.300  1.00  0.00     0.091 A 
ATOM     74  F   UNL A   1      41.204  24.633  28.269  1.00  0.00    -0.205 F 
ATOM     75  C   UNL A   1      43.364  24.960  25.327  1.00  0.00     0.022 A 
BRANCH  73  76
ATOM     76  S   UNL A   1      42.277  22.604  26.186  1.00  0.00     0.127 S 
ATOM     77  O   UNL A   1      42.933  22.129  27.402  1.00  0.00    -0.237 OA
ATOM     78  O   UNL A   1      40.817  22.516  26.198  1.00  0.00    -0.237 OA
ATOM     79  O   UNL A   1      42.901  22.191  24.937  1.00  0.00    -0.744 OA
ENDBRANCH  73  76
ENDBRANCH  45  69
BRANCH  57  80
ATOM     80  C   UNL A   1      44.548  27.292  34.011  1.00  0.00     0.023 A 
ATOM     81  C   UNL A   1      45.754  28.011  34.102  1.00  0.00     0.012 A 
ATOM     82  C   UNL A   1      44.370  26.123  34.774  1.00  0.00     0.148 A 
ATOM     83  C   UNL A   1      46.774  27.572  34.944  1.00  0.00     0.002 A 
ATOM     84  C   UNL A   1      45.377  25.710  35.637  1.00  0.00     0.091 A 
ATOM     85  F   UNL A   1      43.212  25.456  34.661  1.00  0.00    -0.205 F 
ATOM     86  C   UNL A   1      46.581  26.430  35.720  1.00  0.00     0.022 A 
BRANCH  84  87
ATOM     87  S   UNL A   1      45.194  24.299  36.734  1.00  0.00     0.127 S 
ATOM     88  O   UNL A   1      44.332  24.846  37.781  1.00  0.00    -0.237 OA
ATOM     89  O   UNL A   1      44.550  23.314  35.866  1.00  0.00    -0.237 OA
ATOM     90  O   UNL A   1      46.540  23.944  37.165  1.00  0.00    -0.744 OA
ENDBRANCH  84  87
ENDBRANCH  57  80
ENDBRANCH  31  32
ENDBRANCH  24  26
ENDBRANCH  23  24
ENDBRANCH   1  23
TORSDOF 16
ENDMDL
MODEL 3
REMARK VINA RESULT:     -12.0      5.083      9.980
REMARK SMILES CCc1c(Cl)ccc2c1C=C(C(=O)OCCOC(=O)c1ccc(-c3c4nc(c(-c5cccc(S(=O)(=O)[O-])c5F)c5ccc([nH]5)c(-c5cccc(S(=O)(=O)[O-])c5F)c5nc(c(-c6cccc(S(=O)(=O)[O-])c6F)c6ccc3[nH]6)C=C5)C=C4)cc1)[C@@H](C(F)(F)F)O2
REMARK SMILES IDX 16 1 15 2 14 3 12 4 13 5 11 6 3 7 4 8 9 9 5 10 6 11 8 12
REMARK SMILES IDX 10 13 7 14 88 15 83 16 2 17 1 18 84 19 85 20 86 21 87 22
REMARK SMILES IDX 17 23 18 24 19 25 20 26 21 27 82 28 22 29 81 30 23 31 24 32
REMARK SMILES IDX 25 33 75 34 26 35 80 36 74 37 76 38 27 39 79 40 73 41 72 42
REMARK SMILES IDX 28 44 60 45 40 46 59 47 41 48 44 49 58 50 77 51 42 52 43 53
REMARK SMILES IDX 57 55 78 56 45 57 29 58 30 59 38 60 31 61 33 62 39 63 32 64
REMARK SMILES IDX 34 65 35 66 36 67 37 68 61 69 62 70 70 71 63 72 65 73 71 74
REMARK SMILES IDX 64 75 66 76 67 77 68 78 69 79 46 80 47 81 55 82 48 83 50 84
REMARK SMILES IDX 56 85 49 86 51 87 52 88 53 89 54 90
REMARK H PARENT 76 43 44 54
REMARK Flexibility Score: inf
ROOT
ATOM      1  C   UNL A   1      31.736  30.791  26.222  1.00  0.00     0.275 C 
ENDROOT
BRANCH   1   2
ATOM      2  C   UNL A   1      31.627  29.708  25.149  1.00  0.00     0.275 C 
BRANCH   2   3
ATOM      3  O   UNL A   1      32.239  28.472  25.578  1.00  0.00    -0.459 OA
BRANCH   3   4
ATOM      4  C   UNL A   1      33.240  28.000  24.795  1.00  0.00     0.338 C 
ATOM      5  O   UNL A   1      34.193  28.634  24.372  1.00  0.00    -0.246 OA
BRANCH   4   6
ATOM      6  C   UNL A   1      33.028  26.565  24.505  1.00  0.00     0.087 C 
ATOM      7  C   UNL A   1      34.663  23.247  25.065  1.00  0.00    -0.019 A 
ATOM      8  C   UNL A   1      34.466  21.929  24.600  1.00  0.00     0.045 A 
ATOM      9  C   UNL A   1      33.774  24.259  24.604  1.00  0.00     0.022 A 
ATOM     10  Cl  UNL A   1      35.492  20.613  25.059  1.00  0.00    -0.084 Cl
ATOM     11  C   UNL A   1      33.410  21.617  23.742  1.00  0.00     0.024 A 
ATOM     12  C   UNL A   1      32.688  23.915  23.783  1.00  0.00     0.128 A 
ATOM     13  C   UNL A   1      33.939  25.675  24.922  1.00  0.00     0.027 C 
ATOM     14  C   UNL A   1      32.512  22.603  23.351  1.00  0.00     0.048 A 
ATOM     15  O   UNL A   1      31.724  24.786  23.358  1.00  0.00    -0.475 OA
ATOM     16  C   UNL A   1      31.851  26.197  23.656  1.00  0.00     0.316 C 
BRANCH   7  17
ATOM     17  C   UNL A   1      35.782  23.534  26.055  1.00  0.00     0.034 C 
ATOM     18  C   UNL A   1      37.142  23.737  25.403  1.00  0.00     0.009 C 
ENDBRANCH   7  17
BRANCH  16  19
ATOM     19  C   UNL A   1      31.856  26.964  22.322  1.00  0.00     0.430 C 
ATOM     20  F   UNL A   1      31.164  28.126  22.419  1.00  0.00    -0.167 F 
ATOM     21  F   UNL A   1      33.111  27.301  21.937  1.00  0.00    -0.167 F 
ATOM     22  F   UNL A   1      31.304  26.249  21.316  1.00  0.00    -0.167 F 
ENDBRANCH  16  19
ENDBRANCH   4   6
ENDBRANCH   3   4
ENDBRANCH   2   3
ENDBRANCH   1   2
BRANCH   1  23
ATOM     23  O   UNL A   1      32.888  30.554  27.050  1.00  0.00    -0.458 OA
BRANCH  23  24
ATOM     24  C   UNL A   1      33.561  31.663  27.435  1.00  0.00     0.338 C 
ATOM     25  O   UNL A   1      33.137  32.803  27.503  1.00  0.00    -0.246 OA
BRANCH  24  26
ATOM     26  C   UNL A   1      34.905  31.274  27.879  1.00  0.00     0.060 A 
ATOM     27  C   UNL A   1      35.893  32.217  28.131  1.00  0.00     0.016 A 
ATOM     28  C   UNL A   1      35.130  29.935  28.174  1.00  0.00     0.016 A 
ATOM     29  C   UNL A   1      37.114  31.793  28.674  1.00  0.00     0.010 A 
ATOM     30  C   UNL A   1      36.284  29.539  28.838  1.00  0.00     0.010 A 
ATOM     31  C   UNL A   1      37.313  30.454  29.073  1.00  0.00    -0.014 A 
BRANCH  31  32
ATOM     32  C   UNL A   1      38.568  30.010  29.749  1.00  0.00     0.031 A 
ATOM     33  C   UNL A   1      38.919  30.476  31.146  1.00  0.00     0.074 A 
ATOM     34  C   UNL A   1      39.443  29.235  29.076  1.00  0.00     0.049 A 
ATOM     35  N   UNL A   1      39.972  30.182  31.867  1.00  0.00    -0.248 NA
ATOM     36  C   UNL A   1      38.007  31.429  31.804  1.00  0.00     0.031 C 
ATOM     37  C   UNL A   1      39.316  28.834  27.671  1.00  0.00     0.029 A 
ATOM     38  N   UNL A   1      40.611  28.636  29.481  1.00  0.00    -0.354 N 
ATOM     39  C   UNL A   1      39.876  30.952  33.022  1.00  0.00     0.074 A 
ATOM     40  C   UNL A   1      38.689  31.765  32.890  1.00  0.00     0.031 C 
ATOM     41  C   UNL A   1      40.317  27.997  27.357  1.00  0.00     0.029 A 
ATOM     42  C   UNL A   1      41.175  27.824  28.524  1.00  0.00     0.049 A 
ATOM     43  H   UNL A   1      41.007  28.775  30.372  1.00  0.00     0.167 HD
ATOM     44  C   UNL A   1      40.665  30.947  34.122  1.00  0.00     0.034 A 
ATOM     45  C   UNL A   1      42.244  27.005  28.583  1.00  0.00     0.034 A 
ATOM     46  C   UNL A   1      41.766  30.045  34.312  1.00  0.00     0.049 A 
ATOM     47  C   UNL A   1      43.014  26.895  29.868  1.00  0.00     0.074 A 
ATOM     48  C   UNL A   1      42.536  29.861  35.446  1.00  0.00     0.029 A 
ATOM     49  N   UNL A   1      42.235  29.159  33.357  1.00  0.00    -0.354 N 
ATOM     50  N   UNL A   1      42.810  27.520  31.001  1.00  0.00    -0.248 NA
ATOM     51  C   UNL A   1      44.138  25.947  29.897  1.00  0.00     0.031 C 
ATOM     52  C   UNL A   1      43.467  28.852  35.180  1.00  0.00     0.029 A 
ATOM     53  C   UNL A   1      43.274  28.412  33.880  1.00  0.00     0.049 A 
ATOM     54  H   UNL A   1      41.880  29.074  32.442  1.00  0.00     0.167 HD
ATOM     55  C   UNL A   1      43.768  27.034  31.882  1.00  0.00     0.074 A 
ATOM     56  C   UNL A   1      44.540  26.044  31.159  1.00  0.00     0.031 C 
ATOM     57  C   UNL A   1      43.996  27.392  33.167  1.00  0.00     0.034 A 
BRANCH  44  58
ATOM     58  C   UNL A   1      40.300  31.855  35.266  1.00  0.00     0.023 A 
ATOM     59  C   UNL A   1      40.951  33.100  35.384  1.00  0.00     0.012 A 
ATOM     60  C   UNL A   1      39.258  31.532  36.158  1.00  0.00     0.148 A 
ATOM     61  C   UNL A   1      40.590  34.001  36.383  1.00  0.00     0.002 A 
ATOM     62  C   UNL A   1      38.879  32.451  37.130  1.00  0.00     0.091 A 
ATOM     63  F   UNL A   1      38.656  30.341  36.031  1.00  0.00    -0.205 F 
ATOM     64  C   UNL A   1      39.548  33.680  37.250  1.00  0.00     0.022 A 
BRANCH  62  65
ATOM     65  S   UNL A   1      37.507  32.173  38.258  1.00  0.00     0.127 S 
ATOM     66  O   UNL A   1      37.294  30.734  38.116  1.00  0.00    -0.237 OA
ATOM     67  O   UNL A   1      38.082  32.579  39.541  1.00  0.00    -0.237 OA
ATOM     68  O   UNL A   1      36.415  33.010  37.783  1.00  0.00    -0.744 OA
ENDBRANCH  62  65
ENDBRANCH  44  58
BRANCH  45  69
ATOM     69  C   UNL A   1      42.558  26.134  27.418  1.00  0.00     0.023 A 
ATOM     70  C   UNL A   1      43.403  26.632  26.407  1.00  0.00     0.012 A 
ATOM     71  C   UNL A   1      42.107  24.804  27.347  1.00  0.00     0.148 A 
ATOM     72  C   UNL A   1      43.787  25.822  25.338  1.00  0.00     0.002 A 
ATOM     73  C   UNL A   1      42.524  23.990  26.300  1.00  0.00     0.091 A 
ATOM     74  F   UNL A   1      41.307  24.354  28.324  1.00  0.00    -0.205 F 
ATOM     75  C   UNL A   1      43.356  24.500  25.290  1.00  0.00     0.022 A 
BRANCH  73  76
ATOM     76  S   UNL A   1      42.112  22.244  26.202  1.00  0.00     0.127 S 
ATOM     77  O   UNL A   1      42.813  21.840  24.986  1.00  0.00    -0.237 OA
ATOM     78  O   UNL A   1      42.689  21.732  27.445  1.00  0.00    -0.237 OA
ATOM     79  O   UNL A   1      40.659  22.182  26.136  1.00  0.00    -0.744 OA
ENDBRANCH  73  76
ENDBRANCH  45  69
BRANCH  57  80
ATOM     80  C   UNL A   1      45.116  26.718  33.906  1.00  0.00     0.023 A 
ATOM     81  C   UNL A   1      46.401  27.291  33.873  1.00  0.00     0.012 A 
ATOM     82  C   UNL A   1      44.863  25.615  34.743  1.00  0.00     0.148 A 
ATOM     83  C   UNL A   1      47.424  26.774  34.666  1.00  0.00     0.002 A 
ATOM     84  C   UNL A   1      45.878  25.126  35.556  1.00  0.00     0.091 A 
ATOM     85  F   UNL A   1      43.631  25.087  34.748  1.00  0.00    -0.205 F 
ATOM     86  C   UNL A   1      47.159  25.701  35.516  1.00  0.00     0.022 A 
BRANCH  84  87
ATOM     87  S   UNL A   1      45.617  23.801  36.740  1.00  0.00     0.127 S 
ATOM     88  O   UNL A   1      44.983  22.779  35.909  1.00  0.00    -0.237 OA
ATOM     89  O   UNL A   1      46.984  23.487  37.158  1.00  0.00    -0.237 OA
ATOM     90  O   UNL A   1      44.772  24.355  37.789  1.00  0.00    -0.744 OA
ENDBRANCH  84  87
ENDBRANCH  57  80
ENDBRANCH  31  32
ENDBRANCH  24  26
ENDBRANCH  23  24
ENDBRANCH   1  23
TORSDOF 16
ENDMDL
