MODEL 1
REMARK VINA RESULT:     -12.8      0.000      0.000
REMARK SMILES O=C(OCCOC(=O)c1ccc2c(c1)[C@@H](C1CCOCC1)C(=O)N2)c1ccc(-c2c3nc(c(-c4cccc(S(=O)(=O)[O-])c4F)c4ccc([nH]4)c(-c4cccc(S(=O)(=O)[O-])c4F)c4nc(c(-c5cccc(S(=O)(=O)[O-])c5F)c5ccc2[nH]5)C=C4)C=C3)cc1
REMARK SMILES IDX 4 1 3 2 2 3 1 4 25 5 26 6 87 7 27 8 86 9 28 10 29 11 30 12
REMARK SMILES IDX 80 13 31 14 85 15 79 16 81 17 32 18 84 19 78 20 77 21 33 23
REMARK SMILES IDX 65 24 45 25 64 26 46 27 49 28 63 29 82 30 47 31 48 32 62 34
REMARK SMILES IDX 83 35 50 36 34 37 35 38 43 39 36 40 38 41 44 42 37 43 39 44
REMARK SMILES IDX 40 45 41 46 42 47 66 48 67 49 75 50 68 51 70 52 76 53 69 54
REMARK SMILES IDX 71 55 72 56 73 57 74 58 51 59 52 60 60 61 53 62 55 63 61 64
REMARK SMILES IDX 54 65 56 66 57 67 58 68 59 69 5 70 6 71 7 72 8 73 9 74 10 75
REMARK SMILES IDX 14 76 11 77 13 78 12 79 15 80 24 81 22 82 23 84 16 85 17 86
REMARK SMILES IDX 21 87 18 88 20 89 19 90
REMARK H PARENT 81 22 49 33 24 83
REMARK Flexibility Score: inf
ROOT
ATOM      1  C   UNL A   1      43.600  21.625  25.613  1.00  0.00     0.275 C 
ENDROOT
BRANCH   1   2
ATOM      2  O   UNL A   1      43.158  22.816  24.950  1.00  0.00    -0.458 OA
BRANCH   2   3
ATOM      3  C   UNL A   1      43.768  24.023  24.913  1.00  0.00     0.338 C 
ATOM      4  O   UNL A   1      44.813  24.149  24.278  1.00  0.00    -0.246 OA
BRANCH   3   5
ATOM      5  C   UNL A   1      43.308  25.175  25.745  1.00  0.00     0.060 A 
ATOM      6  C   UNL A   1      43.690  26.519  25.634  1.00  0.00     0.016 A 
ATOM      7  C   UNL A   1      42.382  24.842  26.729  1.00  0.00     0.016 A 
ATOM      8  C   UNL A   1      43.117  27.512  26.455  1.00  0.00     0.010 A 
ATOM      9  C   UNL A   1      41.746  25.836  27.461  1.00  0.00     0.010 A 
ATOM     10  C   UNL A   1      42.150  27.163  27.390  1.00  0.00    -0.014 A 
BRANCH  10  11
ATOM     11  C   UNL A   1      41.685  28.012  28.510  1.00  0.00     0.031 A 
ATOM     12  C   UNL A   1      42.329  27.784  29.855  1.00  0.00     0.074 A 
ATOM     13  C   UNL A   1      40.550  28.728  28.414  1.00  0.00     0.049 A 
ATOM     14  N   UNL A   1      42.032  28.304  31.014  1.00  0.00    -0.248 NA
ATOM     15  C   UNL A   1      43.438  26.810  29.901  1.00  0.00     0.031 C 
ATOM     16  C   UNL A   1      39.764  28.904  27.196  1.00  0.00     0.029 A 
ATOM     17  N   UNL A   1      39.814  29.360  29.384  1.00  0.00    -0.354 N 
ATOM     18  C   UNL A   1      42.928  27.741  31.916  1.00  0.00     0.074 A 
ATOM     19  C   UNL A   1      43.714  26.769  31.194  1.00  0.00     0.031 C 
ATOM     20  C   UNL A   1      38.604  29.510  27.510  1.00  0.00     0.029 A 
ATOM     21  C   UNL A   1      38.582  29.784  28.944  1.00  0.00     0.049 A 
ATOM     22  H   UNL A   1      40.135  29.496  30.305  1.00  0.00     0.167 HD
ATOM     23  C   UNL A   1      43.121  28.052  33.219  1.00  0.00     0.034 A 
ATOM     24  C   UNL A   1      37.552  30.323  29.627  1.00  0.00     0.034 A 
ATOM     25  C   UNL A   1      42.304  28.997  33.922  1.00  0.00     0.049 A 
ATOM     26  C   UNL A   1      37.750  30.661  31.080  1.00  0.00     0.074 A 
ATOM     27  C   UNL A   1      42.472  29.516  35.191  1.00  0.00     0.029 A 
ATOM     28  N   UNL A   1      41.128  29.531  33.417  1.00  0.00    -0.354 N 
ATOM     29  N   UNL A   1      38.763  30.367  31.858  1.00  0.00    -0.248 NA
ATOM     30  C   UNL A   1      36.714  31.478  31.727  1.00  0.00     0.031 C 
ATOM     31  C   UNL A   1      41.370  30.334  35.469  1.00  0.00     0.029 A 
ATOM     32  C   UNL A   1      40.543  30.359  34.354  1.00  0.00     0.049 A 
ATOM     33  H   UNL A   1      40.762  29.345  32.522  1.00  0.00     0.167 HD
ATOM     34  C   UNL A   1      38.530  31.027  33.059  1.00  0.00     0.074 A 
ATOM     35  C   UNL A   1      37.262  31.714  32.914  1.00  0.00     0.031 C 
ATOM     36  C   UNL A   1      39.309  31.079  34.168  1.00  0.00     0.034 A 
BRANCH  23  37
ATOM     37  C   UNL A   1      44.295  27.412  33.915  1.00  0.00     0.023 A 
ATOM     38  C   UNL A   1      45.568  28.017  33.818  1.00  0.00     0.012 A 
ATOM     39  C   UNL A   1      44.154  26.231  34.665  1.00  0.00     0.148 A 
ATOM     40  C   UNL A   1      46.690  27.424  34.391  1.00  0.00     0.002 A 
ATOM     41  C   UNL A   1      45.270  25.671  35.279  1.00  0.00     0.091 A 
ATOM     42  F   UNL A   1      42.944  25.658  34.741  1.00  0.00    -0.205 F 
ATOM     43  C   UNL A   1      46.540  26.254  35.126  1.00  0.00     0.022 A 
BRANCH  41  44
ATOM     44  S   UNL A   1      45.174  24.216  36.326  1.00  0.00     0.127 S 
ATOM     45  O   UNL A   1      46.586  23.865  36.476  1.00  0.00    -0.237 OA
ATOM     46  O   UNL A   1      44.549  24.750  37.537  1.00  0.00    -0.237 OA
ATOM     47  O   UNL A   1      44.358  23.253  35.600  1.00  0.00    -0.744 OA
ENDBRANCH  41  44
ENDBRANCH  23  37
BRANCH  24  48
ATOM     48  C   UNL A   1      36.291  30.658  28.911  1.00  0.00     0.023 A 
ATOM     49  C   UNL A   1      35.507  29.629  28.355  1.00  0.00     0.012 A 
ATOM     50  C   UNL A   1      35.832  31.988  28.843  1.00  0.00     0.148 A 
ATOM     51  C   UNL A   1      34.299  29.921  27.719  1.00  0.00     0.002 A 
ATOM     52  C   UNL A   1      34.612  32.267  28.236  1.00  0.00     0.091 A 
ATOM     53  F   UNL A   1      36.585  32.947  29.402  1.00  0.00    -0.205 F 
ATOM     54  C   UNL A   1      33.849  31.237  27.664  1.00  0.00     0.022 A 
BRANCH  52  55
ATOM     55  S   UNL A   1      33.896  33.915  28.212  1.00  0.00     0.127 S 
ATOM     56  O   UNL A   1      34.838  34.638  27.360  1.00  0.00    -0.237 OA
ATOM     57  O   UNL A   1      32.589  33.660  27.609  1.00  0.00    -0.237 OA
ATOM     58  O   UNL A   1      33.850  34.341  29.604  1.00  0.00    -0.744 OA
ENDBRANCH  52  55
ENDBRANCH  24  48
BRANCH  36  59
ATOM     59  C   UNL A   1      38.877  31.971  35.298  1.00  0.00     0.023 A 
ATOM     60  C   UNL A   1      38.055  31.474  36.326  1.00  0.00     0.012 A 
ATOM     61  C   UNL A   1      39.422  33.268  35.406  1.00  0.00     0.148 A 
ATOM     62  C   UNL A   1      37.773  32.261  37.443  1.00  0.00     0.002 A 
ATOM     63  C   UNL A   1      39.183  34.022  36.546  1.00  0.00     0.091 A 
ATOM     64  F   UNL A   1      40.187  33.724  34.402  1.00  0.00    -0.205 F 
ATOM     65  C   UNL A   1      38.352  33.525  37.562  1.00  0.00     0.022 A 
BRANCH  63  66
ATOM     66  S   UNL A   1      39.978  35.607  36.835  1.00  0.00     0.127 S 
ATOM     67  O   UNL A   1      39.425  35.984  38.135  1.00  0.00    -0.237 OA
ATOM     68  O   UNL A   1      41.394  35.241  36.857  1.00  0.00    -0.237 OA
ATOM     69  O   UNL A   1      39.589  36.465  35.725  1.00  0.00    -0.744 OA
ENDBRANCH  63  66
ENDBRANCH  36  59
ENDBRANCH  10  11
ENDBRANCH   3   5
ENDBRANCH   2   3
ENDBRANCH   1   2
BRANCH   1  70
ATOM     70  C   UNL A   1      42.498  20.662  26.064  1.00  0.00     0.275 C 
BRANCH  70  71
ATOM     71  O   UNL A   1      41.157  21.092  25.775  1.00  0.00    -0.458 OA
BRANCH  71  72
ATOM     72  C   UNL A   1      40.408  21.497  26.844  1.00  0.00     0.338 C 
ATOM     73  O   UNL A   1      40.702  21.383  28.013  1.00  0.00    -0.246 OA
BRANCH  72  74
ATOM     74  C   UNL A   1      39.186  22.191  26.346  1.00  0.00     0.060 A 
ATOM     75  C   UNL A   1      38.976  23.540  26.692  1.00  0.00     0.018 A 
ATOM     76  C   UNL A   1      38.229  21.479  25.579  1.00  0.00     0.022 A 
ATOM     77  C   UNL A   1      37.806  24.187  26.296  1.00  0.00     0.027 A 
ATOM     78  C   UNL A   1      37.012  22.097  25.289  1.00  0.00    -0.011 A 
ATOM     79  C   UNL A   1      36.849  23.443  25.630  1.00  0.00     0.045 A 
ATOM     80  C   UNL A   1      35.769  21.631  24.539  1.00  0.00     0.114 C 
ATOM     81  N   UNL A   1      35.621  23.906  25.197  1.00  0.00    -0.325 N 
ATOM     82  C   UNL A   1      34.907  22.923  24.535  1.00  0.00     0.232 C 
ATOM     83  H   UNL A   1      35.295  24.824  25.342  1.00  0.00     0.169 HD
ATOM     84  O   UNL A   1      33.816  23.069  24.011  1.00  0.00    -0.274 OA
BRANCH  80  85
ATOM     85  C   UNL A   1      34.952  20.357  24.960  1.00  0.00     0.010 C 
ATOM     86  C   UNL A   1      35.697  19.091  24.467  1.00  0.00     0.033 C 
ATOM     87  C   UNL A   1      33.489  20.239  24.471  1.00  0.00     0.033 C 
ATOM     88  C   UNL A   1      34.953  17.804  24.798  1.00  0.00     0.160 C 
ATOM     89  C   UNL A   1      32.859  18.878  24.773  1.00  0.00     0.160 C 
ATOM     90  O   UNL A   1      33.644  17.819  24.249  1.00  0.00    -0.381 OA
ENDBRANCH  80  85
ENDBRANCH  72  74
ENDBRANCH  71  72
ENDBRANCH  70  71
ENDBRANCH   1  70
TORSDOF 15
ENDMDL
MODEL 2
REMARK VINA RESULT:     -12.5      2.745      9.161
REMARK SMILES O=C(OCCOC(=O)c1ccc2c(c1)[C@@H](C1CCOCC1)C(=O)N2)c1ccc(-c2c3nc(c(-c4cccc(S(=O)(=O)[O-])c4F)c4ccc([nH]4)c(-c4cccc(S(=O)(=O)[O-])c4F)c4nc(c(-c5cccc(S(=O)(=O)[O-])c5F)c5ccc2[nH]5)C=C4)C=C3)cc1
REMARK SMILES IDX 4 1 3 2 2 3 1 4 25 5 26 6 87 7 27 8 86 9 28 10 29 11 30 12
REMARK SMILES IDX 80 13 31 14 85 15 79 16 81 17 32 18 84 19 78 20 77 21 33 23
REMARK SMILES IDX 65 24 45 25 64 26 46 27 49 28 63 29 82 30 47 31 48 32 62 34
REMARK SMILES IDX 83 35 50 36 34 37 35 38 43 39 36 40 38 41 44 42 37 43 39 44
REMARK SMILES IDX 40 45 41 46 42 47 66 48 67 49 75 50 68 51 70 52 76 53 69 54
REMARK SMILES IDX 71 55 72 56 73 57 74 58 51 59 52 60 60 61 53 62 55 63 61 64
REMARK SMILES IDX 54 65 56 66 57 67 58 68 59 69 5 70 6 71 7 72 8 73 9 74 10 75
REMARK SMILES IDX 14 76 11 77 13 78 12 79 15 80 24 81 22 82 23 84 16 85 17 86
REMARK SMILES IDX 21 87 18 88 20 89 19 90
REMARK H PARENT 81 22 49 33 24 83
REMARK Flexibility Score: inf
ROOT
ATOM      1  C   UNL A   1      32.063  33.097  26.876  1.00  0.00     0.275 C 
ENDROOT
BRANCH   1   2
ATOM      2  O   UNL A   1      32.951  33.317  27.979  1.00  0.00    -0.458 OA
BRANCH   2   3
ATOM      3  C   UNL A   1      34.294  33.469  27.947  1.00  0.00     0.338 C 
ATOM      4  O   UNL A   1      34.775  34.440  27.365  1.00  0.00    -0.246 OA
BRANCH   3   5
ATOM      5  C   UNL A   1      35.228  32.421  28.455  1.00  0.00     0.060 A 
ATOM      6  C   UNL A   1      34.938  31.078  28.738  1.00  0.00     0.016 A 
ATOM      7  C   UNL A   1      36.535  32.857  28.648  1.00  0.00     0.016 A 
ATOM      8  C   UNL A   1      35.946  30.184  29.154  1.00  0.00     0.010 A 
ATOM      9  C   UNL A   1      37.542  31.950  28.954  1.00  0.00     0.010 A 
ATOM     10  C   UNL A   1      37.256  30.630  29.281  1.00  0.00    -0.014 A 
BRANCH  10  11
ATOM     11  C   UNL A   1      38.347  29.918  29.983  1.00  0.00     0.031 A 
ATOM     12  C   UNL A   1      38.792  30.482  31.309  1.00  0.00     0.074 A 
ATOM     13  C   UNL A   1      39.105  29.006  29.345  1.00  0.00     0.049 A 
ATOM     14  N   UNL A   1      39.791  30.125  32.068  1.00  0.00    -0.248 NA
ATOM     15  C   UNL A   1      38.024  31.630  31.831  1.00  0.00     0.031 C 
ATOM     16  C   UNL A   1      38.851  28.489  28.004  1.00  0.00     0.029 A 
ATOM     17  N   UNL A   1      40.296  28.430  29.709  1.00  0.00    -0.354 N 
ATOM     18  C   UNL A   1      39.755  30.983  33.162  1.00  0.00     0.074 A 
ATOM     19  C   UNL A   1      38.701  31.940  32.923  1.00  0.00     0.031 C 
ATOM     20  C   UNL A   1      39.907  27.750  27.614  1.00  0.00     0.029 A 
ATOM     21  C   UNL A   1      40.894  27.726  28.690  1.00  0.00     0.049 A 
ATOM     22  H   UNL A   1      40.684  28.513  30.610  1.00  0.00     0.167 HD
ATOM     23  C   UNL A   1      40.495  30.939  34.294  1.00  0.00     0.034 A 
ATOM     24  C   UNL A   1      42.107  27.140  28.633  1.00  0.00     0.034 A 
ATOM     25  C   UNL A   1      41.559  29.999  34.491  1.00  0.00     0.049 A 
ATOM     26  C   UNL A   1      42.945  27.096  29.883  1.00  0.00     0.074 A 
ATOM     27  C   UNL A   1      42.291  29.743  35.633  1.00  0.00     0.029 A 
ATOM     28  N   UNL A   1      42.071  29.188  33.490  1.00  0.00    -0.354 N 
ATOM     29  N   UNL A   1      42.734  27.693  31.031  1.00  0.00    -0.248 NA
ATOM     30  C   UNL A   1      44.133  26.231  29.865  1.00  0.00     0.031 C 
ATOM     31  C   UNL A   1      43.277  28.803  35.309  1.00  0.00     0.029 A 
ATOM     32  C   UNL A   1      43.126  28.442  33.977  1.00  0.00     0.049 A 
ATOM     33  H   UNL A   1      41.734  29.150  32.565  1.00  0.00     0.167 HD
ATOM     34  C   UNL A   1      43.713  27.218  31.896  1.00  0.00     0.074 A 
ATOM     35  C   UNL A   1      44.535  26.303  31.129  1.00  0.00     0.031 C 
ATOM     36  C   UNL A   1      43.895  27.494  33.211  1.00  0.00     0.034 A 
BRANCH  23  37
ATOM     37  C   UNL A   1      40.116  31.886  35.404  1.00  0.00     0.023 A 
ATOM     38  C   UNL A   1      40.864  33.071  35.584  1.00  0.00     0.012 A 
ATOM     39  C   UNL A   1      39.033  31.623  36.262  1.00  0.00     0.148 A 
ATOM     40  C   UNL A   1      40.588  33.940  36.637  1.00  0.00     0.002 A 
ATOM     41  C   UNL A   1      38.730  32.521  37.279  1.00  0.00     0.091 A 
ATOM     42  F   UNL A   1      38.338  30.489  36.089  1.00  0.00    -0.205 F 
ATOM     43  C   UNL A   1      39.518  33.668  37.482  1.00  0.00     0.022 A 
BRANCH  41  44
ATOM     44  S   UNL A   1      37.317  32.315  38.368  1.00  0.00     0.127 S 
ATOM     45  O   UNL A   1      37.801  32.933  39.601  1.00  0.00    -0.237 OA
ATOM     46  O   UNL A   1      36.280  33.078  37.672  1.00  0.00    -0.237 OA
ATOM     47  O   UNL A   1      37.069  30.881  38.435  1.00  0.00    -0.744 OA
ENDBRANCH  41  44
ENDBRANCH  23  37
BRANCH  24  48
ATOM     48  C   UNL A   1      42.540  26.469  27.377  1.00  0.00     0.023 A 
ATOM     49  C   UNL A   1      43.238  27.201  26.399  1.00  0.00     0.012 A 
ATOM     50  C   UNL A   1      42.323  25.091  27.183  1.00  0.00     0.148 A 
ATOM     51  C   UNL A   1      43.692  26.578  25.234  1.00  0.00     0.002 A 
ATOM     52  C   UNL A   1      42.807  24.470  26.036  1.00  0.00     0.091 A 
ATOM     53  F   UNL A   1      41.677  24.410  28.142  1.00  0.00    -0.205 F 
ATOM     54  C   UNL A   1      43.482  25.214  25.055  1.00  0.00     0.022 A 
BRANCH  52  55
ATOM     55  S   UNL A   1      42.681  22.698  25.766  1.00  0.00     0.127 S 
ATOM     56  O   UNL A   1      43.092  22.579  24.369  1.00  0.00    -0.237 OA
ATOM     57  O   UNL A   1      43.642  22.183  26.739  1.00  0.00    -0.237 OA
ATOM     58  O   UNL A   1      41.292  22.359  26.046  1.00  0.00    -0.744 OA
ENDBRANCH  52  55
ENDBRANCH  24  48
BRANCH  36  59
ATOM     59  C   UNL A   1      44.968  26.747  33.953  1.00  0.00     0.023 A 
ATOM     60  C   UNL A   1      46.214  27.349  34.201  1.00  0.00     0.012 A 
ATOM     61  C   UNL A   1      44.669  25.496  34.531  1.00  0.00     0.148 A 
ATOM     62  C   UNL A   1      47.154  26.710  35.010  1.00  0.00     0.002 A 
ATOM     63  C   UNL A   1      45.586  24.893  35.380  1.00  0.00     0.091 A 
ATOM     64  F   UNL A   1      43.480  24.937  34.262  1.00  0.00    -0.205 F 
ATOM     65  C   UNL A   1      46.834  25.493  35.613  1.00  0.00     0.022 A 
BRANCH  63  66
ATOM     66  S   UNL A   1      45.213  23.390  36.289  1.00  0.00     0.127 S 
ATOM     67  O   UNL A   1      44.109  22.836  35.507  1.00  0.00    -0.237 OA
ATOM     68  O   UNL A   1      46.468  22.647  36.183  1.00  0.00    -0.237 OA
ATOM     69  O   UNL A   1      44.865  23.807  37.640  1.00  0.00    -0.744 OA
ENDBRANCH  63  66
ENDBRANCH  36  59
ENDBRANCH  10  11
ENDBRANCH   3   5
ENDBRANCH   2   3
ENDBRANCH   1   2
BRANCH   1  70
ATOM     70  C   UNL A   1      31.543  31.666  26.711  1.00  0.00     0.275 C 
BRANCH  70  71
ATOM     71  O   UNL A   1      32.484  30.737  26.148  1.00  0.00    -0.458 OA
BRANCH  71  72
ATOM     72  C   UNL A   1      32.368  29.437  26.554  1.00  0.00     0.338 C 
ATOM     73  O   UNL A   1      31.952  29.052  27.624  1.00  0.00    -0.246 OA
BRANCH  72  74
ATOM     74  C   UNL A   1      32.760  28.539  25.429  1.00  0.00     0.060 A 
ATOM     75  C   UNL A   1      32.529  28.960  24.105  1.00  0.00     0.018 A 
ATOM     76  C   UNL A   1      33.311  27.261  25.701  1.00  0.00     0.022 A 
ATOM     77  C   UNL A   1      32.824  28.108  23.041  1.00  0.00     0.027 A 
ATOM     78  C   UNL A   1      33.492  26.373  24.640  1.00  0.00    -0.011 A 
ATOM     79  C   UNL A   1      33.271  26.834  23.338  1.00  0.00     0.045 A 
ATOM     80  C   UNL A   1      34.010  24.941  24.568  1.00  0.00     0.114 C 
ATOM     81  N   UNL A   1      33.576  25.848  22.419  1.00  0.00    -0.325 N 
ATOM     82  C   UNL A   1      34.029  24.695  23.034  1.00  0.00     0.232 C 
ATOM     83  H   UNL A   1      33.482  25.955  21.445  1.00  0.00     0.169 HD
ATOM     84  O   UNL A   1      34.408  23.687  22.463  1.00  0.00    -0.274 OA
BRANCH  80  85
ATOM     85  C   UNL A   1      33.352  23.758  25.365  1.00  0.00     0.010 C 
ATOM     86  C   UNL A   1      31.842  24.049  25.548  1.00  0.00     0.033 C 
ATOM     87  C   UNL A   1      33.920  23.424  26.765  1.00  0.00     0.033 C 
ATOM     88  C   UNL A   1      31.127  22.968  26.350  1.00  0.00     0.160 C 
ATOM     89  C   UNL A   1      33.082  22.393  27.525  1.00  0.00     0.160 C 
ATOM     90  O   UNL A   1      31.728  22.802  27.624  1.00  0.00    -0.381 OA
ENDBRANCH  80  85
ENDBRANCH  72  74
ENDBRANCH  71  72
ENDBRANCH  70  71
ENDBRANCH   1  70
TORSDOF 15
ENDMDL
MODEL 3
REMARK VINA RESULT:     -12.4      3.137      9.064
REMARK SMILES O=C(OCCOC(=O)c1ccc2c(c1)[C@@H](C1CCOCC1)C(=O)N2)c1ccc(-c2c3nc(c(-c4cccc(S(=O)(=O)[O-])c4F)c4ccc([nH]4)c(-c4cccc(S(=O)(=O)[O-])c4F)c4nc(c(-c5cccc(S(=O)(=O)[O-])c5F)c5ccc2[nH]5)C=C4)C=C3)cc1
REMARK SMILES IDX 4 1 3 2 2 3 1 4 25 5 26 6 87 7 27 8 86 9 28 10 29 11 30 12
REMARK SMILES IDX 80 13 31 14 85 15 79 16 81 17 32 18 84 19 78 20 77 21 33 23
REMARK SMILES IDX 65 24 45 25 64 26 46 27 49 28 63 29 82 30 47 31 48 32 62 34
REMARK SMILES IDX 83 35 50 36 34 37 35 38 43 39 36 40 38 41 44 42 37 43 39 44
REMARK SMILES IDX 40 45 41 46 42 47 66 48 67 49 75 50 68 51 70 52 76 53 69 54
REMARK SMILES IDX 71 55 72 56 73 57 74 58 51 59 52 60 60 61 53 62 55 63 61 64
REMARK SMILES IDX 54 65 56 66 57 67 58 68 59 69 5 70 6 71 7 72 8 73 9 74 10 75
REMARK SMILES IDX 14 76 11 77 13 78 12 79 15 80 24 81 22 82 23 84 16 85 17 86
REMARK SMILES IDX 21 87 18 88 20 89 19 90
REMARK H PARENT 81 22 49 33 24 83
REMARK Flexibility Score: inf
ROOT
ATOM      1  C   UNL A   1      32.990  31.262  27.501  1.00  0.00     0.275 C 
ENDROOT
BRANCH   1   2
ATOM      2  O   UNL A   1      32.705  32.666  27.517  1.00  0.00    -0.458 OA
BRANCH   2   3
ATOM      3  C   UNL A   1      33.251  33.616  28.310  1.00  0.00     0.338 C 
ATOM      4  O   UNL A   1      32.694  34.708  28.410  1.00  0.00    -0.246 OA
BRANCH   3   5
ATOM      5  C   UNL A   1      34.591  33.449  28.948  1.00  0.00     0.060 A 
ATOM      6  C   UNL A   1      35.804  34.037  28.562  1.00  0.00     0.016 A 
ATOM      7  C   UNL A   1      34.598  32.616  30.063  1.00  0.00     0.016 A 
ATOM      8  C   UNL A   1      36.984  33.835  29.307  1.00  0.00     0.010 A 
ATOM      9  C   UNL A   1      35.737  32.505  30.850  1.00  0.00     0.010 A 
ATOM     10  C   UNL A   1      36.953  33.046  30.451  1.00  0.00    -0.014 A 
BRANCH  10  11
ATOM     11  C   UNL A   1      38.134  32.497  31.154  1.00  0.00     0.031 A 
ATOM     12  C   UNL A   1      38.742  31.236  30.591  1.00  0.00     0.074 A 
ATOM     13  C   UNL A   1      38.464  32.917  32.389  1.00  0.00     0.049 A 
ATOM     14  N   UNL A   1      39.698  30.491  31.073  1.00  0.00    -0.248 NA
ATOM     15  C   UNL A   1      38.164  30.729  29.330  1.00  0.00     0.031 C 
ATOM     16  C   UNL A   1      37.848  34.039  33.091  1.00  0.00     0.029 A 
ATOM     17  N   UNL A   1      39.334  32.383  33.306  1.00  0.00    -0.354 N 
ATOM     18  C   UNL A   1      39.852  29.449  30.166  1.00  0.00     0.074 A 
ATOM     19  C   UNL A   1      38.829  29.599  29.159  1.00  0.00     0.031 C 
ATOM     20  C   UNL A   1      38.284  34.049  34.365  1.00  0.00     0.029 A 
ATOM     21  C   UNL A   1      39.226  32.949  34.554  1.00  0.00     0.049 A 
ATOM     22  H   UNL A   1      39.971  31.663  33.091  1.00  0.00     0.167 HD
ATOM     23  C   UNL A   1      40.803  28.485  30.141  1.00  0.00     0.034 A 
ATOM     24  C   UNL A   1      39.815  32.609  35.718  1.00  0.00     0.034 A 
ATOM     25  C   UNL A   1      41.787  28.338  31.173  1.00  0.00     0.049 A 
ATOM     26  C   UNL A   1      40.864  31.529  35.706  1.00  0.00     0.074 A 
ATOM     27  C   UNL A   1      42.891  27.509  31.207  1.00  0.00     0.029 A 
ATOM     28  N   UNL A   1      41.751  29.017  32.382  1.00  0.00    -0.354 N 
ATOM     29  N   UNL A   1      41.207  30.732  34.723  1.00  0.00    -0.248 NA
ATOM     30  C   UNL A   1      41.670  31.361  36.924  1.00  0.00     0.031 C 
ATOM     31  C   UNL A   1      43.499  27.657  32.460  1.00  0.00     0.029 A 
ATOM     32  C   UNL A   1      42.800  28.614  33.183  1.00  0.00     0.049 A 
ATOM     33  H   UNL A   1      41.075  29.688  32.633  1.00  0.00     0.167 HD
ATOM     34  C   UNL A   1      42.315  30.024  35.171  1.00  0.00     0.074 A 
ATOM     35  C   UNL A   1      42.570  30.467  36.528  1.00  0.00     0.031 C 
ATOM     36  C   UNL A   1      43.068  29.110  34.509  1.00  0.00     0.034 A 
BRANCH  23  37
ATOM     37  C   UNL A   1      40.844  27.588  28.932  1.00  0.00     0.023 A 
ATOM     38  C   UNL A   1      39.933  26.512  28.840  1.00  0.00     0.012 A 
ATOM     39  C   UNL A   1      41.764  27.797  27.888  1.00  0.00     0.148 A 
ATOM     40  C   UNL A   1      39.981  25.620  27.771  1.00  0.00     0.002 A 
ATOM     41  C   UNL A   1      41.771  26.933  26.798  1.00  0.00     0.091 A 
ATOM     42  F   UNL A   1      42.632  28.813  27.991  1.00  0.00    -0.205 F 
ATOM     43  C   UNL A   1      40.897  25.834  26.747  1.00  0.00     0.022 A 
BRANCH  41  44
ATOM     44  S   UNL A   1      42.847  27.170  25.380  1.00  0.00     0.127 S 
ATOM     45  O   UNL A   1      42.691  25.899  24.675  1.00  0.00    -0.237 OA
ATOM     46  O   UNL A   1      42.227  28.315  24.712  1.00  0.00    -0.237 OA
ATOM     47  O   UNL A   1      44.173  27.433  25.922  1.00  0.00    -0.744 OA
ENDBRANCH  41  44
ENDBRANCH  23  37
BRANCH  24  48
ATOM     48  C   UNL A   1      39.489  33.368  36.956  1.00  0.00     0.023 A 
ATOM     49  C   UNL A   1      39.978  34.678  37.122  1.00  0.00     0.012 A 
ATOM     50  C   UNL A   1      38.637  32.821  37.935  1.00  0.00     0.148 A 
ATOM     51  C   UNL A   1      39.646  35.422  38.256  1.00  0.00     0.002 A 
ATOM     52  C   UNL A   1      38.284  33.580  39.046  1.00  0.00     0.091 A 
ATOM     53  F   UNL A   1      38.164  31.580  37.741  1.00  0.00    -0.205 F 
ATOM     54  C   UNL A   1      38.796  34.877  39.214  1.00  0.00     0.022 A 
BRANCH  52  55
ATOM     55  S   UNL A   1      37.110  33.006  40.279  1.00  0.00     0.127 S 
ATOM     56  O   UNL A   1      37.781  31.817  40.800  1.00  0.00    -0.237 OA
ATOM     57  O   UNL A   1      37.068  34.144  41.197  1.00  0.00    -0.237 OA
ATOM     58  O   UNL A   1      35.871  32.764  39.554  1.00  0.00    -0.744 OA
ENDBRANCH  52  55
ENDBRANCH  24  48
BRANCH  36  59
ATOM     59  C   UNL A   1      44.298  28.575  35.188  1.00  0.00     0.023 A 
ATOM     60  C   UNL A   1      45.544  29.199  35.000  1.00  0.00     0.012 A 
ATOM     61  C   UNL A   1      44.172  27.536  36.134  1.00  0.00     0.148 A 
ATOM     62  C   UNL A   1      46.654  28.788  35.740  1.00  0.00     0.002 A 
ATOM     63  C   UNL A   1      45.266  27.172  36.906  1.00  0.00     0.091 A 
ATOM     64  F   UNL A   1      42.975  26.947  36.279  1.00  0.00    -0.205 F 
ATOM     65  C   UNL A   1      46.511  27.790  36.704  1.00  0.00     0.022 A 
BRANCH  63  66
ATOM     66  S   UNL A   1      45.145  25.983  38.246  1.00  0.00     0.127 S 
ATOM     67  O   UNL A   1      46.539  25.874  38.673  1.00  0.00    -0.237 OA
ATOM     68  O   UNL A   1      44.269  26.674  39.192  1.00  0.00    -0.237 OA
ATOM     69  O   UNL A   1      44.580  24.773  37.667  1.00  0.00    -0.744 OA
ENDBRANCH  63  66
ENDBRANCH  36  59
ENDBRANCH  10  11
ENDBRANCH   3   5
ENDBRANCH   2   3
ENDBRANCH   1   2
BRANCH   1  70
ATOM     70  C   UNL A   1      32.481  30.490  26.280  1.00  0.00     0.275 C 
BRANCH  70  71
ATOM     71  O   UNL A   1      31.384  29.597  26.537  1.00  0.00    -0.458 OA
BRANCH  71  72
ATOM     72  C   UNL A   1      31.656  28.261  26.443  1.00  0.00     0.338 C 
ATOM     73  O   UNL A   1      31.799  27.490  27.365  1.00  0.00    -0.246 OA
BRANCH  72  74
ATOM     74  C   UNL A   1      31.672  27.867  25.005  1.00  0.00     0.060 A 
ATOM     75  C   UNL A   1      30.614  28.278  24.171  1.00  0.00     0.018 A 
ATOM     76  C   UNL A   1      32.717  27.048  24.505  1.00  0.00     0.022 A 
ATOM     77  C   UNL A   1      30.573  27.863  22.841  1.00  0.00     0.027 A 
ATOM     78  C   UNL A   1      32.606  26.542  23.209  1.00  0.00    -0.011 A 
ATOM     79  C   UNL A   1      31.552  26.989  22.406  1.00  0.00     0.045 A 
ATOM     80  C   UNL A   1      33.496  25.624  22.379  1.00  0.00     0.114 C 
ATOM     81  N   UNL A   1      31.649  26.448  21.138  1.00  0.00    -0.325 N 
ATOM     82  C   UNL A   1      32.761  25.635  21.010  1.00  0.00     0.232 C 
ATOM     83  H   UNL A   1      31.004  26.620  20.414  1.00  0.00     0.169 HD
ATOM     84  O   UNL A   1      33.113  25.068  19.990  1.00  0.00    -0.274 OA
BRANCH  80  85
ATOM     85  C   UNL A   1      33.892  24.177  22.845  1.00  0.00     0.010 C 
ATOM     86  C   UNL A   1      32.603  23.359  23.109  1.00  0.00     0.033 C 
ATOM     87  C   UNL A   1      34.780  24.038  24.103  1.00  0.00     0.033 C 
ATOM     88  C   UNL A   1      32.892  21.948  23.606  1.00  0.00     0.160 C 
ATOM     89  C   UNL A   1      34.938  22.591  24.574  1.00  0.00     0.160 C 
ATOM     90  O   UNL A   1      33.677  21.978  24.787  1.00  0.00    -0.381 OA
ENDBRANCH  80  85
ENDBRANCH  72  74
ENDBRANCH  71  72
ENDBRANCH  70  71
ENDBRANCH   1  70
TORSDOF 15
ENDMDL
