MODEL 1
REMARK VINA RESULT:     -11.1      0.000      0.000
REMARK SMILES CC(C)C[C@H](CNC(=O)Nc1ccccc1Br)C(=O)OCCOC(=O)c1ccc(-c2c3nc(c(-c4cccc(S(=O)(=O)[O-])c4F)c4ccc([nH]4)c(-c4cccc(S(=O)(=O)[O-])c4F)c4nc(c(-c5cccc(S(=O)(=O)[O-])c5F)c5ccc2[nH]5)C=C4)C=C3)cc1
REMARK SMILES IDX 21 1 20 2 18 3 19 4 5 5 4 6 2 7 1 8 3 9 6 10 7 11 8 12 9 14
REMARK SMILES IDX 10 15 11 17 12 18 16 19 13 20 15 21 17 22 14 23 22 24 23 25
REMARK SMILES IDX 24 26 25 27 26 28 27 29 88 30 28 31 87 32 29 33 30 34 31 35
REMARK SMILES IDX 81 36 32 37 86 38 80 39 82 40 33 41 85 42 79 43 78 44 34 46
REMARK SMILES IDX 66 47 46 48 65 49 47 50 50 51 64 52 83 53 48 54 49 55 63 57
REMARK SMILES IDX 84 58 51 59 35 60 36 61 44 62 37 63 39 64 45 65 38 66 40 67
REMARK SMILES IDX 41 68 42 69 43 70 67 71 68 72 76 73 69 74 71 75 77 76 70 77
REMARK SMILES IDX 72 78 73 79 74 80 75 81 52 82 53 83 61 84 54 85 56 86 62 87
REMARK SMILES IDX 55 88 57 89 58 90 59 91 60 92
REMARK H PARENT 7 13 10 16 82 45 50 56
REMARK Flexibility Score: inf
ROOT
ATOM      1  C   UNL A   1      35.678  21.054  24.855  1.00  0.00     0.274 C 
ENDROOT
BRANCH   1   2
ATOM      2  O   UNL A   1      35.806  22.486  24.991  1.00  0.00    -0.462 OA
BRANCH   2   3
ATOM      3  C   UNL A   1      35.359  23.185  23.917  1.00  0.00     0.310 C 
ATOM      4  O   UNL A   1      35.754  23.005  22.770  1.00  0.00    -0.252 OA
BRANCH   3   5
ATOM      5  C   UNL A   1      34.323  24.240  24.251  1.00  0.00     0.119 C 
BRANCH   5   6
ATOM      6  C   UNL A   1      34.017  24.378  25.746  1.00  0.00     0.020 C 
BRANCH   6   7
ATOM      7  C   UNL A   1      32.846  23.518  26.269  1.00  0.00    -0.017 C 
ATOM      8  C   UNL A   1      33.224  22.579  27.418  1.00  0.00     0.007 C 
ATOM      9  C   UNL A   1      31.704  24.429  26.726  1.00  0.00     0.007 C 
ENDBRANCH   6   7
ENDBRANCH   5   6
BRANCH   5  10
ATOM     10  C   UNL A   1      33.086  24.190  23.341  1.00  0.00     0.133 C 
BRANCH  10  11
ATOM     11  N   UNL A   1      33.273  24.540  21.940  1.00  0.00    -0.337 N 
ATOM     12  C   UNL A   1      32.843  25.614  21.232  1.00  0.00     0.319 C 
ATOM     13  H   UNL A   1      33.798  23.889  21.421  1.00  0.00     0.165 HD
ATOM     14  O   UNL A   1      32.906  25.570  20.002  1.00  0.00    -0.249 OA
ATOM     15  N   UNL A   1      32.233  26.669  21.829  1.00  0.00    -0.307 N 
ATOM     16  H   UNL A   1      31.620  27.174  21.247  1.00  0.00     0.171 HD
BRANCH  15  17
ATOM     17  C   UNL A   1      32.332  27.159  23.145  1.00  0.00     0.057 A 
ATOM     18  C   UNL A   1      33.545  27.776  23.481  1.00  0.00     0.027 A 
ATOM     19  C   UNL A   1      31.292  27.130  24.091  1.00  0.00     0.041 A 
ATOM     20  C   UNL A   1      33.670  28.477  24.682  1.00  0.00     0.002 A 
ATOM     21  C   UNL A   1      31.427  27.828  25.296  1.00  0.00     0.018 A 
ATOM     22  Br  UNL A   1      29.730  26.067  23.871  1.00  0.00    -0.049 Br
ATOM     23  C   UNL A   1      32.603  28.523  25.578  1.00  0.00     0.001 A 
ENDBRANCH  15  17
ENDBRANCH  10  11
ENDBRANCH   5  10
ENDBRANCH   3   5
ENDBRANCH   2   3
ENDBRANCH   1   2
BRANCH   1  24
ATOM     24  C   UNL A   1      37.001  20.315  25.088  1.00  0.00     0.275 C 
BRANCH  24  25
ATOM     25  O   UNL A   1      38.151  21.180  25.003  1.00  0.00    -0.458 OA
BRANCH  25  26
ATOM     26  C   UNL A   1      39.091  20.981  25.956  1.00  0.00     0.338 C 
ATOM     27  O   UNL A   1      39.577  19.913  26.292  1.00  0.00    -0.246 OA
BRANCH  26  28
ATOM     28  C   UNL A   1      39.574  22.261  26.501  1.00  0.00     0.060 A 
ATOM     29  C   UNL A   1      38.921  23.433  26.104  1.00  0.00     0.016 A 
ATOM     30  C   UNL A   1      40.729  22.327  27.280  1.00  0.00     0.016 A 
ATOM     31  C   UNL A   1      39.424  24.678  26.476  1.00  0.00     0.010 A 
ATOM     32  C   UNL A   1      41.237  23.579  27.648  1.00  0.00     0.010 A 
ATOM     33  C   UNL A   1      40.599  24.762  27.233  1.00  0.00    -0.014 A 
BRANCH  33  34
ATOM     34  C   UNL A   1      41.189  26.089  27.534  1.00  0.00     0.031 A 
ATOM     35  C   UNL A   1      42.591  26.402  27.092  1.00  0.00     0.074 A 
ATOM     36  C   UNL A   1      40.472  27.010  28.204  1.00  0.00     0.049 A 
ATOM     37  N   UNL A   1      43.303  27.478  27.305  1.00  0.00    -0.248 NA
ATOM     38  C   UNL A   1      43.282  25.368  26.303  1.00  0.00     0.031 C 
ATOM     39  C   UNL A   1      39.098  26.829  28.675  1.00  0.00     0.029 A 
ATOM     40  N   UNL A   1      40.808  28.272  28.624  1.00  0.00    -0.354 N 
ATOM     41  C   UNL A   1      44.537  27.240  26.713  1.00  0.00     0.074 A 
ATOM     42  C   UNL A   1      44.477  25.918  26.128  1.00  0.00     0.031 C 
ATOM     43  C   UNL A   1      38.716  27.932  29.340  1.00  0.00     0.029 A 
ATOM     44  C   UNL A   1      39.826  28.883  29.370  1.00  0.00     0.049 A 
ATOM     45  H   UNL A   1      41.669  28.701  28.413  1.00  0.00     0.167 HD
ATOM     46  C   UNL A   1      45.619  28.053  26.653  1.00  0.00     0.034 A 
ATOM     47  C   UNL A   1      39.829  30.062  30.022  1.00  0.00     0.034 A 
ATOM     48  C   UNL A   1      45.669  29.379  27.210  1.00  0.00     0.049 A 
ATOM     49  C   UNL A   1      41.050  30.939  29.951  1.00  0.00     0.074 A 
ATOM     50  C   UNL A   1      46.708  30.292  27.164  1.00  0.00     0.029 A 
ATOM     51  N   UNL A   1      44.641  29.979  27.919  1.00  0.00    -0.354 N 
ATOM     52  N   UNL A   1      42.171  30.743  29.300  1.00  0.00    -0.248 NA
ATOM     53  C   UNL A   1      40.999  32.213  30.685  1.00  0.00     0.031 C 
ATOM     54  C   UNL A   1      46.312  31.442  27.855  1.00  0.00     0.029 A 
ATOM     55  C   UNL A   1      45.021  31.249  28.321  1.00  0.00     0.049 A 
ATOM     56  H   UNL A   1      43.768  29.565  28.108  1.00  0.00     0.167 HD
ATOM     57  C   UNL A   1      42.945  31.877  29.521  1.00  0.00     0.074 A 
ATOM     58  C   UNL A   1      42.156  32.766  30.348  1.00  0.00     0.031 C 
ATOM     59  C   UNL A   1      44.204  32.148  29.095  1.00  0.00     0.034 A 
BRANCH  46  60
ATOM     60  C   UNL A   1      46.837  27.542  25.931  1.00  0.00     0.023 A 
ATOM     61  C   UNL A   1      46.981  27.796  24.553  1.00  0.00     0.012 A 
ATOM     62  C   UNL A   1      47.858  26.863  26.621  1.00  0.00     0.148 A 
ATOM     63  C   UNL A   1      48.114  27.362  23.866  1.00  0.00     0.002 A 
ATOM     64  C   UNL A   1      49.002  26.463  25.938  1.00  0.00     0.091 A 
ATOM     65  F   UNL A   1      47.690  26.608  27.926  1.00  0.00    -0.205 F 
ATOM     66  C   UNL A   1      49.128  26.705  24.560  1.00  0.00     0.022 A 
BRANCH  64  67
ATOM     67  S   UNL A   1      50.387  25.671  26.761  1.00  0.00     0.127 S 
ATOM     68  O   UNL A   1      50.744  26.670  27.766  1.00  0.00    -0.237 OA
ATOM     69  O   UNL A   1      49.776  24.456  27.301  1.00  0.00    -0.237 OA
ATOM     70  O   UNL A   1      51.384  25.435  25.725  1.00  0.00    -0.744 OA
ENDBRANCH  64  67
ENDBRANCH  46  60
BRANCH  47  71
ATOM     71  C   UNL A   1      38.618  30.497  30.773  1.00  0.00     0.023 A 
ATOM     72  C   UNL A   1      38.519  30.217  32.148  1.00  0.00     0.012 A 
ATOM     73  C   UNL A   1      37.581  31.210  30.140  1.00  0.00     0.148 A 
ATOM     74  C   UNL A   1      37.399  30.620  32.877  1.00  0.00     0.002 A 
ATOM     75  C   UNL A   1      36.493  31.655  30.883  1.00  0.00     0.091 A 
ATOM     76  F   UNL A   1      37.680  31.445  28.824  1.00  0.00    -0.205 F 
ATOM     77  C   UNL A   1      36.394  31.349  32.249  1.00  0.00     0.022 A 
BRANCH  75  78
ATOM     78  S   UNL A   1      35.223  32.711  30.177  1.00  0.00     0.127 S 
ATOM     79  O   UNL A   1      34.337  32.918  31.319  1.00  0.00    -0.237 OA
ATOM     80  O   UNL A   1      35.994  33.889  29.774  1.00  0.00    -0.237 OA
ATOM     81  O   UNL A   1      34.664  31.955  29.065  1.00  0.00    -0.744 OA
ENDBRANCH  75  78
ENDBRANCH  47  71
BRANCH  59  82
ATOM     82  C   UNL A   1      44.806  33.471  29.490  1.00  0.00     0.023 A 
ATOM     83  C   UNL A   1      45.581  33.560  30.662  1.00  0.00     0.012 A 
ATOM     84  C   UNL A   1      44.668  34.603  28.664  1.00  0.00     0.148 A 
ATOM     85  C   UNL A   1      46.190  34.762  31.020  1.00  0.00     0.002 A 
ATOM     86  C   UNL A   1      45.313  35.788  29.005  1.00  0.00     0.091 A 
ATOM     87  F   UNL A   1      43.908  34.506  27.563  1.00  0.00    -0.205 F 
ATOM     88  C   UNL A   1      46.066  35.871  30.187  1.00  0.00     0.022 A 
BRANCH  86  89
ATOM     89  S   UNL A   1      45.279  37.235  27.941  1.00  0.00     0.127 S 
ATOM     90  O   UNL A   1      46.103  38.179  28.695  1.00  0.00    -0.237 OA
ATOM     91  O   UNL A   1      45.896  36.737  26.711  1.00  0.00    -0.237 OA
ATOM     92  O   UNL A   1      43.874  37.595  27.805  1.00  0.00    -0.744 OA
ENDBRANCH  86  89
ENDBRANCH  59  82
ENDBRANCH  33  34
ENDBRANCH  26  28
ENDBRANCH  25  26
ENDBRANCH  24  25
ENDBRANCH   1  24
TORSDOF 19
ENDMDL
MODEL 2
REMARK VINA RESULT:     -10.9      1.319      7.714
REMARK SMILES CC(C)C[C@H](CNC(=O)Nc1ccccc1Br)C(=O)OCCOC(=O)c1ccc(-c2c3nc(c(-c4cccc(S(=O)(=O)[O-])c4F)c4ccc([nH]4)c(-c4cccc(S(=O)(=O)[O-])c4F)c4nc(c(-c5cccc(S(=O)(=O)[O-])c5F)c5ccc2[nH]5)C=C4)C=C3)cc1
REMARK SMILES IDX 21 1 20 2 18 3 19 4 5 5 4 6 2 7 1 8 3 9 6 10 7 11 8 12 9 14
REMARK SMILES IDX 10 15 11 17 12 18 16 19 13 20 15 21 17 22 14 23 22 24 23 25
REMARK SMILES IDX 24 26 25 27 26 28 27 29 88 30 28 31 87 32 29 33 30 34 31 35
REMARK SMILES IDX 81 36 32 37 86 38 80 39 82 40 33 41 85 42 79 43 78 44 34 46
REMARK SMILES IDX 66 47 46 48 65 49 47 50 50 51 64 52 83 53 48 54 49 55 63 57
REMARK SMILES IDX 84 58 51 59 35 60 36 61 44 62 37 63 39 64 45 65 38 66 40 67
REMARK SMILES IDX 41 68 42 69 43 70 67 71 68 72 76 73 69 74 71 75 77 76 70 77
REMARK SMILES IDX 72 78 73 79 74 80 75 81 52 82 53 83 61 84 54 85 56 86 62 87
REMARK SMILES IDX 55 88 57 89 58 90 59 91 60 92
REMARK H PARENT 7 13 10 16 82 45 50 56
REMARK Flexibility Score: inf
ROOT
ATOM      1  C   UNL A   1      35.912  20.452  24.807  1.00  0.00     0.274 C 
ENDROOT
BRANCH   1   2
ATOM      2  O   UNL A   1      35.492  21.832  24.733  1.00  0.00    -0.462 OA
BRANCH   2   3
ATOM      3  C   UNL A   1      34.207  21.997  24.332  1.00  0.00     0.310 C 
ATOM      4  O   UNL A   1      33.511  21.099  23.871  1.00  0.00    -0.252 OA
BRANCH   3   5
ATOM      5  C   UNL A   1      33.687  23.414  24.485  1.00  0.00     0.119 C 
BRANCH   5   6
ATOM      6  C   UNL A   1      33.350  23.813  25.926  1.00  0.00     0.020 C 
BRANCH   6   7
ATOM      7  C   UNL A   1      32.475  22.809  26.708  1.00  0.00    -0.017 C 
ATOM      8  C   UNL A   1      33.080  22.359  28.041  1.00  0.00     0.007 C 
ATOM      9  C   UNL A   1      31.097  23.423  26.969  1.00  0.00     0.007 C 
ENDBRANCH   6   7
ENDBRANCH   5   6
BRANCH   5  10
ATOM     10  C   UNL A   1      32.620  23.788  23.445  1.00  0.00     0.133 C 
BRANCH  10  11
ATOM     11  N   UNL A   1      33.082  24.393  22.204  1.00  0.00    -0.337 N 
ATOM     12  C   UNL A   1      32.966  25.664  21.744  1.00  0.00     0.319 C 
ATOM     13  H   UNL A   1      33.555  23.778  21.598  1.00  0.00     0.165 HD
ATOM     14  O   UNL A   1      33.210  25.882  20.555  1.00  0.00    -0.249 OA
ATOM     15  N   UNL A   1      32.470  26.664  22.515  1.00  0.00    -0.307 N 
ATOM     16  H   UNL A   1      32.056  27.404  22.015  1.00  0.00     0.171 HD
BRANCH  15  17
ATOM     17  C   UNL A   1      32.451  26.817  23.914  1.00  0.00     0.057 A 
ATOM     18  C   UNL A   1      33.681  27.113  24.517  1.00  0.00     0.027 A 
ATOM     19  C   UNL A   1      31.294  26.761  24.711  1.00  0.00     0.041 A 
ATOM     20  C   UNL A   1      33.735  27.489  25.861  1.00  0.00     0.002 A 
ATOM     21  C   UNL A   1      31.356  27.131  26.058  1.00  0.00     0.018 A 
ATOM     22  Br  UNL A   1      29.638  26.074  24.074  1.00  0.00    -0.049 Br
ATOM     23  C   UNL A   1      32.570  27.522  26.624  1.00  0.00     0.001 A 
ENDBRANCH  15  17
ENDBRANCH  10  11
ENDBRANCH   5  10
ENDBRANCH   3   5
ENDBRANCH   2   3
ENDBRANCH   1   2
BRANCH   1  24
ATOM     24  C   UNL A   1      37.422  20.301  25.026  1.00  0.00     0.275 C 
BRANCH  24  25
ATOM     25  O   UNL A   1      38.035  21.492  25.557  1.00  0.00    -0.458 OA
BRANCH  25  26
ATOM     26  C   UNL A   1      39.233  21.303  26.158  1.00  0.00     0.338 C 
ATOM     27  O   UNL A   1      39.898  20.280  26.156  1.00  0.00    -0.246 OA
BRANCH  26  28
ATOM     28  C   UNL A   1      39.731  22.553  26.755  1.00  0.00     0.060 A 
ATOM     29  C   UNL A   1      39.234  23.763  26.258  1.00  0.00     0.016 A 
ATOM     30  C   UNL A   1      40.765  22.548  27.692  1.00  0.00     0.016 A 
ATOM     31  C   UNL A   1      39.774  24.974  26.688  1.00  0.00     0.010 A 
ATOM     32  C   UNL A   1      41.311  23.765  28.118  1.00  0.00     0.010 A 
ATOM     33  C   UNL A   1      40.831  24.984  27.605  1.00  0.00    -0.014 A 
BRANCH  33  34
ATOM     34  C   UNL A   1      41.473  26.268  27.976  1.00  0.00     0.031 A 
ATOM     35  C   UNL A   1      40.675  27.327  28.685  1.00  0.00     0.074 A 
ATOM     36  C   UNL A   1      42.767  26.487  27.678  1.00  0.00     0.049 A 
ATOM     37  N   UNL A   1      41.035  28.531  29.045  1.00  0.00    -0.248 NA
ATOM     38  C   UNL A   1      39.287  26.982  29.039  1.00  0.00     0.031 C 
ATOM     39  C   UNL A   1      43.649  25.534  27.004  1.00  0.00     0.029 A 
ATOM     40  N   UNL A   1      43.558  27.590  27.884  1.00  0.00    -0.354 N 
ATOM     41  C   UNL A   1      39.914  29.104  29.631  1.00  0.00     0.074 A 
ATOM     42  C   UNL A   1      38.859  28.114  29.583  1.00  0.00     0.031 C 
ATOM     43  C   UNL A   1      44.854  26.103  26.831  1.00  0.00     0.029 A 
ATOM     44  C   UNL A   1      44.820  27.468  27.352  1.00  0.00     0.049 A 
ATOM     45  H   UNL A   1      43.251  28.392  28.366  1.00  0.00     0.167 HD
ATOM     46  C   UNL A   1      39.777  30.340  30.170  1.00  0.00     0.034 A 
ATOM     47  C   UNL A   1      45.826  28.362  27.271  1.00  0.00     0.034 A 
ATOM     48  C   UNL A   1      40.833  31.314  30.244  1.00  0.00     0.049 A 
ATOM     49  C   UNL A   1      45.642  29.732  27.865  1.00  0.00     0.074 A 
ATOM     50  C   UNL A   1      40.800  32.577  30.808  1.00  0.00     0.029 A 
ATOM     51  N   UNL A   1      42.110  31.137  29.734  1.00  0.00    -0.354 N 
ATOM     52  N   UNL A   1      44.609  30.222  28.508  1.00  0.00    -0.248 NA
ATOM     53  C   UNL A   1      46.771  30.667  27.745  1.00  0.00     0.031 C 
ATOM     54  C   UNL A   1      42.054  33.170  30.629  1.00  0.00     0.029 A 
ATOM     55  C   UNL A   1      42.872  32.270  29.964  1.00  0.00     0.049 A 
ATOM     56  H   UNL A   1      42.428  30.326  29.276  1.00  0.00     0.167 HD
ATOM     57  C   UNL A   1      44.973  31.508  28.893  1.00  0.00     0.074 A 
ATOM     58  C   UNL A   1      46.330  31.713  28.431  1.00  0.00     0.031 C 
ATOM     59  C   UNL A   1      44.242  32.441  29.551  1.00  0.00     0.034 A 
BRANCH  46  60
ATOM     60  C   UNL A   1      38.438  30.702  30.755  1.00  0.00     0.023 A 
ATOM     61  C   UNL A   1      38.160  30.382  32.098  1.00  0.00     0.012 A 
ATOM     62  C   UNL A   1      37.481  31.403  29.997  1.00  0.00     0.148 A 
ATOM     63  C   UNL A   1      36.939  30.734  32.673  1.00  0.00     0.002 A 
ATOM     64  C   UNL A   1      36.280  31.783  30.587  1.00  0.00     0.091 A 
ATOM     65  F   UNL A   1      37.754  31.675  28.713  1.00  0.00    -0.205 F 
ATOM     66  C   UNL A   1      36.005  31.442  31.921  1.00  0.00     0.022 A 
BRANCH  64  67
ATOM     67  S   UNL A   1      35.045  32.754  29.717  1.00  0.00     0.127 S 
ATOM     68  O   UNL A   1      34.137  33.118  30.804  1.00  0.00    -0.237 OA
ATOM     69  O   UNL A   1      35.838  33.866  29.189  1.00  0.00    -0.237 OA
ATOM     70  O   UNL A   1      34.490  31.873  28.700  1.00  0.00    -0.744 OA
ENDBRANCH  64  67
ENDBRANCH  46  60
BRANCH  47  71
ATOM     71  C   UNL A   1      47.113  27.973  26.629  1.00  0.00     0.023 A 
ATOM     72  C   UNL A   1      48.212  27.625  27.436  1.00  0.00     0.012 A 
ATOM     73  C   UNL A   1      47.244  27.917  25.227  1.00  0.00     0.148 A 
ATOM     74  C   UNL A   1      49.426  27.249  26.860  1.00  0.00     0.002 A 
ATOM     75  C   UNL A   1      48.440  27.490  24.660  1.00  0.00     0.091 A 
ATOM     76  F   UNL A   1      46.195  28.277  24.474  1.00  0.00    -0.205 F 
ATOM     77  C   UNL A   1      49.537  27.169  25.475  1.00  0.00     0.022 A 
BRANCH  75  78
ATOM     78  S   UNL A   1      48.621  27.234  22.891  1.00  0.00     0.127 S 
ATOM     79  O   UNL A   1      48.265  25.825  22.755  1.00  0.00    -0.237 OA
ATOM     80  O   UNL A   1      47.639  28.173  22.345  1.00  0.00    -0.237 OA
ATOM     81  O   UNL A   1      50.004  27.576  22.590  1.00  0.00    -0.744 OA
ENDBRANCH  75  78
ENDBRANCH  47  71
BRANCH  59  82
ATOM     82  C   UNL A   1      44.897  33.766  29.838  1.00  0.00     0.023 A 
ATOM     83  C   UNL A   1      45.655  33.926  31.013  1.00  0.00     0.012 A 
ATOM     84  C   UNL A   1      44.825  34.824  28.911  1.00  0.00     0.148 A 
ATOM     85  C   UNL A   1      46.313  35.128  31.275  1.00  0.00     0.002 A 
ATOM     86  C   UNL A   1      45.518  36.005  29.158  1.00  0.00     0.091 A 
ATOM     87  F   UNL A   1      44.080  34.662  27.808  1.00  0.00    -0.205 F 
ATOM     88  C   UNL A   1      46.255  36.162  30.343  1.00  0.00     0.022 A 
BRANCH  86  89
ATOM     89  S   UNL A   1      45.569  37.351  27.968  1.00  0.00     0.127 S 
ATOM     90  O   UNL A   1      46.190  36.704  26.813  1.00  0.00    -0.237 OA
ATOM     91  O   UNL A   1      44.151  37.673  27.796  1.00  0.00    -0.237 OA
ATOM     92  O   UNL A   1      46.352  38.406  28.596  1.00  0.00    -0.744 OA
ENDBRANCH  86  89
ENDBRANCH  59  82
ENDBRANCH  33  34
ENDBRANCH  26  28
ENDBRANCH  25  26
ENDBRANCH  24  25
ENDBRANCH   1  24
TORSDOF 19
ENDMDL
MODEL 3
REMARK VINA RESULT:     -10.8      1.354      8.114
REMARK SMILES CC(C)C[C@H](CNC(=O)Nc1ccccc1Br)C(=O)OCCOC(=O)c1ccc(-c2c3nc(c(-c4cccc(S(=O)(=O)[O-])c4F)c4ccc([nH]4)c(-c4cccc(S(=O)(=O)[O-])c4F)c4nc(c(-c5cccc(S(=O)(=O)[O-])c5F)c5ccc2[nH]5)C=C4)C=C3)cc1
REMARK SMILES IDX 21 1 20 2 18 3 19 4 5 5 4 6 2 7 1 8 3 9 6 10 7 11 8 12 9 14
REMARK SMILES IDX 10 15 11 17 12 18 16 19 13 20 15 21 17 22 14 23 22 24 23 25
REMARK SMILES IDX 24 26 25 27 26 28 27 29 88 30 28 31 87 32 29 33 30 34 31 35
REMARK SMILES IDX 81 36 32 37 86 38 80 39 82 40 33 41 85 42 79 43 78 44 34 46
REMARK SMILES IDX 66 47 46 48 65 49 47 50 50 51 64 52 83 53 48 54 49 55 63 57
REMARK SMILES IDX 84 58 51 59 35 60 36 61 44 62 37 63 39 64 45 65 38 66 40 67
REMARK SMILES IDX 41 68 42 69 43 70 67 71 68 72 76 73 69 74 71 75 77 76 70 77
REMARK SMILES IDX 72 78 73 79 74 80 75 81 52 82 53 83 61 84 54 85 56 86 62 87
REMARK SMILES IDX 55 88 57 89 58 90 59 91 60 92
REMARK H PARENT 7 13 10 16 82 45 50 56
REMARK Flexibility Score: inf
ROOT
ATOM      1  C   UNL A   1      36.740  22.338  23.531  1.00  0.00     0.274 C 
ENDROOT
BRANCH   1   2
ATOM      2  O   UNL A   1      36.250  23.432  24.335  1.00  0.00    -0.462 OA
BRANCH   2   3
ATOM      3  C   UNL A   1      35.038  23.903  23.949  1.00  0.00     0.310 C 
ATOM      4  O   UNL A   1      34.636  23.891  22.791  1.00  0.00    -0.252 OA
BRANCH   3   5
ATOM      5  C   UNL A   1      34.205  24.474  25.080  1.00  0.00     0.119 C 
BRANCH   5   6
ATOM      6  C   UNL A   1      34.493  25.944  25.400  1.00  0.00     0.020 C 
BRANCH   6   7
ATOM      7  C   UNL A   1      33.312  26.917  25.189  1.00  0.00    -0.017 C 
ATOM      8  C   UNL A   1      32.740  27.496  26.485  1.00  0.00     0.007 C 
ATOM      9  C   UNL A   1      33.750  28.067  24.279  1.00  0.00     0.007 C 
ENDBRANCH   6   7
ENDBRANCH   5   6
BRANCH   5  10
ATOM     10  C   UNL A   1      34.125  23.550  26.305  1.00  0.00     0.133 C 
BRANCH  10  11
ATOM     11  N   UNL A   1      34.261  22.119  26.071  1.00  0.00    -0.337 N 
ATOM     12  C   UNL A   1      33.319  21.153  25.932  1.00  0.00     0.319 C 
ATOM     13  H   UNL A   1      35.189  21.800  26.003  1.00  0.00     0.165 HD
ATOM     14  O   UNL A   1      33.674  19.974  25.997  1.00  0.00    -0.249 OA
ATOM     15  N   UNL A   1      31.996  21.446  25.858  1.00  0.00    -0.307 N 
ATOM     16  H   UNL A   1      31.396  20.726  26.160  1.00  0.00     0.171 HD
BRANCH  15  17
ATOM     17  C   UNL A   1      31.341  22.611  25.417  1.00  0.00     0.057 A 
ATOM     18  C   UNL A   1      30.761  23.405  26.416  1.00  0.00     0.027 A 
ATOM     19  C   UNL A   1      31.296  23.049  24.082  1.00  0.00     0.041 A 
ATOM     20  C   UNL A   1      30.274  24.677  26.110  1.00  0.00     0.002 A 
ATOM     21  C   UNL A   1      30.800  24.322  23.781  1.00  0.00     0.018 A 
ATOM     22  Br  UNL A   1      31.767  21.931  22.616  1.00  0.00    -0.049 Br
ATOM     23  C   UNL A   1      30.316  25.145  24.798  1.00  0.00     0.001 A 
ENDBRANCH  15  17
ENDBRANCH  10  11
ENDBRANCH   5  10
ENDBRANCH   3   5
ENDBRANCH   2   3
ENDBRANCH   1   2
BRANCH   1  24
ATOM     24  C   UNL A   1      37.090  21.098  24.363  1.00  0.00     0.275 C 
BRANCH  24  25
ATOM     25  O   UNL A   1      37.408  21.413  25.733  1.00  0.00    -0.458 OA
BRANCH  25  26
ATOM     26  C   UNL A   1      38.698  21.200  26.087  1.00  0.00     0.338 C 
ATOM     27  O   UNL A   1      39.348  20.185  25.901  1.00  0.00    -0.246 OA
BRANCH  26  28
ATOM     28  C   UNL A   1      39.301  22.419  26.650  1.00  0.00     0.060 A 
ATOM     29  C   UNL A   1      38.801  23.656  26.231  1.00  0.00     0.016 A 
ATOM     30  C   UNL A   1      40.428  22.356  27.472  1.00  0.00     0.016 A 
ATOM     31  C   UNL A   1      39.427  24.837  26.623  1.00  0.00     0.010 A 
ATOM     32  C   UNL A   1      41.060  23.544  27.860  1.00  0.00     0.010 A 
ATOM     33  C   UNL A   1      40.575  24.790  27.423  1.00  0.00    -0.014 A 
BRANCH  33  34
ATOM     34  C   UNL A   1      41.299  26.043  27.748  1.00  0.00     0.031 A 
ATOM     35  C   UNL A   1      40.604  27.131  28.516  1.00  0.00     0.074 A 
ATOM     36  C   UNL A   1      42.576  26.205  27.354  1.00  0.00     0.049 A 
ATOM     37  N   UNL A   1      41.043  28.317  28.850  1.00  0.00    -0.248 NA
ATOM     38  C   UNL A   1      39.233  26.847  28.972  1.00  0.00     0.031 C 
ATOM     39  C   UNL A   1      43.362  25.218  26.614  1.00  0.00     0.029 A 
ATOM     40  N   UNL A   1      43.428  27.271  27.502  1.00  0.00    -0.354 N 
ATOM     41  C   UNL A   1      39.996  28.936  29.520  1.00  0.00     0.074 A 
ATOM     42  C   UNL A   1      38.898  27.994  29.549  1.00  0.00     0.031 C 
ATOM     43  C   UNL A   1      44.575  25.733  26.352  1.00  0.00     0.029 A 
ATOM     44  C   UNL A   1      44.641  27.095  26.877  1.00  0.00     0.049 A 
ATOM     45  H   UNL A   1      43.195  28.083  28.008  1.00  0.00     0.167 HD
ATOM     46  C   UNL A   1      39.955  30.174  30.070  1.00  0.00     0.034 A 
ATOM     47  C   UNL A   1      45.676  27.944  26.723  1.00  0.00     0.034 A 
ATOM     48  C   UNL A   1      41.056  31.100  30.067  1.00  0.00     0.049 A 
ATOM     49  C   UNL A   1      45.599  29.318  27.332  1.00  0.00     0.074 A 
ATOM     50  C   UNL A   1      41.121  32.360  30.633  1.00  0.00     0.029 A 
ATOM     51  N   UNL A   1      42.282  30.869  29.462  1.00  0.00    -0.354 N 
ATOM     52  N   UNL A   1      44.639  29.850  28.051  1.00  0.00    -0.248 NA
ATOM     53  C   UNL A   1      46.756  30.202  27.130  1.00  0.00     0.031 C 
ATOM     54  C   UNL A   1      42.384  32.898  30.362  1.00  0.00     0.029 A 
ATOM     55  C   UNL A   1      43.110  31.966  29.637  1.00  0.00     0.049 A 
ATOM     56  H   UNL A   1      42.529  30.047  28.980  1.00  0.00     0.167 HD
ATOM     57  C   UNL A   1      45.088  31.116  28.410  1.00  0.00     0.074 A 
ATOM     58  C   UNL A   1      46.415  31.263  27.848  1.00  0.00     0.031 C 
ATOM     59  C   UNL A   1      44.450  32.078  29.122  1.00  0.00     0.034 A 
BRANCH  46  60
ATOM     60  C   UNL A   1      38.681  30.592  30.754  1.00  0.00     0.023 A 
ATOM     61  C   UNL A   1      38.520  30.341  32.130  1.00  0.00     0.012 A 
ATOM     62  C   UNL A   1      37.672  31.278  30.052  1.00  0.00     0.148 A 
ATOM     63  C   UNL A   1      37.363  30.746  32.795  1.00  0.00     0.002 A 
ATOM     64  C   UNL A   1      36.536  31.711  30.727  1.00  0.00     0.091 A 
ATOM     65  F   UNL A   1      37.833  31.484  28.736  1.00  0.00    -0.205 F 
ATOM     66  C   UNL A   1      36.377  31.439  32.096  1.00  0.00     0.022 A 
BRANCH  64  67
ATOM     67  S   UNL A   1      35.245  32.668  29.926  1.00  0.00     0.127 S 
ATOM     68  O   UNL A   1      35.987  33.843  29.472  1.00  0.00    -0.237 OA
ATOM     69  O   UNL A   1      34.812  31.770  28.854  1.00  0.00    -0.237 OA
ATOM     70  O   UNL A   1      34.239  32.914  30.949  1.00  0.00    -0.744 OA
ENDBRANCH  64  67
ENDBRANCH  46  60
BRANCH  47  71
ATOM     71  C   UNL A   1      46.893  27.502  25.986  1.00  0.00     0.023 A 
ATOM     72  C   UNL A   1      47.029  27.816  24.622  1.00  0.00     0.012 A 
ATOM     73  C   UNL A   1      47.928  26.799  26.636  1.00  0.00     0.148 A 
ATOM     74  C   UNL A   1      48.162  27.421  23.909  1.00  0.00     0.002 A 
ATOM     75  C   UNL A   1      49.078  26.456  25.934  1.00  0.00     0.091 A 
ATOM     76  F   UNL A   1      47.770  26.486  27.930  1.00  0.00    -0.205 F 
ATOM     77  C   UNL A   1      49.191  26.753  24.568  1.00  0.00     0.022 A 
BRANCH  75  78
ATOM     78  S   UNL A   1      50.502  25.712  26.740  1.00  0.00     0.127 S 
ATOM     79  O   UNL A   1      50.824  26.708  27.757  1.00  0.00    -0.237 OA
ATOM     80  O   UNL A   1      49.941  24.462  27.256  1.00  0.00    -0.237 OA
ATOM     81  O   UNL A   1      51.491  25.531  25.686  1.00  0.00    -0.744 OA
ENDBRANCH  75  78
ENDBRANCH  47  71
BRANCH  59  82
ATOM     82  C   UNL A   1      45.184  33.371  29.363  1.00  0.00     0.023 A 
ATOM     83  C   UNL A   1      45.997  33.508  30.504  1.00  0.00     0.012 A 
ATOM     84  C   UNL A   1      45.129  34.419  28.422  1.00  0.00     0.148 A 
ATOM     85  C   UNL A   1      46.726  34.677  30.720  1.00  0.00     0.002 A 
ATOM     86  C   UNL A   1      45.891  35.565  28.623  1.00  0.00     0.091 A 
ATOM     87  F   UNL A   1      44.331  34.280  27.353  1.00  0.00    -0.205 F 
ATOM     88  C   UNL A   1      46.682  35.700  29.775  1.00  0.00     0.022 A 
BRANCH  86  89
ATOM     89  S   UNL A   1      45.961  36.890  27.411  1.00  0.00     0.127 S 
ATOM     90  O   UNL A   1      44.586  37.386  27.431  1.00  0.00    -0.237 OA
ATOM     91  O   UNL A   1      46.946  37.801  27.997  1.00  0.00    -0.237 OA
ATOM     92  O   UNL A   1      46.388  36.266  26.166  1.00  0.00    -0.744 OA
ENDBRANCH  86  89
ENDBRANCH  59  82
ENDBRANCH  33  34
ENDBRANCH  26  28
ENDBRANCH  25  26
ENDBRANCH  24  25
ENDBRANCH   1  24
TORSDOF 19
ENDMDL
