MODEL 1
REMARK VINA RESULT:     -11.1      0.000      0.000
REMARK SMILES O=C(OCCOC(=O)[C@H]1CS[C@H](c2nc3ccccc3s2)[NH2+]1)c1ccc(-c2c3nc(c(-c4cccc(S(=O)(=O)[O-])c4F)c4ccc([nH]4)c(-c4cccc(S(=O)(=O)[O-])c4F)c4nc(c(-c5cccc(S(=O)(=O)[O-])c5F)c5ccc2[nH]5)C=C4)C=C3)cc1
REMARK SMILES IDX 4 1 3 2 2 3 1 4 23 5 24 6 85 7 25 8 84 9 26 10 27 11 28 12
REMARK SMILES IDX 78 13 29 14 83 15 77 16 79 17 30 18 82 19 76 20 75 21 31 23
REMARK SMILES IDX 63 24 43 25 62 26 44 27 47 28 61 29 80 30 45 31 46 32 60 34
REMARK SMILES IDX 81 35 48 36 32 37 33 38 41 39 34 40 36 41 42 42 35 43 37 44
REMARK SMILES IDX 38 45 39 46 40 47 64 48 65 49 73 50 66 51 68 52 74 53 67 54
REMARK SMILES IDX 69 55 70 56 71 57 72 58 49 59 50 60 58 61 51 62 53 63 59 64
REMARK SMILES IDX 52 65 54 66 55 67 56 68 57 69 5 70 6 71 7 72 8 73 9 74 10 75
REMARK SMILES IDX 22 76 11 77 12 78 13 81 14 82 21 83 15 84 20 85 16 86 19 87
REMARK SMILES IDX 17 88 18 89
REMARK H PARENT 79 22 47 33 22 79 22 80
REMARK Flexibility Score: inf
ROOT
ATOM      1  C   UNL A   1      40.378  20.322  26.536  1.00  0.00     0.275 C 
ENDROOT
BRANCH   1   2
ATOM      2  O   UNL A   1      40.438  21.750  26.671  1.00  0.00    -0.458 OA
BRANCH   2   3
ATOM      3  C   UNL A   1      39.461  22.680  26.556  1.00  0.00     0.338 C 
ATOM      4  O   UNL A   1      38.472  22.391  25.880  1.00  0.00    -0.246 OA
BRANCH   3   5
ATOM      5  C   UNL A   1      39.571  24.089  27.062  1.00  0.00     0.060 A 
ATOM      6  C   UNL A   1      39.328  24.538  28.366  1.00  0.00     0.016 A 
ATOM      7  C   UNL A   1      40.077  25.024  26.139  1.00  0.00     0.016 A 
ATOM      8  C   UNL A   1      39.703  25.824  28.779  1.00  0.00     0.010 A 
ATOM      9  C   UNL A   1      40.491  26.292  26.555  1.00  0.00     0.010 A 
ATOM     10  C   UNL A   1      40.324  26.696  27.889  1.00  0.00    -0.014 A 
BRANCH  10  11
ATOM     11  C   UNL A   1      40.657  28.083  28.289  1.00  0.00     0.031 A 
ATOM     12  C   UNL A   1      42.111  28.444  28.328  1.00  0.00     0.074 A 
ATOM     13  C   UNL A   1      39.711  28.980  28.639  1.00  0.00     0.049 A 
ATOM     14  N   UNL A   1      42.674  29.581  28.632  1.00  0.00    -0.248 NA
ATOM     15  C   UNL A   1      43.064  27.377  27.970  1.00  0.00     0.031 C 
ATOM     16  C   UNL A   1      38.265  28.756  28.623  1.00  0.00     0.029 A 
ATOM     17  N   UNL A   1      39.831  30.259  29.125  1.00  0.00    -0.354 N 
ATOM     18  C   UNL A   1      44.036  29.362  28.496  1.00  0.00     0.074 A 
ATOM     19  C   UNL A   1      44.225  27.966  28.187  1.00  0.00     0.031 C 
ATOM     20  C   UNL A   1      37.639  29.816  29.167  1.00  0.00     0.029 A 
ATOM     21  C   UNL A   1      38.636  30.817  29.527  1.00  0.00     0.049 A 
ATOM     22  H   UNL A   1      40.691  30.735  29.181  1.00  0.00     0.167 HD
ATOM     23  C   UNL A   1      45.043  30.260  28.548  1.00  0.00     0.034 A 
ATOM     24  C   UNL A   1      38.384  32.010  30.106  1.00  0.00     0.034 A 
ATOM     25  C   UNL A   1      44.841  31.642  28.859  1.00  0.00     0.049 A 
ATOM     26  C   UNL A   1      39.532  32.976  30.254  1.00  0.00     0.074 A 
ATOM     27  C   UNL A   1      45.766  32.666  28.898  1.00  0.00     0.029 A 
ATOM     28  N   UNL A   1      43.614  32.185  29.216  1.00  0.00    -0.354 N 
ATOM     29  N   UNL A   1      40.797  32.809  29.940  1.00  0.00    -0.248 NA
ATOM     30  C   UNL A   1      39.211  34.323  30.747  1.00  0.00     0.031 C 
ATOM     31  C   UNL A   1      45.101  33.823  29.318  1.00  0.00     0.029 A 
ATOM     32  C   UNL A   1      43.756  33.528  29.495  1.00  0.00     0.049 A 
ATOM     33  H   UNL A   1      42.768  31.684  29.263  1.00  0.00     0.167 HD
ATOM     34  C   UNL A   1      41.402  34.048  30.115  1.00  0.00     0.074 A 
ATOM     35  C   UNL A   1      40.368  34.951  30.583  1.00  0.00     0.031 C 
ATOM     36  C   UNL A   1      42.689  34.413  29.893  1.00  0.00     0.034 A 
BRANCH  23  37
ATOM     37  C   UNL A   1      46.417  29.736  28.233  1.00  0.00     0.023 A 
ATOM     38  C   UNL A   1      46.749  29.413  26.897  1.00  0.00     0.012 A 
ATOM     39  C   UNL A   1      47.339  29.472  29.258  1.00  0.00     0.148 A 
ATOM     40  C   UNL A   1      47.944  28.763  26.601  1.00  0.00     0.002 A 
ATOM     41  C   UNL A   1      48.551  28.871  28.947  1.00  0.00     0.091 A 
ATOM     42  F   UNL A   1      46.993  29.763  30.521  1.00  0.00    -0.205 F 
ATOM     43  C   UNL A   1      48.846  28.494  27.625  1.00  0.00     0.022 A 
BRANCH  41  44
ATOM     44  S   UNL A   1      49.808  28.535  30.182  1.00  0.00     0.127 S 
ATOM     45  O   UNL A   1      49.094  27.644  31.096  1.00  0.00    -0.237 OA
ATOM     46  O   UNL A   1      50.850  27.888  29.387  1.00  0.00    -0.237 OA
ATOM     47  O   UNL A   1      50.182  29.830  30.738  1.00  0.00    -0.744 OA
ENDBRANCH  41  44
ENDBRANCH  23  37
BRANCH  24  48
ATOM     48  C   UNL A   1      36.990  32.420  30.458  1.00  0.00     0.023 A 
ATOM     49  C   UNL A   1      36.471  32.070  31.721  1.00  0.00     0.012 A 
ATOM     50  C   UNL A   1      36.168  33.126  29.555  1.00  0.00     0.148 A 
ATOM     51  C   UNL A   1      35.152  32.371  32.064  1.00  0.00     0.002 A 
ATOM     52  C   UNL A   1      34.862  33.452  29.916  1.00  0.00     0.091 A 
ATOM     53  F   UNL A   1      36.678  33.460  28.362  1.00  0.00    -0.205 F 
ATOM     54  C   UNL A   1      34.349  33.063  31.162  1.00  0.00     0.022 A 
BRANCH  52  55
ATOM     55  S   UNL A   1      33.753  34.396  28.861  1.00  0.00     0.127 S 
ATOM     56  O   UNL A   1      33.337  33.389  27.885  1.00  0.00    -0.237 OA
ATOM     57  O   UNL A   1      32.713  34.795  29.811  1.00  0.00    -0.237 OA
ATOM     58  O   UNL A   1      34.548  35.489  28.326  1.00  0.00    -0.744 OA
ENDBRANCH  52  55
ENDBRANCH  24  48
BRANCH  36  59
ATOM     59  C   UNL A   1      43.047  35.863  30.059  1.00  0.00     0.023 A 
ATOM     60  C   UNL A   1      43.620  36.323  31.259  1.00  0.00     0.012 A 
ATOM     61  C   UNL A   1      42.925  36.741  28.963  1.00  0.00     0.148 A 
ATOM     62  C   UNL A   1      44.044  37.645  31.373  1.00  0.00     0.002 A 
ATOM     63  C   UNL A   1      43.407  38.038  29.064  1.00  0.00     0.091 A 
ATOM     64  F   UNL A   1      42.354  36.285  27.837  1.00  0.00    -0.205 F 
ATOM     65  C   UNL A   1      43.955  38.497  30.273  1.00  0.00     0.022 A 
BRANCH  63  66
ATOM     66  S   UNL A   1      43.450  39.152  27.657  1.00  0.00     0.127 S 
ATOM     67  O   UNL A   1      44.052  40.349  28.243  1.00  0.00    -0.237 OA
ATOM     68  O   UNL A   1      44.311  38.432  26.718  1.00  0.00    -0.237 OA
ATOM     69  O   UNL A   1      42.069  39.297  27.217  1.00  0.00    -0.744 OA
ENDBRANCH  63  66
ENDBRANCH  36  59
ENDBRANCH  10  11
ENDBRANCH   3   5
ENDBRANCH   2   3
ENDBRANCH   1   2
BRANCH   1  70
ATOM     70  C   UNL A   1      41.736  19.614  26.620  1.00  0.00     0.274 C 
BRANCH  70  71
ATOM     71  O   UNL A   1      42.255  19.203  25.342  1.00  0.00    -0.458 OA
BRANCH  71  72
ATOM     72  C   UNL A   1      43.614  19.205  25.184  1.00  0.00     0.365 C 
ATOM     73  O   UNL A   1      44.263  18.204  24.893  1.00  0.00    -0.245 OA
BRANCH  72  74
ATOM     74  C   UNL A   1      44.257  20.593  25.421  1.00  0.00     0.304 C 
ATOM     75  C   UNL A   1      45.697  20.638  24.964  1.00  0.00     0.153 C 
ATOM     76  N   UNL A   1      43.500  21.696  24.765  1.00  0.00    -0.317 N 
ATOM     77  S   UNL A   1      46.064  22.289  24.403  1.00  0.00    -0.085 SA
ATOM     78  C   UNL A   1      44.377  22.900  24.711  1.00  0.00     0.303 C 
ATOM     79  H   UNL A   1      42.660  21.905  25.305  1.00  0.00     0.348 HD
ATOM     80  H   UNL A   1      43.225  21.421  23.823  1.00  0.00     0.348 HD
BRANCH  78  81
ATOM     81  C   UNL A   1      44.503  23.806  25.920  1.00  0.00     0.163 A 
ATOM     82  N   UNL A   1      45.565  24.574  26.085  1.00  0.00    -0.234 NA
ATOM     83  S   UNL A   1      43.481  23.722  27.301  1.00  0.00    -0.112 S 
ATOM     84  C   UNL A   1      45.766  24.832  27.418  1.00  0.00     0.082 A 
ATOM     85  C   UNL A   1      44.733  24.418  28.259  1.00  0.00     0.055 A 
ATOM     86  C   UNL A   1      46.917  25.416  27.977  1.00  0.00     0.030 A 
ATOM     87  C   UNL A   1      44.813  24.570  29.651  1.00  0.00     0.021 A 
ATOM     88  C   UNL A   1      47.016  25.552  29.364  1.00  0.00     0.002 A 
ATOM     89  C   UNL A   1      45.976  25.133  30.188  1.00  0.00     0.002 A 
ENDBRANCH  78  81
ENDBRANCH  72  74
ENDBRANCH  71  72
ENDBRANCH  70  71
ENDBRANCH   1  70
TORSDOF 15
ENDMDL
MODEL 2
REMARK VINA RESULT:     -11.0      4.412     12.325
REMARK SMILES O=C(OCCOC(=O)[C@H]1CS[C@H](c2nc3ccccc3s2)[NH2+]1)c1ccc(-c2c3nc(c(-c4cccc(S(=O)(=O)[O-])c4F)c4ccc([nH]4)c(-c4cccc(S(=O)(=O)[O-])c4F)c4nc(c(-c5cccc(S(=O)(=O)[O-])c5F)c5ccc2[nH]5)C=C4)C=C3)cc1
REMARK SMILES IDX 4 1 3 2 2 3 1 4 23 5 24 6 85 7 25 8 84 9 26 10 27 11 28 12
REMARK SMILES IDX 78 13 29 14 83 15 77 16 79 17 30 18 82 19 76 20 75 21 31 23
REMARK SMILES IDX 63 24 43 25 62 26 44 27 47 28 61 29 80 30 45 31 46 32 60 34
REMARK SMILES IDX 81 35 48 36 32 37 33 38 41 39 34 40 36 41 42 42 35 43 37 44
REMARK SMILES IDX 38 45 39 46 40 47 64 48 65 49 73 50 66 51 68 52 74 53 67 54
REMARK SMILES IDX 69 55 70 56 71 57 72 58 49 59 50 60 58 61 51 62 53 63 59 64
REMARK SMILES IDX 52 65 54 66 55 67 56 68 57 69 5 70 6 71 7 72 8 73 9 74 10 75
REMARK SMILES IDX 22 76 11 77 12 78 13 81 14 82 21 83 15 84 20 85 16 86 19 87
REMARK SMILES IDX 17 88 18 89
REMARK H PARENT 79 22 47 33 22 79 22 80
REMARK Flexibility Score: inf
ROOT
ATOM      1  C   UNL A   1      34.663  33.812  28.044  1.00  0.00     0.275 C 
ENDROOT
BRANCH   1   2
ATOM      2  O   UNL A   1      34.457  32.502  28.593  1.00  0.00    -0.458 OA
BRANCH   2   3
ATOM      3  C   UNL A   1      34.717  31.282  28.066  1.00  0.00     0.338 C 
ATOM      4  O   UNL A   1      33.816  30.728  27.435  1.00  0.00    -0.246 OA
BRANCH   3   5
ATOM      5  C   UNL A   1      35.967  30.494  28.332  1.00  0.00     0.060 A 
ATOM      6  C   UNL A   1      37.158  30.530  27.596  1.00  0.00     0.016 A 
ATOM      7  C   UNL A   1      35.957  29.726  29.512  1.00  0.00     0.016 A 
ATOM      8  C   UNL A   1      38.335  29.944  28.081  1.00  0.00     0.010 A 
ATOM      9  C   UNL A   1      37.136  29.176  30.020  1.00  0.00     0.010 A 
ATOM     10  C   UNL A   1      38.343  29.298  29.315  1.00  0.00    -0.014 A 
BRANCH  10  11
ATOM     11  C   UNL A   1      39.560  28.609  29.805  1.00  0.00     0.031 A 
ATOM     12  C   UNL A   1      40.238  29.205  31.002  1.00  0.00     0.074 A 
ATOM     13  C   UNL A   1      40.067  27.517  29.194  1.00  0.00     0.049 A 
ATOM     14  N   UNL A   1      41.304  28.801  31.636  1.00  0.00    -0.248 NA
ATOM     15  C   UNL A   1      39.627  30.422  31.566  1.00  0.00     0.031 C 
ATOM     16  C   UNL A   1      39.489  26.833  28.036  1.00  0.00     0.029 A 
ATOM     17  N   UNL A   1      41.221  26.813  29.439  1.00  0.00    -0.354 N 
ATOM     18  C   UNL A   1      41.481  29.710  32.667  1.00  0.00     0.074 A 
ATOM     19  C   UNL A   1      40.484  30.741  32.517  1.00  0.00     0.031 C 
ATOM     20  C   UNL A   1      40.334  25.875  27.612  1.00  0.00     0.029 A 
ATOM     21  C   UNL A   1      41.492  25.843  28.497  1.00  0.00     0.049 A 
ATOM     22  H   UNL A   1      41.800  26.984  30.216  1.00  0.00     0.167 HD
ATOM     23  C   UNL A   1      42.351  29.654  33.699  1.00  0.00     0.034 A 
ATOM     24  C   UNL A   1      42.553  25.017  28.380  1.00  0.00     0.034 A 
ATOM     25  C   UNL A   1      43.337  28.626  33.834  1.00  0.00     0.049 A 
ATOM     26  C   UNL A   1      43.577  25.027  29.488  1.00  0.00     0.074 A 
ATOM     27  C   UNL A   1      44.245  28.425  34.854  1.00  0.00     0.029 A 
ATOM     28  N   UNL A   1      43.556  27.633  32.889  1.00  0.00    -0.354 N 
ATOM     29  N   UNL A   1      43.622  25.779  30.563  1.00  0.00    -0.248 NA
ATOM     30  C   UNL A   1      44.643  24.018  29.418  1.00  0.00     0.031 C 
ATOM     31  C   UNL A   1      45.043  27.330  34.503  1.00  0.00     0.029 A 
ATOM     32  C   UNL A   1      44.598  26.823  33.289  1.00  0.00     0.049 A 
ATOM     33  H   UNL A   1      43.043  27.525  32.056  1.00  0.00     0.167 HD
ATOM     34  C   UNL A   1      44.664  25.281  31.336  1.00  0.00     0.074 A 
ATOM     35  C   UNL A   1      45.236  24.174  30.595  1.00  0.00     0.031 C 
ATOM     36  C   UNL A   1      45.097  25.687  32.555  1.00  0.00     0.034 A 
BRANCH  23  37
ATOM     37  C   UNL A   1      42.218  30.732  34.738  1.00  0.00     0.023 A 
ATOM     38  C   UNL A   1      41.134  30.695  35.645  1.00  0.00     0.012 A 
ATOM     39  C   UNL A   1      43.098  31.826  34.757  1.00  0.00     0.148 A 
ATOM     40  C   UNL A   1      40.885  31.768  36.499  1.00  0.00     0.002 A 
ATOM     41  C   UNL A   1      42.873  32.868  35.647  1.00  0.00     0.091 A 
ATOM     42  F   UNL A   1      44.104  31.854  33.871  1.00  0.00    -0.205 F 
ATOM     43  C   UNL A   1      41.755  32.852  36.501  1.00  0.00     0.022 A 
BRANCH  41  44
ATOM     44  S   UNL A   1      43.966  34.285  35.773  1.00  0.00     0.127 S 
ATOM     45  O   UNL A   1      43.300  35.081  36.802  1.00  0.00    -0.237 OA
ATOM     46  O   UNL A   1      45.220  33.664  36.197  1.00  0.00    -0.237 OA
ATOM     47  O   UNL A   1      44.001  34.884  34.445  1.00  0.00    -0.744 OA
ENDBRANCH  41  44
ENDBRANCH  23  37
BRANCH  24  48
ATOM     48  C   UNL A   1      42.641  24.023  27.267  1.00  0.00     0.023 A 
ATOM     49  C   UNL A   1      43.247  24.405  26.053  1.00  0.00     0.012 A 
ATOM     50  C   UNL A   1      42.112  22.721  27.384  1.00  0.00     0.148 A 
ATOM     51  C   UNL A   1      43.288  23.533  24.965  1.00  0.00     0.002 A 
ATOM     52  C   UNL A   1      42.184  21.843  26.304  1.00  0.00     0.091 A 
ATOM     53  F   UNL A   1      41.546  22.369  28.547  1.00  0.00    -0.205 F 
ATOM     54  C   UNL A   1      42.758  22.252  25.091  1.00  0.00     0.022 A 
BRANCH  52  55
ATOM     55  S   UNL A   1      41.591  20.147  26.369  1.00  0.00     0.127 S 
ATOM     56  O   UNL A   1      42.357  19.519  25.293  1.00  0.00    -0.237 OA
ATOM     57  O   UNL A   1      41.991  19.748  27.719  1.00  0.00    -0.237 OA
ATOM     58  O   UNL A   1      40.156  20.220  26.150  1.00  0.00    -0.744 OA
ENDBRANCH  52  55
ENDBRANCH  24  48
BRANCH  36  59
ATOM     59  C   UNL A   1      46.183  24.885  33.218  1.00  0.00     0.023 A 
ATOM     60  C   UNL A   1      47.520  25.323  33.175  1.00  0.00     0.012 A 
ATOM     61  C   UNL A   1      45.843  23.757  33.991  1.00  0.00     0.148 A 
ATOM     62  C   UNL A   1      48.507  24.634  33.876  1.00  0.00     0.002 A 
ATOM     63  C   UNL A   1      46.821  23.114  34.735  1.00  0.00     0.091 A 
ATOM     64  F   UNL A   1      44.566  23.345  33.997  1.00  0.00    -0.205 F 
ATOM     65  C   UNL A   1      48.156  23.542  34.669  1.00  0.00     0.022 A 
BRANCH  63  66
ATOM     66  S   UNL A   1      46.430  21.787  35.881  1.00  0.00     0.127 S 
ATOM     67  O   UNL A   1      45.874  20.774  34.984  1.00  0.00    -0.237 OA
ATOM     68  O   UNL A   1      47.744  21.458  36.433  1.00  0.00    -0.237 OA
ATOM     69  O   UNL A   1      45.496  22.350  36.845  1.00  0.00    -0.744 OA
ENDBRANCH  63  66
ENDBRANCH  36  59
ENDBRANCH  10  11
ENDBRANCH   3   5
ENDBRANCH   2   3
ENDBRANCH   1   2
BRANCH   1  70
ATOM     70  C   UNL A   1      33.431  34.724  28.085  1.00  0.00     0.274 C 
BRANCH  70  71
ATOM     71  O   UNL A   1      32.670  34.615  29.301  1.00  0.00    -0.458 OA
BRANCH  71  72
ATOM     72  C   UNL A   1      32.942  35.515  30.297  1.00  0.00     0.365 C 
ATOM     73  O   UNL A   1      32.316  36.559  30.454  1.00  0.00    -0.245 OA
BRANCH  72  74
ATOM     74  C   UNL A   1      34.125  35.090  31.200  1.00  0.00     0.304 C 
ATOM     75  C   UNL A   1      34.198  35.913  32.465  1.00  0.00     0.153 C 
ATOM     76  N   UNL A   1      34.086  33.645  31.557  1.00  0.00    -0.317 N 
ATOM     77  S   UNL A   1      34.863  34.894  33.768  1.00  0.00    -0.085 SA
ATOM     78  C   UNL A   1      35.004  33.420  32.709  1.00  0.00     0.303 C 
ATOM     79  H   UNL A   1      34.391  33.085  30.759  1.00  0.00     0.348 HD
ATOM     80  H   UNL A   1      33.136  33.370  31.806  1.00  0.00     0.348 HD
BRANCH  78  81
ATOM     81  C   UNL A   1      36.491  33.244  32.477  1.00  0.00     0.163 A 
ATOM     82  N   UNL A   1      37.351  33.354  33.473  1.00  0.00    -0.234 NA
ATOM     83  S   UNL A   1      37.226  33.192  30.923  1.00  0.00    -0.112 S 
ATOM     84  C   UNL A   1      38.581  33.742  33.003  1.00  0.00     0.082 A 
ATOM     85  C   UNL A   1      38.707  33.739  31.615  1.00  0.00     0.055 A 
ATOM     86  C   UNL A   1      39.663  34.175  33.792  1.00  0.00     0.030 A 
ATOM     87  C   UNL A   1      39.888  34.156  30.982  1.00  0.00     0.021 A 
ATOM     88  C   UNL A   1      40.835  34.613  33.172  1.00  0.00     0.002 A 
ATOM     89  C   UNL A   1      40.943  34.603  31.785  1.00  0.00     0.002 A 
ENDBRANCH  78  81
ENDBRANCH  72  74
ENDBRANCH  71  72
ENDBRANCH  70  71
ENDBRANCH   1  70
TORSDOF 15
ENDMDL
MODEL 3
REMARK VINA RESULT:     -10.7      5.659     11.469
REMARK SMILES O=C(OCCOC(=O)[C@H]1CS[C@H](c2nc3ccccc3s2)[NH2+]1)c1ccc(-c2c3nc(c(-c4cccc(S(=O)(=O)[O-])c4F)c4ccc([nH]4)c(-c4cccc(S(=O)(=O)[O-])c4F)c4nc(c(-c5cccc(S(=O)(=O)[O-])c5F)c5ccc2[nH]5)C=C4)C=C3)cc1
REMARK SMILES IDX 4 1 3 2 2 3 1 4 23 5 24 6 85 7 25 8 84 9 26 10 27 11 28 12
REMARK SMILES IDX 78 13 29 14 83 15 77 16 79 17 30 18 82 19 76 20 75 21 31 23
REMARK SMILES IDX 63 24 43 25 62 26 44 27 47 28 61 29 80 30 45 31 46 32 60 34
REMARK SMILES IDX 81 35 48 36 32 37 33 38 41 39 34 40 36 41 42 42 35 43 37 44
REMARK SMILES IDX 38 45 39 46 40 47 64 48 65 49 73 50 66 51 68 52 74 53 67 54
REMARK SMILES IDX 69 55 70 56 71 57 72 58 49 59 50 60 58 61 51 62 53 63 59 64
REMARK SMILES IDX 52 65 54 66 55 67 56 68 57 69 5 70 6 71 7 72 8 73 9 74 10 75
REMARK SMILES IDX 22 76 11 77 12 78 13 81 14 82 21 83 15 84 20 85 16 86 19 87
REMARK SMILES IDX 17 88 18 89
REMARK H PARENT 79 22 47 33 22 79 22 80
REMARK Flexibility Score: inf
ROOT
ATOM      1  C   UNL A   1      32.727  30.099  25.828  1.00  0.00     0.275 C 
ENDROOT
BRANCH   1   2
ATOM      2  O   UNL A   1      32.658  30.938  26.991  1.00  0.00    -0.458 OA
BRANCH   2   3
ATOM      3  C   UNL A   1      33.591  31.753  27.537  1.00  0.00     0.338 C 
ATOM      4  O   UNL A   1      33.354  32.961  27.559  1.00  0.00    -0.246 OA
BRANCH   3   5
ATOM      5  C   UNL A   1      34.957  31.304  27.971  1.00  0.00     0.060 A 
ATOM      6  C   UNL A   1      36.111  32.091  28.068  1.00  0.00     0.016 A 
ATOM      7  C   UNL A   1      35.039  29.974  28.425  1.00  0.00     0.016 A 
ATOM      8  C   UNL A   1      37.261  31.624  28.720  1.00  0.00     0.010 A 
ATOM      9  C   UNL A   1      36.167  29.519  29.112  1.00  0.00     0.010 A 
ATOM     10  C   UNL A   1      37.285  30.350  29.282  1.00  0.00    -0.014 A 
BRANCH  10  11
ATOM     11  C   UNL A   1      38.517  29.816  29.906  1.00  0.00     0.031 A 
ATOM     12  C   UNL A   1      38.911  30.399  31.230  1.00  0.00     0.074 A 
ATOM     13  C   UNL A   1      39.280  28.876  29.309  1.00  0.00     0.049 A 
ATOM     14  N   UNL A   1      39.929  30.108  31.992  1.00  0.00    -0.248 NA
ATOM     15  C   UNL A   1      38.033  31.451  31.773  1.00  0.00     0.031 C 
ATOM     16  C   UNL A   1      38.993  28.219  28.033  1.00  0.00     0.029 A 
ATOM     17  N   UNL A   1      40.488  28.339  29.681  1.00  0.00    -0.354 N 
ATOM     18  C   UNL A   1      39.805  30.936  33.097  1.00  0.00     0.074 A 
ATOM     19  C   UNL A   1      38.682  31.810  32.864  1.00  0.00     0.031 C 
ATOM     20  C   UNL A   1      40.037  27.445  27.681  1.00  0.00     0.029 A 
ATOM     21  C   UNL A   1      41.047  27.512  28.729  1.00  0.00     0.049 A 
ATOM     22  H   UNL A   1      40.916  28.526  30.547  1.00  0.00     0.167 HD
ATOM     23  C   UNL A   1      40.518  30.922  34.245  1.00  0.00     0.034 A 
ATOM     24  C   UNL A   1      42.236  26.874  28.722  1.00  0.00     0.034 A 
ATOM     25  C   UNL A   1      41.632  30.050  34.461  1.00  0.00     0.049 A 
ATOM     26  C   UNL A   1      43.078  26.941  29.972  1.00  0.00     0.074 A 
ATOM     27  C   UNL A   1      42.408  29.901  35.592  1.00  0.00     0.029 A 
ATOM     28  N   UNL A   1      42.144  29.194  33.496  1.00  0.00    -0.354 N 
ATOM     29  N   UNL A   1      42.845  27.591  31.089  1.00  0.00    -0.248 NA
ATOM     30  C   UNL A   1      44.296  26.120  30.000  1.00  0.00     0.031 C 
ATOM     31  C   UNL A   1      43.418  28.978  35.296  1.00  0.00     0.029 A 
ATOM     32  C   UNL A   1      43.240  28.521  33.997  1.00  0.00     0.049 A 
ATOM     33  H   UNL A   1      41.779  29.083  32.588  1.00  0.00     0.167 HD
ATOM     34  C   UNL A   1      43.836  27.191  31.978  1.00  0.00     0.074 A 
ATOM     35  C   UNL A   1      44.683  26.258  31.261  1.00  0.00     0.031 C 
ATOM     36  C   UNL A   1      44.019  27.547  33.274  1.00  0.00     0.034 A 
BRANCH  23  37
ATOM     37  C   UNL A   1      40.062  31.868  35.320  1.00  0.00     0.023 A 
ATOM     38  C   UNL A   1      40.722  33.107  35.484  1.00  0.00     0.012 A 
ATOM     39  C   UNL A   1      39.055  31.496  36.226  1.00  0.00     0.148 A 
ATOM     40  C   UNL A   1      40.442  33.922  36.578  1.00  0.00     0.002 A 
ATOM     41  C   UNL A   1      38.745  32.339  37.285  1.00  0.00     0.091 A 
ATOM     42  F   UNL A   1      38.460  30.305  36.068  1.00  0.00    -0.205 F 
ATOM     43  C   UNL A   1      39.452  33.539  37.476  1.00  0.00     0.022 A 
BRANCH  41  44
ATOM     44  S   UNL A   1      37.445  31.969  38.466  1.00  0.00     0.127 S 
ATOM     45  O   UNL A   1      37.166  30.565  38.167  1.00  0.00    -0.237 OA
ATOM     46  O   UNL A   1      38.120  32.200  39.742  1.00  0.00    -0.237 OA
ATOM     47  O   UNL A   1      36.360  32.898  38.173  1.00  0.00    -0.744 OA
ENDBRANCH  41  44
ENDBRANCH  23  37
BRANCH  24  48
ATOM     48  C   UNL A   1      42.644  26.011  27.572  1.00  0.00     0.023 A 
ATOM     49  C   UNL A   1      43.417  26.571  26.534  1.00  0.00     0.012 A 
ATOM     50  C   UNL A   1      42.258  24.658  27.479  1.00  0.00     0.148 A 
ATOM     51  C   UNL A   1      43.761  25.821  25.409  1.00  0.00     0.002 A 
ATOM     52  C   UNL A   1      42.631  23.905  26.367  1.00  0.00     0.091 A 
ATOM     53  F   UNL A   1      41.531  24.136  28.476  1.00  0.00    -0.205 F 
ATOM     54  C   UNL A   1      43.369  24.489  25.326  1.00  0.00     0.022 A 
BRANCH  52  55
ATOM     55  S   UNL A   1      42.237  22.160  26.179  1.00  0.00     0.127 S 
ATOM     56  O   UNL A   1      42.743  21.601  27.432  1.00  0.00    -0.237 OA
ATOM     57  O   UNL A   1      40.778  22.199  26.070  1.00  0.00    -0.237 OA
ATOM     58  O   UNL A   1      42.931  21.724  24.978  1.00  0.00    -0.744 OA
ENDBRANCH  52  55
ENDBRANCH  24  48
BRANCH  36  59
ATOM     59  C   UNL A   1      45.119  26.866  34.041  1.00  0.00     0.023 A 
ATOM     60  C   UNL A   1      46.412  27.419  34.076  1.00  0.00     0.012 A 
ATOM     61  C   UNL A   1      44.821  25.736  34.830  1.00  0.00     0.148 A 
ATOM     62  C   UNL A   1      47.401  26.842  34.869  1.00  0.00     0.002 A 
ATOM     63  C   UNL A   1      45.794  25.206  35.665  1.00  0.00     0.091 A 
ATOM     64  F   UNL A   1      43.587  25.214  34.761  1.00  0.00    -0.205 F 
ATOM     65  C   UNL A   1      47.089  25.749  35.676  1.00  0.00     0.022 A 
BRANCH  63  66
ATOM     66  S   UNL A   1      45.436  23.886  36.829  1.00  0.00     0.127 S 
ATOM     67  O   UNL A   1      46.745  23.669  37.443  1.00  0.00    -0.237 OA
ATOM     68  O   UNL A   1      44.445  24.508  37.706  1.00  0.00    -0.237 OA
ATOM     69  O   UNL A   1      44.925  22.778  36.035  1.00  0.00    -0.744 OA
ENDBRANCH  63  66
ENDBRANCH  36  59
ENDBRANCH  10  11
ENDBRANCH   3   5
ENDBRANCH   2   3
ENDBRANCH   1   2
BRANCH   1  70
ATOM     70  C   UNL A   1      31.817  28.866  25.874  1.00  0.00     0.274 C 
BRANCH  70  71
ATOM     71  O   UNL A   1      31.018  28.691  24.690  1.00  0.00    -0.458 OA
BRANCH  71  72
ATOM     72  C   UNL A   1      31.608  28.082  23.616  1.00  0.00     0.365 C 
ATOM     73  O   UNL A   1      31.891  28.669  22.576  1.00  0.00    -0.245 OA
BRANCH  72  74
ATOM     74  C   UNL A   1      31.874  26.573  23.837  1.00  0.00     0.304 C 
ATOM     75  C   UNL A   1      30.600  25.802  24.089  1.00  0.00     0.153 C 
ATOM     76  N   UNL A   1      32.610  25.947  22.704  1.00  0.00    -0.317 N 
ATOM     77  S   UNL A   1      30.795  24.153  23.440  1.00  0.00    -0.085 SA
ATOM     78  C   UNL A   1      32.476  24.467  22.817  1.00  0.00     0.303 C 
ATOM     79  H   UNL A   1      33.596  26.208  22.748  1.00  0.00     0.348 HD
ATOM     80  H   UNL A   1      32.225  26.267  21.816  1.00  0.00     0.348 HD
BRANCH  78  81
ATOM     81  C   UNL A   1      33.389  23.687  23.742  1.00  0.00     0.163 A 
ATOM     82  N   UNL A   1      34.680  23.958  23.809  1.00  0.00    -0.234 NA
ATOM     83  S   UNL A   1      32.939  22.231  24.540  1.00  0.00    -0.112 S 
ATOM     84  C   UNL A   1      35.383  22.845  24.198  1.00  0.00     0.082 A 
ATOM     85  C   UNL A   1      34.599  21.772  24.619  1.00  0.00     0.055 A 
ATOM     86  C   UNL A   1      36.783  22.701  24.155  1.00  0.00     0.030 A 
ATOM     87  C   UNL A   1      35.170  20.549  25.001  1.00  0.00     0.021 A 
ATOM     88  C   UNL A   1      37.360  21.481  24.513  1.00  0.00     0.002 A 
ATOM     89  C   UNL A   1      36.562  20.420  24.930  1.00  0.00     0.002 A 
ENDBRANCH  78  81
ENDBRANCH  72  74
ENDBRANCH  71  72
ENDBRANCH  70  71
ENDBRANCH   1  70
TORSDOF 15
ENDMDL
