MODEL 1
REMARK VINA RESULT:     -10.0      0.000      0.000
REMARK SMILES O=C(OCCOC(=O)[C@H]1C[C@H]1c1ccc(C2CC2)cc1)c1ccc(-c2c3nc(c(-c4cccc(S(=O)(=O)[O-])c4F)c4ccc([nH]4)c(-c4cccc(S(=O)(=O)[O-])c4F)c4nc(c(-c5cccc(S(=O)(=O)[O-])c5F)c5ccc2[nH]5)C=C4)C=C3)cc1
REMARK SMILES IDX 4 1 3 2 2 3 1 4 21 5 22 6 83 7 23 8 82 9 24 10 25 11 26 12
REMARK SMILES IDX 76 13 27 14 81 15 75 16 77 17 28 18 80 19 74 20 73 21 29 23
REMARK SMILES IDX 61 24 41 25 60 26 42 27 45 28 59 29 78 30 43 31 44 32 58 34
REMARK SMILES IDX 79 35 46 36 30 37 31 38 39 39 32 40 34 41 40 42 33 43 35 44
REMARK SMILES IDX 36 45 37 46 38 47 62 48 63 49 71 50 64 51 66 52 72 53 65 54
REMARK SMILES IDX 67 55 68 56 69 57 70 58 47 59 48 60 56 61 49 62 51 63 57 64
REMARK SMILES IDX 50 65 52 66 53 67 54 68 55 69 5 70 6 71 7 72 8 73 9 74 10 75
REMARK SMILES IDX 11 76 12 77 13 78 20 79 14 80 19 81 15 82 16 83 17 84 18 85
REMARK H PARENT 77 22 45 33
REMARK Flexibility Score: inf
ROOT
ATOM      1  C   UNL A   1      34.408  35.000  28.390  1.00  0.00     0.275 C 
ENDROOT
BRANCH   1   2
ATOM      2  O   UNL A   1      34.368  33.910  27.462  1.00  0.00    -0.458 OA
BRANCH   2   3
ATOM      3  C   UNL A   1      34.220  32.586  27.690  1.00  0.00     0.338 C 
ATOM      4  O   UNL A   1      33.107  32.095  27.495  1.00  0.00    -0.246 OA
BRANCH   3   5
ATOM      5  C   UNL A   1      35.292  31.690  28.248  1.00  0.00     0.060 A 
ATOM      6  C   UNL A   1      35.227  30.323  28.532  1.00  0.00     0.016 A 
ATOM      7  C   UNL A   1      36.517  32.323  28.478  1.00  0.00     0.016 A 
ATOM      8  C   UNL A   1      36.366  29.608  28.938  1.00  0.00     0.010 A 
ATOM      9  C   UNL A   1      37.679  31.612  28.751  1.00  0.00     0.010 A 
ATOM     10  C   UNL A   1      37.599  30.250  29.043  1.00  0.00    -0.014 A 
BRANCH  10  11
ATOM     11  C   UNL A   1      38.751  29.614  29.719  1.00  0.00     0.031 A 
ATOM     12  C   UNL A   1      38.951  29.944  31.176  1.00  0.00     0.074 A 
ATOM     13  C   UNL A   1      39.628  28.844  29.052  1.00  0.00     0.049 A 
ATOM     14  N   UNL A   1      39.942  29.644  31.969  1.00  0.00    -0.248 NA
ATOM     15  C   UNL A   1      37.915  30.786  31.806  1.00  0.00     0.031 C 
ATOM     16  C   UNL A   1      39.559  28.511  27.630  1.00  0.00     0.029 A 
ATOM     17  N   UNL A   1      40.778  28.232  29.483  1.00  0.00    -0.354 N 
ATOM     18  C   UNL A   1      39.681  30.319  33.155  1.00  0.00     0.074 A 
ATOM     19  C   UNL A   1      38.486  31.101  32.955  1.00  0.00     0.031 C 
ATOM     20  C   UNL A   1      40.631  27.770  27.300  1.00  0.00     0.029 A 
ATOM     21  C   UNL A   1      41.470  27.590  28.483  1.00  0.00     0.049 A 
ATOM     22  H   UNL A   1      41.079  28.250  30.420  1.00  0.00     0.167 HD
ATOM     23  C   UNL A   1      40.349  30.262  34.327  1.00  0.00     0.034 A 
ATOM     24  C   UNL A   1      42.653  26.943  28.526  1.00  0.00     0.034 A 
ATOM     25  C   UNL A   1      41.501  29.435  34.521  1.00  0.00     0.049 A 
ATOM     26  C   UNL A   1      43.358  26.831  29.854  1.00  0.00     0.074 A 
ATOM     27  C   UNL A   1      42.219  29.209  35.678  1.00  0.00     0.029 A 
ATOM     28  N   UNL A   1      42.105  28.698  33.513  1.00  0.00    -0.354 N 
ATOM     29  N   UNL A   1      43.022  27.352  31.011  1.00  0.00    -0.248 NA
ATOM     30  C   UNL A   1      44.577  26.010  29.901  1.00  0.00     0.031 C 
ATOM     31  C   UNL A   1      43.283  28.359  35.359  1.00  0.00     0.029 A 
ATOM     32  C   UNL A   1      43.195  28.020  34.016  1.00  0.00     0.049 A 
ATOM     33  H   UNL A   1      41.801  28.664  32.577  1.00  0.00     0.167 HD
ATOM     34  C   UNL A   1      43.957  26.888  31.929  1.00  0.00     0.074 A 
ATOM     35  C   UNL A   1      44.875  26.043  31.194  1.00  0.00     0.031 C 
ATOM     36  C   UNL A   1      44.048  27.137  33.260  1.00  0.00     0.034 A 
BRANCH  23  37
ATOM     37  C   UNL A   1      39.819  31.102  35.462  1.00  0.00     0.023 A 
ATOM     38  C   UNL A   1      38.593  30.767  36.078  1.00  0.00     0.012 A 
ATOM     39  C   UNL A   1      40.506  32.256  35.881  1.00  0.00     0.148 A 
ATOM     40  C   UNL A   1      38.019  31.609  37.029  1.00  0.00     0.002 A 
ATOM     41  C   UNL A   1      39.958  33.058  36.875  1.00  0.00     0.091 A 
ATOM     42  F   UNL A   1      41.658  32.572  35.274  1.00  0.00    -0.205 F 
ATOM     43  C   UNL A   1      38.706  32.751  37.431  1.00  0.00     0.022 A 
BRANCH  41  44
ATOM     44  S   UNL A   1      40.803  34.501  37.524  1.00  0.00     0.127 S 
ATOM     45  O   UNL A   1      40.969  35.314  36.320  1.00  0.00    -0.237 OA
ATOM     46  O   UNL A   1      39.827  35.022  38.481  1.00  0.00    -0.237 OA
ATOM     47  O   UNL A   1      42.036  34.009  38.124  1.00  0.00    -0.744 OA
ENDBRANCH  41  44
ENDBRANCH  23  37
BRANCH  24  48
ATOM     48  C   UNL A   1      43.192  26.296  27.295  1.00  0.00     0.023 A 
ATOM     49  C   UNL A   1      44.084  27.006  26.469  1.00  0.00     0.012 A 
ATOM     50  C   UNL A   1      42.874  24.962  26.971  1.00  0.00     0.148 A 
ATOM     51  C   UNL A   1      44.633  26.409  25.332  1.00  0.00     0.002 A 
ATOM     52  C   UNL A   1      43.460  24.358  25.864  1.00  0.00     0.091 A 
ATOM     53  F   UNL A   1      42.022  24.304  27.770  1.00  0.00    -0.205 F 
ATOM     54  C   UNL A   1      44.330  25.083  25.035  1.00  0.00     0.022 A 
BRANCH  52  55
ATOM     55  S   UNL A   1      43.230  22.619  25.470  1.00  0.00     0.127 S 
ATOM     56  O   UNL A   1      41.799  22.446  25.707  1.00  0.00    -0.237 OA
ATOM     57  O   UNL A   1      43.630  22.579  24.063  1.00  0.00    -0.237 OA
ATOM     58  O   UNL A   1      44.109  21.888  26.371  1.00  0.00    -0.744 OA
ENDBRANCH  52  55
ENDBRANCH  24  48
BRANCH  36  59
ATOM     59  C   UNL A   1      45.128  26.441  34.040  1.00  0.00     0.023 A 
ATOM     60  C   UNL A   1      46.382  27.053  34.216  1.00  0.00     0.012 A 
ATOM     61  C   UNL A   1      44.822  25.256  34.740  1.00  0.00     0.148 A 
ATOM     62  C   UNL A   1      47.322  26.491  35.078  1.00  0.00     0.002 A 
ATOM     63  C   UNL A   1      45.741  24.734  35.640  1.00  0.00     0.091 A 
ATOM     64  F   UNL A   1      43.624  24.689  34.541  1.00  0.00    -0.205 F 
ATOM     65  C   UNL A   1      46.995  25.345  35.803  1.00  0.00     0.022 A 
BRANCH  63  66
ATOM     66  S   UNL A   1      45.358  23.340  36.703  1.00  0.00     0.127 S 
ATOM     67  O   UNL A   1      44.528  22.517  35.826  1.00  0.00    -0.237 OA
ATOM     68  O   UNL A   1      46.685  22.793  36.983  1.00  0.00    -0.237 OA
ATOM     69  O   UNL A   1      44.672  23.892  37.865  1.00  0.00    -0.744 OA
ENDBRANCH  63  66
ENDBRANCH  36  59
ENDBRANCH  10  11
ENDBRANCH   3   5
ENDBRANCH   2   3
ENDBRANCH   1   2
BRANCH   1  70
ATOM     70  C   UNL A   1      33.379  34.895  29.518  1.00  0.00     0.274 C 
BRANCH  70  71
ATOM     71  O   UNL A   1      33.949  35.113  30.818  1.00  0.00    -0.462 OA
BRANCH  71  72
ATOM     72  C   UNL A   1      34.258  34.022  31.586  1.00  0.00     0.309 C 
ATOM     73  O   UNL A   1      34.194  32.861  31.222  1.00  0.00    -0.252 OA
BRANCH  72  74
ATOM     74  C   UNL A   1      34.590  34.451  32.972  1.00  0.00     0.107 C 
ATOM     75  C   UNL A   1      35.199  33.457  33.925  1.00  0.00     0.025 C 
ATOM     76  C   UNL A   1      35.949  34.720  33.588  1.00  0.00     0.034 C 
BRANCH  76  77
ATOM     77  C   UNL A   1      37.317  34.662  32.936  1.00  0.00    -0.044 A 
ATOM     78  C   UNL A   1      37.517  34.453  31.568  1.00  0.00     0.004 A 
ATOM     79  C   UNL A   1      38.474  34.589  33.712  1.00  0.00     0.004 A 
ATOM     80  C   UNL A   1      38.800  34.205  31.032  1.00  0.00     0.004 A 
ATOM     81  C   UNL A   1      39.751  34.345  33.195  1.00  0.00     0.004 A 
ATOM     82  C   UNL A   1      39.955  34.144  31.832  1.00  0.00    -0.045 A 
BRANCH  82  83
ATOM     83  C   UNL A   1      41.322  33.859  31.235  1.00  0.00     0.019 C 
ATOM     84  C   UNL A   1      42.107  32.630  31.639  1.00  0.00     0.009 C 
ATOM     85  C   UNL A   1      41.527  32.720  30.258  1.00  0.00     0.009 C 
ENDBRANCH  82  83
ENDBRANCH  76  77
ENDBRANCH  72  74
ENDBRANCH  71  72
ENDBRANCH  70  71
ENDBRANCH   1  70
TORSDOF 16
ENDMDL
MODEL 2
REMARK VINA RESULT:      -9.8      1.952      2.527
REMARK SMILES O=C(OCCOC(=O)[C@H]1C[C@H]1c1ccc(C2CC2)cc1)c1ccc(-c2c3nc(c(-c4cccc(S(=O)(=O)[O-])c4F)c4ccc([nH]4)c(-c4cccc(S(=O)(=O)[O-])c4F)c4nc(c(-c5cccc(S(=O)(=O)[O-])c5F)c5ccc2[nH]5)C=C4)C=C3)cc1
REMARK SMILES IDX 4 1 3 2 2 3 1 4 21 5 22 6 83 7 23 8 82 9 24 10 25 11 26 12
REMARK SMILES IDX 76 13 27 14 81 15 75 16 77 17 28 18 80 19 74 20 73 21 29 23
REMARK SMILES IDX 61 24 41 25 60 26 42 27 45 28 59 29 78 30 43 31 44 32 58 34
REMARK SMILES IDX 79 35 46 36 30 37 31 38 39 39 32 40 34 41 40 42 33 43 35 44
REMARK SMILES IDX 36 45 37 46 38 47 62 48 63 49 71 50 64 51 66 52 72 53 65 54
REMARK SMILES IDX 67 55 68 56 69 57 70 58 47 59 48 60 56 61 49 62 51 63 57 64
REMARK SMILES IDX 50 65 52 66 53 67 54 68 55 69 5 70 6 71 7 72 8 73 9 74 10 75
REMARK SMILES IDX 11 76 12 77 13 78 20 79 14 80 19 81 15 82 16 83 17 84 18 85
REMARK H PARENT 77 22 45 33
REMARK Flexibility Score: inf
ROOT
ATOM      1  C   UNL A   1      33.996  33.926  28.203  1.00  0.00     0.275 C 
ENDROOT
BRANCH   1   2
ATOM      2  O   UNL A   1      34.149  32.602  28.731  1.00  0.00    -0.458 OA
BRANCH   2   3
ATOM      3  C   UNL A   1      34.676  31.499  28.156  1.00  0.00     0.338 C 
ATOM      4  O   UNL A   1      34.116  31.057  27.151  1.00  0.00    -0.246 OA
BRANCH   3   5
ATOM      5  C   UNL A   1      35.841  30.722  28.705  1.00  0.00     0.060 A 
ATOM      6  C   UNL A   1      35.908  29.956  29.872  1.00  0.00     0.016 A 
ATOM      7  C   UNL A   1      36.992  30.763  27.912  1.00  0.00     0.016 A 
ATOM      8  C   UNL A   1      37.046  29.191  30.177  1.00  0.00     0.010 A 
ATOM      9  C   UNL A   1      38.072  29.915  28.128  1.00  0.00     0.010 A 
ATOM     10  C   UNL A   1      38.131  29.163  29.302  1.00  0.00    -0.014 A 
BRANCH  10  11
ATOM     11  C   UNL A   1      39.439  28.600  29.703  1.00  0.00     0.031 A 
ATOM     12  C   UNL A   1      40.175  29.314  30.807  1.00  0.00     0.074 A 
ATOM     13  C   UNL A   1      39.988  27.554  29.062  1.00  0.00     0.049 A 
ATOM     14  N   UNL A   1      41.384  29.126  31.259  1.00  0.00    -0.248 NA
ATOM     15  C   UNL A   1      39.466  30.439  31.448  1.00  0.00     0.031 C 
ATOM     16  C   UNL A   1      39.386  26.830  27.943  1.00  0.00     0.029 A 
ATOM     17  N   UNL A   1      41.202  26.943  29.240  1.00  0.00    -0.354 N 
ATOM     18  C   UNL A   1      41.598  30.150  32.173  1.00  0.00     0.074 A 
ATOM     19  C   UNL A   1      40.431  30.996  32.157  1.00  0.00     0.031 C 
ATOM     20  C   UNL A   1      40.242  25.883  27.522  1.00  0.00     0.029 A 
ATOM     21  C   UNL A   1      41.458  25.945  28.330  1.00  0.00     0.049 A 
ATOM     22  H   UNL A   1      41.832  27.194  29.955  1.00  0.00     0.167 HD
ATOM     23  C   UNL A   1      42.654  30.348  32.991  1.00  0.00     0.034 A 
ATOM     24  C   UNL A   1      42.558  25.181  28.168  1.00  0.00     0.034 A 
ATOM     25  C   UNL A   1      43.779  29.464  33.031  1.00  0.00     0.049 A 
ATOM     26  C   UNL A   1      43.706  25.368  29.127  1.00  0.00     0.074 A 
ATOM     27  C   UNL A   1      44.872  29.490  33.873  1.00  0.00     0.029 A 
ATOM     28  N   UNL A   1      43.948  28.386  32.173  1.00  0.00    -0.354 N 
ATOM     29  N   UNL A   1      43.837  26.249  30.092  1.00  0.00    -0.248 NA
ATOM     30  C   UNL A   1      44.838  24.437  29.012  1.00  0.00     0.031 C 
ATOM     31  C   UNL A   1      45.722  28.445  33.499  1.00  0.00     0.029 A 
ATOM     32  C   UNL A   1      45.133  27.741  32.458  1.00  0.00     0.049 A 
ATOM     33  H   UNL A   1      43.316  28.120  31.467  1.00  0.00     0.167 HD
ATOM     34  C   UNL A   1      45.037  25.951  30.726  1.00  0.00     0.074 A 
ATOM     35  C   UNL A   1      45.597  24.807  30.035  1.00  0.00     0.031 C 
ATOM     36  C   UNL A   1      45.624  26.565  31.784  1.00  0.00     0.034 A 
BRANCH  23  37
ATOM     37  C   UNL A   1      42.604  31.550  33.900  1.00  0.00     0.023 A 
ATOM     38  C   UNL A   1      43.111  32.792  33.460  1.00  0.00     0.012 A 
ATOM     39  C   UNL A   1      42.105  31.437  35.211  1.00  0.00     0.148 A 
ATOM     40  C   UNL A   1      43.202  33.876  34.332  1.00  0.00     0.002 A 
ATOM     41  C   UNL A   1      42.142  32.540  36.056  1.00  0.00     0.091 A 
ATOM     42  F   UNL A   1      41.646  30.248  35.622  1.00  0.00    -0.205 F 
ATOM     43  C   UNL A   1      42.712  33.750  35.628  1.00  0.00     0.022 A 
BRANCH  41  44
ATOM     44  S   UNL A   1      41.457  32.506  37.714  1.00  0.00     0.127 S 
ATOM     45  O   UNL A   1      41.633  33.894  38.137  1.00  0.00    -0.237 OA
ATOM     46  O   UNL A   1      40.068  32.118  37.463  1.00  0.00    -0.237 OA
ATOM     47  O   UNL A   1      42.237  31.520  38.451  1.00  0.00    -0.744 OA
ENDBRANCH  41  44
ENDBRANCH  23  37
BRANCH  24  48
ATOM     48  C   UNL A   1      42.585  24.132  27.108  1.00  0.00     0.023 A 
ATOM     49  C   UNL A   1      43.236  24.393  25.886  1.00  0.00     0.012 A 
ATOM     50  C   UNL A   1      42.025  22.858  27.326  1.00  0.00     0.148 A 
ATOM     51  C   UNL A   1      43.309  23.413  24.893  1.00  0.00     0.002 A 
ATOM     52  C   UNL A   1      42.142  21.871  26.353  1.00  0.00     0.091 A 
ATOM     53  F   UNL A   1      41.410  22.630  28.495  1.00  0.00    -0.205 F 
ATOM     54  C   UNL A   1      42.772  22.151  25.130  1.00  0.00     0.022 A 
BRANCH  52  55
ATOM     55  S   UNL A   1      41.593  20.180  26.611  1.00  0.00     0.127 S 
ATOM     56  O   UNL A   1      42.340  19.802  27.808  1.00  0.00    -0.237 OA
ATOM     57  O   UNL A   1      40.156  20.362  26.814  1.00  0.00    -0.237 OA
ATOM     58  O   UNL A   1      41.947  19.458  25.397  1.00  0.00    -0.744 OA
ENDBRANCH  52  55
ENDBRANCH  24  48
BRANCH  36  59
ATOM     59  C   UNL A   1      46.903  25.986  32.322  1.00  0.00     0.023 A 
ATOM     60  C   UNL A   1      48.143  26.514  31.921  1.00  0.00     0.012 A 
ATOM     61  C   UNL A   1      46.849  25.033  33.359  1.00  0.00     0.148 A 
ATOM     62  C   UNL A   1      49.318  26.097  32.545  1.00  0.00     0.002 A 
ATOM     63  C   UNL A   1      48.016  24.665  34.013  1.00  0.00     0.091 A 
ATOM     64  F   UNL A   1      45.654  24.537  33.709  1.00  0.00    -0.205 F 
ATOM     65  C   UNL A   1      49.252  25.189  33.602  1.00  0.00     0.022 A 
BRANCH  63  66
ATOM     66  S   UNL A   1      48.011  23.602  35.460  1.00  0.00     0.127 S 
ATOM     67  O   UNL A   1      47.138  24.343  36.369  1.00  0.00    -0.237 OA
ATOM     68  O   UNL A   1      47.437  22.365  34.931  1.00  0.00    -0.237 OA
ATOM     69  O   UNL A   1      49.400  23.493  35.887  1.00  0.00    -0.744 OA
ENDBRANCH  63  66
ENDBRANCH  36  59
ENDBRANCH  10  11
ENDBRANCH   3   5
ENDBRANCH   2   3
ENDBRANCH   1   2
BRANCH   1  70
ATOM     70  C   UNL A   1      33.616  34.973  29.252  1.00  0.00     0.274 C 
BRANCH  70  71
ATOM     71  O   UNL A   1      33.455  34.417  30.567  1.00  0.00    -0.462 OA
BRANCH  71  72
ATOM     72  C   UNL A   1      33.718  35.213  31.649  1.00  0.00     0.309 C 
ATOM     73  O   UNL A   1      33.612  36.427  31.674  1.00  0.00    -0.252 OA
BRANCH  72  74
ATOM     74  C   UNL A   1      34.251  34.393  32.769  1.00  0.00     0.107 C 
ATOM     75  C   UNL A   1      34.523  32.929  32.547  1.00  0.00     0.025 C 
ATOM     76  C   UNL A   1      35.649  33.840  32.967  1.00  0.00     0.034 C 
BRANCH  76  77
ATOM     77  C   UNL A   1      36.873  34.017  32.089  1.00  0.00    -0.044 A 
ATOM     78  C   UNL A   1      36.946  33.588  30.761  1.00  0.00     0.004 A 
ATOM     79  C   UNL A   1      38.090  34.424  32.637  1.00  0.00     0.004 A 
ATOM     80  C   UNL A   1      38.163  33.589  30.043  1.00  0.00     0.004 A 
ATOM     81  C   UNL A   1      39.303  34.430  31.939  1.00  0.00     0.004 A 
ATOM     82  C   UNL A   1      39.376  34.011  30.613  1.00  0.00    -0.045 A 
BRANCH  82  83
ATOM     83  C   UNL A   1      40.675  33.986  29.826  1.00  0.00     0.019 C 
ATOM     84  C   UNL A   1      41.225  35.245  29.190  1.00  0.00     0.009 C 
ATOM     85  C   UNL A   1      41.930  34.638  30.367  1.00  0.00     0.009 C 
ENDBRANCH  82  83
ENDBRANCH  76  77
ENDBRANCH  72  74
ENDBRANCH  71  72
ENDBRANCH  70  71
ENDBRANCH   1  70
TORSDOF 16
ENDMDL
MODEL 3
REMARK VINA RESULT:      -9.7      4.542     12.025
REMARK SMILES O=C(OCCOC(=O)[C@H]1C[C@H]1c1ccc(C2CC2)cc1)c1ccc(-c2c3nc(c(-c4cccc(S(=O)(=O)[O-])c4F)c4ccc([nH]4)c(-c4cccc(S(=O)(=O)[O-])c4F)c4nc(c(-c5cccc(S(=O)(=O)[O-])c5F)c5ccc2[nH]5)C=C4)C=C3)cc1
REMARK SMILES IDX 4 1 3 2 2 3 1 4 21 5 22 6 83 7 23 8 82 9 24 10 25 11 26 12
REMARK SMILES IDX 76 13 27 14 81 15 75 16 77 17 28 18 80 19 74 20 73 21 29 23
REMARK SMILES IDX 61 24 41 25 60 26 42 27 45 28 59 29 78 30 43 31 44 32 58 34
REMARK SMILES IDX 79 35 46 36 30 37 31 38 39 39 32 40 34 41 40 42 33 43 35 44
REMARK SMILES IDX 36 45 37 46 38 47 62 48 63 49 71 50 64 51 66 52 72 53 65 54
REMARK SMILES IDX 67 55 68 56 69 57 70 58 47 59 48 60 56 61 49 62 51 63 57 64
REMARK SMILES IDX 50 65 52 66 53 67 54 68 55 69 5 70 6 71 7 72 8 73 9 74 10 75
REMARK SMILES IDX 11 76 12 77 13 78 20 79 14 80 19 81 15 82 16 83 17 84 18 85
REMARK H PARENT 77 22 45 33
REMARK Flexibility Score: inf
ROOT
ATOM      1  C   UNL A   1      41.711  19.923  26.492  1.00  0.00     0.275 C 
ENDROOT
BRANCH   1   2
ATOM      2  O   UNL A   1      40.697  20.686  27.159  1.00  0.00    -0.458 OA
BRANCH   2   3
ATOM      3  C   UNL A   1      39.891  21.658  26.678  1.00  0.00     0.338 C 
ATOM      4  O   UNL A   1      38.990  21.322  25.908  1.00  0.00    -0.246 OA
BRANCH   3   5
ATOM      5  C   UNL A   1      40.072  23.127  26.944  1.00  0.00     0.060 A 
ATOM      6  C   UNL A   1      39.338  24.203  26.438  1.00  0.00     0.016 A 
ATOM      7  C   UNL A   1      41.099  23.432  27.843  1.00  0.00     0.016 A 
ATOM      8  C   UNL A   1      39.564  25.515  26.888  1.00  0.00     0.010 A 
ATOM      9  C   UNL A   1      41.248  24.699  28.395  1.00  0.00     0.010 A 
ATOM     10  C   UNL A   1      40.517  25.766  27.874  1.00  0.00    -0.014 A 
BRANCH  10  11
ATOM     11  C   UNL A   1      40.975  27.139  28.179  1.00  0.00     0.031 A 
ATOM     12  C   UNL A   1      42.394  27.480  27.806  1.00  0.00     0.074 A 
ATOM     13  C   UNL A   1      40.196  28.019  28.833  1.00  0.00     0.049 A 
ATOM     14  N   UNL A   1      43.093  28.547  28.077  1.00  0.00    -0.248 NA
ATOM     15  C   UNL A   1      43.149  26.442  27.077  1.00  0.00     0.031 C 
ATOM     16  C   UNL A   1      38.830  27.769  29.291  1.00  0.00     0.029 A 
ATOM     17  N   UNL A   1      40.463  29.294  29.259  1.00  0.00    -0.354 N 
ATOM     18  C   UNL A   1      44.377  28.272  27.621  1.00  0.00     0.074 A 
ATOM     19  C   UNL A   1      44.380  26.918  27.126  1.00  0.00     0.031 C 
ATOM     20  C   UNL A   1      38.384  28.852  29.952  1.00  0.00     0.029 A 
ATOM     21  C   UNL A   1      39.439  29.863  29.978  1.00  0.00     0.049 A 
ATOM     22  H   UNL A   1      41.310  29.760  29.068  1.00  0.00     0.167 HD
ATOM     23  C   UNL A   1      45.452  29.088  27.573  1.00  0.00     0.034 A 
ATOM     24  C   UNL A   1      39.373  31.062  30.594  1.00  0.00     0.034 A 
ATOM     25  C   UNL A   1      45.412  30.447  28.017  1.00  0.00     0.049 A 
ATOM     26  C   UNL A   1      40.557  31.989  30.480  1.00  0.00     0.074 A 
ATOM     27  C   UNL A   1      46.396  31.412  27.942  1.00  0.00     0.029 A 
ATOM     28  N   UNL A   1      44.312  31.031  28.631  1.00  0.00    -0.354 N 
ATOM     29  N   UNL A   1      41.720  31.773  29.912  1.00  0.00    -0.248 NA
ATOM     30  C   UNL A   1      40.411  33.338  31.047  1.00  0.00     0.031 C 
ATOM     31  C   UNL A   1      45.901  32.572  28.545  1.00  0.00     0.029 A 
ATOM     32  C   UNL A   1      44.593  32.342  28.950  1.00  0.00     0.049 A 
ATOM     33  H   UNL A   1      43.458  30.575  28.813  1.00  0.00     0.167 HD
ATOM     34  C   UNL A   1      42.426  32.966  30.012  1.00  0.00     0.074 A 
ATOM     35  C   UNL A   1      41.559  33.903  30.696  1.00  0.00     0.031 C 
ATOM     36  C   UNL A   1      43.676  33.261  29.577  1.00  0.00     0.034 A 
BRANCH  23  37
ATOM     37  C   UNL A   1      46.725  28.514  27.003  1.00  0.00     0.023 A 
ATOM     38  C   UNL A   1      47.821  28.243  27.851  1.00  0.00     0.012 A 
ATOM     39  C   UNL A   1      46.857  28.296  25.619  1.00  0.00     0.148 A 
ATOM     40  C   UNL A   1      49.050  27.848  27.325  1.00  0.00     0.002 A 
ATOM     41  C   UNL A   1      48.066  27.841  25.108  1.00  0.00     0.091 A 
ATOM     42  F   UNL A   1      45.815  28.577  24.824  1.00  0.00    -0.205 F 
ATOM     43  C   UNL A   1      49.170  27.641  25.954  1.00  0.00     0.022 A 
BRANCH  41  44
ATOM     44  S   UNL A   1      48.296  27.462  23.370  1.00  0.00     0.127 S 
ATOM     45  O   UNL A   1      48.130  26.010  23.358  1.00  0.00    -0.237 OA
ATOM     46  O   UNL A   1      47.201  28.206  22.747  1.00  0.00    -0.237 OA
ATOM     47  O   UNL A   1      49.627  27.945  23.027  1.00  0.00    -0.744 OA
ENDBRANCH  41  44
ENDBRANCH  23  37
BRANCH  24  48
ATOM     48  C   UNL A   1      38.123  31.468  31.299  1.00  0.00     0.023 A 
ATOM     49  C   UNL A   1      38.014  31.276  32.690  1.00  0.00     0.012 A 
ATOM     50  C   UNL A   1      37.069  32.100  30.611  1.00  0.00     0.148 A 
ATOM     51  C   UNL A   1      36.870  31.684  33.380  1.00  0.00     0.002 A 
ATOM     52  C   UNL A   1      35.952  32.546  31.310  1.00  0.00     0.091 A 
ATOM     53  F   UNL A   1      37.192  32.273  29.287  1.00  0.00    -0.205 F 
ATOM     54  C   UNL A   1      35.844  32.327  32.692  1.00  0.00     0.022 A 
BRANCH  52  55
ATOM     55  S   UNL A   1      34.636  33.495  30.537  1.00  0.00     0.127 S 
ATOM     56  O   UNL A   1      35.381  34.582  29.907  1.00  0.00    -0.237 OA
ATOM     57  O   UNL A   1      34.071  32.516  29.608  1.00  0.00    -0.237 OA
ATOM     58  O   UNL A   1      33.744  33.890  31.618  1.00  0.00    -0.744 OA
ENDBRANCH  52  55
ENDBRANCH  24  48
BRANCH  36  59
ATOM     59  C   UNL A   1      44.175  34.668  29.751  1.00  0.00     0.023 A 
ATOM     60  C   UNL A   1      44.851  35.040  30.928  1.00  0.00     0.012 A 
ATOM     61  C   UNL A   1      44.119  35.564  28.664  1.00  0.00     0.148 A 
ATOM     62  C   UNL A   1      45.463  36.289  31.021  1.00  0.00     0.002 A 
ATOM     63  C   UNL A   1      44.779  36.782  28.743  1.00  0.00     0.091 A 
ATOM     64  F   UNL A   1      43.456  35.187  27.561  1.00  0.00    -0.205 F 
ATOM     65  C   UNL A   1      45.443  37.150  29.925  1.00  0.00     0.022 A 
BRANCH  63  66
ATOM     66  S   UNL A   1      44.912  37.895  27.341  1.00  0.00     0.127 S 
ATOM     67  O   UNL A   1      45.719  37.107  26.412  1.00  0.00    -0.237 OA
ATOM     68  O   UNL A   1      43.513  38.062  26.947  1.00  0.00    -0.237 OA
ATOM     69  O   UNL A   1      45.549  39.105  27.843  1.00  0.00    -0.744 OA
ENDBRANCH  63  66
ENDBRANCH  36  59
ENDBRANCH  10  11
ENDBRANCH   3   5
ENDBRANCH   2   3
ENDBRANCH   1   2
BRANCH   1  70
ATOM     70  C   UNL A   1      42.955  20.732  26.121  1.00  0.00     0.274 C 
BRANCH  70  71
ATOM     71  O   UNL A   1      42.723  21.654  25.044  1.00  0.00    -0.462 OA
BRANCH  71  72
ATOM     72  C   UNL A   1      43.426  22.829  25.028  1.00  0.00     0.309 C 
ATOM     73  O   UNL A   1      42.937  23.945  25.038  1.00  0.00    -0.252 OA
BRANCH  72  74
ATOM     74  C   UNL A   1      44.881  22.551  24.892  1.00  0.00     0.107 C 
ATOM     75  C   UNL A   1      45.830  23.693  24.639  1.00  0.00     0.025 C 
ATOM     76  C   UNL A   1      46.004  22.840  25.870  1.00  0.00     0.034 C 
BRANCH  76  77
ATOM     77  C   UNL A   1      45.923  23.449  27.256  1.00  0.00    -0.044 A 
ATOM     78  C   UNL A   1      44.842  23.265  28.124  1.00  0.00     0.004 A 
ATOM     79  C   UNL A   1      46.835  24.424  27.661  1.00  0.00     0.004 A 
ATOM     80  C   UNL A   1      44.711  24.007  29.319  1.00  0.00     0.004 A 
ATOM     81  C   UNL A   1      46.719  25.166  28.842  1.00  0.00     0.004 A 
ATOM     82  C   UNL A   1      45.648  24.979  29.712  1.00  0.00    -0.045 A 
BRANCH  82  83
ATOM     83  C   UNL A   1      45.476  25.776  30.993  1.00  0.00     0.019 C 
ATOM     84  C   UNL A   1      45.993  25.247  32.314  1.00  0.00     0.009 C 
ATOM     85  C   UNL A   1      46.661  26.428  31.673  1.00  0.00     0.009 C 
ENDBRANCH  82  83
ENDBRANCH  76  77
ENDBRANCH  72  74
ENDBRANCH  71  72
ENDBRANCH  70  71
ENDBRANCH   1  70
TORSDOF 16
ENDMDL
