MODEL 1
REMARK VINA RESULT:     -11.6      0.000      0.000
REMARK SMILES O=C(OCCOC(=O)c1ccc2c(c1)=N[C@H](C(F)(F)F)N=2)c1ccc(-c2c3nc(c(-c4cccc(S(=O)(=O)[O-])c4F)c4ccc([nH]4)c(-c4cccc(S(=O)(=O)[O-])c4F)c4nc(c(-c5cccc(S(=O)(=O)[O-])c5F)c5ccc2[nH]5)C=C4)C=C3)cc1
REMARK SMILES IDX 4 1 3 2 2 3 1 4 22 5 23 6 84 7 24 8 83 9 25 10 26 11 27 12
REMARK SMILES IDX 77 13 28 14 82 15 76 16 78 17 29 18 81 19 75 20 74 21 30 23
REMARK SMILES IDX 62 24 42 25 61 26 43 27 46 28 60 29 79 30 44 31 45 32 59 34
REMARK SMILES IDX 80 35 47 36 31 37 32 38 40 39 33 40 35 41 41 42 34 43 36 44
REMARK SMILES IDX 37 45 38 46 39 47 63 48 64 49 72 50 65 51 67 52 73 53 66 54
REMARK SMILES IDX 68 55 69 56 70 57 71 58 48 59 49 60 57 61 50 62 52 63 58 64
REMARK SMILES IDX 51 65 53 66 54 67 55 68 56 69 5 70 6 71 7 72 8 73 9 74 10 75
REMARK SMILES IDX 14 76 11 77 13 78 12 79 15 80 21 81 16 82 17 83 18 84 19 85
REMARK SMILES IDX 20 86
REMARK H PARENT 78 22 46 33
REMARK Flexibility Score: inf
ROOT
ATOM      1  C   UNL A   1      31.441  32.368  26.925  1.00  0.00     0.275 C 
ENDROOT
BRANCH   1   2
ATOM      2  O   UNL A   1      32.628  33.178  26.979  1.00  0.00    -0.458 OA
BRANCH   2   3
ATOM      3  C   UNL A   1      33.233  33.725  28.064  1.00  0.00     0.338 C 
ATOM      4  O   UNL A   1      32.827  34.799  28.502  1.00  0.00    -0.246 OA
BRANCH   3   5
ATOM      5  C   UNL A   1      34.514  33.184  28.606  1.00  0.00     0.060 A 
ATOM      6  C   UNL A   1      34.403  32.224  29.625  1.00  0.00     0.016 A 
ATOM      7  C   UNL A   1      35.793  33.523  28.159  1.00  0.00     0.016 A 
ATOM      8  C   UNL A   1      35.538  31.717  30.264  1.00  0.00     0.010 A 
ATOM      9  C   UNL A   1      36.933  33.013  28.792  1.00  0.00     0.010 A 
ATOM     10  C   UNL A   1      36.816  32.129  29.868  1.00  0.00    -0.014 A 
BRANCH  10  11
ATOM     11  C   UNL A   1      38.017  31.513  30.475  1.00  0.00     0.031 A 
ATOM     12  C   UNL A   1      38.512  31.905  31.834  1.00  0.00     0.074 A 
ATOM     13  C   UNL A   1      38.682  30.587  29.763  1.00  0.00     0.049 A 
ATOM     14  N   UNL A   1      39.360  31.274  32.602  1.00  0.00    -0.248 NA
ATOM     15  C   UNL A   1      37.985  33.147  32.419  1.00  0.00     0.031 C 
ATOM     16  C   UNL A   1      38.347  30.186  28.395  1.00  0.00     0.029 A 
ATOM     17  N   UNL A   1      39.776  29.829  30.079  1.00  0.00    -0.354 N 
ATOM     18  C   UNL A   1      39.420  32.001  33.783  1.00  0.00     0.074 A 
ATOM     19  C   UNL A   1      38.558  33.150  33.618  1.00  0.00     0.031 C 
ATOM     20  C   UNL A   1      39.220  29.252  27.990  1.00  0.00     0.029 A 
ATOM     21  C   UNL A   1      40.172  28.992  29.065  1.00  0.00     0.049 A 
ATOM     22  H   UNL A   1      40.235  29.878  30.949  1.00  0.00     0.167 HD
ATOM     23  C   UNL A   1      40.117  31.713  34.906  1.00  0.00     0.034 A 
ATOM     24  C   UNL A   1      41.183  28.105  29.009  1.00  0.00     0.034 A 
ATOM     25  C   UNL A   1      41.053  30.630  35.015  1.00  0.00     0.049 A 
ATOM     26  C   UNL A   1      42.033  27.887  30.224  1.00  0.00     0.074 A 
ATOM     27  C   UNL A   1      41.772  30.219  36.124  1.00  0.00     0.029 A 
ATOM     28  N   UNL A   1      41.456  29.831  33.956  1.00  0.00    -0.354 N 
ATOM     29  N   UNL A   1      41.896  28.411  31.420  1.00  0.00    -0.248 NA
ATOM     30  C   UNL A   1      43.155  26.949  30.101  1.00  0.00     0.031 C 
ATOM     31  C   UNL A   1      42.654  29.213  35.720  1.00  0.00     0.029 A 
ATOM     32  C   UNL A   1      42.466  28.981  34.365  1.00  0.00     0.049 A 
ATOM     33  H   UNL A   1      41.080  29.866  33.047  1.00  0.00     0.167 HD
ATOM     34  C   UNL A   1      42.901  27.851  32.197  1.00  0.00     0.074 A 
ATOM     35  C   UNL A   1      43.639  26.947  31.338  1.00  0.00     0.031 C 
ATOM     36  C   UNL A   1      43.183  28.075  33.503  1.00  0.00     0.034 A 
BRANCH  23  37
ATOM     37  C   UNL A   1      39.871  32.551  36.128  1.00  0.00     0.023 A 
ATOM     38  C   UNL A   1      40.555  33.777  36.252  1.00  0.00     0.012 A 
ATOM     39  C   UNL A   1      38.900  32.196  37.082  1.00  0.00     0.148 A 
ATOM     40  C   UNL A   1      40.276  34.641  37.311  1.00  0.00     0.002 A 
ATOM     41  C   UNL A   1      38.618  33.068  38.127  1.00  0.00     0.091 A 
ATOM     42  F   UNL A   1      38.276  31.018  36.946  1.00  0.00    -0.205 F 
ATOM     43  C   UNL A   1      39.303  34.291  38.242  1.00  0.00     0.022 A 
BRANCH  41  44
ATOM     44  S   UNL A   1      37.369  32.725  39.371  1.00  0.00     0.127 S 
ATOM     45  O   UNL A   1      37.592  33.819  40.317  1.00  0.00    -0.237 OA
ATOM     46  O   UNL A   1      36.130  32.826  38.602  1.00  0.00    -0.237 OA
ATOM     47  O   UNL A   1      37.668  31.396  39.887  1.00  0.00    -0.744 OA
ENDBRANCH  41  44
ENDBRANCH  23  37
BRANCH  24  48
ATOM     48  C   UNL A   1      41.363  27.322  27.760  1.00  0.00     0.023 A 
ATOM     49  C   UNL A   1      41.957  27.938  26.643  1.00  0.00     0.012 A 
ATOM     50  C   UNL A   1      41.097  25.938  27.732  1.00  0.00     0.148 A 
ATOM     51  C   UNL A   1      42.297  27.183  25.521  1.00  0.00     0.002 A 
ATOM     52  C   UNL A   1      41.475  25.186  26.628  1.00  0.00     0.091 A 
ATOM     53  F   UNL A   1      40.531  25.382  28.813  1.00  0.00    -0.205 F 
ATOM     54  C   UNL A   1      42.071  25.808  25.518  1.00  0.00     0.022 A 
BRANCH  52  55
ATOM     55  S   UNL A   1      41.342  23.395  26.585  1.00  0.00     0.127 S 
ATOM     56  O   UNL A   1      42.147  23.064  25.412  1.00  0.00    -0.237 OA
ATOM     57  O   UNL A   1      41.936  23.019  27.868  1.00  0.00    -0.237 OA
ATOM     58  O   UNL A   1      39.919  23.105  26.469  1.00  0.00    -0.744 OA
ENDBRANCH  52  55
ENDBRANCH  24  48
BRANCH  36  59
ATOM     59  C   UNL A   1      44.359  27.361  34.108  1.00  0.00     0.023 A 
ATOM     60  C   UNL A   1      45.633  27.953  34.025  1.00  0.00     0.012 A 
ATOM     61  C   UNL A   1      44.174  26.206  34.891  1.00  0.00     0.148 A 
ATOM     62  C   UNL A   1      46.710  27.405  34.720  1.00  0.00     0.002 A 
ATOM     63  C   UNL A   1      45.243  25.687  35.610  1.00  0.00     0.091 A 
ATOM     64  F   UNL A   1      42.947  25.666  34.948  1.00  0.00    -0.205 F 
ATOM     65  C   UNL A   1      46.512  26.283  35.523  1.00  0.00     0.022 A 
BRANCH  63  66
ATOM     66  S   UNL A   1      45.071  24.302  36.738  1.00  0.00     0.127 S 
ATOM     67  O   UNL A   1      44.123  24.831  37.718  1.00  0.00    -0.237 OA
ATOM     68  O   UNL A   1      44.531  23.261  35.866  1.00  0.00    -0.237 OA
ATOM     69  O   UNL A   1      46.405  24.032  37.258  1.00  0.00    -0.744 OA
ENDBRANCH  63  66
ENDBRANCH  36  59
ENDBRANCH  10  11
ENDBRANCH   3   5
ENDBRANCH   2   3
ENDBRANCH   1   2
BRANCH   1  70
ATOM     70  C   UNL A   1      31.637  31.004  26.263  1.00  0.00     0.275 C 
BRANCH  70  71
ATOM     71  O   UNL A   1      31.902  29.954  27.202  1.00  0.00    -0.458 OA
BRANCH  71  72
ATOM     72  C   UNL A   1      33.115  29.352  27.060  1.00  0.00     0.338 C 
ATOM     73  O   UNL A   1      34.200  29.834  27.323  1.00  0.00    -0.246 OA
BRANCH  72  74
ATOM     74  C   UNL A   1      32.920  27.945  26.623  1.00  0.00     0.062 A 
ATOM     75  C   UNL A   1      33.959  27.200  25.930  1.00  0.00     0.018 A 
ATOM     76  C   UNL A   1      31.708  27.434  26.899  1.00  0.00     0.046 A 
ATOM     77  C   UNL A   1      33.782  25.947  25.480  1.00  0.00     0.031 A 
ATOM     78  C   UNL A   1      31.416  26.096  26.386  1.00  0.00     0.087 A 
ATOM     79  C   UNL A   1      32.465  25.338  25.675  1.00  0.00     0.086 A 
ATOM     80  N   UNL A   1      30.297  25.461  26.431  1.00  0.00    -0.247 NA
ATOM     81  N   UNL A   1      32.049  24.186  25.283  1.00  0.00    -0.247 NA
ATOM     82  C   UNL A   1      30.626  24.150  25.762  1.00  0.00     0.326 C 
BRANCH  82  83
ATOM     83  C   UNL A   1      30.364  22.950  26.714  1.00  0.00     0.431 C 
ATOM     84  F   UNL A   1      31.434  22.709  27.511  1.00  0.00    -0.167 F 
ATOM     85  F   UNL A   1      29.305  23.165  27.528  1.00  0.00    -0.167 F 
ATOM     86  F   UNL A   1      30.119  21.809  26.018  1.00  0.00    -0.167 F 
ENDBRANCH  82  83
ENDBRANCH  72  74
ENDBRANCH  71  72
ENDBRANCH  70  71
ENDBRANCH   1  70
TORSDOF 15
ENDMDL
MODEL 2
REMARK VINA RESULT:     -11.2      5.720     10.708
REMARK SMILES O=C(OCCOC(=O)c1ccc2c(c1)=N[C@H](C(F)(F)F)N=2)c1ccc(-c2c3nc(c(-c4cccc(S(=O)(=O)[O-])c4F)c4ccc([nH]4)c(-c4cccc(S(=O)(=O)[O-])c4F)c4nc(c(-c5cccc(S(=O)(=O)[O-])c5F)c5ccc2[nH]5)C=C4)C=C3)cc1
REMARK SMILES IDX 4 1 3 2 2 3 1 4 22 5 23 6 84 7 24 8 83 9 25 10 26 11 27 12
REMARK SMILES IDX 77 13 28 14 82 15 76 16 78 17 29 18 81 19 75 20 74 21 30 23
REMARK SMILES IDX 62 24 42 25 61 26 43 27 46 28 60 29 79 30 44 31 45 32 59 34
REMARK SMILES IDX 80 35 47 36 31 37 32 38 40 39 33 40 35 41 41 42 34 43 36 44
REMARK SMILES IDX 37 45 38 46 39 47 63 48 64 49 72 50 65 51 67 52 73 53 66 54
REMARK SMILES IDX 68 55 69 56 70 57 71 58 48 59 49 60 57 61 50 62 52 63 58 64
REMARK SMILES IDX 51 65 53 66 54 67 55 68 56 69 5 70 6 71 7 72 8 73 9 74 10 75
REMARK SMILES IDX 14 76 11 77 13 78 12 79 15 80 21 81 16 82 17 83 18 84 19 85
REMARK SMILES IDX 20 86
REMARK H PARENT 78 22 46 33
REMARK Flexibility Score: inf
ROOT
ATOM      1  C   UNL A   1      37.506  21.452  24.686  1.00  0.00     0.275 C 
ENDROOT
BRANCH   1   2
ATOM      2  O   UNL A   1      38.112  21.434  25.991  1.00  0.00    -0.458 OA
BRANCH   2   3
ATOM      3  C   UNL A   1      39.406  21.661  26.329  1.00  0.00     0.338 C 
ATOM      4  O   UNL A   1      40.159  20.706  26.501  1.00  0.00    -0.246 OA
BRANCH   3   5
ATOM      5  C   UNL A   1      39.891  23.018  26.720  1.00  0.00     0.060 A 
ATOM      6  C   UNL A   1      40.848  23.064  27.748  1.00  0.00     0.016 A 
ATOM      7  C   UNL A   1      39.504  24.221  26.127  1.00  0.00     0.016 A 
ATOM      8  C   UNL A   1      41.305  24.285  28.252  1.00  0.00     0.010 A 
ATOM      9  C   UNL A   1      39.963  25.447  26.625  1.00  0.00     0.010 A 
ATOM     10  C   UNL A   1      40.844  25.491  27.709  1.00  0.00    -0.014 A 
BRANCH  10  11
ATOM     11  C   UNL A   1      41.408  26.778  28.175  1.00  0.00     0.031 A 
ATOM     12  C   UNL A   1      42.856  27.121  28.004  1.00  0.00     0.074 A 
ATOM     13  C   UNL A   1      40.582  27.646  28.784  1.00  0.00     0.049 A 
ATOM     14  N   UNL A   1      43.430  28.291  28.100  1.00  0.00    -0.248 NA
ATOM     15  C   UNL A   1      43.781  26.028  27.668  1.00  0.00     0.031 C 
ATOM     16  C   UNL A   1      39.173  27.389  29.085  1.00  0.00     0.029 A 
ATOM     17  N   UNL A   1      40.806  28.907  29.267  1.00  0.00    -0.354 N 
ATOM     18  C   UNL A   1      44.764  28.091  27.773  1.00  0.00     0.074 A 
ATOM     19  C   UNL A   1      44.931  26.676  27.521  1.00  0.00     0.031 C 
ATOM     20  C   UNL A   1      38.657  28.461  29.703  1.00  0.00     0.029 A 
ATOM     21  C   UNL A   1      39.696  29.477  29.841  1.00  0.00     0.049 A 
ATOM     22  H   UNL A   1      41.678  29.361  29.210  1.00  0.00     0.167 HD
ATOM     23  C   UNL A   1      45.747  29.014  27.674  1.00  0.00     0.034 A 
ATOM     24  C   UNL A   1      39.529  30.686  30.407  1.00  0.00     0.034 A 
ATOM     25  C   UNL A   1      45.592  30.395  28.035  1.00  0.00     0.049 A 
ATOM     26  C   UNL A   1      40.671  31.658  30.405  1.00  0.00     0.074 A 
ATOM     27  C   UNL A   1      46.509  31.424  27.922  1.00  0.00     0.029 A 
ATOM     28  N   UNL A   1      44.467  30.924  28.649  1.00  0.00    -0.354 N 
ATOM     29  N   UNL A   1      41.852  31.527  29.850  1.00  0.00    -0.248 NA
ATOM     30  C   UNL A   1      40.458  32.945  31.078  1.00  0.00     0.031 C 
ATOM     31  C   UNL A   1      45.961  32.561  28.525  1.00  0.00     0.029 A 
ATOM     32  C   UNL A   1      44.693  32.244  28.990  1.00  0.00     0.049 A 
ATOM     33  H   UNL A   1      43.632  30.431  28.819  1.00  0.00     0.167 HD
ATOM     34  C   UNL A   1      42.519  32.721  30.090  1.00  0.00     0.074 A 
ATOM     35  C   UNL A   1      41.609  33.564  30.839  1.00  0.00     0.031 C 
ATOM     36  C   UNL A   1      43.774  33.077  29.723  1.00  0.00     0.034 A 
BRANCH  23  37
ATOM     37  C   UNL A   1      47.073  28.582  27.115  1.00  0.00     0.023 A 
ATOM     38  C   UNL A   1      48.167  28.462  27.996  1.00  0.00     0.012 A 
ATOM     39  C   UNL A   1      47.215  28.190  25.772  1.00  0.00     0.148 A 
ATOM     40  C   UNL A   1      49.387  27.957  27.547  1.00  0.00     0.002 A 
ATOM     41  C   UNL A   1      48.429  27.675  25.335  1.00  0.00     0.091 A 
ATOM     42  F   UNL A   1      46.162  28.329  24.955  1.00  0.00    -0.205 F 
ATOM     43  C   UNL A   1      49.515  27.556  26.220  1.00  0.00     0.022 A 
BRANCH  41  44
ATOM     44  S   UNL A   1      48.698  27.110  23.651  1.00  0.00     0.127 S 
ATOM     45  O   UNL A   1      50.115  26.748  23.688  1.00  0.00    -0.237 OA
ATOM     46  O   UNL A   1      47.780  25.977  23.555  1.00  0.00    -0.237 OA
ATOM     47  O   UNL A   1      48.374  28.240  22.791  1.00  0.00    -0.744 OA
ENDBRANCH  41  44
ENDBRANCH  23  37
BRANCH  24  48
ATOM     48  C   UNL A   1      38.188  31.032  30.943  1.00  0.00     0.023 A 
ATOM     49  C   UNL A   1      37.946  30.904  32.323  1.00  0.00     0.012 A 
ATOM     50  C   UNL A   1      37.216  31.635  30.120  1.00  0.00     0.148 A 
ATOM     51  C   UNL A   1      36.761  31.385  32.878  1.00  0.00     0.002 A 
ATOM     52  C   UNL A   1      36.057  32.148  30.685  1.00  0.00     0.091 A 
ATOM     53  F   UNL A   1      37.478  31.743  28.809  1.00  0.00    -0.205 F 
ATOM     54  C   UNL A   1      35.824  32.019  32.063  1.00  0.00     0.022 A 
BRANCH  52  55
ATOM     55  S   UNL A   1      34.855  33.091  29.740  1.00  0.00     0.127 S 
ATOM     56  O   UNL A   1      34.255  32.056  28.902  1.00  0.00    -0.237 OA
ATOM     57  O   UNL A   1      33.986  33.612  30.795  1.00  0.00    -0.237 OA
ATOM     58  O   UNL A   1      35.618  34.108  29.028  1.00  0.00    -0.744 OA
ENDBRANCH  52  55
ENDBRANCH  24  48
BRANCH  36  59
ATOM     59  C   UNL A   1      44.278  34.430  30.139  1.00  0.00     0.023 A 
ATOM     60  C   UNL A   1      45.088  34.533  31.285  1.00  0.00     0.012 A 
ATOM     61  C   UNL A   1      44.091  35.554  29.311  1.00  0.00     0.148 A 
ATOM     62  C   UNL A   1      45.710  35.740  31.601  1.00  0.00     0.002 A 
ATOM     63  C   UNL A   1      44.744  36.742  29.612  1.00  0.00     0.091 A 
ATOM     64  F   UNL A   1      43.312  35.423  28.227  1.00  0.00    -0.205 F 
ATOM     65  C   UNL A   1      45.550  36.838  30.758  1.00  0.00     0.022 A 
BRANCH  63  66
ATOM     66  S   UNL A   1      44.674  38.183  28.544  1.00  0.00     0.127 S 
ATOM     67  O   UNL A   1      43.316  38.669  28.787  1.00  0.00    -0.237 OA
ATOM     68  O   UNL A   1      45.731  39.027  29.098  1.00  0.00    -0.237 OA
ATOM     69  O   UNL A   1      44.921  37.701  27.192  1.00  0.00    -0.744 OA
ENDBRANCH  63  66
ENDBRANCH  36  59
ENDBRANCH  10  11
ENDBRANCH   3   5
ENDBRANCH   2   3
ENDBRANCH   1   2
BRANCH   1  70
ATOM     70  C   UNL A   1      36.526  22.604  24.460  1.00  0.00     0.275 C 
BRANCH  70  71
ATOM     71  O   UNL A   1      35.596  22.771  25.538  1.00  0.00    -0.458 OA
BRANCH  71  72
ATOM     72  C   UNL A   1      34.305  22.971  25.153  1.00  0.00     0.338 C 
ATOM     73  O   UNL A   1      33.728  24.038  25.076  1.00  0.00    -0.246 OA
BRANCH  72  74
ATOM     74  C   UNL A   1      33.710  21.677  24.730  1.00  0.00     0.062 A 
ATOM     75  C   UNL A   1      32.984  21.533  23.478  1.00  0.00     0.018 A 
ATOM     76  C   UNL A   1      33.877  20.669  25.602  1.00  0.00     0.046 A 
ATOM     77  C   UNL A   1      32.394  20.386  23.104  1.00  0.00     0.031 A 
ATOM     78  C   UNL A   1      33.210  19.404  25.296  1.00  0.00     0.087 A 
ATOM     79  C   UNL A   1      32.466  19.255  24.030  1.00  0.00     0.086 A 
ATOM     80  N   UNL A   1      33.140  18.351  26.034  1.00  0.00    -0.247 NA
ATOM     81  N   UNL A   1      31.935  18.090  23.915  1.00  0.00    -0.247 NA
ATOM     82  C   UNL A   1      32.346  17.394  25.180  1.00  0.00     0.326 C 
BRANCH  82  83
ATOM     83  C   UNL A   1      33.150  16.095  24.893  1.00  0.00     0.431 C 
ATOM     84  F   UNL A   1      33.631  16.082  23.626  1.00  0.00    -0.167 F 
ATOM     85  F   UNL A   1      34.213  15.959  25.719  1.00  0.00    -0.167 F 
ATOM     86  F   UNL A   1      32.375  14.990  25.039  1.00  0.00    -0.167 F 
ENDBRANCH  82  83
ENDBRANCH  72  74
ENDBRANCH  71  72
ENDBRANCH  70  71
ENDBRANCH   1  70
TORSDOF 15
ENDMDL
MODEL 3
REMARK VINA RESULT:     -11.2      4.226      9.906
REMARK SMILES O=C(OCCOC(=O)c1ccc2c(c1)=N[C@H](C(F)(F)F)N=2)c1ccc(-c2c3nc(c(-c4cccc(S(=O)(=O)[O-])c4F)c4ccc([nH]4)c(-c4cccc(S(=O)(=O)[O-])c4F)c4nc(c(-c5cccc(S(=O)(=O)[O-])c5F)c5ccc2[nH]5)C=C4)C=C3)cc1
REMARK SMILES IDX 4 1 3 2 2 3 1 4 22 5 23 6 84 7 24 8 83 9 25 10 26 11 27 12
REMARK SMILES IDX 77 13 28 14 82 15 76 16 78 17 29 18 81 19 75 20 74 21 30 23
REMARK SMILES IDX 62 24 42 25 61 26 43 27 46 28 60 29 79 30 44 31 45 32 59 34
REMARK SMILES IDX 80 35 47 36 31 37 32 38 40 39 33 40 35 41 41 42 34 43 36 44
REMARK SMILES IDX 37 45 38 46 39 47 63 48 64 49 72 50 65 51 67 52 73 53 66 54
REMARK SMILES IDX 68 55 69 56 70 57 71 58 48 59 49 60 57 61 50 62 52 63 58 64
REMARK SMILES IDX 51 65 53 66 54 67 55 68 56 69 5 70 6 71 7 72 8 73 9 74 10 75
REMARK SMILES IDX 14 76 11 77 13 78 12 79 15 80 21 81 16 82 17 83 18 84 19 85
REMARK SMILES IDX 20 86
REMARK H PARENT 78 22 46 33
REMARK Flexibility Score: inf
ROOT
ATOM      1  C   UNL A   1      34.905  33.215  28.009  1.00  0.00     0.275 C 
ENDROOT
BRANCH   1   2
ATOM      2  O   UNL A   1      34.141  32.027  27.735  1.00  0.00    -0.458 OA
BRANCH   2   3
ATOM      3  C   UNL A   1      34.588  30.779  27.446  1.00  0.00     0.338 C 
ATOM      4  O   UNL A   1      33.884  30.028  26.775  1.00  0.00    -0.246 OA
BRANCH   3   5
ATOM      5  C   UNL A   1      35.800  30.206  28.102  1.00  0.00     0.060 A 
ATOM      6  C   UNL A   1      36.982  30.216  27.342  1.00  0.00     0.016 A 
ATOM      7  C   UNL A   1      35.859  29.706  29.404  1.00  0.00     0.016 A 
ATOM      8  C   UNL A   1      38.153  29.626  27.825  1.00  0.00     0.010 A 
ATOM      9  C   UNL A   1      37.032  29.119  29.895  1.00  0.00     0.010 A 
ATOM     10  C   UNL A   1      38.179  29.047  29.100  1.00  0.00    -0.014 A 
BRANCH  10  11
ATOM     11  C   UNL A   1      39.448  28.516  29.649  1.00  0.00     0.031 A 
ATOM     12  C   UNL A   1      40.135  27.326  29.053  1.00  0.00     0.074 A 
ATOM     13  C   UNL A   1      39.974  29.123  30.726  1.00  0.00     0.049 A 
ATOM     14  N   UNL A   1      41.365  26.922  29.237  1.00  0.00    -0.248 NA
ATOM     15  C   UNL A   1      39.365  26.487  28.123  1.00  0.00     0.031 C 
ATOM     16  C   UNL A   1      39.351  30.236  31.446  1.00  0.00     0.029 A 
ATOM     17  N   UNL A   1      41.137  28.887  31.409  1.00  0.00    -0.354 N 
ATOM     18  C   UNL A   1      41.538  25.828  28.401  1.00  0.00     0.074 A 
ATOM     19  C   UNL A   1      40.273  25.596  27.740  1.00  0.00     0.031 C 
ATOM     20  C   UNL A   1      40.141  30.586  32.471  1.00  0.00     0.029 A 
ATOM     21  C   UNL A   1      41.320  29.726  32.481  1.00  0.00     0.049 A 
ATOM     22  H   UNL A   1      41.778  28.185  31.156  1.00  0.00     0.167 HD
ATOM     23  C   UNL A   1      42.661  25.104  28.195  1.00  0.00     0.034 A 
ATOM     24  C   UNL A   1      42.330  29.802  33.367  1.00  0.00     0.034 A 
ATOM     25  C   UNL A   1      43.877  25.277  28.941  1.00  0.00     0.049 A 
ATOM     26  C   UNL A   1      43.517  28.901  33.202  1.00  0.00     0.074 A 
ATOM     27  C   UNL A   1      45.089  24.631  28.775  1.00  0.00     0.029 A 
ATOM     28  N   UNL A   1      44.010  26.106  30.043  1.00  0.00    -0.354 N 
ATOM     29  N   UNL A   1      43.765  28.048  32.237  1.00  0.00    -0.248 NA
ATOM     30  C   UNL A   1      44.570  28.984  34.222  1.00  0.00     0.031 C 
ATOM     31  C   UNL A   1      45.935  25.026  29.815  1.00  0.00     0.029 A 
ATOM     32  C   UNL A   1      45.257  25.936  30.613  1.00  0.00     0.049 A 
ATOM     33  H   UNL A   1      43.318  26.725  30.371  1.00  0.00     0.167 HD
ATOM     34  C   UNL A   1      45.011  27.505  32.522  1.00  0.00     0.074 A 
ATOM     35  C   UNL A   1      45.467  28.126  33.748  1.00  0.00     0.031 C 
ATOM     36  C   UNL A   1      45.705  26.571  31.826  1.00  0.00     0.034 A 
BRANCH  23  37
ATOM     37  C   UNL A   1      42.656  24.083  27.094  1.00  0.00     0.023 A 
ATOM     38  C   UNL A   1      43.261  24.414  25.865  1.00  0.00     0.012 A 
ATOM     39  C   UNL A   1      42.168  22.780  27.300  1.00  0.00     0.148 A 
ATOM     40  C   UNL A   1      43.381  23.461  24.854  1.00  0.00     0.002 A 
ATOM     41  C   UNL A   1      42.304  21.831  26.293  1.00  0.00     0.091 A 
ATOM     42  F   UNL A   1      41.585  22.497  28.473  1.00  0.00    -0.205 F 
ATOM     43  C   UNL A   1      42.910  22.169  25.070  1.00  0.00     0.022 A 
BRANCH  41  44
ATOM     44  S   UNL A   1      41.749  20.132  26.473  1.00  0.00     0.127 S 
ATOM     45  O   UNL A   1      40.296  20.291  26.403  1.00  0.00    -0.237 OA
ATOM     46  O   UNL A   1      42.349  19.486  25.308  1.00  0.00    -0.237 OA
ATOM     47  O   UNL A   1      42.257  19.677  27.760  1.00  0.00    -0.744 OA
ENDBRANCH  41  44
ENDBRANCH  23  37
BRANCH  24  48
ATOM     48  C   UNL A   1      42.254  30.835  34.431  1.00  0.00     0.023 A 
ATOM     49  C   UNL A   1      41.809  30.468  35.715  1.00  0.00     0.012 A 
ATOM     50  C   UNL A   1      42.772  32.129  34.218  1.00  0.00     0.148 A 
ATOM     51  C   UNL A   1      41.894  31.371  36.774  1.00  0.00     0.002 A 
ATOM     52  C   UNL A   1      42.891  33.007  35.286  1.00  0.00     0.091 A 
ATOM     53  F   UNL A   1      43.189  32.446  32.984  1.00  0.00    -0.205 F 
ATOM     54  C   UNL A   1      42.447  32.633  36.564  1.00  0.00     0.022 A 
BRANCH  52  55
ATOM     55  S   UNL A   1      43.705  34.602  35.141  1.00  0.00     0.127 S 
ATOM     56  O   UNL A   1      43.538  35.146  36.486  1.00  0.00    -0.237 OA
ATOM     57  O   UNL A   1      45.072  34.211  34.799  1.00  0.00    -0.237 OA
ATOM     58  O   UNL A   1      42.998  35.315  34.085  1.00  0.00    -0.744 OA
ENDBRANCH  52  55
ENDBRANCH  24  48
BRANCH  36  59
ATOM     59  C   UNL A   1      47.032  26.123  32.370  1.00  0.00     0.023 A 
ATOM     60  C   UNL A   1      48.188  26.852  32.035  1.00  0.00     0.012 A 
ATOM     61  C   UNL A   1      47.106  25.097  33.332  1.00  0.00     0.148 A 
ATOM     62  C   UNL A   1      49.403  26.568  32.656  1.00  0.00     0.002 A 
ATOM     63  C   UNL A   1      48.312  24.845  33.972  1.00  0.00     0.091 A 
ATOM     64  F   UNL A   1      45.986  24.420  33.627  1.00  0.00    -0.205 F 
ATOM     65  C   UNL A   1      49.462  25.577  33.634  1.00  0.00     0.022 A 
BRANCH  63  66
ATOM     66  S   UNL A   1      48.471  23.652  35.305  1.00  0.00     0.127 S 
ATOM     67  O   UNL A   1      48.155  22.398  34.621  1.00  0.00    -0.237 OA
ATOM     68  O   UNL A   1      49.874  23.803  35.685  1.00  0.00    -0.237 OA
ATOM     69  O   UNL A   1      47.513  24.053  36.327  1.00  0.00    -0.744 OA
ENDBRANCH  63  66
ENDBRANCH  36  59
ENDBRANCH  10  11
ENDBRANCH   3   5
ENDBRANCH   2   3
ENDBRANCH   1   2
BRANCH   1  70
ATOM     70  C   UNL A   1      34.061  34.446  28.342  1.00  0.00     0.275 C 
BRANCH  70  71
ATOM     71  O   UNL A   1      34.508  35.135  29.516  1.00  0.00    -0.458 OA
BRANCH  71  72
ATOM     72  C   UNL A   1      33.819  34.836  30.653  1.00  0.00     0.338 C 
ATOM     73  O   UNL A   1      32.643  35.054  30.866  1.00  0.00    -0.246 OA
BRANCH  72  74
ATOM     74  C   UNL A   1      34.705  34.093  31.585  1.00  0.00     0.062 A 
ATOM     75  C   UNL A   1      34.917  32.659  31.473  1.00  0.00     0.018 A 
ATOM     76  C   UNL A   1      35.269  34.846  32.545  1.00  0.00     0.046 A 
ATOM     77  C   UNL A   1      35.671  31.962  32.338  1.00  0.00     0.031 A 
ATOM     78  C   UNL A   1      36.054  34.150  33.564  1.00  0.00     0.087 A 
ATOM     79  C   UNL A   1      36.266  32.693  33.458  1.00  0.00     0.086 A 
ATOM     80  N   UNL A   1      36.586  34.648  34.626  1.00  0.00    -0.247 NA
ATOM     81  N   UNL A   1      36.970  32.234  34.431  1.00  0.00    -0.247 NA
ATOM     82  C   UNL A   1      37.264  33.455  35.254  1.00  0.00     0.326 C 
BRANCH  82  83
ATOM     83  C   UNL A   1      38.791  33.694  35.412  1.00  0.00     0.431 C 
ATOM     84  F   UNL A   1      39.135  34.952  35.042  1.00  0.00    -0.167 F 
ATOM     85  F   UNL A   1      39.205  33.532  36.689  1.00  0.00    -0.167 F 
ATOM     86  F   UNL A   1      39.510  32.840  34.638  1.00  0.00    -0.167 F 
ENDBRANCH  82  83
ENDBRANCH  72  74
ENDBRANCH  71  72
ENDBRANCH  70  71
ENDBRANCH   1  70
TORSDOF 15
ENDMDL
