MODEL 1
REMARK VINA RESULT:     -11.8      0.000      0.000
REMARK SMILES CC1=C(C)C[C@@H](C(=O)OCCOC(=O)c2ccc(-c3c4nc(c(-c5cccc(S(=O)(=O)[O-])c5F)c5ccc([nH]5)c(-c5cccc(S(=O)(=O)[O-])c5F)c5nc(c(-c6cccc(S(=O)(=O)[O-])c6F)c6ccc3[nH]6)C=C5)C=C4)cc2)[C@@H](C(=O)NCC[NH+]2CCOCC2)C1
REMARK SMILES IDX 10 1 9 2 7 3 8 4 6 5 1 6 2 7 3 8 90 9 4 10 5 11 78 12 79 13
REMARK SMILES IDX 80 14 81 15 82 17 83 18 84 19 85 20 89 21 86 23 88 24 87 25
REMARK SMILES IDX 11 26 12 27 13 28 14 29 15 30 16 31 77 32 17 33 76 34 18 35
REMARK SMILES IDX 19 36 20 37 70 38 21 39 75 40 69 41 71 42 22 43 74 44 68 45
REMARK SMILES IDX 67 46 23 48 55 49 35 50 54 51 36 52 39 53 53 54 72 55 37 56
REMARK SMILES IDX 38 57 52 59 73 60 40 61 24 62 25 63 33 64 26 65 28 66 34 67
REMARK SMILES IDX 27 68 29 69 30 70 31 71 32 72 56 73 57 74 65 75 58 76 60 77
REMARK SMILES IDX 66 78 59 79 61 80 62 81 63 82 64 83 41 84 42 85 50 86 43 87
REMARK SMILES IDX 45 88 51 89 44 90 46 91 47 92 48 93 49 94
REMARK H PARENT 81 16 84 22 71 47 39 58
REMARK Flexibility Score: inf
ROOT
ATOM      1  C   UNL A   1      31.470  29.287  25.936  1.00  0.00     0.274 C 
ENDROOT
BRANCH   1   2
ATOM      2  O   UNL A   1      32.444  28.864  24.962  1.00  0.00    -0.462 OA
BRANCH   2   3
ATOM      3  C   UNL A   1      33.272  27.872  25.322  1.00  0.00     0.310 C 
ATOM      4  O   UNL A   1      34.344  28.062  25.896  1.00  0.00    -0.252 OA
BRANCH   3   5
ATOM      5  C   UNL A   1      32.817  26.459  24.983  1.00  0.00     0.116 C 
ATOM      6  C   UNL A   1      34.742  23.131  22.817  1.00  0.00     0.039 C 
ATOM      7  C   UNL A   1      34.041  24.097  23.728  1.00  0.00    -0.074 C 
ATOM      8  C   UNL A   1      34.525  24.523  24.909  1.00  0.00    -0.073 C 
ATOM      9  C   UNL A   1      32.669  24.540  23.278  1.00  0.00     0.045 C 
ATOM     10  C   UNL A   1      35.790  24.044  25.568  1.00  0.00     0.039 C 
ATOM     11  C   UNL A   1      33.733  25.485  25.747  1.00  0.00     0.046 C 
ATOM     12  C   UNL A   1      32.328  26.012  23.581  1.00  0.00     0.097 C 
BRANCH  12  13
ATOM     13  C   UNL A   1      32.663  26.817  22.323  1.00  0.00     0.224 C 
ATOM     14  O   UNL A   1      33.571  26.531  21.544  1.00  0.00    -0.275 OA
ATOM     15  N   UNL A   1      31.817  27.833  21.944  1.00  0.00    -0.350 N 
ATOM     16  H   UNL A   1      32.168  28.415  21.233  1.00  0.00     0.163 HD
BRANCH  15  17
ATOM     17  C   UNL A   1      30.483  28.193  22.420  1.00  0.00     0.177 C 
BRANCH  17  18
ATOM     18  C   UNL A   1      30.000  29.627  22.112  1.00  0.00     0.283 C 
BRANCH  18  19
ATOM     19  N   UNL A   1      28.569  29.769  21.755  1.00  0.00    -0.330 N 
ATOM     20  C   UNL A   1      28.288  30.952  20.911  1.00  0.00     0.291 C 
ATOM     21  C   UNL A   1      27.738  29.916  22.983  1.00  0.00     0.291 C 
ATOM     22  H   UNL A   1      28.338  28.923  21.234  1.00  0.00     0.348 HD
ATOM     23  C   UNL A   1      28.465  32.290  21.642  1.00  0.00     0.221 C 
ATOM     24  C   UNL A   1      27.885  31.280  23.688  1.00  0.00     0.221 C 
ATOM     25  O   UNL A   1      27.610  32.362  22.789  1.00  0.00    -0.370 OA
ENDBRANCH  18  19
ENDBRANCH  17  18
ENDBRANCH  15  17
ENDBRANCH  12  13
ENDBRANCH   3   5
ENDBRANCH   2   3
ENDBRANCH   1   2
BRANCH   1  26
ATOM     26  C   UNL A   1      31.647  30.775  26.259  1.00  0.00     0.275 C 
BRANCH  26  27
ATOM     27  O   UNL A   1      33.029  31.182  26.252  1.00  0.00    -0.458 OA
BRANCH  27  28
ATOM     28  C   UNL A   1      33.391  32.051  27.224  1.00  0.00     0.338 C 
ATOM     29  O   UNL A   1      32.773  33.026  27.616  1.00  0.00    -0.246 OA
BRANCH  28  30
ATOM     30  C   UNL A   1      34.613  31.587  27.894  1.00  0.00     0.060 A 
ATOM     31  C   UNL A   1      35.672  32.492  28.008  1.00  0.00     0.016 A 
ATOM     32  C   UNL A   1      34.743  30.277  28.352  1.00  0.00     0.016 A 
ATOM     33  C   UNL A   1      36.867  32.101  28.595  1.00  0.00     0.010 A 
ATOM     34  C   UNL A   1      35.939  29.887  28.958  1.00  0.00     0.010 A 
ATOM     35  C   UNL A   1      36.999  30.801  29.091  1.00  0.00    -0.014 A 
BRANCH  35  36
ATOM     36  C   UNL A   1      38.223  30.434  29.833  1.00  0.00     0.031 A 
ATOM     37  C   UNL A   1      39.201  29.461  29.255  1.00  0.00     0.074 A 
ATOM     38  C   UNL A   1      38.417  30.982  31.046  1.00  0.00     0.049 A 
ATOM     39  N   UNL A   1      40.276  28.961  29.800  1.00  0.00    -0.248 NA
ATOM     40  C   UNL A   1      38.938  28.988  27.886  1.00  0.00     0.031 C 
ATOM     41  C   UNL A   1      37.521  31.949  31.684  1.00  0.00     0.029 A 
ATOM     42  N   UNL A   1      39.410  30.788  31.970  1.00  0.00    -0.354 N 
ATOM     43  C   UNL A   1      40.804  28.085  28.861  1.00  0.00     0.074 A 
ATOM     44  C   UNL A   1      39.934  28.129  27.704  1.00  0.00     0.031 C 
ATOM     45  C   UNL A   1      37.991  32.246  32.904  1.00  0.00     0.029 A 
ATOM     46  C   UNL A   1      39.192  31.456  33.151  1.00  0.00     0.049 A 
ATOM     47  H   UNL A   1      40.202  30.226  31.803  1.00  0.00     0.167 HD
ATOM     48  C   UNL A   1      41.917  27.322  28.962  1.00  0.00     0.034 A 
ATOM     49  C   UNL A   1      39.864  31.406  34.316  1.00  0.00     0.034 A 
ATOM     50  C   UNL A   1      42.780  27.310  30.112  1.00  0.00     0.049 A 
ATOM     51  C   UNL A   1      41.077  30.525  34.407  1.00  0.00     0.074 A 
ATOM     52  C   UNL A   1      43.960  26.613  30.297  1.00  0.00     0.029 A 
ATOM     53  N   UNL A   1      42.548  28.020  31.282  1.00  0.00    -0.354 N 
ATOM     54  N   UNL A   1      41.626  29.783  33.475  1.00  0.00    -0.248 NA
ATOM     55  C   UNL A   1      41.774  30.486  35.699  1.00  0.00     0.031 C 
ATOM     56  C   UNL A   1      44.432  26.887  31.586  1.00  0.00     0.029 A 
ATOM     57  C   UNL A   1      43.551  27.763  32.200  1.00  0.00     0.049 A 
ATOM     58  H   UNL A   1      41.781  28.619  31.436  1.00  0.00     0.167 HD
ATOM     59  C   UNL A   1      42.736  29.193  34.063  1.00  0.00     0.074 A 
ATOM     60  C   UNL A   1      42.801  29.694  35.423  1.00  0.00     0.031 C 
ATOM     61  C   UNL A   1      43.611  28.301  33.536  1.00  0.00     0.034 A 
BRANCH  48  62
ATOM     62  C   UNL A   1      42.280  26.455  27.787  1.00  0.00     0.023 A 
ATOM     63  C   UNL A   1      43.144  26.957  26.794  1.00  0.00     0.012 A 
ATOM     64  C   UNL A   1      41.813  25.129  27.694  1.00  0.00     0.148 A 
ATOM     65  C   UNL A   1      43.524  26.159  25.715  1.00  0.00     0.002 A 
ATOM     66  C   UNL A   1      42.223  24.329  26.633  1.00  0.00     0.091 A 
ATOM     67  F   UNL A   1      40.971  24.680  28.635  1.00  0.00    -0.205 F 
ATOM     68  C   UNL A   1      43.072  24.845  25.640  1.00  0.00     0.022 A 
BRANCH  66  69
ATOM     69  S   UNL A   1      41.739  22.606  26.478  1.00  0.00     0.127 S 
ATOM     70  O   UNL A   1      42.289  22.034  27.706  1.00  0.00    -0.237 OA
ATOM     71  O   UNL A   1      40.279  22.695  26.449  1.00  0.00    -0.237 OA
ATOM     72  O   UNL A   1      42.341  22.131  25.240  1.00  0.00    -0.744 OA
ENDBRANCH  66  69
ENDBRANCH  48  62
BRANCH  49  73
ATOM     73  C   UNL A   1      39.401  32.225  35.470  1.00  0.00     0.023 A 
ATOM     74  C   UNL A   1      38.581  31.639  36.452  1.00  0.00     0.012 A 
ATOM     75  C   UNL A   1      39.824  33.560  35.636  1.00  0.00     0.148 A 
ATOM     76  C   UNL A   1      38.177  32.371  37.568  1.00  0.00     0.002 A 
ATOM     77  C   UNL A   1      39.464  34.265  36.778  1.00  0.00     0.091 A 
ATOM     78  F   UNL A   1      40.585  34.111  34.678  1.00  0.00    -0.205 F 
ATOM     79  C   UNL A   1      38.630  33.677  37.740  1.00  0.00     0.022 A 
BRANCH  77  80
ATOM     80  S   UNL A   1      40.126  35.898  37.134  1.00  0.00     0.127 S 
ATOM     81  O   UNL A   1      39.691  36.658  35.967  1.00  0.00    -0.237 OA
ATOM     82  O   UNL A   1      39.446  36.242  38.383  1.00  0.00    -0.237 OA
ATOM     83  O   UNL A   1      41.564  35.707  37.274  1.00  0.00    -0.744 OA
ENDBRANCH  77  80
ENDBRANCH  49  73
BRANCH  61  84
ATOM     84  C   UNL A   1      44.706  27.802  34.438  1.00  0.00     0.023 A 
ATOM     85  C   UNL A   1      45.918  28.518  34.509  1.00  0.00     0.012 A 
ATOM     86  C   UNL A   1      44.515  26.677  35.261  1.00  0.00     0.148 A 
ATOM     87  C   UNL A   1      46.934  28.106  35.369  1.00  0.00     0.002 A 
ATOM     88  C   UNL A   1      45.515  26.297  36.146  1.00  0.00     0.091 A 
ATOM     89  F   UNL A   1      43.361  26.000  35.161  1.00  0.00    -0.205 F 
ATOM     90  C   UNL A   1      46.728  27.003  36.195  1.00  0.00     0.022 A 
BRANCH  88  91
ATOM     91  S   UNL A   1      45.304  24.942  37.308  1.00  0.00     0.127 S 
ATOM     92  O   UNL A   1      46.567  24.979  38.042  1.00  0.00    -0.237 OA
ATOM     93  O   UNL A   1      44.136  25.370  38.078  1.00  0.00    -0.237 OA
ATOM     94  O   UNL A   1      45.085  23.753  36.496  1.00  0.00    -0.744 OA
ENDBRANCH  88  91
ENDBRANCH  61  84
ENDBRANCH  35  36
ENDBRANCH  28  30
ENDBRANCH  27  28
ENDBRANCH  26  27
ENDBRANCH   1  26
TORSDOF 18
ENDMDL
MODEL 2
REMARK VINA RESULT:     -11.7      5.388     10.641
REMARK SMILES CC1=C(C)C[C@@H](C(=O)OCCOC(=O)c2ccc(-c3c4nc(c(-c5cccc(S(=O)(=O)[O-])c5F)c5ccc([nH]5)c(-c5cccc(S(=O)(=O)[O-])c5F)c5nc(c(-c6cccc(S(=O)(=O)[O-])c6F)c6ccc3[nH]6)C=C5)C=C4)cc2)[C@@H](C(=O)NCC[NH+]2CCOCC2)C1
REMARK SMILES IDX 10 1 9 2 7 3 8 4 6 5 1 6 2 7 3 8 90 9 4 10 5 11 78 12 79 13
REMARK SMILES IDX 80 14 81 15 82 17 83 18 84 19 85 20 89 21 86 23 88 24 87 25
REMARK SMILES IDX 11 26 12 27 13 28 14 29 15 30 16 31 77 32 17 33 76 34 18 35
REMARK SMILES IDX 19 36 20 37 70 38 21 39 75 40 69 41 71 42 22 43 74 44 68 45
REMARK SMILES IDX 67 46 23 48 55 49 35 50 54 51 36 52 39 53 53 54 72 55 37 56
REMARK SMILES IDX 38 57 52 59 73 60 40 61 24 62 25 63 33 64 26 65 28 66 34 67
REMARK SMILES IDX 27 68 29 69 30 70 31 71 32 72 56 73 57 74 65 75 58 76 60 77
REMARK SMILES IDX 66 78 59 79 61 80 62 81 63 82 64 83 41 84 42 85 50 86 43 87
REMARK SMILES IDX 45 88 51 89 44 90 46 91 47 92 48 93 49 94
REMARK H PARENT 81 16 84 22 71 47 39 58
REMARK Flexibility Score: inf
ROOT
ATOM      1  C   UNL A   1      36.600  22.029  23.882  1.00  0.00     0.274 C 
ENDROOT
BRANCH   1   2
ATOM      2  O   UNL A   1      35.225  22.293  24.218  1.00  0.00    -0.462 OA
BRANCH   2   3
ATOM      3  C   UNL A   1      34.968  23.430  24.882  1.00  0.00     0.310 C 
ATOM      4  O   UNL A   1      35.728  23.908  25.725  1.00  0.00    -0.252 OA
BRANCH   3   5
ATOM      5  C   UNL A   1      33.661  24.130  24.536  1.00  0.00     0.116 C 
ATOM      6  C   UNL A   1      31.027  26.846  26.805  1.00  0.00     0.039 C 
ATOM      7  C   UNL A   1      31.909  26.090  25.855  1.00  0.00    -0.074 C 
ATOM      8  C   UNL A   1      33.146  26.474  25.490  1.00  0.00    -0.073 C 
ATOM      9  C   UNL A   1      31.296  24.856  25.238  1.00  0.00     0.045 C 
ATOM     10  C   UNL A   1      33.823  27.758  25.885  1.00  0.00     0.039 C 
ATOM     11  C   UNL A   1      33.939  25.644  24.522  1.00  0.00     0.046 C 
ATOM     12  C   UNL A   1      32.267  23.676  25.041  1.00  0.00     0.097 C 
BRANCH  12  13
ATOM     13  C   UNL A   1      32.117  22.764  26.261  1.00  0.00     0.224 C 
ATOM     14  O   UNL A   1      31.790  23.159  27.379  1.00  0.00    -0.275 OA
ATOM     15  N   UNL A   1      32.200  21.403  26.084  1.00  0.00    -0.350 N 
ATOM     16  H   UNL A   1      32.263  20.883  26.917  1.00  0.00     0.163 HD
BRANCH  15  17
ATOM     17  C   UNL A   1      32.211  20.598  24.865  1.00  0.00     0.177 C 
BRANCH  17  18
ATOM     18  C   UNL A   1      32.951  19.244  24.933  1.00  0.00     0.283 C 
BRANCH  18  19
ATOM     19  N   UNL A   1      32.184  18.059  24.481  1.00  0.00    -0.330 N 
ATOM     20  C   UNL A   1      32.329  16.889  25.376  1.00  0.00     0.291 C 
ATOM     21  C   UNL A   1      32.647  17.622  23.134  1.00  0.00     0.291 C 
ATOM     22  H   UNL A   1      31.209  18.358  24.475  1.00  0.00     0.348 HD
ATOM     23  C   UNL A   1      33.731  16.263  25.357  1.00  0.00     0.221 C 
ATOM     24  C   UNL A   1      34.036  16.953  23.127  1.00  0.00     0.221 C 
ATOM     25  O   UNL A   1      34.083  15.844  24.033  1.00  0.00    -0.370 OA
ENDBRANCH  18  19
ENDBRANCH  17  18
ENDBRANCH  15  17
ENDBRANCH  12  13
ENDBRANCH   3   5
ENDBRANCH   2   3
ENDBRANCH   1   2
BRANCH   1  26
ATOM     26  C   UNL A   1      37.117  20.810  24.655  1.00  0.00     0.275 C 
BRANCH  26  27
ATOM     27  O   UNL A   1      37.621  21.156  25.960  1.00  0.00    -0.458 OA
BRANCH  27  28
ATOM     28  C   UNL A   1      38.959  21.039  26.124  1.00  0.00     0.338 C 
ATOM     29  O   UNL A   1      39.655  20.070  25.875  1.00  0.00    -0.246 OA
BRANCH  28  30
ATOM     30  C   UNL A   1      39.538  22.327  26.527  1.00  0.00     0.060 A 
ATOM     31  C   UNL A   1      40.574  22.306  27.464  1.00  0.00     0.016 A 
ATOM     32  C   UNL A   1      39.042  23.535  26.040  1.00  0.00     0.016 A 
ATOM     33  C   UNL A   1      41.136  23.492  27.915  1.00  0.00     0.010 A 
ATOM     34  C   UNL A   1      39.618  24.729  26.480  1.00  0.00     0.010 A 
ATOM     35  C   UNL A   1      40.673  24.710  27.408  1.00  0.00    -0.014 A 
BRANCH  35  36
ATOM     36  C   UNL A   1      41.364  25.958  27.790  1.00  0.00     0.031 A 
ATOM     37  C   UNL A   1      40.645  27.024  28.555  1.00  0.00     0.074 A 
ATOM     38  C   UNL A   1      42.646  26.115  27.412  1.00  0.00     0.049 A 
ATOM     39  N   UNL A   1      41.067  28.211  28.896  1.00  0.00    -0.248 NA
ATOM     40  C   UNL A   1      39.275  26.718  28.995  1.00  0.00     0.031 C 
ATOM     41  C   UNL A   1      43.430  25.122  26.673  1.00  0.00     0.029 A 
ATOM     42  N   UNL A   1      43.506  27.169  27.570  1.00  0.00    -0.354 N 
ATOM     43  C   UNL A   1      40.006  28.813  29.559  1.00  0.00     0.074 A 
ATOM     44  C   UNL A   1      38.921  27.855  29.581  1.00  0.00     0.031 C 
ATOM     45  C   UNL A   1      44.647  25.624  26.420  1.00  0.00     0.029 A 
ATOM     46  C   UNL A   1      44.712  26.987  26.936  1.00  0.00     0.049 A 
ATOM     47  H   UNL A   1      43.282  27.977  28.086  1.00  0.00     0.167 HD
ATOM     48  C   UNL A   1      39.953  30.052  30.101  1.00  0.00     0.034 A 
ATOM     49  C   UNL A   1      45.739  27.838  26.758  1.00  0.00     0.034 A 
ATOM     50  C   UNL A   1      41.051  30.982  30.087  1.00  0.00     0.049 A 
ATOM     51  C   UNL A   1      45.638  29.217  27.344  1.00  0.00     0.074 A 
ATOM     52  C   UNL A   1      41.120  32.241  30.653  1.00  0.00     0.029 A 
ATOM     53  N   UNL A   1      42.270  30.756  29.463  1.00  0.00    -0.354 N 
ATOM     54  N   UNL A   1      44.670  29.736  28.060  1.00  0.00    -0.248 NA
ATOM     55  C   UNL A   1      46.772  30.121  27.115  1.00  0.00     0.031 C 
ATOM     56  C   UNL A   1      42.374  32.786  30.354  1.00  0.00     0.029 A 
ATOM     57  C   UNL A   1      43.091  31.860  29.612  1.00  0.00     0.049 A 
ATOM     58  H   UNL A   1      42.515  29.931  28.984  1.00  0.00     0.167 HD
ATOM     59  C   UNL A   1      45.078  31.025  28.375  1.00  0.00     0.074 A 
ATOM     60  C   UNL A   1      46.399  31.194  27.800  1.00  0.00     0.031 C 
ATOM     61  C   UNL A   1      44.415  31.990  29.058  1.00  0.00     0.034 A 
BRANCH  48  62
ATOM     62  C   UNL A   1      38.674  30.466  30.778  1.00  0.00     0.023 A 
ATOM     63  C   UNL A   1      38.500  30.205  32.151  1.00  0.00     0.012 A 
ATOM     64  C   UNL A   1      37.673  31.161  30.071  1.00  0.00     0.148 A 
ATOM     65  C   UNL A   1      37.339  30.613  32.808  1.00  0.00     0.002 A 
ATOM     66  C   UNL A   1      36.533  31.592  30.740  1.00  0.00     0.091 A 
ATOM     67  F   UNL A   1      37.848  31.374  28.759  1.00  0.00    -0.205 F 
ATOM     68  C   UNL A   1      36.362  31.313  32.107  1.00  0.00     0.022 A 
BRANCH  66  69
ATOM     69  S   UNL A   1      35.244  32.550  29.936  1.00  0.00     0.127 S 
ATOM     70  O   UNL A   1      35.987  33.730  29.492  1.00  0.00    -0.237 OA
ATOM     71  O   UNL A   1      34.821  31.657  28.857  1.00  0.00    -0.237 OA
ATOM     72  O   UNL A   1      34.232  32.793  30.954  1.00  0.00    -0.744 OA
ENDBRANCH  66  69
ENDBRANCH  48  62
BRANCH  49  73
ATOM     73  C   UNL A   1      46.943  27.393  26.003  1.00  0.00     0.023 A 
ATOM     74  C   UNL A   1      47.069  27.726  24.641  1.00  0.00     0.012 A 
ATOM     75  C   UNL A   1      47.993  26.702  26.641  1.00  0.00     0.148 A 
ATOM     76  C   UNL A   1      48.212  27.366  23.926  1.00  0.00     0.002 A 
ATOM     77  C   UNL A   1      49.151  26.396  25.937  1.00  0.00     0.091 A 
ATOM     78  F   UNL A   1      47.845  26.371  27.933  1.00  0.00    -0.205 F 
ATOM     79  C   UNL A   1      49.257  26.715  24.576  1.00  0.00     0.022 A 
BRANCH  77  80
ATOM     80  S   UNL A   1      50.593  25.688  26.743  1.00  0.00     0.127 S 
ATOM     81  O   UNL A   1      50.927  26.721  27.720  1.00  0.00    -0.237 OA
ATOM     82  O   UNL A   1      50.054  24.453  27.313  1.00  0.00    -0.237 OA
ATOM     83  O   UNL A   1      51.564  25.477  25.678  1.00  0.00    -0.744 OA
ENDBRANCH  77  80
ENDBRANCH  49  73
BRANCH  61  84
ATOM     84  C   UNL A   1      45.104  33.318  29.210  1.00  0.00     0.023 A 
ATOM     85  C   UNL A   1      46.026  33.498  30.260  1.00  0.00     0.012 A 
ATOM     86  C   UNL A   1      44.898  34.355  28.281  1.00  0.00     0.148 A 
ATOM     87  C   UNL A   1      46.713  34.703  30.398  1.00  0.00     0.002 A 
ATOM     88  C   UNL A   1      45.617  35.537  28.400  1.00  0.00     0.091 A 
ATOM     89  F   UNL A   1      44.001  34.168  27.301  1.00  0.00    -0.205 F 
ATOM     90  C   UNL A   1      46.519  35.716  29.464  1.00  0.00     0.022 A 
BRANCH  88  91
ATOM     91  S   UNL A   1      45.493  36.862  27.194  1.00  0.00     0.127 S 
ATOM     92  O   UNL A   1      46.356  36.370  26.121  1.00  0.00    -0.237 OA
ATOM     93  O   UNL A   1      44.065  36.864  26.877  1.00  0.00    -0.237 OA
ATOM     94  O   UNL A   1      45.960  38.063  27.873  1.00  0.00    -0.744 OA
ENDBRANCH  88  91
ENDBRANCH  61  84
ENDBRANCH  35  36
ENDBRANCH  28  30
ENDBRANCH  27  28
ENDBRANCH  26  27
ENDBRANCH   1  26
TORSDOF 18
ENDMDL
MODEL 3
REMARK VINA RESULT:     -11.6      5.603     10.694
REMARK SMILES CC1=C(C)C[C@@H](C(=O)OCCOC(=O)c2ccc(-c3c4nc(c(-c5cccc(S(=O)(=O)[O-])c5F)c5ccc([nH]5)c(-c5cccc(S(=O)(=O)[O-])c5F)c5nc(c(-c6cccc(S(=O)(=O)[O-])c6F)c6ccc3[nH]6)C=C5)C=C4)cc2)[C@@H](C(=O)NCC[NH+]2CCOCC2)C1
REMARK SMILES IDX 10 1 9 2 7 3 8 4 6 5 1 6 2 7 3 8 90 9 4 10 5 11 78 12 79 13
REMARK SMILES IDX 80 14 81 15 82 17 83 18 84 19 85 20 89 21 86 23 88 24 87 25
REMARK SMILES IDX 11 26 12 27 13 28 14 29 15 30 16 31 77 32 17 33 76 34 18 35
REMARK SMILES IDX 19 36 20 37 70 38 21 39 75 40 69 41 71 42 22 43 74 44 68 45
REMARK SMILES IDX 67 46 23 48 55 49 35 50 54 51 36 52 39 53 53 54 72 55 37 56
REMARK SMILES IDX 38 57 52 59 73 60 40 61 24 62 25 63 33 64 26 65 28 66 34 67
REMARK SMILES IDX 27 68 29 69 30 70 31 71 32 72 56 73 57 74 65 75 58 76 60 77
REMARK SMILES IDX 66 78 59 79 61 80 62 81 63 82 64 83 41 84 42 85 50 86 43 87
REMARK SMILES IDX 45 88 51 89 44 90 46 91 47 92 48 93 49 94
REMARK H PARENT 81 16 84 22 71 47 39 58
REMARK Flexibility Score: inf
ROOT
ATOM      1  C   UNL A   1      36.335  21.792  24.619  1.00  0.00     0.274 C 
ENDROOT
BRANCH   1   2
ATOM      2  O   UNL A   1      36.070  22.795  25.618  1.00  0.00    -0.462 OA
BRANCH   2   3
ATOM      3  C   UNL A   1      34.792  22.964  25.987  1.00  0.00     0.310 C 
ATOM      4  O   UNL A   1      34.337  22.552  27.055  1.00  0.00    -0.252 OA
BRANCH   3   5
ATOM      5  C   UNL A   1      33.901  23.711  25.005  1.00  0.00     0.116 C 
ATOM      6  C   UNL A   1      30.675  26.673  25.543  1.00  0.00     0.039 C 
ATOM      7  C   UNL A   1      31.864  25.824  25.198  1.00  0.00    -0.074 C 
ATOM      8  C   UNL A   1      33.137  26.125  25.516  1.00  0.00    -0.073 C 
ATOM      9  C   UNL A   1      31.570  24.594  24.374  1.00  0.00     0.045 C 
ATOM     10  C   UNL A   1      33.604  27.391  26.180  1.00  0.00     0.039 C 
ATOM     11  C   UNL A   1      34.254  25.207  25.110  1.00  0.00     0.046 C 
ATOM     12  C   UNL A   1      32.417  23.356  24.727  1.00  0.00     0.097 C 
BRANCH  12  13
ATOM     13  C   UNL A   1      31.598  22.517  25.711  1.00  0.00     0.224 C 
ATOM     14  O   UNL A   1      30.683  22.965  26.401  1.00  0.00    -0.275 OA
ATOM     15  N   UNL A   1      31.779  21.154  25.727  1.00  0.00    -0.350 N 
ATOM     16  H   UNL A   1      31.353  20.693  26.486  1.00  0.00     0.163 HD
BRANCH  15  17
ATOM     17  C   UNL A   1      32.497  20.275  24.808  1.00  0.00     0.177 C 
BRANCH  17  18
ATOM     18  C   UNL A   1      32.882  18.878  25.343  1.00  0.00     0.283 C 
BRANCH  18  19
ATOM     19  N   UNL A   1      32.232  17.724  24.678  1.00  0.00    -0.330 N 
ATOM     20  C   UNL A   1      32.465  16.438  25.371  1.00  0.00     0.291 C 
ATOM     21  C   UNL A   1      32.753  17.560  23.292  1.00  0.00     0.291 C 
ATOM     22  H   UNL A   1      31.234  17.936  24.691  1.00  0.00     0.348 HD
ATOM     23  C   UNL A   1      33.918  15.946  25.293  1.00  0.00     0.221 C 
ATOM     24  C   UNL A   1      34.197  17.023  23.218  1.00  0.00     0.221 C 
ATOM     25  O   UNL A   1      34.328  15.785  23.930  1.00  0.00    -0.370 OA
ENDBRANCH  18  19
ENDBRANCH  17  18
ENDBRANCH  15  17
ENDBRANCH  12  13
ENDBRANCH   3   5
ENDBRANCH   2   3
ENDBRANCH   1   2
BRANCH   1  26
ATOM     26  C   UNL A   1      37.652  21.068  24.921  1.00  0.00     0.275 C 
BRANCH  26  27
ATOM     27  O   UNL A   1      38.147  21.351  26.244  1.00  0.00    -0.458 OA
BRANCH  27  28
ATOM     28  C   UNL A   1      39.493  21.334  26.385  1.00  0.00     0.338 C 
ATOM     29  O   UNL A   1      40.257  20.426  26.105  1.00  0.00    -0.246 OA
BRANCH  28  30
ATOM     30  C   UNL A   1      39.980  22.655  26.803  1.00  0.00     0.060 A 
ATOM     31  C   UNL A   1      40.964  22.699  27.794  1.00  0.00     0.016 A 
ATOM     32  C   UNL A   1      39.446  23.831  26.277  1.00  0.00     0.016 A 
ATOM     33  C   UNL A   1      41.435  23.918  28.260  1.00  0.00     0.010 A 
ATOM     34  C   UNL A   1      39.931  25.058  26.733  1.00  0.00     0.010 A 
ATOM     35  C   UNL A   1      40.934  25.105  27.716  1.00  0.00    -0.014 A 
BRANCH  35  36
ATOM     36  C   UNL A   1      41.535  26.392  28.120  1.00  0.00     0.031 A 
ATOM     37  C   UNL A   1      40.711  27.436  28.805  1.00  0.00     0.074 A 
ATOM     38  C   UNL A   1      42.833  26.603  27.835  1.00  0.00     0.049 A 
ATOM     39  N   UNL A   1      41.050  28.648  29.150  1.00  0.00    -0.248 NA
ATOM     40  C   UNL A   1      39.327  27.071  29.149  1.00  0.00     0.031 C 
ATOM     41  C   UNL A   1      43.717  25.636  27.179  1.00  0.00     0.029 A 
ATOM     42  N   UNL A   1      43.628  27.701  28.032  1.00  0.00    -0.354 N 
ATOM     43  C   UNL A   1      39.915  29.211  29.718  1.00  0.00     0.074 A 
ATOM     44  C   UNL A   1      38.878  28.201  29.681  1.00  0.00     0.031 C 
ATOM     45  C   UNL A   1      44.924  26.191  27.006  1.00  0.00     0.029 A 
ATOM     46  C   UNL A   1      44.886  27.565  27.495  1.00  0.00     0.049 A 
ATOM     47  H   UNL A   1      43.328  28.507  28.512  1.00  0.00     0.167 HD
ATOM     48  C   UNL A   1      39.763  30.455  30.227  1.00  0.00     0.034 A 
ATOM     49  C   UNL A   1      45.882  28.461  27.374  1.00  0.00     0.034 A 
ATOM     50  C   UNL A   1      40.814  31.437  30.274  1.00  0.00     0.049 A 
ATOM     51  C   UNL A   1      45.673  29.845  27.920  1.00  0.00     0.074 A 
ATOM     52  C   UNL A   1      40.781  32.709  30.814  1.00  0.00     0.029 A 
ATOM     53  N   UNL A   1      42.085  31.259  29.747  1.00  0.00    -0.354 N 
ATOM     54  N   UNL A   1      44.630  30.330  28.550  1.00  0.00    -0.248 NA
ATOM     55  C   UNL A   1      46.777  30.798  27.755  1.00  0.00     0.031 C 
ATOM     56  C   UNL A   1      42.027  33.308  30.597  1.00  0.00     0.029 A 
ATOM     57  C   UNL A   1      42.840  32.404  29.931  1.00  0.00     0.049 A 
ATOM     58  H   UNL A   1      42.404  30.438  29.306  1.00  0.00     0.167 HD
ATOM     59  C   UNL A   1      44.952  31.643  28.865  1.00  0.00     0.074 A 
ATOM     60  C   UNL A   1      46.303  31.865  28.386  1.00  0.00     0.031 C 
ATOM     61  C   UNL A   1      44.194  32.588  29.475  1.00  0.00     0.034 A 
BRANCH  48  62
ATOM     62  C   UNL A   1      38.419  30.819  30.797  1.00  0.00     0.023 A 
ATOM     63  C   UNL A   1      38.144  30.552  32.152  1.00  0.00     0.012 A 
ATOM     64  C   UNL A   1      37.452  31.475  30.009  1.00  0.00     0.148 A 
ATOM     65  C   UNL A   1      36.919  30.914  32.712  1.00  0.00     0.002 A 
ATOM     66  C   UNL A   1      36.246  31.862  30.583  1.00  0.00     0.091 A 
ATOM     67  F   UNL A   1      37.723  31.696  28.716  1.00  0.00    -0.205 F 
ATOM     68  C   UNL A   1      35.976  31.576  31.932  1.00  0.00     0.022 A 
BRANCH  66  69
ATOM     69  S   UNL A   1      34.990  32.770  29.675  1.00  0.00     0.127 S 
ATOM     70  O   UNL A   1      34.069  33.150  30.746  1.00  0.00    -0.237 OA
ATOM     71  O   UNL A   1      35.757  33.879  29.110  1.00  0.00    -0.237 OA
ATOM     72  O   UNL A   1      34.456  31.838  28.691  1.00  0.00    -0.744 OA
ENDBRANCH  66  69
ENDBRANCH  48  62
BRANCH  49  73
ATOM     73  C   UNL A   1      47.159  28.062  26.721  1.00  0.00     0.023 A 
ATOM     74  C   UNL A   1      48.254  27.675  27.516  1.00  0.00     0.012 A 
ATOM     75  C   UNL A   1      47.274  27.999  25.317  1.00  0.00     0.148 A 
ATOM     76  C   UNL A   1      49.443  27.247  26.926  1.00  0.00     0.002 A 
ATOM     77  C   UNL A   1      48.442  27.520  24.736  1.00  0.00     0.091 A 
ATOM     78  F   UNL A   1      46.230  28.396  24.573  1.00  0.00    -0.205 F 
ATOM     79  C   UNL A   1      49.532  27.155  25.539  1.00  0.00     0.022 A 
BRANCH  77  80
ATOM     80  S   UNL A   1      48.577  27.239  22.966  1.00  0.00     0.127 S 
ATOM     81  O   UNL A   1      49.986  27.530  22.724  1.00  0.00    -0.237 OA
ATOM     82  O   UNL A   1      48.211  25.826  22.848  1.00  0.00    -0.237 OA
ATOM     83  O   UNL A   1      47.620  28.153  22.358  1.00  0.00    -0.744 OA
ENDBRANCH  77  80
ENDBRANCH  49  73
BRANCH  61  84
ATOM     84  C   UNL A   1      44.807  33.950  29.647  1.00  0.00     0.023 A 
ATOM     85  C   UNL A   1      45.527  34.237  30.824  1.00  0.00     0.012 A 
ATOM     86  C   UNL A   1      44.735  34.915  28.625  1.00  0.00     0.148 A 
ATOM     87  C   UNL A   1      46.143  35.475  30.993  1.00  0.00     0.002 A 
ATOM     88  C   UNL A   1      45.387  36.131  28.782  1.00  0.00     0.091 A 
ATOM     89  F   UNL A   1      44.028  34.627  27.522  1.00  0.00    -0.205 F 
ATOM     90  C   UNL A   1      46.084  36.417  29.968  1.00  0.00     0.022 A 
BRANCH  88  91
ATOM     91  S   UNL A   1      45.436  37.368  27.480  1.00  0.00     0.127 S 
ATOM     92  O   UNL A   1      44.014  37.592  27.229  1.00  0.00    -0.237 OA
ATOM     93  O   UNL A   1      46.124  38.482  28.133  1.00  0.00    -0.237 OA
ATOM     94  O   UNL A   1      46.179  36.763  26.383  1.00  0.00    -0.744 OA
ENDBRANCH  88  91
ENDBRANCH  61  84
ENDBRANCH  35  36
ENDBRANCH  28  30
ENDBRANCH  27  28
ENDBRANCH  26  27
ENDBRANCH   1  26
TORSDOF 18
ENDMDL
