MODEL 1
REMARK VINA RESULT:     -12.9      0.000      0.000
REMARK SMILES C[C@H]1c2ccc(O)cc2OC(=O)[C@@H]1CC(=O)N[C@@H](CC1=c2ccccc2=NC1)C(=O)OCCOC(=O)c1ccc(-c2c3nc(c(-c4cccc(S(=O)(=O)[O-])c4F)c4ccc([nH]4)c(-c4cccc(S(=O)(=O)[O-])c4F)c4nc(c(-c5cccc(S(=O)(=O)[O-])c5F)c5ccc2[nH]5)C=C4)C=C3)cc1
REMARK SMILES IDX 32 1 31 2 29 3 30 4 18 5 17 6 15 7 16 8 14 10 13 11 1 12
REMARK SMILES IDX 2 13 3 14 4 15 9 16 11 17 5 18 8 19 10 20 12 21 6 22 7 23
REMARK SMILES IDX 19 25 20 26 21 27 28 28 22 29 26 30 27 31 23 32 25 33 24 34
REMARK SMILES IDX 33 35 34 36 35 37 36 38 37 39 38 40 99 41 39 42 98 43 40 44
REMARK SMILES IDX 41 45 42 46 92 47 43 48 97 49 91 50 93 51 44 52 96 53 90 54
REMARK SMILES IDX 89 55 45 57 77 58 57 59 76 60 58 61 61 62 75 63 94 64 59 65
REMARK SMILES IDX 60 66 74 68 95 69 62 70 46 71 47 72 55 73 48 74 50 75 56 76
REMARK SMILES IDX 49 77 51 78 52 79 53 80 54 81 78 82 79 83 87 84 80 85 82 86
REMARK SMILES IDX 88 87 81 88 83 89 84 90 85 91 86 92 63 93 64 94 72 95 65 96
REMARK SMILES IDX 67 97 73 98 66 99 68 100 69 101 70 102 71 103
REMARK H PARENT 17 9 7 24 93 56 61 67
REMARK Flexibility Score: inf
ROOT
ATOM      1  C   UNL A   1      31.989  29.686  26.133  1.00  0.00     0.274 C 
ENDROOT
BRANCH   1   2
ATOM      2  O   UNL A   1      32.199  28.269  25.978  1.00  0.00    -0.461 OA
BRANCH   2   3
ATOM      3  C   UNL A   1      31.382  27.486  26.730  1.00  0.00     0.329 C 
ATOM      4  O   UNL A   1      31.050  27.743  27.885  1.00  0.00    -0.250 OA
BRANCH   3   5
ATOM      5  C   UNL A   1      31.048  26.146  26.078  1.00  0.00     0.196 C 
BRANCH   5   6
ATOM      6  N   UNL A   1      30.832  24.962  26.922  1.00  0.00    -0.342 N 
ATOM      7  C   UNL A   1      30.637  23.651  26.583  1.00  0.00     0.221 C 
ATOM      8  O   UNL A   1      30.177  22.889  27.437  1.00  0.00    -0.275 OA
ATOM      9  H   UNL A   1      30.828  25.142  27.890  1.00  0.00     0.164 HD
BRANCH   7  10
ATOM     10  C   UNL A   1      31.064  23.111  25.222  1.00  0.00     0.116 C 
BRANCH  10  11
ATOM     11  C   UNL A   1      32.532  23.344  24.803  1.00  0.00     0.116 C 
ATOM     12  C   UNL A   1      34.319  22.960  22.990  1.00  0.00     0.014 C 
ATOM     13  C   UNL A   1      32.919  22.603  23.497  1.00  0.00     0.034 C 
ATOM     14  C   UNL A   1      32.841  21.123  23.757  1.00  0.00    -0.001 A 
ATOM     15  C   UNL A   1      32.407  20.208  22.794  1.00  0.00     0.011 A 
ATOM     16  C   UNL A   1      33.137  20.663  25.042  1.00  0.00     0.138 A 
ATOM     17  C   UNL A   1      33.474  22.908  25.893  1.00  0.00     0.315 C 
ATOM     18  C   UNL A   1      32.165  18.884  23.164  1.00  0.00     0.047 A 
ATOM     19  C   UNL A   1      32.877  19.361  25.430  1.00  0.00     0.093 A 
ATOM     20  O   UNL A   1      33.648  21.535  26.016  1.00  0.00    -0.426 OA
ATOM     21  O   UNL A   1      34.003  23.693  26.673  1.00  0.00    -0.251 OA
ATOM     22  C   UNL A   1      32.340  18.501  24.490  1.00  0.00     0.119 A 
BRANCH  22  23
ATOM     23  O   UNL A   1      31.899  17.296  24.932  1.00  0.00    -0.508 OA
ATOM     24  H   UNL A   1      31.749  16.600  24.323  1.00  0.00     0.293 HD
ENDBRANCH  22  23
ENDBRANCH  10  11
ENDBRANCH   7  10
ENDBRANCH   5   6
BRANCH   5  25
ATOM     25  C   UNL A   1      29.868  26.416  25.102  1.00  0.00     0.070 C 
BRANCH  25  26
ATOM     26  C   UNL A   1      30.078  26.644  23.595  1.00  0.00    -0.037 C 
ATOM     27  C   UNL A   1      31.279  26.496  23.022  1.00  0.00     0.001 A 
ATOM     28  C   UNL A   1      29.544  28.006  23.178  1.00  0.00     0.174 C 
ATOM     29  C   UNL A   1      31.730  25.602  21.983  1.00  0.00     0.010 A 
ATOM     30  C   UNL A   1      31.663  27.912  22.799  1.00  0.00     0.065 A 
ATOM     31  N   UNL A   1      30.744  28.819  22.882  1.00  0.00    -0.280 NA
ATOM     32  C   UNL A   1      32.882  25.914  21.357  1.00  0.00     0.001 A 
ATOM     33  C   UNL A   1      33.087  28.093  22.455  1.00  0.00     0.028 A 
ATOM     34  C   UNL A   1      33.654  27.083  21.771  1.00  0.00     0.002 A 
ENDBRANCH  25  26
ENDBRANCH   5  25
ENDBRANCH   3   5
ENDBRANCH   2   3
ENDBRANCH   1   2
BRANCH   1  35
ATOM     35  C   UNL A   1      33.311  30.441  26.274  1.00  0.00     0.275 C 
BRANCH  35  36
ATOM     36  O   UNL A   1      33.612  30.751  27.647  1.00  0.00    -0.458 OA
BRANCH  36  37
ATOM     37  C   UNL A   1      34.601  31.660  27.831  1.00  0.00     0.338 C 
ATOM     38  O   UNL A   1      34.503  32.871  27.707  1.00  0.00    -0.246 OA
BRANCH  37  39
ATOM     39  C   UNL A   1      35.801  30.997  28.385  1.00  0.00     0.060 A 
ATOM     40  C   UNL A   1      35.754  29.761  29.036  1.00  0.00     0.016 A 
ATOM     41  C   UNL A   1      37.024  31.645  28.218  1.00  0.00     0.016 A 
ATOM     42  C   UNL A   1      36.931  29.193  29.548  1.00  0.00     0.010 A 
ATOM     43  C   UNL A   1      38.189  31.084  28.737  1.00  0.00     0.010 A 
ATOM     44  C   UNL A   1      38.157  29.864  29.430  1.00  0.00    -0.014 A 
BRANCH  44  45
ATOM     45  C   UNL A   1      39.429  29.272  29.926  1.00  0.00     0.031 A 
ATOM     46  C   UNL A   1      40.142  29.816  31.136  1.00  0.00     0.074 A 
ATOM     47  C   UNL A   1      40.013  28.300  29.200  1.00  0.00     0.049 A 
ATOM     48  N   UNL A   1      41.350  29.555  31.570  1.00  0.00    -0.248 NA
ATOM     49  C   UNL A   1      39.444  30.845  31.913  1.00  0.00     0.031 C 
ATOM     50  C   UNL A   1      39.477  27.736  27.960  1.00  0.00     0.029 A 
ATOM     51  N   UNL A   1      41.190  27.628  29.397  1.00  0.00    -0.354 N 
ATOM     52  C   UNL A   1      41.599  30.467  32.593  1.00  0.00     0.074 A 
ATOM     53  C   UNL A   1      40.415  31.291  32.704  1.00  0.00     0.031 C 
ATOM     54  C   UNL A   1      40.319  26.792  27.513  1.00  0.00     0.029 A 
ATOM     55  C   UNL A   1      41.441  26.674  28.442  1.00  0.00     0.049 A 
ATOM     56  H   UNL A   1      41.796  27.812  30.150  1.00  0.00     0.167 HD
ATOM     57  C   UNL A   1      42.696  30.578  33.387  1.00  0.00     0.034 A 
ATOM     58  C   UNL A   1      42.439  25.775  28.348  1.00  0.00     0.034 A 
ATOM     59  C   UNL A   1      43.749  29.596  33.421  1.00  0.00     0.049 A 
ATOM     60  C   UNL A   1      43.481  25.715  29.426  1.00  0.00     0.074 A 
ATOM     61  C   UNL A   1      44.789  29.483  34.331  1.00  0.00     0.029 A 
ATOM     62  N   UNL A   1      43.860  28.520  32.557  1.00  0.00    -0.354 N 
ATOM     63  N   UNL A   1      43.650  26.519  30.446  1.00  0.00    -0.248 NA
ATOM     64  C   UNL A   1      44.436  24.597  29.376  1.00  0.00     0.031 C 
ATOM     65  C   UNL A   1      45.503  28.318  34.040  1.00  0.00     0.029 A 
ATOM     66  C   UNL A   1      44.914  27.710  32.942  1.00  0.00     0.049 A 
ATOM     67  H   UNL A   1      43.275  28.354  31.783  1.00  0.00     0.167 HD
ATOM     68  C   UNL A   1      44.711  25.994  31.173  1.00  0.00     0.074 A 
ATOM     69  C   UNL A   1      45.137  24.792  30.487  1.00  0.00     0.031 C 
ATOM     70  C   UNL A   1      45.288  26.480  32.297  1.00  0.00     0.034 A 
BRANCH  57  71
ATOM     71  C   UNL A   1      42.771  31.698  34.402  1.00  0.00     0.023 A 
ATOM     72  C   UNL A   1      43.319  32.939  34.022  1.00  0.00     0.012 A 
ATOM     73  C   UNL A   1      42.156  31.580  35.670  1.00  0.00     0.148 A 
ATOM     74  C   UNL A   1      43.292  34.029  34.892  1.00  0.00     0.002 A 
ATOM     75  C   UNL A   1      42.091  32.687  36.514  1.00  0.00     0.091 A 
ATOM     76  F   UNL A   1      41.615  30.402  36.012  1.00  0.00    -0.205 F 
ATOM     77  C   UNL A   1      42.670  33.907  36.129  1.00  0.00     0.022 A 
BRANCH  75  78
ATOM     78  S   UNL A   1      41.227  32.680  38.092  1.00  0.00     0.127 S 
ATOM     79  O   UNL A   1      39.898  32.207  37.703  1.00  0.00    -0.237 OA
ATOM     80  O   UNL A   1      42.011  31.716  38.865  1.00  0.00    -0.237 OA
ATOM     81  O   UNL A   1      41.273  34.048  38.589  1.00  0.00    -0.744 OA
ENDBRANCH  75  78
ENDBRANCH  57  71
BRANCH  58  82
ATOM     82  C   UNL A   1      42.373  24.755  27.274  1.00  0.00     0.023 A 
ATOM     83  C   UNL A   1      43.237  24.884  26.169  1.00  0.00     0.012 A 
ATOM     84  C   UNL A   1      41.561  23.613  27.391  1.00  0.00     0.148 A 
ATOM     85  C   UNL A   1      43.287  23.895  25.189  1.00  0.00     0.002 A 
ATOM     86  C   UNL A   1      41.642  22.615  26.429  1.00  0.00     0.091 A 
ATOM     87  F   UNL A   1      40.757  23.515  28.460  1.00  0.00    -0.205 F 
ATOM     88  C   UNL A   1      42.498  22.757  25.324  1.00  0.00     0.022 A 
BRANCH  86  89
ATOM     89  S   UNL A   1      40.751  21.061  26.570  1.00  0.00     0.127 S 
ATOM     90  O   UNL A   1      39.423  21.437  26.095  1.00  0.00    -0.237 OA
ATOM     91  O   UNL A   1      41.510  20.198  25.664  1.00  0.00    -0.237 OA
ATOM     92  O   UNL A   1      40.835  20.685  27.975  1.00  0.00    -0.744 OA
ENDBRANCH  86  89
ENDBRANCH  58  82
BRANCH  70  93
ATOM     93  C   UNL A   1      46.435  25.719  32.899  1.00  0.00     0.023 A 
ATOM     94  C   UNL A   1      47.752  26.161  32.667  1.00  0.00     0.012 A 
ATOM     95  C   UNL A   1      46.204  24.666  33.808  1.00  0.00     0.148 A 
ATOM     96  C   UNL A   1      48.824  25.564  33.328  1.00  0.00     0.002 A 
ATOM     97  C   UNL A   1      47.274  24.098  34.487  1.00  0.00     0.091 A 
ATOM     98  F   UNL A   1      44.940  24.259  34.002  1.00  0.00    -0.205 F 
ATOM     99  C   UNL A   1      48.585  24.544  34.247  1.00  0.00     0.022 A 
BRANCH  97 100
ATOM    100  S   UNL A   1      47.062  22.830  35.742  1.00  0.00     0.127 S 
ATOM    101  O   UNL A   1      46.589  21.698  34.945  1.00  0.00    -0.237 OA
ATOM    102  O   UNL A   1      48.421  22.681  36.264  1.00  0.00    -0.237 OA
ATOM    103  O   UNL A   1      46.099  23.361  36.697  1.00  0.00    -0.744 OA
ENDBRANCH  97 100
ENDBRANCH  70  93
ENDBRANCH  44  45
ENDBRANCH  37  39
ENDBRANCH  36  37
ENDBRANCH  35  36
ENDBRANCH   1  35
TORSDOF 20
ENDMDL
MODEL 2
REMARK VINA RESULT:     -12.6      4.878      9.785
REMARK SMILES C[C@H]1c2ccc(O)cc2OC(=O)[C@@H]1CC(=O)N[C@@H](CC1=c2ccccc2=NC1)C(=O)OCCOC(=O)c1ccc(-c2c3nc(c(-c4cccc(S(=O)(=O)[O-])c4F)c4ccc([nH]4)c(-c4cccc(S(=O)(=O)[O-])c4F)c4nc(c(-c5cccc(S(=O)(=O)[O-])c5F)c5ccc2[nH]5)C=C4)C=C3)cc1
REMARK SMILES IDX 32 1 31 2 29 3 30 4 18 5 17 6 15 7 16 8 14 10 13 11 1 12
REMARK SMILES IDX 2 13 3 14 4 15 9 16 11 17 5 18 8 19 10 20 12 21 6 22 7 23
REMARK SMILES IDX 19 25 20 26 21 27 28 28 22 29 26 30 27 31 23 32 25 33 24 34
REMARK SMILES IDX 33 35 34 36 35 37 36 38 37 39 38 40 99 41 39 42 98 43 40 44
REMARK SMILES IDX 41 45 42 46 92 47 43 48 97 49 91 50 93 51 44 52 96 53 90 54
REMARK SMILES IDX 89 55 45 57 77 58 57 59 76 60 58 61 61 62 75 63 94 64 59 65
REMARK SMILES IDX 60 66 74 68 95 69 62 70 46 71 47 72 55 73 48 74 50 75 56 76
REMARK SMILES IDX 49 77 51 78 52 79 53 80 54 81 78 82 79 83 87 84 80 85 82 86
REMARK SMILES IDX 88 87 81 88 83 89 84 90 85 91 86 92 63 93 64 94 72 95 65 96
REMARK SMILES IDX 67 97 73 98 66 99 68 100 69 101 70 102 71 103
REMARK H PARENT 17 9 7 24 93 56 61 67
REMARK Flexibility Score: inf
ROOT
ATOM      1  C   UNL A   1      36.975  22.340  23.650  1.00  0.00     0.274 C 
ENDROOT
BRANCH   1   2
ATOM      2  O   UNL A   1      35.667  22.572  23.092  1.00  0.00    -0.461 OA
BRANCH   2   3
ATOM      3  C   UNL A   1      34.980  23.598  23.658  1.00  0.00     0.329 C 
ATOM      4  O   UNL A   1      35.309  24.159  24.700  1.00  0.00    -0.250 OA
BRANCH   3   5
ATOM      5  C   UNL A   1      33.643  23.887  22.980  1.00  0.00     0.196 C 
BRANCH   5   6
ATOM      6  N   UNL A   1      33.615  24.653  21.726  1.00  0.00    -0.342 N 
ATOM      7  C   UNL A   1      32.933  25.791  21.391  1.00  0.00     0.221 C 
ATOM      8  O   UNL A   1      32.826  26.079  20.197  1.00  0.00    -0.275 OA
ATOM      9  H   UNL A   1      34.182  24.286  21.008  1.00  0.00     0.164 HD
BRANCH   7  10
ATOM     10  C   UNL A   1      32.399  26.738  22.461  1.00  0.00     0.116 C 
BRANCH  10  11
ATOM     11  C   UNL A   1      30.875  26.726  22.713  1.00  0.00     0.116 C 
ATOM     12  C   UNL A   1      28.791  28.141  23.243  1.00  0.00     0.014 C 
ATOM     13  C   UNL A   1      30.319  28.106  23.150  1.00  0.00     0.034 C 
ATOM     14  C   UNL A   1      30.911  28.445  24.492  1.00  0.00    -0.001 A 
ATOM     15  C   UNL A   1      31.254  29.749  24.859  1.00  0.00     0.011 A 
ATOM     16  C   UNL A   1      31.201  27.398  25.368  1.00  0.00     0.138 A 
ATOM     17  C   UNL A   1      30.515  25.713  23.765  1.00  0.00     0.315 C 
ATOM     18  C   UNL A   1      31.983  29.965  26.030  1.00  0.00     0.047 A 
ATOM     19  C   UNL A   1      31.945  27.591  26.519  1.00  0.00     0.093 A 
ATOM     20  O   UNL A   1      30.804  26.083  25.073  1.00  0.00    -0.426 OA
ATOM     21  O   UNL A   1      30.065  24.604  23.499  1.00  0.00    -0.251 OA
ATOM     22  C   UNL A   1      32.372  28.875  26.803  1.00  0.00     0.119 A 
BRANCH  22  23
ATOM     23  O   UNL A   1      33.269  29.021  27.813  1.00  0.00    -0.508 OA
ATOM     24  H   UNL A   1      33.642  29.863  27.989  1.00  0.00     0.293 HD
ENDBRANCH  22  23
ENDBRANCH  10  11
ENDBRANCH   7  10
ENDBRANCH   5   6
BRANCH   5  25
ATOM     25  C   UNL A   1      32.902  22.524  22.872  1.00  0.00     0.070 C 
BRANCH  25  26
ATOM     26  C   UNL A   1      32.250  21.840  24.086  1.00  0.00    -0.037 C 
ATOM     27  C   UNL A   1      32.436  22.291  25.332  1.00  0.00     0.001 A 
ATOM     28  C   UNL A   1      32.559  20.350  24.093  1.00  0.00     0.174 C 
ATOM     29  C   UNL A   1      31.500  22.790  26.310  1.00  0.00     0.010 A 
ATOM     30  C   UNL A   1      33.370  21.268  25.866  1.00  0.00     0.065 A 
ATOM     31  N   UNL A   1      33.500  20.156  25.218  1.00  0.00    -0.280 NA
ATOM     32  C   UNL A   1      31.913  22.835  27.592  1.00  0.00     0.001 A 
ATOM     33  C   UNL A   1      34.010  21.656  27.138  1.00  0.00     0.028 A 
ATOM     34  C   UNL A   1      33.276  22.443  27.944  1.00  0.00     0.002 A 
ENDBRANCH  25  26
ENDBRANCH   5  25
ENDBRANCH   3   5
ENDBRANCH   2   3
ENDBRANCH   1   2
BRANCH   1  35
ATOM     35  C   UNL A   1      36.955  21.220  24.692  1.00  0.00     0.275 C 
BRANCH  35  36
ATOM     36  O   UNL A   1      37.488  21.651  25.958  1.00  0.00    -0.458 OA
BRANCH  36  37
ATOM     37  C   UNL A   1      38.817  21.445  26.125  1.00  0.00     0.338 C 
ATOM     38  O   UNL A   1      39.438  20.438  25.818  1.00  0.00    -0.246 OA
BRANCH  37  39
ATOM     39  C   UNL A   1      39.470  22.692  26.578  1.00  0.00     0.060 A 
ATOM     40  C   UNL A   1      40.539  22.705  27.478  1.00  0.00     0.016 A 
ATOM     41  C   UNL A   1      38.992  23.892  26.053  1.00  0.00     0.016 A 
ATOM     42  C   UNL A   1      41.105  23.927  27.876  1.00  0.00     0.010 A 
ATOM     43  C   UNL A   1      39.549  25.103  26.458  1.00  0.00     0.010 A 
ATOM     44  C   UNL A   1      40.596  25.141  27.392  1.00  0.00    -0.014 A 
BRANCH  44  45
ATOM     45  C   UNL A   1      41.198  26.450  27.762  1.00  0.00     0.031 A 
ATOM     46  C   UNL A   1      42.622  26.798  27.415  1.00  0.00     0.074 A 
ATOM     47  C   UNL A   1      40.483  27.293  28.531  1.00  0.00     0.049 A 
ATOM     48  N   UNL A   1      43.356  27.796  27.841  1.00  0.00    -0.248 NA
ATOM     49  C   UNL A   1      43.342  25.865  26.544  1.00  0.00     0.031 C 
ATOM     50  C   UNL A   1      39.123  27.047  29.012  1.00  0.00     0.029 A 
ATOM     51  N   UNL A   1      40.810  28.519  29.048  1.00  0.00    -0.354 N 
ATOM     52  C   UNL A   1      44.649  27.547  27.388  1.00  0.00     0.074 A 
ATOM     53  C   UNL A   1      44.593  26.297  26.660  1.00  0.00     0.031 C 
ATOM     54  C   UNL A   1      38.726  28.098  29.747  1.00  0.00     0.029 A 
ATOM     55  C   UNL A   1      39.795  29.094  29.771  1.00  0.00     0.049 A 
ATOM     56  H   UNL A   1      41.687  28.944  28.914  1.00  0.00     0.167 HD
ATOM     57  C   UNL A   1      45.764  28.309  27.531  1.00  0.00     0.034 A 
ATOM     58  C   UNL A   1      39.717  30.307  30.352  1.00  0.00     0.034 A 
ATOM     59  C   UNL A   1      45.740  29.656  28.040  1.00  0.00     0.049 A 
ATOM     60  C   UNL A   1      40.867  31.262  30.223  1.00  0.00     0.074 A 
ATOM     61  C   UNL A   1      46.758  30.598  28.027  1.00  0.00     0.029 A 
ATOM     62  N   UNL A   1      44.630  30.279  28.586  1.00  0.00    -0.354 N 
ATOM     63  N   UNL A   1      42.050  31.052  29.702  1.00  0.00    -0.248 NA
ATOM     64  C   UNL A   1      40.658  32.634  30.710  1.00  0.00     0.031 C 
ATOM     65  C   UNL A   1      46.250  31.800  28.527  1.00  0.00     0.029 A 
ATOM     66  C   UNL A   1      44.920  31.604  28.862  1.00  0.00     0.049 A 
ATOM     67  H   UNL A   1      43.763  29.845  28.752  1.00  0.00     0.167 HD
ATOM     68  C   UNL A   1      42.719  32.267  29.774  1.00  0.00     0.074 A 
ATOM     69  C   UNL A   1      41.804  33.217  30.373  1.00  0.00     0.031 C 
ATOM     70  C   UNL A   1      43.984  32.560  29.392  1.00  0.00     0.034 A 
BRANCH  57  71
ATOM     71  C   UNL A   1      47.088  27.801  27.002  1.00  0.00     0.023 A 
ATOM     72  C   UNL A   1      47.996  27.185  27.887  1.00  0.00     0.012 A 
ATOM     73  C   UNL A   1      47.364  27.783  25.615  1.00  0.00     0.148 A 
ATOM     74  C   UNL A   1      49.168  26.596  27.414  1.00  0.00     0.002 A 
ATOM     75  C   UNL A   1      48.515  27.150  25.147  1.00  0.00     0.091 A 
ATOM     76  F   UNL A   1      46.482  28.349  24.780  1.00  0.00    -0.205 F 
ATOM     77  C   UNL A   1      49.421  26.569  26.048  1.00  0.00     0.022 A 
BRANCH  75  78
ATOM     78  S   UNL A   1      48.899  26.963  23.399  1.00  0.00     0.127 S 
ATOM     79  O   UNL A   1      48.429  28.236  22.852  1.00  0.00    -0.237 OA
ATOM     80  O   UNL A   1      50.354  26.813  23.421  1.00  0.00    -0.237 OA
ATOM     81  O   UNL A   1      48.167  25.789  22.944  1.00  0.00    -0.744 OA
ENDBRANCH  75  78
ENDBRANCH  57  71
BRANCH  58  82
ATOM     82  C   UNL A   1      38.423  30.724  30.946  1.00  0.00     0.023 A 
ATOM     83  C   UNL A   1      38.255  30.606  32.340  1.00  0.00     0.012 A 
ATOM     84  C   UNL A   1      37.421  31.336  30.174  1.00  0.00     0.148 A 
ATOM     85  C   UNL A   1      37.100  31.084  32.957  1.00  0.00     0.002 A 
ATOM     86  C   UNL A   1      36.289  31.841  30.799  1.00  0.00     0.091 A 
ATOM     87  F   UNL A   1      37.616  31.442  28.852  1.00  0.00    -0.205 F 
ATOM     88  C   UNL A   1      36.123  31.710  32.189  1.00  0.00     0.022 A 
BRANCH  86  89
ATOM     89  S   UNL A   1      35.025  32.764  29.916  1.00  0.00     0.127 S 
ATOM     90  O   UNL A   1      34.487  31.744  29.019  1.00  0.00    -0.237 OA
ATOM     91  O   UNL A   1      34.132  33.164  31.003  1.00  0.00    -0.237 OA
ATOM     92  O   UNL A   1      35.723  33.867  29.270  1.00  0.00    -0.744 OA
ENDBRANCH  86  89
ENDBRANCH  58  82
BRANCH  70  93
ATOM     93  C   UNL A   1      44.481  33.966  29.576  1.00  0.00     0.023 A 
ATOM     94  C   UNL A   1      45.179  34.301  30.752  1.00  0.00     0.012 A 
ATOM     95  C   UNL A   1      44.386  34.906  28.530  1.00  0.00     0.148 A 
ATOM     96  C   UNL A   1      45.776  35.554  30.885  1.00  0.00     0.002 A 
ATOM     97  C   UNL A   1      45.010  36.141  28.657  1.00  0.00     0.091 A 
ATOM     98  F   UNL A   1      43.705  34.563  27.426  1.00  0.00    -0.205 F 
ATOM     99  C   UNL A   1      45.703  36.467  29.835  1.00  0.00     0.022 A 
BRANCH  97 100
ATOM    100  S   UNL A   1      45.036  37.355  27.333  1.00  0.00     0.127 S 
ATOM    101  O   UNL A   1      45.970  36.745  26.388  1.00  0.00    -0.237 OA
ATOM    102  O   UNL A   1      43.640  37.362  26.893  1.00  0.00    -0.237 OA
ATOM    103  O   UNL A   1      45.490  38.601  27.935  1.00  0.00    -0.744 OA
ENDBRANCH  97 100
ENDBRANCH  70  93
ENDBRANCH  44  45
ENDBRANCH  37  39
ENDBRANCH  36  37
ENDBRANCH  35  36
ENDBRANCH   1  35
TORSDOF 20
ENDMDL
MODEL 3
REMARK VINA RESULT:     -12.3      4.800      9.680
REMARK SMILES C[C@H]1c2ccc(O)cc2OC(=O)[C@@H]1CC(=O)N[C@@H](CC1=c2ccccc2=NC1)C(=O)OCCOC(=O)c1ccc(-c2c3nc(c(-c4cccc(S(=O)(=O)[O-])c4F)c4ccc([nH]4)c(-c4cccc(S(=O)(=O)[O-])c4F)c4nc(c(-c5cccc(S(=O)(=O)[O-])c5F)c5ccc2[nH]5)C=C4)C=C3)cc1
REMARK SMILES IDX 32 1 31 2 29 3 30 4 18 5 17 6 15 7 16 8 14 10 13 11 1 12
REMARK SMILES IDX 2 13 3 14 4 15 9 16 11 17 5 18 8 19 10 20 12 21 6 22 7 23
REMARK SMILES IDX 19 25 20 26 21 27 28 28 22 29 26 30 27 31 23 32 25 33 24 34
REMARK SMILES IDX 33 35 34 36 35 37 36 38 37 39 38 40 99 41 39 42 98 43 40 44
REMARK SMILES IDX 41 45 42 46 92 47 43 48 97 49 91 50 93 51 44 52 96 53 90 54
REMARK SMILES IDX 89 55 45 57 77 58 57 59 76 60 58 61 61 62 75 63 94 64 59 65
REMARK SMILES IDX 60 66 74 68 95 69 62 70 46 71 47 72 55 73 48 74 50 75 56 76
REMARK SMILES IDX 49 77 51 78 52 79 53 80 54 81 78 82 79 83 87 84 80 85 82 86
REMARK SMILES IDX 88 87 81 88 83 89 84 90 85 91 86 92 63 93 64 94 72 95 65 96
REMARK SMILES IDX 67 97 73 98 66 99 68 100 69 101 70 102 71 103
REMARK H PARENT 17 9 7 24 93 56 61 67
REMARK Flexibility Score: inf
ROOT
ATOM      1  C   UNL A   1      36.486  21.444  24.476  1.00  0.00     0.274 C 
ENDROOT
BRANCH   1   2
ATOM      2  O   UNL A   1      35.438  20.624  25.027  1.00  0.00    -0.461 OA
BRANCH   2   3
ATOM      3  C   UNL A   1      34.727  21.204  26.030  1.00  0.00     0.329 C 
ATOM      4  O   UNL A   1      35.218  21.918  26.901  1.00  0.00    -0.250 OA
BRANCH   3   5
ATOM      5  C   UNL A   1      33.273  20.744  26.094  1.00  0.00     0.196 C 
BRANCH   5   6
ATOM      6  N   UNL A   1      32.269  21.599  26.742  1.00  0.00    -0.342 N 
ATOM      7  C   UNL A   1      32.056  22.948  26.654  1.00  0.00     0.221 C 
ATOM      8  O   UNL A   1      31.358  23.488  27.514  1.00  0.00    -0.275 OA
ATOM      9  H   UNL A   1      31.645  21.123  27.338  1.00  0.00     0.164 HD
BRANCH   7  10
ATOM     10  C   UNL A   1      32.584  23.758  25.473  1.00  0.00     0.116 C 
BRANCH  10  11
ATOM     11  C   UNL A   1      33.480  24.973  25.798  1.00  0.00     0.116 C 
ATOM     12  C   UNL A   1      33.601  27.535  26.015  1.00  0.00     0.014 C 
ATOM     13  C   UNL A   1      32.779  26.332  25.542  1.00  0.00     0.034 C 
ATOM     14  C   UNL A   1      32.518  26.453  24.065  1.00  0.00    -0.001 A 
ATOM     15  C   UNL A   1      31.374  27.068  23.548  1.00  0.00     0.011 A 
ATOM     16  C   UNL A   1      33.419  25.852  23.184  1.00  0.00     0.138 A 
ATOM     17  C   UNL A   1      34.749  24.932  24.991  1.00  0.00     0.315 C 
ATOM     18  C   UNL A   1      31.095  26.965  22.184  1.00  0.00     0.047 A 
ATOM     19  C   UNL A   1      33.144  25.720  21.835  1.00  0.00     0.093 A 
ATOM     20  O   UNL A   1      34.617  25.292  23.655  1.00  0.00    -0.426 OA
ATOM     21  O   UNL A   1      35.818  24.542  25.446  1.00  0.00    -0.251 OA
ATOM     22  C   UNL A   1      31.951  26.236  21.364  1.00  0.00     0.119 A 
BRANCH  22  23
ATOM     23  O   UNL A   1      31.597  25.921  20.092  1.00  0.00    -0.508 OA
ATOM     24  H   UNL A   1      31.022  26.484  19.613  1.00  0.00     0.293 HD
ENDBRANCH  22  23
ENDBRANCH  10  11
ENDBRANCH   7  10
ENDBRANCH   5   6
BRANCH   5  25
ATOM     25  C   UNL A   1      32.877  20.338  24.646  1.00  0.00     0.070 C 
BRANCH  25  26
ATOM     26  C   UNL A   1      32.318  18.947  24.301  1.00  0.00    -0.037 C 
ATOM     27  C   UNL A   1      32.838  17.830  24.826  1.00  0.00     0.001 A 
ATOM     28  C   UNL A   1      32.257  18.751  22.793  1.00  0.00     0.174 C 
ATOM     29  C   UNL A   1      32.250  16.812  25.662  1.00  0.00     0.010 A 
ATOM     30  C   UNL A   1      33.582  17.289  23.661  1.00  0.00     0.065 A 
ATOM     31  N   UNL A   1      33.317  17.766  22.487  1.00  0.00    -0.280 NA
ATOM     32  C   UNL A   1      32.894  15.631  25.742  1.00  0.00     0.001 A 
ATOM     33  C   UNL A   1      34.523  16.207  24.008  1.00  0.00     0.028 A 
ATOM     34  C   UNL A   1      34.164  15.433  25.048  1.00  0.00     0.002 A 
ENDBRANCH  25  26
ENDBRANCH   5  25
ENDBRANCH   3   5
ENDBRANCH   2   3
ENDBRANCH   1   2
BRANCH   1  35
ATOM     35  C   UNL A   1      37.853  21.082  25.059  1.00  0.00     0.275 C 
BRANCH  35  36
ATOM     36  O   UNL A   1      38.263  22.003  26.087  1.00  0.00    -0.458 OA
BRANCH  36  37
ATOM     37  C   UNL A   1      39.561  21.907  26.464  1.00  0.00     0.338 C 
ATOM     38  O   UNL A   1      40.295  20.945  26.293  1.00  0.00    -0.246 OA
BRANCH  37  39
ATOM     39  C   UNL A   1      40.040  23.212  26.966  1.00  0.00     0.060 A 
ATOM     40  C   UNL A   1      41.035  23.332  27.941  1.00  0.00     0.016 A 
ATOM     41  C   UNL A   1      39.473  24.359  26.411  1.00  0.00     0.016 A 
ATOM     42  C   UNL A   1      41.435  24.604  28.382  1.00  0.00     0.010 A 
ATOM     43  C   UNL A   1      39.865  25.619  26.858  1.00  0.00     0.010 A 
ATOM     44  C   UNL A   1      40.833  25.760  27.865  1.00  0.00    -0.014 A 
BRANCH  44  45
ATOM     45  C   UNL A   1      41.261  27.123  28.280  1.00  0.00     0.031 A 
ATOM     46  C   UNL A   1      42.705  27.549  28.247  1.00  0.00     0.074 A 
ATOM     47  C   UNL A   1      40.343  27.953  28.811  1.00  0.00     0.049 A 
ATOM     48  N   UNL A   1      43.266  28.613  28.766  1.00  0.00    -0.248 NA
ATOM     49  C   UNL A   1      43.658  26.625  27.623  1.00  0.00     0.031 C 
ATOM     50  C   UNL A   1      38.924  27.640  28.983  1.00  0.00     0.029 A 
ATOM     51  N   UNL A   1      40.474  29.221  29.312  1.00  0.00    -0.354 N 
ATOM     52  C   UNL A   1      44.641  28.429  28.637  1.00  0.00     0.074 A 
ATOM     53  C   UNL A   1      44.822  27.145  27.995  1.00  0.00     0.031 C 
ATOM     54  C   UNL A   1      38.311  28.696  29.541  1.00  0.00     0.029 A 
ATOM     55  C   UNL A   1      39.290  29.762  29.747  1.00  0.00     0.049 A 
ATOM     56  H   UNL A   1      41.334  29.698  29.356  1.00  0.00     0.167 HD
ATOM     57  C   UNL A   1      45.649  29.271  28.983  1.00  0.00     0.034 A 
ATOM     58  C   UNL A   1      39.014  30.993  30.217  1.00  0.00     0.034 A 
ATOM     59  C   UNL A   1      45.435  30.636  29.389  1.00  0.00     0.049 A 
ATOM     60  C   UNL A   1      40.109  32.016  30.296  1.00  0.00     0.074 A 
ATOM     61  C   UNL A   1      46.375  31.642  29.549  1.00  0.00     0.029 A 
ATOM     62  N   UNL A   1      44.197  31.209  29.626  1.00  0.00    -0.354 N 
ATOM     63  N   UNL A   1      41.390  31.860  30.073  1.00  0.00    -0.248 NA
ATOM     64  C   UNL A   1      39.719  33.392  30.635  1.00  0.00     0.031 C 
ATOM     65  C   UNL A   1      45.702  32.830  29.844  1.00  0.00     0.029 A 
ATOM     66  C   UNL A   1      44.342  32.562  29.878  1.00  0.00     0.049 A 
ATOM     67  H   UNL A   1      43.339  30.726  29.617  1.00  0.00     0.167 HD
ATOM     68  C   UNL A   1      41.957  33.120  30.220  1.00  0.00     0.074 A 
ATOM     69  C   UNL A   1      40.878  34.033  30.534  1.00  0.00     0.031 C 
ATOM     70  C   UNL A   1      43.259  33.477  30.120  1.00  0.00     0.034 A 
BRANCH  57  71
ATOM     71  C   UNL A   1      47.085  28.828  28.804  1.00  0.00     0.023 A 
ATOM     72  C   UNL A   1      47.750  28.189  29.869  1.00  0.00     0.012 A 
ATOM     73  C   UNL A   1      47.719  28.892  27.541  1.00  0.00     0.148 A 
ATOM     74  C   UNL A   1      49.028  27.657  29.699  1.00  0.00     0.002 A 
ATOM     75  C   UNL A   1      48.977  28.317  27.367  1.00  0.00     0.091 A 
ATOM     76  F   UNL A   1      47.067  29.479  26.527  1.00  0.00    -0.205 F 
ATOM     77  C   UNL A   1      49.635  27.712  28.450  1.00  0.00     0.022 A 
BRANCH  75  78
ATOM     78  S   UNL A   1      49.817  28.235  25.779  1.00  0.00     0.127 S 
ATOM     79  O   UNL A   1      50.457  29.550  25.712  1.00  0.00    -0.237 OA
ATOM     80  O   UNL A   1      50.742  27.120  25.980  1.00  0.00    -0.237 OA
ATOM     81  O   UNL A   1      48.782  28.003  24.781  1.00  0.00    -0.744 OA
ENDBRANCH  75  78
ENDBRANCH  57  71
BRANCH  58  82
ATOM     82  C   UNL A   1      37.597  31.350  30.474  1.00  0.00     0.023 A 
ATOM     83  C   UNL A   1      37.136  31.361  31.805  1.00  0.00     0.012 A 
ATOM     84  C   UNL A   1      36.749  31.788  29.441  1.00  0.00     0.148 A 
ATOM     85  C   UNL A   1      35.846  31.793  32.105  1.00  0.00     0.002 A 
ATOM     86  C   UNL A   1      35.477  32.251  29.750  1.00  0.00     0.091 A 
ATOM     87  F   UNL A   1      37.221  31.776  28.187  1.00  0.00    -0.205 F 
ATOM     88  C   UNL A   1      35.021  32.247  31.080  1.00  0.00     0.022 A 
BRANCH  86  89
ATOM     89  S   UNL A   1      34.379  32.961  28.519  1.00  0.00     0.127 S 
ATOM     90  O   UNL A   1      35.322  33.658  27.648  1.00  0.00    -0.237 OA
ATOM     91  O   UNL A   1      33.769  31.766  27.937  1.00  0.00    -0.237 OA
ATOM     92  O   UNL A   1      33.456  33.812  29.258  1.00  0.00    -0.744 OA
ENDBRANCH  86  89
ENDBRANCH  58  82
BRANCH  70  93
ATOM     93  C   UNL A   1      43.622  34.921  30.324  1.00  0.00     0.023 A 
ATOM     94  C   UNL A   1      44.048  35.350  31.596  1.00  0.00     0.012 A 
ATOM     95  C   UNL A   1      43.684  35.810  29.232  1.00  0.00     0.148 A 
ATOM     96  C   UNL A   1      44.529  36.646  31.779  1.00  0.00     0.002 A 
ATOM     97  C   UNL A   1      44.194  37.089  29.416  1.00  0.00     0.091 A 
ATOM     98  F   UNL A   1      43.262  35.377  28.034  1.00  0.00    -0.205 F 
ATOM     99  C   UNL A   1      44.615  37.509  30.689  1.00  0.00     0.022 A 
BRANCH  97 100
ATOM    100  S   UNL A   1      44.413  38.249  28.061  1.00  0.00     0.127 S 
ATOM    101  O   UNL A   1      45.126  37.430  27.081  1.00  0.00    -0.237 OA
ATOM    102  O   UNL A   1      43.031  38.567  27.700  1.00  0.00    -0.237 OA
ATOM    103  O   UNL A   1      45.172  39.367  28.603  1.00  0.00    -0.744 OA
ENDBRANCH  97 100
ENDBRANCH  70  93
ENDBRANCH  44  45
ENDBRANCH  37  39
ENDBRANCH  36  37
ENDBRANCH  35  36
ENDBRANCH   1  35
TORSDOF 20
ENDMDL
