MODEL 1
REMARK VINA RESULT:     -12.3      0.000      0.000
REMARK SMILES CC1(C)C[C@@H](Nc2ccc(Cl)c(C(=O)OCCOC(=O)c3ccc(-c4c5nc(c(-c6cccc(S(=O)(=O)[O-])c6F)c6ccc([nH]6)c(-c6cccc(S(=O)(=O)[O-])c6F)c6nc(c(-c7cccc(S(=O)(=O)[O-])c7F)c7ccc4[nH]7)C=C6)C=C5)cc3)c2)C(C)(C)O1
REMARK SMILES IDX 17 1 16 2 15 3 13 4 14 5 12 6 7 7 8 8 84 9 9 10 10 11 11 12
REMARK SMILES IDX 6 13 5 15 1 16 2 17 3 18 4 19 88 20 85 21 86 22 87 23 18 24
REMARK SMILES IDX 19 25 20 26 21 27 22 28 83 29 23 30 82 31 24 32 25 33 26 34
REMARK SMILES IDX 76 35 27 36 81 37 75 38 77 39 28 40 80 41 74 42 73 43 29 45
REMARK SMILES IDX 61 46 41 47 60 48 42 49 45 50 59 51 78 52 43 53 44 54 58 56
REMARK SMILES IDX 79 57 46 58 30 59 31 60 39 61 32 62 34 63 40 64 33 65 35 66
REMARK SMILES IDX 36 67 37 68 38 69 62 70 63 71 71 72 64 73 66 74 72 75 65 76
REMARK SMILES IDX 67 77 68 78 69 79 70 80 47 81 48 82 56 83 49 84 51 85 57 86
REMARK SMILES IDX 50 87 52 88 53 89 54 90 55 91
REMARK H PARENT 6 14 77 44 45 55
REMARK Flexibility Score: inf
ROOT
ATOM      1  C   UNL A   1      37.269  20.840  24.810  1.00  0.00     0.275 C 
ENDROOT
BRANCH   1   2
ATOM      2  C   UNL A   1      35.855  20.658  25.353  1.00  0.00     0.275 C 
BRANCH   2   3
ATOM      3  O   UNL A   1      35.307  21.924  25.774  1.00  0.00    -0.458 OA
BRANCH   3   4
ATOM      4  C   UNL A   1      34.212  21.874  26.568  1.00  0.00     0.339 C 
ATOM      5  O   UNL A   1      34.152  21.411  27.697  1.00  0.00    -0.246 OA
BRANCH   4   6
ATOM      6  C   UNL A   1      33.072  22.580  25.951  1.00  0.00     0.080 A 
ATOM      7  C   UNL A   1      31.671  24.582  26.011  1.00  0.00     0.035 A 
ATOM      8  C   UNL A   1      30.883  24.035  25.001  1.00  0.00     0.027 A 
ATOM      9  C   UNL A   1      32.737  23.830  26.500  1.00  0.00     0.043 A 
ATOM     10  C   UNL A   1      31.190  22.782  24.456  1.00  0.00     0.023 A 
ATOM     11  C   UNL A   1      32.286  22.049  24.928  1.00  0.00     0.055 A 
ATOM     12  Cl  UNL A   1      32.533  20.476  24.259  1.00  0.00    -0.083 Cl
BRANCH   7  13
ATOM     13  N   UNL A   1      31.369  25.813  26.575  1.00  0.00    -0.379 N 
ATOM     14  H   UNL A   1      30.549  25.939  27.103  1.00  0.00     0.160 HD
BRANCH  13  15
ATOM     15  C   UNL A   1      32.302  26.915  26.362  1.00  0.00     0.113 C 
ATOM     16  C   UNL A   1      32.053  30.568  26.890  1.00  0.00     0.042 C 
ATOM     17  C   UNL A   1      32.731  29.229  26.615  1.00  0.00     0.065 C 
ATOM     18  C   UNL A   1      34.209  29.300  27.014  1.00  0.00     0.042 C 
ATOM     19  C   UNL A   1      32.007  28.071  27.297  1.00  0.00     0.062 C 
ATOM     20  O   UNL A   1      32.686  28.966  25.200  1.00  0.00    -0.367 OA
ATOM     21  C   UNL A   1      32.225  27.608  24.979  1.00  0.00     0.083 C 
ATOM     22  C   UNL A   1      30.818  27.724  24.382  1.00  0.00     0.044 C 
ATOM     23  C   UNL A   1      33.162  26.956  23.963  1.00  0.00     0.044 C 
ENDBRANCH  13  15
ENDBRANCH   7  13
ENDBRANCH   4   6
ENDBRANCH   3   4
ENDBRANCH   2   3
ENDBRANCH   1   2
BRANCH   1  24
ATOM     24  O   UNL A   1      37.913  21.932  25.486  1.00  0.00    -0.458 OA
BRANCH  24  25
ATOM     25  C   UNL A   1      39.066  21.622  26.118  1.00  0.00     0.338 C 
ATOM     26  O   UNL A   1      39.661  20.558  26.112  1.00  0.00    -0.246 OA
BRANCH  25  27
ATOM     27  C   UNL A   1      39.576  22.819  26.798  1.00  0.00     0.060 A 
ATOM     28  C   UNL A   1      39.005  24.051  26.489  1.00  0.00     0.016 A 
ATOM     29  C   UNL A   1      40.690  22.745  27.628  1.00  0.00     0.016 A 
ATOM     30  C   UNL A   1      39.612  25.227  26.921  1.00  0.00     0.010 A 
ATOM     31  C   UNL A   1      41.236  23.925  28.142  1.00  0.00     0.010 A 
ATOM     32  C   UNL A   1      40.736  25.185  27.757  1.00  0.00    -0.014 A 
BRANCH  32  33
ATOM     33  C   UNL A   1      41.421  26.433  28.201  1.00  0.00     0.031 A 
ATOM     34  C   UNL A   1      40.649  27.480  28.966  1.00  0.00     0.074 A 
ATOM     35  C   UNL A   1      42.717  26.659  27.901  1.00  0.00     0.049 A 
ATOM     36  N   UNL A   1      40.964  28.724  29.220  1.00  0.00    -0.248 NA
ATOM     37  C   UNL A   1      39.337  27.077  29.502  1.00  0.00     0.031 C 
ATOM     38  C   UNL A   1      43.605  25.728  27.203  1.00  0.00     0.029 A 
ATOM     39  N   UNL A   1      43.510  27.760  28.129  1.00  0.00    -0.354 N 
ATOM     40  C   UNL A   1      39.860  29.275  29.860  1.00  0.00     0.074 A 
ATOM     41  C   UNL A   1      38.872  28.224  29.976  1.00  0.00     0.031 C 
ATOM     42  C   UNL A   1      44.816  26.289  27.066  1.00  0.00     0.029 A 
ATOM     43  C   UNL A   1      44.768  27.652  27.581  1.00  0.00     0.049 A 
ATOM     44  H   UNL A   1      43.206  28.549  28.634  1.00  0.00     0.167 HD
ATOM     45  C   UNL A   1      39.684  30.540  30.313  1.00  0.00     0.034 A 
ATOM     46  C   UNL A   1      45.756  28.560  27.451  1.00  0.00     0.034 A 
ATOM     47  C   UNL A   1      40.699  31.558  30.271  1.00  0.00     0.049 A 
ATOM     48  C   UNL A   1      45.541  29.957  27.964  1.00  0.00     0.074 A 
ATOM     49  C   UNL A   1      40.629  32.862  30.731  1.00  0.00     0.029 A 
ATOM     50  N   UNL A   1      41.975  31.383  29.759  1.00  0.00    -0.354 N 
ATOM     51  N   UNL A   1      44.496  30.458  28.579  1.00  0.00    -0.248 NA
ATOM     52  C   UNL A   1      46.641  30.914  27.775  1.00  0.00     0.031 C 
ATOM     53  C   UNL A   1      41.862  33.477  30.493  1.00  0.00     0.029 A 
ATOM     54  C   UNL A   1      42.705  32.550  29.898  1.00  0.00     0.049 A 
ATOM     55  H   UNL A   1      42.313  30.550  29.356  1.00  0.00     0.167 HD
ATOM     56  C   UNL A   1      44.824  31.775  28.875  1.00  0.00     0.074 A 
ATOM     57  C   UNL A   1      46.172  31.991  28.389  1.00  0.00     0.031 C 
ATOM     58  C   UNL A   1      44.069  32.727  29.476  1.00  0.00     0.034 A 
BRANCH  45  59
ATOM     59  C   UNL A   1      38.350  30.895  30.915  1.00  0.00     0.023 A 
ATOM     60  C   UNL A   1      38.069  30.552  32.252  1.00  0.00     0.012 A 
ATOM     61  C   UNL A   1      37.399  31.627  30.175  1.00  0.00     0.148 A 
ATOM     62  C   UNL A   1      36.851  30.904  32.834  1.00  0.00     0.002 A 
ATOM     63  C   UNL A   1      36.205  32.010  30.774  1.00  0.00     0.091 A 
ATOM     64  F   UNL A   1      37.675  31.926  28.898  1.00  0.00    -0.205 F 
ATOM     65  C   UNL A   1      35.925  31.641  32.100  1.00  0.00     0.022 A 
BRANCH  63  66
ATOM     66  S   UNL A   1      34.986  33.028  29.933  1.00  0.00     0.127 S 
ATOM     67  O   UNL A   1      34.395  32.069  29.000  1.00  0.00    -0.237 OA
ATOM     68  O   UNL A   1      34.106  33.431  31.030  1.00  0.00    -0.237 OA
ATOM     69  O   UNL A   1      35.731  34.121  29.324  1.00  0.00    -0.744 OA
ENDBRANCH  63  66
ENDBRANCH  45  59
BRANCH  46  70
ATOM     70  C   UNL A   1      47.043  28.171  26.805  1.00  0.00     0.023 A 
ATOM     71  C   UNL A   1      48.137  27.805  27.611  1.00  0.00     0.012 A 
ATOM     72  C   UNL A   1      47.176  28.119  25.403  1.00  0.00     0.148 A 
ATOM     73  C   UNL A   1      49.346  27.413  27.034  1.00  0.00     0.002 A 
ATOM     74  C   UNL A   1      48.362  27.668  24.836  1.00  0.00     0.091 A 
ATOM     75  F   UNL A   1      46.133  28.496  24.650  1.00  0.00    -0.205 F 
ATOM     76  C   UNL A   1      49.455  27.331  25.648  1.00  0.00     0.022 A 
BRANCH  74  77
ATOM     77  S   UNL A   1      48.528  27.392  23.068  1.00  0.00     0.127 S 
ATOM     78  O   UNL A   1      49.900  27.828  22.824  1.00  0.00    -0.237 OA
ATOM     79  O   UNL A   1      48.314  25.947  22.962  1.00  0.00    -0.237 OA
ATOM     80  O   UNL A   1      47.482  28.195  22.450  1.00  0.00    -0.744 OA
ENDBRANCH  74  77
ENDBRANCH  46  70
BRANCH  58  81
ATOM     81  C   UNL A   1      44.691  34.080  29.695  1.00  0.00     0.023 A 
ATOM     82  C   UNL A   1      45.401  34.339  30.883  1.00  0.00     0.012 A 
ATOM     83  C   UNL A   1      44.650  35.058  28.683  1.00  0.00     0.148 A 
ATOM     84  C   UNL A   1      46.045  35.562  31.069  1.00  0.00     0.002 A 
ATOM     85  C   UNL A   1      45.330  36.257  28.857  1.00  0.00     0.091 A 
ATOM     86  F   UNL A   1      43.951  34.796  27.568  1.00  0.00    -0.205 F 
ATOM     87  C   UNL A   1      46.020  36.514  30.052  1.00  0.00     0.022 A 
BRANCH  85  88
ATOM     88  S   UNL A   1      45.429  37.503  27.566  1.00  0.00     0.127 S 
ATOM     89  O   UNL A   1      46.163  38.573  28.242  1.00  0.00    -0.237 OA
ATOM     90  O   UNL A   1      46.184  36.811  26.522  1.00  0.00    -0.237 OA
ATOM     91  O   UNL A   1      44.053  37.819  27.207  1.00  0.00    -0.744 OA
ENDBRANCH  85  88
ENDBRANCH  58  81
ENDBRANCH  32  33
ENDBRANCH  25  27
ENDBRANCH  24  25
ENDBRANCH   1  24
TORSDOF 16
ENDMDL
MODEL 2
REMARK VINA RESULT:     -12.3      1.324      1.656
REMARK SMILES CC1(C)C[C@@H](Nc2ccc(Cl)c(C(=O)OCCOC(=O)c3ccc(-c4c5nc(c(-c6cccc(S(=O)(=O)[O-])c6F)c6ccc([nH]6)c(-c6cccc(S(=O)(=O)[O-])c6F)c6nc(c(-c7cccc(S(=O)(=O)[O-])c7F)c7ccc4[nH]7)C=C6)C=C5)cc3)c2)C(C)(C)O1
REMARK SMILES IDX 17 1 16 2 15 3 13 4 14 5 12 6 7 7 8 8 84 9 9 10 10 11 11 12
REMARK SMILES IDX 6 13 5 15 1 16 2 17 3 18 4 19 88 20 85 21 86 22 87 23 18 24
REMARK SMILES IDX 19 25 20 26 21 27 22 28 83 29 23 30 82 31 24 32 25 33 26 34
REMARK SMILES IDX 76 35 27 36 81 37 75 38 77 39 28 40 80 41 74 42 73 43 29 45
REMARK SMILES IDX 61 46 41 47 60 48 42 49 45 50 59 51 78 52 43 53 44 54 58 56
REMARK SMILES IDX 79 57 46 58 30 59 31 60 39 61 32 62 34 63 40 64 33 65 35 66
REMARK SMILES IDX 36 67 37 68 38 69 62 70 63 71 71 72 64 73 66 74 72 75 65 76
REMARK SMILES IDX 67 77 68 78 69 79 70 80 47 81 48 82 56 83 49 84 51 85 57 86
REMARK SMILES IDX 50 87 52 88 53 89 54 90 55 91
REMARK H PARENT 6 14 77 44 45 55
REMARK Flexibility Score: inf
ROOT
ATOM      1  C   UNL A   1      36.720  20.332  25.006  1.00  0.00     0.275 C 
ENDROOT
BRANCH   1   2
ATOM      2  C   UNL A   1      35.263  20.782  24.940  1.00  0.00     0.275 C 
BRANCH   2   3
ATOM      3  O   UNL A   1      35.042  21.911  25.811  1.00  0.00    -0.458 OA
BRANCH   3   4
ATOM      4  C   UNL A   1      33.937  21.864  26.590  1.00  0.00     0.339 C 
ATOM      5  O   UNL A   1      33.843  21.344  27.691  1.00  0.00    -0.246 OA
BRANCH   4   6
ATOM      6  C   UNL A   1      32.835  22.650  26.000  1.00  0.00     0.080 A 
ATOM      7  C   UNL A   1      31.592  24.753  26.083  1.00  0.00     0.035 A 
ATOM      8  C   UNL A   1      30.734  24.260  25.102  1.00  0.00     0.027 A 
ATOM      9  C   UNL A   1      32.612  23.926  26.547  1.00  0.00     0.043 A 
ATOM     10  C   UNL A   1      30.927  22.984  24.562  1.00  0.00     0.023 A 
ATOM     11  C   UNL A   1      31.979  22.172  25.007  1.00  0.00     0.055 A 
ATOM     12  Cl  UNL A   1      32.086  20.580  24.346  1.00  0.00    -0.083 Cl
BRANCH   7  13
ATOM     13  N   UNL A   1      31.401  26.008  26.643  1.00  0.00    -0.379 N 
ATOM     14  H   UNL A   1      30.609  26.200  27.194  1.00  0.00     0.160 HD
BRANCH  13  15
ATOM     15  C   UNL A   1      32.409  27.034  26.393  1.00  0.00     0.113 C 
ATOM     16  C   UNL A   1      32.451  30.699  26.886  1.00  0.00     0.042 C 
ATOM     17  C   UNL A   1      33.019  29.311  26.608  1.00  0.00     0.065 C 
ATOM     18  C   UNL A   1      34.508  29.272  26.966  1.00  0.00     0.042 C 
ATOM     19  C   UNL A   1      32.228  28.217  27.322  1.00  0.00     0.062 C 
ATOM     20  O   UNL A   1      32.915  29.038  25.197  1.00  0.00    -0.367 OA
ATOM     21  C   UNL A   1      32.346  27.717  25.005  1.00  0.00     0.083 C 
ATOM     22  C   UNL A   1      30.935  27.935  24.445  1.00  0.00     0.044 C 
ATOM     23  C   UNL A   1      33.202  26.986  23.971  1.00  0.00     0.044 C 
ENDBRANCH  13  15
ENDBRANCH   7  13
ENDBRANCH   4   6
ENDBRANCH   3   4
ENDBRANCH   2   3
ENDBRANCH   1   2
BRANCH   1  24
ATOM     24  O   UNL A   1      37.558  21.446  25.352  1.00  0.00    -0.458 OA
BRANCH  24  25
ATOM     25  C   UNL A   1      38.768  21.124  25.860  1.00  0.00     0.338 C 
ATOM     26  O   UNL A   1      39.359  20.062  25.771  1.00  0.00    -0.246 OA
BRANCH  25  27
ATOM     27  C   UNL A   1      39.342  22.307  26.514  1.00  0.00     0.060 A 
ATOM     28  C   UNL A   1      38.873  23.564  26.142  1.00  0.00     0.016 A 
ATOM     29  C   UNL A   1      40.420  22.184  27.385  1.00  0.00     0.016 A 
ATOM     30  C   UNL A   1      39.550  24.709  26.553  1.00  0.00     0.010 A 
ATOM     31  C   UNL A   1      41.034  23.341  27.876  1.00  0.00     0.010 A 
ATOM     32  C   UNL A   1      40.640  24.618  27.429  1.00  0.00    -0.014 A 
BRANCH  32  33
ATOM     33  C   UNL A   1      41.400  25.829  27.851  1.00  0.00     0.031 A 
ATOM     34  C   UNL A   1      40.719  26.889  28.683  1.00  0.00     0.074 A 
ATOM     35  C   UNL A   1      42.683  26.012  27.475  1.00  0.00     0.049 A 
ATOM     36  N   UNL A   1      41.098  28.114  28.939  1.00  0.00    -0.248 NA
ATOM     37  C   UNL A   1      39.428  26.525  29.293  1.00  0.00     0.031 C 
ATOM     38  C   UNL A   1      43.488  25.062  26.705  1.00  0.00     0.029 A 
ATOM     39  N   UNL A   1      43.531  27.077  27.673  1.00  0.00    -0.354 N 
ATOM     40  C   UNL A   1      40.059  28.693  29.658  1.00  0.00     0.074 A 
ATOM     41  C   UNL A   1      39.039  27.679  29.816  1.00  0.00     0.031 C 
ATOM     42  C   UNL A   1      44.709  25.578  26.503  1.00  0.00     0.029 A 
ATOM     43  C   UNL A   1      44.748  26.932  27.045  1.00  0.00     0.049 A 
ATOM     44  H   UNL A   1      43.291  27.866  28.210  1.00  0.00     0.167 HD
ATOM     45  C   UNL A   1      39.961  29.954  30.144  1.00  0.00     0.034 A 
ATOM     46  C   UNL A   1      45.761  27.804  26.870  1.00  0.00     0.034 A 
ATOM     47  C   UNL A   1      41.011  30.934  30.057  1.00  0.00     0.049 A 
ATOM     48  C   UNL A   1      45.633  29.197  27.422  1.00  0.00     0.074 A 
ATOM     49  C   UNL A   1      41.021  32.229  30.544  1.00  0.00     0.029 A 
ATOM     50  N   UNL A   1      42.245  30.721  29.463  1.00  0.00    -0.354 N 
ATOM     51  N   UNL A   1      44.649  29.724  28.110  1.00  0.00    -0.248 NA
ATOM     52  C   UNL A   1      46.756  30.114  27.181  1.00  0.00     0.031 C 
ATOM     53  C   UNL A   1      42.261  32.801  30.241  1.00  0.00     0.029 A 
ATOM     54  C   UNL A   1      43.027  31.856  29.578  1.00  0.00     0.049 A 
ATOM     55  H   UNL A   1      42.524  29.884  29.025  1.00  0.00     0.167 HD
ATOM     56  C   UNL A   1      45.047  31.022  28.409  1.00  0.00     0.074 A 
ATOM     57  C   UNL A   1      46.369  31.196  27.844  1.00  0.00     0.031 C 
ATOM     58  C   UNL A   1      44.369  31.989  29.074  1.00  0.00     0.034 A 
BRANCH  45  59
ATOM     59  C   UNL A   1      38.682  30.348  30.835  1.00  0.00     0.023 A 
ATOM     60  C   UNL A   1      38.462  29.969  32.174  1.00  0.00     0.012 A 
ATOM     61  C   UNL A   1      37.726  31.148  30.177  1.00  0.00     0.148 A 
ATOM     62  C   UNL A   1      37.298  30.355  32.838  1.00  0.00     0.002 A 
ATOM     63  C   UNL A   1      36.588  31.564  30.858  1.00  0.00     0.091 A 
ATOM     64  F   UNL A   1      37.942  31.481  28.897  1.00  0.00    -0.205 F 
ATOM     65  C   UNL A   1      36.367  31.160  32.185  1.00  0.00     0.022 A 
BRANCH  63  66
ATOM     66  S   UNL A   1      35.372  32.665  30.125  1.00  0.00     0.127 S 
ATOM     67  O   UNL A   1      36.183  33.847  29.832  1.00  0.00    -0.237 OA
ATOM     68  O   UNL A   1      34.942  31.913  28.945  1.00  0.00    -0.237 OA
ATOM     69  O   UNL A   1      34.338  32.846  31.134  1.00  0.00    -0.744 OA
ENDBRANCH  63  66
ENDBRANCH  45  59
BRANCH  46  70
ATOM     70  C   UNL A   1      46.989  27.379  26.137  1.00  0.00     0.023 A 
ATOM     71  C   UNL A   1      47.122  27.695  24.772  1.00  0.00     0.012 A 
ATOM     72  C   UNL A   1      48.039  26.704  26.791  1.00  0.00     0.148 A 
ATOM     73  C   UNL A   1      48.270  27.331  24.067  1.00  0.00     0.002 A 
ATOM     74  C   UNL A   1      49.205  26.401  26.098  1.00  0.00     0.091 A 
ATOM     75  F   UNL A   1      47.884  26.387  28.084  1.00  0.00    -0.205 F 
ATOM     76  C   UNL A   1      49.317  26.698  24.732  1.00  0.00     0.022 A 
BRANCH  74  77
ATOM     77  S   UNL A   1      50.652  25.722  26.919  1.00  0.00     0.127 S 
ATOM     78  O   UNL A   1      50.130  24.471  27.462  1.00  0.00    -0.237 OA
ATOM     79  O   UNL A   1      51.591  25.567  25.807  1.00  0.00    -0.237 OA
ATOM     80  O   UNL A   1      51.049  26.726  27.897  1.00  0.00    -0.744 OA
ENDBRANCH  74  77
ENDBRANCH  46  70
BRANCH  58  81
ATOM     81  C   UNL A   1      45.056  33.312  29.278  1.00  0.00     0.023 A 
ATOM     82  C   UNL A   1      45.835  33.524  30.432  1.00  0.00     0.012 A 
ATOM     83  C   UNL A   1      45.004  34.307  28.282  1.00  0.00     0.148 A 
ATOM     84  C   UNL A   1      46.537  34.717  30.600  1.00  0.00     0.002 A 
ATOM     85  C   UNL A   1      45.741  35.474  28.437  1.00  0.00     0.091 A 
ATOM     86  F   UNL A   1      44.240  34.090  27.201  1.00  0.00    -0.205 F 
ATOM     87  C   UNL A   1      46.500  35.685  29.599  1.00  0.00     0.022 A 
BRANCH  85  88
ATOM     88  S   UNL A   1      45.826  36.735  27.159  1.00  0.00     0.127 S 
ATOM     89  O   UNL A   1      44.424  37.137  27.044  1.00  0.00    -0.237 OA
ATOM     90  O   UNL A   1      46.700  37.737  27.768  1.00  0.00    -0.237 OA
ATOM     91  O   UNL A   1      46.386  36.079  25.985  1.00  0.00    -0.744 OA
ENDBRANCH  85  88
ENDBRANCH  58  81
ENDBRANCH  32  33
ENDBRANCH  25  27
ENDBRANCH  24  25
ENDBRANCH   1  24
TORSDOF 16
ENDMDL
MODEL 3
REMARK VINA RESULT:     -12.2      5.086     10.108
REMARK SMILES CC1(C)C[C@@H](Nc2ccc(Cl)c(C(=O)OCCOC(=O)c3ccc(-c4c5nc(c(-c6cccc(S(=O)(=O)[O-])c6F)c6ccc([nH]6)c(-c6cccc(S(=O)(=O)[O-])c6F)c6nc(c(-c7cccc(S(=O)(=O)[O-])c7F)c7ccc4[nH]7)C=C6)C=C5)cc3)c2)C(C)(C)O1
REMARK SMILES IDX 17 1 16 2 15 3 13 4 14 5 12 6 7 7 8 8 84 9 9 10 10 11 11 12
REMARK SMILES IDX 6 13 5 15 1 16 2 17 3 18 4 19 88 20 85 21 86 22 87 23 18 24
REMARK SMILES IDX 19 25 20 26 21 27 22 28 83 29 23 30 82 31 24 32 25 33 26 34
REMARK SMILES IDX 76 35 27 36 81 37 75 38 77 39 28 40 80 41 74 42 73 43 29 45
REMARK SMILES IDX 61 46 41 47 60 48 42 49 45 50 59 51 78 52 43 53 44 54 58 56
REMARK SMILES IDX 79 57 46 58 30 59 31 60 39 61 32 62 34 63 40 64 33 65 35 66
REMARK SMILES IDX 36 67 37 68 38 69 62 70 63 71 71 72 64 73 66 74 72 75 65 76
REMARK SMILES IDX 67 77 68 78 69 79 70 80 47 81 48 82 56 83 49 84 51 85 57 86
REMARK SMILES IDX 50 87 52 88 53 89 54 90 55 91
REMARK H PARENT 6 14 77 44 45 55
REMARK Flexibility Score: inf
ROOT
ATOM      1  C   UNL A   1      31.800  30.343  25.517  1.00  0.00     0.275 C 
ENDROOT
BRANCH   1   2
ATOM      2  C   UNL A   1      31.271  28.945  25.209  1.00  0.00     0.275 C 
BRANCH   2   3
ATOM      3  O   UNL A   1      32.343  28.081  24.780  1.00  0.00    -0.458 OA
BRANCH   3   4
ATOM      4  C   UNL A   1      32.273  27.617  23.511  1.00  0.00     0.339 C 
ATOM      5  O   UNL A   1      32.553  28.232  22.494  1.00  0.00    -0.246 OA
BRANCH   4   6
ATOM      6  C   UNL A   1      31.925  26.182  23.486  1.00  0.00     0.080 A 
ATOM      7  C   UNL A   1      32.792  23.901  23.343  1.00  0.00     0.035 A 
ATOM      8  C   UNL A   1      31.482  23.427  23.317  1.00  0.00     0.027 A 
ATOM      9  C   UNL A   1      32.998  25.278  23.390  1.00  0.00     0.043 A 
ATOM     10  C   UNL A   1      30.402  24.314  23.390  1.00  0.00     0.023 A 
ATOM     11  C   UNL A   1      30.617  25.696  23.475  1.00  0.00     0.055 A 
ATOM     12  Cl  UNL A   1      29.225  26.717  23.471  1.00  0.00    -0.083 Cl
BRANCH   7  13
ATOM     13  N   UNL A   1      33.874  23.037  23.252  1.00  0.00    -0.379 N 
ATOM     14  H   UNL A   1      33.981  22.442  22.476  1.00  0.00     0.160 HD
BRANCH  13  15
ATOM     15  C   UNL A   1      34.847  23.035  24.340  1.00  0.00     0.113 C 
ATOM     16  C   UNL A   1      37.893  21.040  24.994  1.00  0.00     0.042 C 
ATOM     17  C   UNL A   1      36.887  22.173  25.176  1.00  0.00     0.065 C 
ATOM     18  C   UNL A   1      37.570  23.380  25.827  1.00  0.00     0.042 C 
ATOM     19  C   UNL A   1      36.199  22.542  23.863  1.00  0.00     0.062 C 
ATOM     20  O   UNL A   1      35.850  21.737  26.075  1.00  0.00    -0.367 OA
ATOM     21  C   UNL A   1      34.555  22.060  25.507  1.00  0.00     0.083 C 
ATOM     22  C   UNL A   1      33.919  20.725  25.101  1.00  0.00     0.044 C 
ATOM     23  C   UNL A   1      33.715  22.718  26.601  1.00  0.00     0.044 C 
ENDBRANCH  13  15
ENDBRANCH   7  13
ENDBRANCH   4   6
ENDBRANCH   3   4
ENDBRANCH   2   3
ENDBRANCH   1   2
BRANCH   1  24
ATOM     24  O   UNL A   1      32.435  30.349  26.806  1.00  0.00    -0.458 OA
BRANCH  24  25
ATOM     25  C   UNL A   1      33.031  31.511  27.151  1.00  0.00     0.338 C 
ATOM     26  O   UNL A   1      32.549  32.631  27.144  1.00  0.00    -0.246 OA
BRANCH  25  27
ATOM     27  C   UNL A   1      34.390  31.229  27.628  1.00  0.00     0.060 A 
ATOM     28  C   UNL A   1      34.718  29.917  27.959  1.00  0.00     0.016 A 
ATOM     29  C   UNL A   1      35.288  32.264  27.872  1.00  0.00     0.016 A 
ATOM     30  C   UNL A   1      35.903  29.645  28.637  1.00  0.00     0.010 A 
ATOM     31  C   UNL A   1      36.521  31.971  28.462  1.00  0.00     0.010 A 
ATOM     32  C   UNL A   1      36.826  30.666  28.898  1.00  0.00    -0.014 A 
BRANCH  32  33
ATOM     33  C   UNL A   1      38.084  30.402  29.655  1.00  0.00     0.031 A 
ATOM     34  C   UNL A   1      39.154  29.528  29.048  1.00  0.00     0.074 A 
ATOM     35  C   UNL A   1      38.271  30.907  30.892  1.00  0.00     0.049 A 
ATOM     36  N   UNL A   1      40.189  28.966  29.617  1.00  0.00    -0.248 NA
ATOM     37  C   UNL A   1      39.031  29.231  27.610  1.00  0.00     0.031 C 
ATOM     38  C   UNL A   1      37.348  31.798  31.596  1.00  0.00     0.029 A 
ATOM     39  N   UNL A   1      39.296  30.721  31.790  1.00  0.00    -0.354 N 
ATOM     40  C   UNL A   1      40.785  28.181  28.636  1.00  0.00     0.074 A 
ATOM     41  C   UNL A   1      40.009  28.354  27.428  1.00  0.00     0.031 C 
ATOM     42  C   UNL A   1      37.848  32.088  32.806  1.00  0.00     0.029 A 
ATOM     43  C   UNL A   1      39.079  31.331  33.005  1.00  0.00     0.049 A 
ATOM     44  H   UNL A   1      40.106  30.200  31.584  1.00  0.00     0.167 HD
ATOM     45  C   UNL A   1      41.881  27.390  28.731  1.00  0.00     0.034 A 
ATOM     46  C   UNL A   1      39.755  31.251  34.168  1.00  0.00     0.034 A 
ATOM     47  C   UNL A   1      42.699  27.285  29.910  1.00  0.00     0.049 A 
ATOM     48  C   UNL A   1      40.971  30.369  34.249  1.00  0.00     0.074 A 
ATOM     49  C   UNL A   1      43.846  26.534  30.097  1.00  0.00     0.029 A 
ATOM     50  N   UNL A   1      42.470  27.968  31.095  1.00  0.00    -0.354 N 
ATOM     51  N   UNL A   1      41.529  29.645  33.309  1.00  0.00    -0.248 NA
ATOM     52  C   UNL A   1      41.657  30.299  35.547  1.00  0.00     0.031 C 
ATOM     53  C   UNL A   1      44.309  26.758  31.397  1.00  0.00     0.029 A 
ATOM     54  C   UNL A   1      43.458  27.662  32.014  1.00  0.00     0.049 A 
ATOM     55  H   UNL A   1      41.716  28.580  31.257  1.00  0.00     0.167 HD
ATOM     56  C   UNL A   1      42.645  29.057  33.893  1.00  0.00     0.074 A 
ATOM     57  C   UNL A   1      42.696  29.525  35.264  1.00  0.00     0.031 C 
ATOM     58  C   UNL A   1      43.535  28.192  33.350  1.00  0.00     0.034 A 
BRANCH  45  59
ATOM     59  C   UNL A   1      42.278  26.585  27.522  1.00  0.00     0.023 A 
ATOM     60  C   UNL A   1      42.985  27.200  26.470  1.00  0.00     0.012 A 
ATOM     61  C   UNL A   1      42.006  25.203  27.456  1.00  0.00     0.148 A 
ATOM     62  C   UNL A   1      43.389  26.460  25.359  1.00  0.00     0.002 A 
ATOM     63  C   UNL A   1      42.448  24.464  26.365  1.00  0.00     0.091 A 
ATOM     64  F   UNL A   1      41.313  24.639  28.455  1.00  0.00    -0.205 F 
ATOM     65  C   UNL A   1      43.131  25.093  25.311  1.00  0.00     0.022 A 
BRANCH  63  66
ATOM     66  S   UNL A   1      42.229  22.684  26.252  1.00  0.00     0.127 S 
ATOM     67  O   UNL A   1      42.991  22.219  27.411  1.00  0.00    -0.237 OA
ATOM     68  O   UNL A   1      40.779  22.540  26.378  1.00  0.00    -0.237 OA
ATOM     69  O   UNL A   1      42.763  22.298  24.953  1.00  0.00    -0.744 OA
ENDBRANCH  63  66
ENDBRANCH  45  59
BRANCH  46  70
ATOM     70  C   UNL A   1      39.294  32.032  35.351  1.00  0.00     0.023 A 
ATOM     71  C   UNL A   1      38.463  31.415  36.305  1.00  0.00     0.012 A 
ATOM     72  C   UNL A   1      39.706  33.364  35.560  1.00  0.00     0.148 A 
ATOM     73  C   UNL A   1      38.035  32.114  37.435  1.00  0.00     0.002 A 
ATOM     74  C   UNL A   1      39.328  34.033  36.717  1.00  0.00     0.091 A 
ATOM     75  F   UNL A   1      40.475  33.946  34.628  1.00  0.00    -0.205 F 
ATOM     76  C   UNL A   1      38.479  33.417  37.649  1.00  0.00     0.022 A 
BRANCH  74  77
ATOM     77  S   UNL A   1      39.978  35.655  37.136  1.00  0.00     0.127 S 
ATOM     78  O   UNL A   1      41.409  35.386  37.244  1.00  0.00    -0.237 OA
ATOM     79  O   UNL A   1      39.587  36.452  35.971  1.00  0.00    -0.237 OA
ATOM     80  O   UNL A   1      39.304  36.036  38.370  1.00  0.00    -0.744 OA
ENDBRANCH  74  77
ENDBRANCH  46  70
BRANCH  58  81
ATOM     81  C   UNL A   1      44.676  27.726  34.213  1.00  0.00     0.023 A 
ATOM     82  C   UNL A   1      45.871  28.470  34.253  1.00  0.00     0.012 A 
ATOM     83  C   UNL A   1      44.527  26.606  35.053  1.00  0.00     0.148 A 
ATOM     84  C   UNL A   1      46.910  28.093  35.104  1.00  0.00     0.002 A 
ATOM     85  C   UNL A   1      45.548  26.262  35.929  1.00  0.00     0.091 A 
ATOM     86  F   UNL A   1      43.387  25.902  34.984  1.00  0.00    -0.205 F 
ATOM     87  C   UNL A   1      46.744  26.998  35.949  1.00  0.00     0.022 A 
BRANCH  85  88
ATOM     88  S   UNL A   1      45.387  24.924  37.118  1.00  0.00     0.127 S 
ATOM     89  O   UNL A   1      46.674  24.984  37.811  1.00  0.00    -0.237 OA
ATOM     90  O   UNL A   1      44.242  25.357  37.920  1.00  0.00    -0.237 OA
ATOM     91  O   UNL A   1      45.154  23.718  36.335  1.00  0.00    -0.744 OA
ENDBRANCH  85  88
ENDBRANCH  58  81
ENDBRANCH  32  33
ENDBRANCH  25  27
ENDBRANCH  24  25
ENDBRANCH   1  24
TORSDOF 16
ENDMDL
