MODEL 1
REMARK VINA RESULT:     -11.9      0.000      0.000
REMARK SMILES O=C(OCCOC(=O)c1ccc(-c2c3nc(c(-c4cccc(S(=O)(=O)[O-])c4F)c4ccc([nH]4)c(-c4cccc(S(=O)(=O)[O-])c4F)c4nc(c(-c5cccc(S(=O)(=O)[O-])c5F)c5ccc2[nH]5)C=C4)C=C3)cc1)C1=Cc2cc(Cl)cc(-c3ccc(CO)cc3)c2O[C@@H]1C(F)(F)F
REMARK SMILES IDX 4 1 3 2 2 3 1 4 72 5 73 6 90 7 74 8 89 9 75 10 88 11 76 12
REMARK SMILES IDX 79 13 77 14 78 15 91 16 92 17 93 18 94 19 80 20 81 21 87 22
REMARK SMILES IDX 82 23 86 24 83 25 84 26 85 27 5 29 6 30 7 31 8 32 9 33 10 34
REMARK SMILES IDX 71 35 11 36 70 37 12 38 13 39 14 40 64 41 15 42 69 43 63 44
REMARK SMILES IDX 65 45 16 46 68 47 62 48 61 49 17 51 49 52 29 53 48 54 30 55
REMARK SMILES IDX 33 56 47 57 66 58 31 59 32 60 46 62 67 63 34 64 18 65 19 66
REMARK SMILES IDX 27 67 20 68 22 69 28 70 21 71 23 72 24 73 25 74 26 75 50 76
REMARK SMILES IDX 51 77 59 78 52 79 54 80 60 81 53 82 55 83 56 84 57 85 58 86
REMARK SMILES IDX 35 87 36 88 44 89 37 90 39 91 45 92 38 93 40 94 41 95 42 96
REMARK SMILES IDX 43 97
REMARK H PARENT 85 28 65 50 33 61
REMARK Flexibility Score: inf
ROOT
ATOM      1  C   UNL A   1      35.937  34.228  33.688  1.00  0.00     0.275 C 
ENDROOT
BRANCH   1   2
ATOM      2  O   UNL A   1      35.682  34.620  32.198  1.00  0.00    -0.459 OA
BRANCH   2   3
ATOM      3  C   UNL A   1      34.796  33.825  31.586  1.00  0.00     0.338 C 
ATOM      4  O   UNL A   1      34.010  33.037  32.044  1.00  0.00    -0.246 OA
BRANCH   3   5
ATOM      5  C   UNL A   1      35.344  34.021  30.269  1.00  0.00     0.087 C 
ATOM      6  C   UNL A   1      36.434  33.083  30.007  1.00  0.00     0.027 C 
ATOM      7  C   UNL A   1      33.666  34.076  29.327  1.00  0.00     0.316 C 
ATOM      8  C   UNL A   1      36.298  31.717  28.848  1.00  0.00     0.019 A 
ATOM      9  O   UNL A   1      33.465  32.563  28.132  1.00  0.00    -0.475 OA
ATOM     10  C   UNL A   1      37.363  30.860  28.808  1.00  0.00     0.032 A 
ATOM     11  C   UNL A   1      34.818  31.338  27.999  1.00  0.00     0.135 A 
ATOM     12  C   UNL A   1      37.150  29.709  28.058  1.00  0.00     0.042 A 
ATOM     13  C   UNL A   1      34.682  30.135  27.343  1.00  0.00     0.026 A 
ATOM     14  Cl  UNL A   1      38.446  28.559  27.986  1.00  0.00    -0.084 Cl
ATOM     15  C   UNL A   1      35.910  29.378  27.387  1.00  0.00     0.033 A 
BRANCH   7  16
ATOM     16  C   UNL A   1      33.713  35.649  29.143  1.00  0.00     0.430 C 
ATOM     17  F   UNL A   1      34.661  36.040  28.298  1.00  0.00    -0.167 F 
ATOM     18  F   UNL A   1      32.554  36.032  28.521  1.00  0.00    -0.167 F 
ATOM     19  F   UNL A   1      33.731  36.387  30.272  1.00  0.00    -0.167 F 
ENDBRANCH   7  16
BRANCH  13  20
ATOM     20  C   UNL A   1      33.532  29.454  26.761  1.00  0.00    -0.015 A 
ATOM     21  C   UNL A   1      33.616  28.059  26.551  1.00  0.00     0.009 A 
ATOM     22  C   UNL A   1      32.479  30.143  26.158  1.00  0.00     0.009 A 
ATOM     23  C   UNL A   1      32.710  27.384  25.732  1.00  0.00     0.007 A 
ATOM     24  C   UNL A   1      31.566  29.466  25.333  1.00  0.00     0.007 A 
ATOM     25  C   UNL A   1      31.681  28.086  25.102  1.00  0.00    -0.023 A 
BRANCH  25  26
ATOM     26  C   UNL A   1      30.742  27.361  24.176  1.00  0.00     0.191 C 
BRANCH  26  27
ATOM     27  O   UNL A   1      31.457  26.459  23.335  1.00  0.00    -0.392 OA
ATOM     28  H   UNL A   1      30.881  26.167  22.611  1.00  0.00     0.211 HD
ENDBRANCH  26  27
ENDBRANCH  25  26
ENDBRANCH  13  20
ENDBRANCH   3   5
ENDBRANCH   2   3
ENDBRANCH   1   2
BRANCH   1  29
ATOM     29  C   UNL A   1      37.136  32.576  34.398  1.00  0.00     0.275 C 
BRANCH  29  30
ATOM     30  O   UNL A   1      38.018  31.482  33.395  1.00  0.00    -0.458 OA
BRANCH  30  31
ATOM     31  C   UNL A   1      38.462  30.184  33.314  1.00  0.00     0.338 C 
ATOM     32  O   UNL A   1      37.885  29.146  33.576  1.00  0.00    -0.246 OA
BRANCH  31  33
ATOM     33  C   UNL A   1      39.744  30.248  32.544  1.00  0.00     0.060 A 
ATOM     34  C   UNL A   1      39.795  29.761  31.226  1.00  0.00     0.016 A 
ATOM     35  C   UNL A   1      40.730  31.117  33.000  1.00  0.00     0.016 A 
ATOM     36  C   UNL A   1      40.636  30.398  30.291  1.00  0.00     0.010 A 
ATOM     37  C   UNL A   1      41.596  31.703  32.082  1.00  0.00     0.010 A 
ATOM     38  C   UNL A   1      41.489  31.429  30.708  1.00  0.00    -0.014 A 
BRANCH  38  39
ATOM     39  C   UNL A   1      42.473  32.081  29.807  1.00  0.00     0.031 A 
ATOM     40  C   UNL A   1      43.702  31.278  29.520  1.00  0.00     0.074 A 
ATOM     41  C   UNL A   1      42.409  33.382  29.454  1.00  0.00     0.049 A 
ATOM     42  N   UNL A   1      44.847  31.654  29.028  1.00  0.00    -0.248 NA
ATOM     43  C   UNL A   1      43.639  29.863  29.924  1.00  0.00     0.031 C 
ATOM     44  C   UNL A   1      41.290  34.290  29.712  1.00  0.00     0.029 A 
ATOM     45  N   UNL A   1      43.349  34.189  28.847  1.00  0.00    -0.354 N 
ATOM     46  C   UNL A   1      45.665  30.540  29.134  1.00  0.00     0.074 A 
ATOM     47  C   UNL A   1      44.892  29.489  29.755  1.00  0.00     0.031 C 
ATOM     48  C   UNL A   1      41.625  35.532  29.307  1.00  0.00     0.029 A 
ATOM     49  C   UNL A   1      42.991  35.521  28.785  1.00  0.00     0.049 A 
ATOM     50  H   UNL A   1      44.199  33.845  28.488  1.00  0.00     0.167 HD
ATOM     51  C   UNL A   1      46.950  30.391  28.747  1.00  0.00     0.034 A 
ATOM     52  C   UNL A   1      43.699  36.600  28.380  1.00  0.00     0.034 A 
ATOM     53  C   UNL A   1      47.719  31.430  28.137  1.00  0.00     0.049 A 
ATOM     54  C   UNL A   1      45.123  36.406  27.897  1.00  0.00     0.074 A 
ATOM     55  C   UNL A   1      49.007  31.370  27.644  1.00  0.00     0.029 A 
ATOM     56  N   UNL A   1      47.270  32.729  27.955  1.00  0.00    -0.354 N 
ATOM     57  N   UNL A   1      45.836  35.304  27.846  1.00  0.00    -0.248 NA
ATOM     58  C   UNL A   1      45.835  37.592  27.389  1.00  0.00     0.031 C 
ATOM     59  C   UNL A   1      49.348  32.645  27.183  1.00  0.00     0.029 A 
ATOM     60  C   UNL A   1      48.257  33.485  27.355  1.00  0.00     0.049 A 
ATOM     61  H   UNL A   1      46.380  33.061  28.214  1.00  0.00     0.167 HD
ATOM     62  C   UNL A   1      47.053  35.654  27.264  1.00  0.00     0.074 A 
ATOM     63  C   UNL A   1      46.982  37.071  26.973  1.00  0.00     0.031 C 
ATOM     64  C   UNL A   1      48.133  34.877  27.004  1.00  0.00     0.034 A 
BRANCH  51  65
ATOM     65  C   UNL A   1      47.561  29.043  28.999  1.00  0.00     0.023 A 
ATOM     66  C   UNL A   1      48.280  28.816  30.193  1.00  0.00     0.012 A 
ATOM     67  C   UNL A   1      47.513  28.040  28.016  1.00  0.00     0.148 A 
ATOM     68  C   UNL A   1      49.012  27.646  30.367  1.00  0.00     0.002 A 
ATOM     69  C   UNL A   1      48.195  26.850  28.225  1.00  0.00     0.091 A 
ATOM     70  F   UNL A   1      46.854  28.289  26.875  1.00  0.00    -0.205 F 
ATOM     71  C   UNL A   1      48.964  26.660  29.385  1.00  0.00     0.022 A 
BRANCH  69  72
ATOM     72  S   UNL A   1      48.131  25.490  27.057  1.00  0.00     0.127 S 
ATOM     73  O   UNL A   1      46.727  25.092  27.142  1.00  0.00    -0.237 OA
ATOM     74  O   UNL A   1      48.504  26.148  25.803  1.00  0.00    -0.237 OA
ATOM     75  O   UNL A   1      49.093  24.506  27.533  1.00  0.00    -0.744 OA
ENDBRANCH  69  72
ENDBRANCH  51  65
BRANCH  52  76
ATOM     76  C   UNL A   1      43.084  37.967  28.360  1.00  0.00     0.023 A 
ATOM     77  C   UNL A   1      42.414  38.404  27.197  1.00  0.00     0.012 A 
ATOM     78  C   UNL A   1      43.174  38.846  29.459  1.00  0.00     0.148 A 
ATOM     79  C   UNL A   1      41.880  39.693  27.115  1.00  0.00     0.002 A 
ATOM     80  C   UNL A   1      42.599  40.114  29.388  1.00  0.00     0.091 A 
ATOM     81  F   UNL A   1      43.824  38.427  30.553  1.00  0.00    -0.205 F 
ATOM     82  C   UNL A   1      41.967  40.545  28.211  1.00  0.00     0.022 A 
BRANCH  80  83
ATOM     83  S   UNL A   1      42.572  41.258  30.775  1.00  0.00     0.127 S 
ATOM     84  O   UNL A   1      41.139  41.376  31.041  1.00  0.00    -0.237 OA
ATOM     85  O   UNL A   1      43.326  40.519  31.787  1.00  0.00    -0.237 OA
ATOM     86  O   UNL A   1      43.220  42.473  30.301  1.00  0.00    -0.744 OA
ENDBRANCH  80  83
ENDBRANCH  52  76
BRANCH  64  87
ATOM     87  C   UNL A   1      49.318  35.490  26.304  1.00  0.00     0.023 A 
ATOM     88  C   UNL A   1      49.457  35.367  24.910  1.00  0.00     0.012 A 
ATOM     89  C   UNL A   1      50.185  36.344  27.017  1.00  0.00     0.148 A 
ATOM     90  C   UNL A   1      50.447  36.084  24.234  1.00  0.00     0.002 A 
ATOM     91  C   UNL A   1      51.131  37.095  26.332  1.00  0.00     0.091 A 
ATOM     92  F   UNL A   1      50.041  36.433  28.348  1.00  0.00    -0.205 F 
ATOM     93  C   UNL A   1      51.268  36.960  24.941  1.00  0.00     0.022 A 
BRANCH  91  94
ATOM     94  S   UNL A   1      52.145  38.338  27.142  1.00  0.00     0.127 S 
ATOM     95  O   UNL A   1      51.132  39.243  27.683  1.00  0.00    -0.237 OA
ATOM     96  O   UNL A   1      52.859  37.549  28.145  1.00  0.00    -0.237 OA
ATOM     97  O   UNL A   1      52.994  38.906  26.103  1.00  0.00    -0.744 OA
ENDBRANCH  91  94
ENDBRANCH  64  87
ENDBRANCH  38  39
ENDBRANCH  31  33
ENDBRANCH  30  31
ENDBRANCH  29  30
ENDBRANCH   1  29
TORSDOF 18
ENDMDL
MODEL 2
REMARK VINA RESULT:     -11.8      5.143     13.621
REMARK SMILES O=C(OCCOC(=O)c1ccc(-c2c3nc(c(-c4cccc(S(=O)(=O)[O-])c4F)c4ccc([nH]4)c(-c4cccc(S(=O)(=O)[O-])c4F)c4nc(c(-c5cccc(S(=O)(=O)[O-])c5F)c5ccc2[nH]5)C=C4)C=C3)cc1)C1=Cc2cc(Cl)cc(-c3ccc(CO)cc3)c2O[C@@H]1C(F)(F)F
REMARK SMILES IDX 4 1 3 2 2 3 1 4 72 5 73 6 90 7 74 8 89 9 75 10 88 11 76 12
REMARK SMILES IDX 79 13 77 14 78 15 91 16 92 17 93 18 94 19 80 20 81 21 87 22
REMARK SMILES IDX 82 23 86 24 83 25 84 26 85 27 5 29 6 30 7 31 8 32 9 33 10 34
REMARK SMILES IDX 71 35 11 36 70 37 12 38 13 39 14 40 64 41 15 42 69 43 63 44
REMARK SMILES IDX 65 45 16 46 68 47 62 48 61 49 17 51 49 52 29 53 48 54 30 55
REMARK SMILES IDX 33 56 47 57 66 58 31 59 32 60 46 62 67 63 34 64 18 65 19 66
REMARK SMILES IDX 27 67 20 68 22 69 28 70 21 71 23 72 24 73 25 74 26 75 50 76
REMARK SMILES IDX 51 77 59 78 52 79 54 80 60 81 53 82 55 83 56 84 57 85 58 86
REMARK SMILES IDX 35 87 36 88 44 89 37 90 39 91 45 92 38 93 40 94 41 95 42 96
REMARK SMILES IDX 43 97
REMARK H PARENT 85 28 65 50 33 61
REMARK Flexibility Score: inf
ROOT
ATOM      1  C   UNL A   1      50.831  27.813  27.989  1.00  0.00     0.275 C 
ENDROOT
BRANCH   1   2
ATOM      2  O   UNL A   1      49.331  27.861  28.422  1.00  0.00    -0.459 OA
BRANCH   2   3
ATOM      3  C   UNL A   1      49.047  27.041  29.442  1.00  0.00     0.338 C 
ATOM      4  O   UNL A   1      49.639  26.077  29.853  1.00  0.00    -0.246 OA
BRANCH   3   5
ATOM      5  C   UNL A   1      47.703  27.525  29.619  1.00  0.00     0.087 C 
ATOM      6  C   UNL A   1      46.728  26.581  29.074  1.00  0.00     0.027 C 
ATOM      7  C   UNL A   1      47.875  28.009  31.474  1.00  0.00     0.316 C 
ATOM      8  C   UNL A   1      45.630  25.601  30.103  1.00  0.00     0.019 A 
ATOM      9  O   UNL A   1      46.759  26.903  32.609  1.00  0.00    -0.475 OA
ATOM     10  C   UNL A   1      44.863  24.678  29.447  1.00  0.00     0.032 A 
ATOM     11  C   UNL A   1      45.695  25.623  31.850  1.00  0.00     0.135 A 
ATOM     12  C   UNL A   1      44.177  23.800  30.279  1.00  0.00     0.042 A 
ATOM     13  C   UNL A   1      45.034  24.662  32.582  1.00  0.00     0.026 A 
ATOM     14  Cl  UNL A   1      43.207  22.581  29.517  1.00  0.00    -0.084 Cl
ATOM     15  C   UNL A   1      44.262  23.795  31.724  1.00  0.00     0.033 A 
BRANCH   7  16
ATOM     16  C   UNL A   1      47.962  29.559  31.159  1.00  0.00     0.430 C 
ATOM     17  F   UNL A   1      47.019  29.967  30.316  1.00  0.00    -0.167 F 
ATOM     18  F   UNL A   1      47.673  30.237  32.313  1.00  0.00    -0.167 F 
ATOM     19  F   UNL A   1      49.174  30.034  30.803  1.00  0.00    -0.167 F 
ENDBRANCH   7  16
BRANCH  13  20
ATOM     20  C   UNL A   1      45.083  24.289  33.991  1.00  0.00    -0.015 A 
ATOM     21  C   UNL A   1      44.216  24.953  34.889  1.00  0.00     0.009 A 
ATOM     22  C   UNL A   1      46.118  23.524  34.527  1.00  0.00     0.009 A 
ATOM     23  C   UNL A   1      44.404  24.892  36.270  1.00  0.00     0.007 A 
ATOM     24  C   UNL A   1      46.308  23.460  35.918  1.00  0.00     0.007 A 
ATOM     25  C   UNL A   1      45.464  24.153  36.799  1.00  0.00    -0.023 A 
BRANCH  25  26
ATOM     26  C   UNL A   1      45.692  24.137  38.287  1.00  0.00     0.191 C 
BRANCH  26  27
ATOM     27  O   UNL A   1      44.460  23.975  38.985  1.00  0.00    -0.392 OA
ATOM     28  H   UNL A   1      44.633  23.928  39.938  1.00  0.00     0.211 HD
ENDBRANCH  26  27
ENDBRANCH  25  26
ENDBRANCH  13  20
ENDBRANCH   3   5
ENDBRANCH   2   3
ENDBRANCH   1   2
BRANCH   1  29
ATOM     29  C   UNL A   1      51.631  28.356  26.057  1.00  0.00     0.275 C 
BRANCH  29  30
ATOM     30  O   UNL A   1      50.803  28.188  24.552  1.00  0.00    -0.458 OA
BRANCH  30  31
ATOM     31  C   UNL A   1      50.416  27.266  23.609  1.00  0.00     0.338 C 
ATOM     32  O   UNL A   1      51.086  26.644  22.808  1.00  0.00    -0.246 OA
BRANCH  31  33
ATOM     33  C   UNL A   1      48.995  26.929  23.939  1.00  0.00     0.060 A 
ATOM     34  C   UNL A   1      48.689  26.300  25.159  1.00  0.00     0.016 A 
ATOM     35  C   UNL A   1      47.994  27.578  23.224  1.00  0.00     0.016 A 
ATOM     36  C   UNL A   1      47.473  26.604  25.802  1.00  0.00     0.010 A 
ATOM     37  C   UNL A   1      46.772  27.828  23.841  1.00  0.00     0.010 A 
ATOM     38  C   UNL A   1      46.538  27.436  25.171  1.00  0.00    -0.014 A 
BRANCH  38  39
ATOM     39  C   UNL A   1      45.195  27.724  25.736  1.00  0.00     0.031 A 
ATOM     40  C   UNL A   1      45.079  29.027  26.462  1.00  0.00     0.074 A 
ATOM     41  C   UNL A   1      44.210  26.806  25.816  1.00  0.00     0.049 A 
ATOM     42  N   UNL A   1      44.164  29.438  27.294  1.00  0.00    -0.248 NA
ATOM     43  C   UNL A   1      46.203  29.959  26.272  1.00  0.00     0.031 C 
ATOM     44  C   UNL A   1      44.215  25.481  25.194  1.00  0.00     0.029 A 
ATOM     45  N   UNL A   1      43.022  26.831  26.518  1.00  0.00    -0.354 N 
ATOM     46  C   UNL A   1      44.642  30.644  27.783  1.00  0.00     0.074 A 
ATOM     47  C   UNL A   1      45.931  30.881  27.174  1.00  0.00     0.031 C 
ATOM     48  C   UNL A   1      43.111  24.808  25.576  1.00  0.00     0.029 A 
ATOM     49  C   UNL A   1      42.328  25.638  26.491  1.00  0.00     0.049 A 
ATOM     50  H   UNL A   1      42.698  27.630  26.994  1.00  0.00     0.167 HD
ATOM     51  C   UNL A   1      44.066  31.491  28.661  1.00  0.00     0.034 A 
ATOM     52  C   UNL A   1      41.210  25.260  27.153  1.00  0.00     0.034 A 
ATOM     53  C   UNL A   1      42.793  31.258  29.268  1.00  0.00     0.049 A 
ATOM     54  C   UNL A   1      40.545  26.245  28.094  1.00  0.00     0.074 A 
ATOM     55  C   UNL A   1      42.083  32.079  30.120  1.00  0.00     0.029 A 
ATOM     56  N   UNL A   1      42.049  30.100  29.100  1.00  0.00    -0.354 N 
ATOM     57  N   UNL A   1      40.923  27.459  28.423  1.00  0.00    -0.248 NA
ATOM     58  C   UNL A   1      39.286  25.826  28.735  1.00  0.00     0.031 C 
ATOM     59  C   UNL A   1      40.914  31.406  30.488  1.00  0.00     0.029 A 
ATOM     60  C   UNL A   1      40.883  30.183  29.834  1.00  0.00     0.049 A 
ATOM     61  H   UNL A   1      42.314  29.334  28.542  1.00  0.00     0.167 HD
ATOM     62  C   UNL A   1      39.933  27.960  29.266  1.00  0.00     0.074 A 
ATOM     63  C   UNL A   1      38.933  26.922  29.396  1.00  0.00     0.031 C 
ATOM     64  C   UNL A   1      39.864  29.165  29.885  1.00  0.00     0.034 A 
BRANCH  51  65
ATOM     65  C   UNL A   1      44.846  32.731  28.989  1.00  0.00     0.023 A 
ATOM     66  C   UNL A   1      45.615  32.778  30.172  1.00  0.00     0.012 A 
ATOM     67  C   UNL A   1      44.737  33.879  28.185  1.00  0.00     0.148 A 
ATOM     68  C   UNL A   1      46.193  33.971  30.593  1.00  0.00     0.002 A 
ATOM     69  C   UNL A   1      45.369  35.050  28.582  1.00  0.00     0.091 A 
ATOM     70  F   UNL A   1      43.974  33.824  27.084  1.00  0.00    -0.205 F 
ATOM     71  C   UNL A   1      46.075  35.106  29.795  1.00  0.00     0.022 A 
BRANCH  69  72
ATOM     72  S   UNL A   1      45.342  36.540  27.584  1.00  0.00     0.127 S 
ATOM     73  O   UNL A   1      46.196  37.434  28.364  1.00  0.00    -0.237 OA
ATOM     74  O   UNL A   1      45.932  36.075  26.327  1.00  0.00    -0.237 OA
ATOM     75  O   UNL A   1      43.943  36.932  27.486  1.00  0.00    -0.744 OA
ENDBRANCH  69  72
ENDBRANCH  51  65
BRANCH  52  76
ATOM     76  C   UNL A   1      40.601  23.908  26.935  1.00  0.00     0.023 A 
ATOM     77  C   UNL A   1      41.281  22.761  27.399  1.00  0.00     0.012 A 
ATOM     78  C   UNL A   1      39.375  23.739  26.258  1.00  0.00     0.148 A 
ATOM     79  C   UNL A   1      40.778  21.480  27.162  1.00  0.00     0.002 A 
ATOM     80  C   UNL A   1      38.854  22.460  26.066  1.00  0.00     0.091 A 
ATOM     81  F   UNL A   1      38.744  24.832  25.810  1.00  0.00    -0.205 F 
ATOM     82  C   UNL A   1      39.562  21.329  26.502  1.00  0.00     0.022 A 
BRANCH  80  83
ATOM     83  S   UNL A   1      37.252  22.157  25.309  1.00  0.00     0.127 S 
ATOM     84  O   UNL A   1      37.403  22.810  24.011  1.00  0.00    -0.237 OA
ATOM     85  O   UNL A   1      37.215  20.696  25.262  1.00  0.00    -0.237 OA
ATOM     86  O   UNL A   1      36.271  22.761  26.201  1.00  0.00    -0.744 OA
ENDBRANCH  80  83
ENDBRANCH  52  76
BRANCH  64  87
ATOM     87  C   UNL A   1      38.644  29.491  30.706  1.00  0.00     0.023 A 
ATOM     88  C   UNL A   1      38.545  29.040  32.035  1.00  0.00     0.012 A 
ATOM     89  C   UNL A   1      37.690  30.402  30.208  1.00  0.00     0.148 A 
ATOM     90  C   UNL A   1      37.511  29.490  32.857  1.00  0.00     0.002 A 
ATOM     91  C   UNL A   1      36.695  30.887  31.047  1.00  0.00     0.091 A 
ATOM     92  F   UNL A   1      37.797  30.805  28.933  1.00  0.00    -0.205 F 
ATOM     93  C   UNL A   1      36.600  30.426  32.370  1.00  0.00     0.022 A 
BRANCH  91  94
ATOM     94  S   UNL A   1      35.558  32.184  30.544  1.00  0.00     0.127 S 
ATOM     95  O   UNL A   1      34.926  31.587  29.368  1.00  0.00    -0.237 OA
ATOM     96  O   UNL A   1      34.686  32.301  31.712  1.00  0.00    -0.237 OA
ATOM     97  O   UNL A   1      36.376  33.360  30.280  1.00  0.00    -0.744 OA
ENDBRANCH  91  94
ENDBRANCH  64  87
ENDBRANCH  38  39
ENDBRANCH  31  33
ENDBRANCH  30  31
ENDBRANCH  29  30
ENDBRANCH   1  29
TORSDOF 18
ENDMDL
MODEL 3
REMARK VINA RESULT:     -11.7      6.446      9.408
REMARK SMILES O=C(OCCOC(=O)c1ccc(-c2c3nc(c(-c4cccc(S(=O)(=O)[O-])c4F)c4ccc([nH]4)c(-c4cccc(S(=O)(=O)[O-])c4F)c4nc(c(-c5cccc(S(=O)(=O)[O-])c5F)c5ccc2[nH]5)C=C4)C=C3)cc1)C1=Cc2cc(Cl)cc(-c3ccc(CO)cc3)c2O[C@@H]1C(F)(F)F
REMARK SMILES IDX 4 1 3 2 2 3 1 4 72 5 73 6 90 7 74 8 89 9 75 10 88 11 76 12
REMARK SMILES IDX 79 13 77 14 78 15 91 16 92 17 93 18 94 19 80 20 81 21 87 22
REMARK SMILES IDX 82 23 86 24 83 25 84 26 85 27 5 29 6 30 7 31 8 32 9 33 10 34
REMARK SMILES IDX 71 35 11 36 70 37 12 38 13 39 14 40 64 41 15 42 69 43 63 44
REMARK SMILES IDX 65 45 16 46 68 47 62 48 61 49 17 51 49 52 29 53 48 54 30 55
REMARK SMILES IDX 33 56 47 57 66 58 31 59 32 60 46 62 67 63 34 64 18 65 19 66
REMARK SMILES IDX 27 67 20 68 22 69 28 70 21 71 23 72 24 73 25 74 26 75 50 76
REMARK SMILES IDX 51 77 59 78 52 79 54 80 60 81 53 82 55 83 56 84 57 85 58 86
REMARK SMILES IDX 35 87 36 88 44 89 37 90 39 91 45 92 38 93 40 94 41 95 42 96
REMARK SMILES IDX 43 97
REMARK H PARENT 85 28 65 50 33 61
REMARK Flexibility Score: inf
ROOT
ATOM      1  C   UNL A   1      35.974  34.446  33.611  1.00  0.00     0.275 C 
ENDROOT
BRANCH   1   2
ATOM      2  O   UNL A   1      35.464  34.866  32.196  1.00  0.00    -0.459 OA
BRANCH   2   3
ATOM      3  C   UNL A   1      34.728  33.922  31.596  1.00  0.00     0.338 C 
ATOM      4  O   UNL A   1      34.036  33.058  32.069  1.00  0.00    -0.246 OA
BRANCH   3   5
ATOM      5  C   UNL A   1      35.310  34.121  30.294  1.00  0.00     0.087 C 
ATOM      6  C   UNL A   1      36.483  33.271  30.107  1.00  0.00     0.027 C 
ATOM      7  C   UNL A   1      33.671  34.002  29.290  1.00  0.00     0.316 C 
ATOM      8  C   UNL A   1      36.508  31.861  28.994  1.00  0.00     0.019 A 
ATOM      9  O   UNL A   1      33.645  32.438  28.144  1.00  0.00    -0.475 OA
ATOM     10  C   UNL A   1      37.642  31.097  29.024  1.00  0.00     0.032 A 
ATOM     11  C   UNL A   1      35.100  31.330  28.105  1.00  0.00     0.135 A 
ATOM     12  C   UNL A   1      37.556  29.908  28.309  1.00  0.00     0.042 A 
ATOM     13  C   UNL A   1      35.092  30.098  27.488  1.00  0.00     0.026 A 
ATOM     14  Cl  UNL A   1      38.946  28.871  28.327  1.00  0.00    -0.084 Cl
ATOM     15  C   UNL A   1      36.376  29.450  27.605  1.00  0.00     0.033 A 
BRANCH   7  16
ATOM     16  C   UNL A   1      33.594  35.566  29.051  1.00  0.00     0.430 C 
ATOM     17  F   UNL A   1      34.532  36.007  28.219  1.00  0.00    -0.167 F 
ATOM     18  F   UNL A   1      32.427  35.829  28.383  1.00  0.00    -0.167 F 
ATOM     19  F   UNL A   1      33.515  36.341  30.153  1.00  0.00    -0.167 F 
ENDBRANCH   7  16
BRANCH  13  20
ATOM     20  C   UNL A   1      34.026  29.304  26.890  1.00  0.00    -0.015 A 
ATOM     21  C   UNL A   1      32.702  29.520  27.333  1.00  0.00     0.009 A 
ATOM     22  C   UNL A   1      34.280  28.170  26.118  1.00  0.00     0.009 A 
ATOM     23  C   UNL A   1      31.678  28.614  27.054  1.00  0.00     0.007 A 
ATOM     24  C   UNL A   1      33.250  27.257  25.835  1.00  0.00     0.007 A 
ATOM     25  C   UNL A   1      31.946  27.463  26.312  1.00  0.00    -0.023 A 
BRANCH  25  26
ATOM     26  C   UNL A   1      30.848  26.464  26.063  1.00  0.00     0.191 C 
BRANCH  26  27
ATOM     27  O   UNL A   1      31.024  25.307  26.876  1.00  0.00    -0.392 OA
ATOM     28  H   UNL A   1      31.445  24.606  26.354  1.00  0.00     0.211 HD
ENDBRANCH  26  27
ENDBRANCH  25  26
ENDBRANCH  13  20
ENDBRANCH   3   5
ENDBRANCH   2   3
ENDBRANCH   1   2
BRANCH   1  29
ATOM     29  C   UNL A   1      36.860  32.550  34.149  1.00  0.00     0.275 C 
BRANCH  29  30
ATOM     30  O   UNL A   1      37.627  31.461  33.052  1.00  0.00    -0.458 OA
BRANCH  30  31
ATOM     31  C   UNL A   1      37.512  30.217  32.480  1.00  0.00     0.338 C 
ATOM     32  O   UNL A   1      36.522  29.631  32.087  1.00  0.00    -0.246 OA
BRANCH  31  33
ATOM     33  C   UNL A   1      38.909  29.798  32.148  1.00  0.00     0.060 A 
ATOM     34  C   UNL A   1      39.894  30.772  31.905  1.00  0.00     0.016 A 
ATOM     35  C   UNL A   1      39.286  28.495  32.461  1.00  0.00     0.016 A 
ATOM     36  C   UNL A   1      41.224  30.515  32.293  1.00  0.00     0.010 A 
ATOM     37  C   UNL A   1      40.611  28.232  32.790  1.00  0.00     0.010 A 
ATOM     38  C   UNL A   1      41.571  29.259  32.811  1.00  0.00    -0.014 A 
BRANCH  38  39
ATOM     39  C   UNL A   1      42.965  28.878  33.151  1.00  0.00     0.031 A 
ATOM     40  C   UNL A   1      43.801  28.430  31.994  1.00  0.00     0.074 A 
ATOM     41  C   UNL A   1      43.402  28.709  34.416  1.00  0.00     0.049 A 
ATOM     42  N   UNL A   1      44.927  27.776  31.983  1.00  0.00    -0.248 NA
ATOM     43  C   UNL A   1      43.231  28.699  30.662  1.00  0.00     0.031 C 
ATOM     44  C   UNL A   1      42.670  29.061  35.634  1.00  0.00     0.029 A 
ATOM     45  N   UNL A   1      44.563  28.131  34.889  1.00  0.00    -0.354 N 
ATOM     46  C   UNL A   1      45.161  27.489  30.648  1.00  0.00     0.074 A 
ATOM     47  C   UNL A   1      44.053  28.019  29.887  1.00  0.00     0.031 C 
ATOM     48  C   UNL A   1      43.376  28.654  36.708  1.00  0.00     0.029 A 
ATOM     49  C   UNL A   1      44.599  27.987  36.262  1.00  0.00     0.049 A 
ATOM     50  H   UNL A   1      45.299  27.847  34.300  1.00  0.00     0.167 HD
ATOM     51  C   UNL A   1      46.208  26.844  30.089  1.00  0.00     0.034 A 
ATOM     52  C   UNL A   1      45.503  27.363  37.053  1.00  0.00     0.034 A 
ATOM     53  C   UNL A   1      47.304  26.315  30.839  1.00  0.00     0.049 A 
ATOM     54  C   UNL A   1      46.701  26.692  36.412  1.00  0.00     0.074 A 
ATOM     55  C   UNL A   1      48.449  25.703  30.373  1.00  0.00     0.029 A 
ATOM     56  N   UNL A   1      47.377  26.321  32.224  1.00  0.00    -0.354 N 
ATOM     57  N   UNL A   1      46.998  26.571  35.138  1.00  0.00    -0.248 NA
ATOM     58  C   UNL A   1      47.704  26.093  37.310  1.00  0.00     0.031 C 
ATOM     59  C   UNL A   1      49.208  25.314  31.480  1.00  0.00     0.029 A 
ATOM     60  C   UNL A   1      48.551  25.721  32.633  1.00  0.00     0.049 A 
ATOM     61  H   UNL A   1      46.693  26.696  32.825  1.00  0.00     0.167 HD
ATOM     62  C   UNL A   1      48.234  25.929  35.086  1.00  0.00     0.074 A 
ATOM     63  C   UNL A   1      48.636  25.688  36.456  1.00  0.00     0.031 C 
ATOM     64  C   UNL A   1      48.965  25.563  34.004  1.00  0.00     0.034 A 
BRANCH  51  65
ATOM     65  C   UNL A   1      46.169  26.695  28.596  1.00  0.00     0.023 A 
ATOM     66  C   UNL A   1      46.390  27.824  27.777  1.00  0.00     0.012 A 
ATOM     67  C   UNL A   1      45.814  25.468  28.009  1.00  0.00     0.148 A 
ATOM     68  C   UNL A   1      46.175  27.754  26.404  1.00  0.00     0.002 A 
ATOM     69  C   UNL A   1      45.663  25.393  26.631  1.00  0.00     0.091 A 
ATOM     70  F   UNL A   1      45.576  24.418  28.806  1.00  0.00    -0.205 F 
ATOM     71  C   UNL A   1      45.816  26.537  25.831  1.00  0.00     0.022 A 
BRANCH  69  72
ATOM     72  S   UNL A   1      45.281  23.855  25.791  1.00  0.00     0.127 S 
ATOM     73  O   UNL A   1      46.406  23.011  26.193  1.00  0.00    -0.237 OA
ATOM     74  O   UNL A   1      43.998  23.489  26.393  1.00  0.00    -0.237 OA
ATOM     75  O   UNL A   1      45.214  24.179  24.373  1.00  0.00    -0.744 OA
ENDBRANCH  69  72
ENDBRANCH  51  65
BRANCH  52  76
ATOM     76  C   UNL A   1      45.360  27.368  38.545  1.00  0.00     0.023 A 
ATOM     77  C   UNL A   1      44.730  26.277  39.181  1.00  0.00     0.012 A 
ATOM     78  C   UNL A   1      45.813  28.443  39.338  1.00  0.00     0.148 A 
ATOM     79  C   UNL A   1      44.522  26.271  40.563  1.00  0.00     0.002 A 
ATOM     80  C   UNL A   1      45.645  28.410  40.721  1.00  0.00     0.091 A 
ATOM     81  F   UNL A   1      46.397  29.480  38.723  1.00  0.00    -0.205 F 
ATOM     82  C   UNL A   1      44.985  27.333  41.334  1.00  0.00     0.022 A 
BRANCH  80  83
ATOM     83  S   UNL A   1      46.285  29.683  41.818  1.00  0.00     0.127 S 
ATOM     84  O   UNL A   1      45.717  30.897  41.235  1.00  0.00    -0.237 OA
ATOM     85  O   UNL A   1      45.706  29.289  43.102  1.00  0.00    -0.237 OA
ATOM     86  O   UNL A   1      47.736  29.576  41.747  1.00  0.00    -0.744 OA
ENDBRANCH  80  83
ENDBRANCH  52  76
BRANCH  64  87
ATOM     87  C   UNL A   1      50.314  24.928  34.218  1.00  0.00     0.023 A 
ATOM     88  C   UNL A   1      51.445  25.732  34.451  1.00  0.00     0.012 A 
ATOM     89  C   UNL A   1      50.411  23.530  34.373  1.00  0.00     0.148 A 
ATOM     90  C   UNL A   1      52.656  25.152  34.831  1.00  0.00     0.002 A 
ATOM     91  C   UNL A   1      51.604  22.965  34.804  1.00  0.00     0.091 A 
ATOM     92  F   UNL A   1      49.322  22.784  34.131  1.00  0.00    -0.205 F 
ATOM     93  C   UNL A   1      52.730  23.774  35.026  1.00  0.00     0.022 A 
BRANCH  91  94
ATOM     94  S   UNL A   1      51.755  21.218  35.200  1.00  0.00     0.127 S 
ATOM     95  O   UNL A   1      50.530  20.979  35.961  1.00  0.00    -0.237 OA
ATOM     96  O   UNL A   1      51.780  20.601  33.874  1.00  0.00    -0.237 OA
ATOM     97  O   UNL A   1      52.993  21.081  35.955  1.00  0.00    -0.744 OA
ENDBRANCH  91  94
ENDBRANCH  64  87
ENDBRANCH  38  39
ENDBRANCH  31  33
ENDBRANCH  30  31
ENDBRANCH  29  30
ENDBRANCH   1  29
TORSDOF 18
ENDMDL
