MODEL 1
REMARK VINA RESULT:     -13.3      0.000      0.000
REMARK SMILES CS(=O)(=O)c1ccc(C2=NN(c3ccc(C(=O)OCCOC(=O)c4ccc(-c5c6nc(c(-c7cccc(S(=O)(=O)[O-])c7F)c7ccc([nH]7)c(-c7cccc(S(=O)(=O)[O-])c7F)c7nc(c(-c8cccc(S(=O)(=O)[O-])c8F)c8ccc5[nH]8)C=C7)C=C6)cc4)cc3)[C@H](c3ccc(F)cc3)C2)cc1
REMARK SMILES IDX 19 1 18 2 16 3 17 4 15 5 12 6 13 7 88 8 14 9 87 10 11 11
REMARK SMILES IDX 9 12 10 13 97 14 89 15 8 16 5 17 6 18 99 19 7 20 98 21 2 22
REMARK SMILES IDX 1 23 3 24 4 25 90 26 91 27 96 28 92 29 95 30 93 31 94 32
REMARK SMILES IDX 20 33 21 34 22 35 23 36 24 37 25 38 86 39 26 40 85 41 27 42
REMARK SMILES IDX 28 43 29 44 79 45 30 46 84 47 78 48 80 49 31 50 83 51 77 52
REMARK SMILES IDX 76 53 32 55 64 56 44 57 63 58 45 59 48 60 62 61 81 62 46 63
REMARK SMILES IDX 47 64 61 66 82 67 49 68 33 69 34 70 42 71 35 72 37 73 43 74
REMARK SMILES IDX 36 75 38 76 39 77 40 78 41 79 65 80 66 81 74 82 67 83 69 84
REMARK SMILES IDX 75 85 68 86 70 87 71 88 72 89 73 90 50 91 51 92 59 93 52 94
REMARK SMILES IDX 54 95 60 96 53 97 55 98 56 99 57 100 58 101
REMARK H PARENT 80 54 48 65
REMARK Flexibility Score: inf
ROOT
ATOM      1  C   UNL A   1      32.357  32.275  27.154  1.00  0.00     0.275 C 
ENDROOT
BRANCH   1   2
ATOM      2  O   UNL A   1      32.979  31.287  28.000  1.00  0.00    -0.458 OA
BRANCH   2   3
ATOM      3  C   UNL A   1      33.973  30.561  27.424  1.00  0.00     0.338 C 
ATOM      4  O   UNL A   1      35.155  30.838  27.412  1.00  0.00    -0.246 OA
BRANCH   3   5
ATOM      5  C   UNL A   1      33.438  29.305  26.837  1.00  0.00     0.060 A 
ATOM      6  C   UNL A   1      32.445  27.003  25.565  1.00  0.00     0.060 A 
ATOM      7  C   UNL A   1      33.668  27.553  25.172  1.00  0.00     0.029 A 
ATOM      8  C   UNL A   1      31.754  27.586  26.638  1.00  0.00     0.029 A 
ATOM      9  C   UNL A   1      34.139  28.717  25.776  1.00  0.00     0.018 A 
ATOM     10  C   UNL A   1      32.247  28.727  27.280  1.00  0.00     0.018 A 
BRANCH   6  11
ATOM     11  N   UNL A   1      31.844  25.980  24.819  1.00  0.00    -0.257 N 
ATOM     12  C   UNL A   1      32.143  24.045  23.961  1.00  0.00     0.071 C 
ATOM     13  N   UNL A   1      32.220  24.698  25.078  1.00  0.00    -0.176 NA
ATOM     14  C   UNL A   1      31.743  24.846  22.754  1.00  0.00     0.091 C 
ATOM     15  C   UNL A   1      31.628  26.241  23.384  1.00  0.00     0.144 C 
BRANCH  12  16
ATOM     16  C   UNL A   1      32.367  22.591  23.884  1.00  0.00    -0.002 A 
ATOM     17  C   UNL A   1      32.764  19.834  23.900  1.00  0.00     0.067 A 
ATOM     18  C   UNL A   1      33.259  20.605  24.953  1.00  0.00     0.021 A 
ATOM     19  C   UNL A   1      32.099  20.439  22.824  1.00  0.00     0.021 A 
ATOM     20  C   UNL A   1      33.068  21.987  24.934  1.00  0.00     0.011 A 
ATOM     21  C   UNL A   1      31.888  21.823  22.821  1.00  0.00     0.011 A 
BRANCH  17  22
ATOM     22  S   UNL A   1      32.938  18.064  23.891  1.00  0.00     0.175 S 
ATOM     23  C   UNL A   1      34.604  17.701  24.373  1.00  0.00     0.163 C 
ATOM     24  O   UNL A   1      32.783  17.633  22.516  1.00  0.00    -0.224 OA
ATOM     25  O   UNL A   1      32.057  17.572  24.933  1.00  0.00    -0.224 OA
ENDBRANCH  17  22
ENDBRANCH  12  16
BRANCH  15  26
ATOM     26  C   UNL A   1      30.334  27.026  23.205  1.00  0.00    -0.023 A 
ATOM     27  C   UNL A   1      29.107  26.635  23.765  1.00  0.00     0.009 A 
ATOM     28  C   UNL A   1      30.401  28.281  22.562  1.00  0.00     0.009 A 
ATOM     29  C   UNL A   1      27.994  27.478  23.695  1.00  0.00     0.039 A 
ATOM     30  C   UNL A   1      29.299  29.136  22.523  1.00  0.00     0.039 A 
ATOM     31  C   UNL A   1      28.103  28.725  23.092  1.00  0.00     0.123 A 
ATOM     32  F   UNL A   1      27.048  29.549  23.079  1.00  0.00    -0.207 F 
ENDBRANCH  15  26
ENDBRANCH   6  11
ENDBRANCH   3   5
ENDBRANCH   2   3
ENDBRANCH   1   2
BRANCH   1  33
ATOM     33  C   UNL A   1      32.988  33.652  27.364  1.00  0.00     0.275 C 
BRANCH  33  34
ATOM     34  O   UNL A   1      32.385  34.319  28.486  1.00  0.00    -0.458 OA
BRANCH  34  35
ATOM     35  C   UNL A   1      33.130  35.302  29.041  1.00  0.00     0.338 C 
ATOM     36  O   UNL A   1      32.961  36.506  28.948  1.00  0.00    -0.246 OA
BRANCH  35  37
ATOM     37  C   UNL A   1      34.183  34.711  29.879  1.00  0.00     0.060 A 
ATOM     38  C   UNL A   1      35.489  34.726  29.399  1.00  0.00     0.016 A 
ATOM     39  C   UNL A   1      33.873  34.018  31.045  1.00  0.00     0.016 A 
ATOM     40  C   UNL A   1      36.478  33.972  30.021  1.00  0.00     0.010 A 
ATOM     41  C   UNL A   1      34.891  33.343  31.728  1.00  0.00     0.010 A 
ATOM     42  C   UNL A   1      36.198  33.280  31.205  1.00  0.00    -0.014 A 
BRANCH  42  43
ATOM     43  C   UNL A   1      37.258  32.481  31.883  1.00  0.00     0.031 A 
ATOM     44  C   UNL A   1      37.751  32.882  33.250  1.00  0.00     0.074 A 
ATOM     45  C   UNL A   1      37.802  31.410  31.268  1.00  0.00     0.049 A 
ATOM     46  N   UNL A   1      38.791  32.449  33.916  1.00  0.00    -0.248 NA
ATOM     47  C   UNL A   1      36.981  33.919  33.956  1.00  0.00     0.031 C 
ATOM     48  C   UNL A   1      37.407  30.897  29.954  1.00  0.00     0.029 A 
ATOM     49  N   UNL A   1      38.821  30.573  31.655  1.00  0.00    -0.354 N 
ATOM     50  C   UNL A   1      38.846  33.211  35.077  1.00  0.00     0.074 A 
ATOM     51  C   UNL A   1      37.728  34.129  35.032  1.00  0.00     0.031 C 
ATOM     52  C   UNL A   1      38.168  29.837  29.645  1.00  0.00     0.029 A 
ATOM     53  C   UNL A   1      39.164  29.649  30.693  1.00  0.00     0.049 A 
ATOM     54  H   UNL A   1      39.262  30.628  32.534  1.00  0.00     0.167 HD
ATOM     55  C   UNL A   1      39.741  33.149  36.092  1.00  0.00     0.034 A 
ATOM     56  C   UNL A   1      40.196  28.784  30.628  1.00  0.00     0.034 A 
ATOM     57  C   UNL A   1      40.812  32.189  36.161  1.00  0.00     0.049 A 
ATOM     58  C   UNL A   1      41.181  28.739  31.762  1.00  0.00     0.074 A 
ATOM     59  C   UNL A   1      41.746  32.012  37.168  1.00  0.00     0.029 A 
ATOM     60  N   UNL A   1      41.090  31.239  35.189  1.00  0.00    -0.354 N 
ATOM     61  N   UNL A   1      41.190  29.433  32.873  1.00  0.00    -0.248 NA
ATOM     62  C   UNL A   1      42.289  27.782  31.642  1.00  0.00     0.031 C 
ATOM     63  C   UNL A   1      42.602  30.972  36.794  1.00  0.00     0.029 A 
ATOM     64  C   UNL A   1      42.183  30.479  35.568  1.00  0.00     0.049 A 
ATOM     65  H   UNL A   1      40.585  31.125  34.353  1.00  0.00     0.167 HD
ATOM     66  C   UNL A   1      42.286  28.980  33.597  1.00  0.00     0.074 A 
ATOM     67  C   UNL A   1      42.903  27.933  32.807  1.00  0.00     0.031 C 
ATOM     68  C   UNL A   1      42.751  29.403  34.797  1.00  0.00     0.034 A 
BRANCH  55  69
ATOM     69  C   UNL A   1      39.599  34.134  37.226  1.00  0.00     0.023 A 
ATOM     70  C   UNL A   1      39.955  35.483  37.034  1.00  0.00     0.012 A 
ATOM     71  C   UNL A   1      39.053  33.733  38.462  1.00  0.00     0.148 A 
ATOM     72  C   UNL A   1      39.804  36.411  38.065  1.00  0.00     0.002 A 
ATOM     73  C   UNL A   1      38.863  34.672  39.469  1.00  0.00     0.091 A 
ATOM     74  F   UNL A   1      38.736  32.442  38.633  1.00  0.00    -0.205 F 
ATOM     75  C   UNL A   1      39.249  36.009  39.277  1.00  0.00     0.022 A 
BRANCH  73  76
ATOM     76  S   UNL A   1      38.081  34.269  41.037  1.00  0.00     0.127 S 
ATOM     77  O   UNL A   1      37.828  35.599  41.591  1.00  0.00    -0.237 OA
ATOM     78  O   UNL A   1      36.881  33.551  40.607  1.00  0.00    -0.237 OA
ATOM     79  O   UNL A   1      39.044  33.460  41.771  1.00  0.00    -0.744 OA
ENDBRANCH  73  76
ENDBRANCH  55  69
BRANCH  56  80
ATOM     80  C   UNL A   1      40.350  27.901  29.438  1.00  0.00     0.023 A 
ATOM     81  C   UNL A   1      39.526  26.768  29.301  1.00  0.00     0.012 A 
ATOM     82  C   UNL A   1      41.281  28.197  28.422  1.00  0.00     0.148 A 
ATOM     83  C   UNL A   1      39.642  25.935  28.187  1.00  0.00     0.002 A 
ATOM     84  C   UNL A   1      41.348  27.400  27.287  1.00  0.00     0.091 A 
ATOM     85  F   UNL A   1      42.072  29.269  28.579  1.00  0.00    -0.205 F 
ATOM     86  C   UNL A   1      40.543  26.258  27.174  1.00  0.00     0.022 A 
BRANCH  84  87
ATOM     87  S   UNL A   1      42.373  27.825  25.873  1.00  0.00     0.127 S 
ATOM     88  O   UNL A   1      43.717  27.735  26.440  1.00  0.00    -0.237 OA
ATOM     89  O   UNL A   1      42.033  26.766  24.923  1.00  0.00    -0.237 OA
ATOM     90  O   UNL A   1      41.944  29.156  25.465  1.00  0.00    -0.744 OA
ENDBRANCH  84  87
ENDBRANCH  56  80
BRANCH  68  91
ATOM     91  C   UNL A   1      43.960  28.705  35.362  1.00  0.00     0.023 A 
ATOM     92  C   UNL A   1      45.252  29.141  35.009  1.00  0.00     0.012 A 
ATOM     93  C   UNL A   1      43.811  27.666  36.301  1.00  0.00     0.148 A 
ATOM     94  C   UNL A   1      46.378  28.536  35.564  1.00  0.00     0.002 A 
ATOM     95  C   UNL A   1      44.937  27.101  36.887  1.00  0.00     0.091 A 
ATOM     96  F   UNL A   1      42.571  27.254  36.607  1.00  0.00    -0.205 F 
ATOM     97  C   UNL A   1      46.220  27.525  36.510  1.00  0.00     0.022 A 
BRANCH  95  98
ATOM     98  S   UNL A   1      44.830  25.862  38.182  1.00  0.00     0.127 S 
ATOM     99  O   UNL A   1      46.239  25.640  38.500  1.00  0.00    -0.237 OA
ATOM    100  O   UNL A   1      44.074  26.565  39.220  1.00  0.00    -0.237 OA
ATOM    101  O   UNL A   1      44.137  24.722  37.596  1.00  0.00    -0.744 OA
ENDBRANCH  95  98
ENDBRANCH  68  91
ENDBRANCH  42  43
ENDBRANCH  35  37
ENDBRANCH  34  35
ENDBRANCH  33  34
ENDBRANCH   1  33
TORSDOF 18
ENDMDL
MODEL 2
REMARK VINA RESULT:     -13.2      0.782      7.410
REMARK SMILES CS(=O)(=O)c1ccc(C2=NN(c3ccc(C(=O)OCCOC(=O)c4ccc(-c5c6nc(c(-c7cccc(S(=O)(=O)[O-])c7F)c7ccc([nH]7)c(-c7cccc(S(=O)(=O)[O-])c7F)c7nc(c(-c8cccc(S(=O)(=O)[O-])c8F)c8ccc5[nH]8)C=C7)C=C6)cc4)cc3)[C@H](c3ccc(F)cc3)C2)cc1
REMARK SMILES IDX 19 1 18 2 16 3 17 4 15 5 12 6 13 7 88 8 14 9 87 10 11 11
REMARK SMILES IDX 9 12 10 13 97 14 89 15 8 16 5 17 6 18 99 19 7 20 98 21 2 22
REMARK SMILES IDX 1 23 3 24 4 25 90 26 91 27 96 28 92 29 95 30 93 31 94 32
REMARK SMILES IDX 20 33 21 34 22 35 23 36 24 37 25 38 86 39 26 40 85 41 27 42
REMARK SMILES IDX 28 43 29 44 79 45 30 46 84 47 78 48 80 49 31 50 83 51 77 52
REMARK SMILES IDX 76 53 32 55 64 56 44 57 63 58 45 59 48 60 62 61 81 62 46 63
REMARK SMILES IDX 47 64 61 66 82 67 49 68 33 69 34 70 42 71 35 72 37 73 43 74
REMARK SMILES IDX 36 75 38 76 39 77 40 78 41 79 65 80 66 81 74 82 67 83 69 84
REMARK SMILES IDX 75 85 68 86 70 87 71 88 72 89 73 90 50 91 51 92 59 93 52 94
REMARK SMILES IDX 54 95 60 96 53 97 55 98 56 99 57 100 58 101
REMARK H PARENT 80 54 48 65
REMARK Flexibility Score: inf
ROOT
ATOM      1  C   UNL A   1      32.263  32.236  26.987  1.00  0.00     0.275 C 
ENDROOT
BRANCH   1   2
ATOM      2  O   UNL A   1      32.955  31.389  27.926  1.00  0.00    -0.458 OA
BRANCH   2   3
ATOM      3  C   UNL A   1      33.931  30.603  27.402  1.00  0.00     0.338 C 
ATOM      4  O   UNL A   1      35.124  30.828  27.415  1.00  0.00    -0.246 OA
BRANCH   3   5
ATOM      5  C   UNL A   1      33.358  29.353  26.839  1.00  0.00     0.060 A 
ATOM      6  C   UNL A   1      32.316  27.049  25.611  1.00  0.00     0.060 A 
ATOM      7  C   UNL A   1      33.617  27.471  25.328  1.00  0.00     0.029 A 
ATOM      8  C   UNL A   1      31.564  27.761  26.558  1.00  0.00     0.029 A 
ATOM      9  C   UNL A   1      34.118  28.636  25.906  1.00  0.00     0.018 A 
ATOM     10  C   UNL A   1      32.080  28.904  27.178  1.00  0.00     0.018 A 
BRANCH   6  11
ATOM     11  N   UNL A   1      31.715  26.023  24.869  1.00  0.00    -0.257 N 
ATOM     12  C   UNL A   1      32.011  24.084  24.019  1.00  0.00     0.071 C 
ATOM     13  N   UNL A   1      32.087  24.742  25.133  1.00  0.00    -0.176 NA
ATOM     14  C   UNL A   1      31.616  24.881  22.808  1.00  0.00     0.091 C 
ATOM     15  C   UNL A   1      31.503  26.278  23.431  1.00  0.00     0.144 C 
BRANCH  12  16
ATOM     16  C   UNL A   1      32.232  22.629  23.950  1.00  0.00    -0.002 A 
ATOM     17  C   UNL A   1      32.573  19.865  23.959  1.00  0.00     0.067 A 
ATOM     18  C   UNL A   1      32.698  20.577  25.153  1.00  0.00     0.021 A 
ATOM     19  C   UNL A   1      32.309  20.533  22.755  1.00  0.00     0.021 A 
ATOM     20  C   UNL A   1      32.540  21.962  25.141  1.00  0.00     0.011 A 
ATOM     21  C   UNL A   1      32.125  21.921  22.751  1.00  0.00     0.011 A 
BRANCH  17  22
ATOM     22  S   UNL A   1      32.721  18.093  23.922  1.00  0.00     0.175 S 
ATOM     23  C   UNL A   1      34.415  17.703  24.261  1.00  0.00     0.163 C 
ATOM     24  O   UNL A   1      32.446  17.677  22.560  1.00  0.00    -0.224 OA
ATOM     25  O   UNL A   1      31.921  17.602  25.028  1.00  0.00    -0.224 OA
ENDBRANCH  17  22
ENDBRANCH  12  16
BRANCH  15  26
ATOM     26  C   UNL A   1      30.212  27.066  23.246  1.00  0.00    -0.023 A 
ATOM     27  C   UNL A   1      28.955  26.603  23.668  1.00  0.00     0.009 A 
ATOM     28  C   UNL A   1      30.302  28.386  22.752  1.00  0.00     0.009 A 
ATOM     29  C   UNL A   1      27.834  27.437  23.610  1.00  0.00     0.039 A 
ATOM     30  C   UNL A   1      29.190  29.228  22.727  1.00  0.00     0.039 A 
ATOM     31  C   UNL A   1      27.964  28.745  23.158  1.00  0.00     0.123 A 
ATOM     32  F   UNL A   1      26.898  29.554  23.159  1.00  0.00    -0.207 F 
ENDBRANCH  15  26
ENDBRANCH   6  11
ENDBRANCH   3   5
ENDBRANCH   2   3
ENDBRANCH   1   2
BRANCH   1  33
ATOM     33  C   UNL A   1      32.510  33.713  27.296  1.00  0.00     0.275 C 
BRANCH  33  34
ATOM     34  O   UNL A   1      32.425  33.956  28.710  1.00  0.00    -0.458 OA
BRANCH  34  35
ATOM     35  C   UNL A   1      33.325  34.839  29.199  1.00  0.00     0.338 C 
ATOM     36  O   UNL A   1      33.171  36.037  29.375  1.00  0.00    -0.246 OA
BRANCH  35  37
ATOM     37  C   UNL A   1      34.554  34.132  29.583  1.00  0.00     0.060 A 
ATOM     38  C   UNL A   1      34.482  33.212  30.624  1.00  0.00     0.016 A 
ATOM     39  C   UNL A   1      35.785  34.476  29.035  1.00  0.00     0.016 A 
ATOM     40  C   UNL A   1      35.643  32.700  31.193  1.00  0.00     0.010 A 
ATOM     41  C   UNL A   1      36.947  33.882  29.541  1.00  0.00     0.010 A 
ATOM     42  C   UNL A   1      36.895  33.015  30.651  1.00  0.00    -0.014 A 
BRANCH  42  43
ATOM     43  C   UNL A   1      38.142  32.459  31.249  1.00  0.00     0.031 A 
ATOM     44  C   UNL A   1      38.842  31.296  30.594  1.00  0.00     0.074 A 
ATOM     45  C   UNL A   1      38.636  32.974  32.395  1.00  0.00     0.049 A 
ATOM     46  N   UNL A   1      39.809  30.545  31.055  1.00  0.00    -0.248 NA
ATOM     47  C   UNL A   1      38.384  30.917  29.247  1.00  0.00     0.031 C 
ATOM     48  C   UNL A   1      38.072  34.111  33.125  1.00  0.00     0.029 A 
ATOM     49  N   UNL A   1      39.712  32.593  33.160  1.00  0.00    -0.354 N 
ATOM     50  C   UNL A   1      40.021  29.562  30.095  1.00  0.00     0.074 A 
ATOM     51  C   UNL A   1      39.088  29.817  29.018  1.00  0.00     0.031 C 
ATOM     52  C   UNL A   1      38.803  34.338  34.226  1.00  0.00     0.029 A 
ATOM     53  C   UNL A   1      39.832  33.310  34.329  1.00  0.00     0.049 A 
ATOM     54  H   UNL A   1      40.336  31.878  32.898  1.00  0.00     0.167 HD
ATOM     55  C   UNL A   1      40.916  28.544  30.105  1.00  0.00     0.034 A 
ATOM     56  C   UNL A   1      40.636  33.131  35.396  1.00  0.00     0.034 A 
ATOM     57  C   UNL A   1      41.885  28.336  31.149  1.00  0.00     0.049 A 
ATOM     58  C   UNL A   1      41.614  31.990  35.388  1.00  0.00     0.074 A 
ATOM     59  C   UNL A   1      42.865  27.362  31.232  1.00  0.00     0.029 A 
ATOM     60  N   UNL A   1      42.002  29.118  32.289  1.00  0.00    -0.354 N 
ATOM     61  N   UNL A   1      41.833  31.100  34.452  1.00  0.00    -0.248 NA
ATOM     62  C   UNL A   1      42.466  31.837  36.575  1.00  0.00     0.031 C 
ATOM     63  C   UNL A   1      43.560  27.540  32.432  1.00  0.00     0.029 A 
ATOM     64  C   UNL A   1      43.034  28.645  33.083  1.00  0.00     0.049 A 
ATOM     65  H   UNL A   1      41.436  29.893  32.502  1.00  0.00     0.167 HD
ATOM     66  C   UNL A   1      42.864  30.297  34.923  1.00  0.00     0.074 A 
ATOM     67  C   UNL A   1      43.243  30.823  36.219  1.00  0.00     0.031 C 
ATOM     68  C   UNL A   1      43.435  29.213  34.344  1.00  0.00     0.034 A 
BRANCH  55  69
ATOM     69  C   UNL A   1      40.905  27.580  28.945  1.00  0.00     0.023 A 
ATOM     70  C   UNL A   1      39.912  26.583  28.868  1.00  0.00     0.012 A 
ATOM     71  C   UNL A   1      41.844  27.701  27.901  1.00  0.00     0.148 A 
ATOM     72  C   UNL A   1      39.874  25.700  27.788  1.00  0.00     0.002 A 
ATOM     73  C   UNL A   1      41.773  26.848  26.806  1.00  0.00     0.091 A 
ATOM     74  F   UNL A   1      42.792  28.643  27.999  1.00  0.00    -0.205 F 
ATOM     75  C   UNL A   1      40.797  25.839  26.753  1.00  0.00     0.022 A 
BRANCH  73  76
ATOM     76  S   UNL A   1      42.864  26.997  25.385  1.00  0.00     0.127 S 
ATOM     77  O   UNL A   1      44.170  27.135  26.029  1.00  0.00    -0.237 OA
ATOM     78  O   UNL A   1      42.654  25.720  24.702  1.00  0.00    -0.237 OA
ATOM     79  O   UNL A   1      42.404  28.164  24.646  1.00  0.00    -0.744 OA
ENDBRANCH  73  76
ENDBRANCH  55  69
BRANCH  56  80
ATOM     80  C   UNL A   1      40.537  34.053  36.563  1.00  0.00     0.023 A 
ATOM     81  C   UNL A   1      41.059  35.357  36.465  1.00  0.00     0.012 A 
ATOM     82  C   UNL A   1      39.896  33.659  37.755  1.00  0.00     0.148 A 
ATOM     83  C   UNL A   1      40.964  36.243  37.540  1.00  0.00     0.002 A 
ATOM     84  C   UNL A   1      39.750  34.565  38.797  1.00  0.00     0.091 A 
ATOM     85  F   UNL A   1      39.424  32.407  37.838  1.00  0.00    -0.205 F 
ATOM     86  C   UNL A   1      40.299  35.852  38.700  1.00  0.00     0.022 A 
BRANCH  84  87
ATOM     87  S   UNL A   1      38.781  34.194  40.264  1.00  0.00     0.127 S 
ATOM     88  O   UNL A   1      39.668  33.282  40.984  1.00  0.00    -0.237 OA
ATOM     89  O   UNL A   1      38.633  35.517  40.872  1.00  0.00    -0.237 OA
ATOM     90  O   UNL A   1      37.537  33.616  39.777  1.00  0.00    -0.744 OA
ENDBRANCH  84  87
ENDBRANCH  56  80
BRANCH  68  91
ATOM     91  C   UNL A   1      44.565  28.544  35.080  1.00  0.00     0.023 A 
ATOM     92  C   UNL A   1      45.898  28.902  34.798  1.00  0.00     0.012 A 
ATOM     93  C   UNL A   1      44.299  27.614  36.105  1.00  0.00     0.148 A 
ATOM     94  C   UNL A   1      46.950  28.326  35.507  1.00  0.00     0.002 A 
ATOM     95  C   UNL A   1      45.350  27.081  36.841  1.00  0.00     0.091 A 
ATOM     96  F   UNL A   1      43.024  27.273  36.343  1.00  0.00    -0.205 F 
ATOM     97  C   UNL A   1      46.676  27.426  36.535  1.00  0.00     0.022 A 
BRANCH  95  98
ATOM     98  S   UNL A   1      45.089  25.990  38.243  1.00  0.00     0.127 S 
ATOM     99  O   UNL A   1      44.050  26.701  38.984  1.00  0.00    -0.237 OA
ATOM    100  O   UNL A   1      44.641  24.757  37.595  1.00  0.00    -0.237 OA
ATOM    101  O   UNL A   1      46.376  25.886  38.919  1.00  0.00    -0.744 OA
ENDBRANCH  95  98
ENDBRANCH  68  91
ENDBRANCH  42  43
ENDBRANCH  35  37
ENDBRANCH  34  35
ENDBRANCH  33  34
ENDBRANCH   1  33
TORSDOF 18
ENDMDL
MODEL 3
REMARK VINA RESULT:     -12.5      6.377     12.349
REMARK SMILES CS(=O)(=O)c1ccc(C2=NN(c3ccc(C(=O)OCCOC(=O)c4ccc(-c5c6nc(c(-c7cccc(S(=O)(=O)[O-])c7F)c7ccc([nH]7)c(-c7cccc(S(=O)(=O)[O-])c7F)c7nc(c(-c8cccc(S(=O)(=O)[O-])c8F)c8ccc5[nH]8)C=C7)C=C6)cc4)cc3)[C@H](c3ccc(F)cc3)C2)cc1
REMARK SMILES IDX 19 1 18 2 16 3 17 4 15 5 12 6 13 7 88 8 14 9 87 10 11 11
REMARK SMILES IDX 9 12 10 13 97 14 89 15 8 16 5 17 6 18 99 19 7 20 98 21 2 22
REMARK SMILES IDX 1 23 3 24 4 25 90 26 91 27 96 28 92 29 95 30 93 31 94 32
REMARK SMILES IDX 20 33 21 34 22 35 23 36 24 37 25 38 86 39 26 40 85 41 27 42
REMARK SMILES IDX 28 43 29 44 79 45 30 46 84 47 78 48 80 49 31 50 83 51 77 52
REMARK SMILES IDX 76 53 32 55 64 56 44 57 63 58 45 59 48 60 62 61 81 62 46 63
REMARK SMILES IDX 47 64 61 66 82 67 49 68 33 69 34 70 42 71 35 72 37 73 43 74
REMARK SMILES IDX 36 75 38 76 39 77 40 78 41 79 65 80 66 81 74 82 67 83 69 84
REMARK SMILES IDX 75 85 68 86 70 87 71 88 72 89 73 90 50 91 51 92 59 93 52 94
REMARK SMILES IDX 54 95 60 96 53 97 55 98 56 99 57 100 58 101
REMARK H PARENT 80 54 48 65
REMARK Flexibility Score: inf
ROOT
ATOM      1  C   UNL A   1      40.696  20.707  26.665  1.00  0.00     0.275 C 
ENDROOT
BRANCH   1   2
ATOM      2  O   UNL A   1      39.371  20.976  26.165  1.00  0.00    -0.458 OA
BRANCH   2   3
ATOM      3  C   UNL A   1      39.007  22.285  26.141  1.00  0.00     0.338 C 
ATOM      4  O   UNL A   1      39.733  23.241  26.327  1.00  0.00    -0.246 OA
BRANCH   3   5
ATOM      5  C   UNL A   1      37.571  22.427  25.787  1.00  0.00     0.060 A 
ATOM      6  C   UNL A   1      34.899  22.662  24.947  1.00  0.00     0.060 A 
ATOM      7  C   UNL A   1      35.643  21.527  24.617  1.00  0.00     0.029 A 
ATOM      8  C   UNL A   1      35.489  23.650  25.748  1.00  0.00     0.029 A 
ATOM      9  C   UNL A   1      36.980  21.430  25.000  1.00  0.00     0.018 A 
ATOM     10  C   UNL A   1      36.816  23.536  26.176  1.00  0.00     0.018 A 
BRANCH   6  11
ATOM     11  N   UNL A   1      33.637  22.885  24.377  1.00  0.00    -0.257 N 
ATOM     12  C   UNL A   1      32.052  24.303  24.160  1.00  0.00     0.071 C 
ATOM     13  N   UNL A   1      33.328  24.153  23.992  1.00  0.00    -0.176 NA
ATOM     14  C   UNL A   1      31.322  23.130  24.753  1.00  0.00     0.091 C 
ATOM     15  C   UNL A   1      32.498  22.171  24.982  1.00  0.00     0.144 C 
BRANCH  12  16
ATOM     16  C   UNL A   1      31.341  25.521  23.736  1.00  0.00    -0.002 A 
ATOM     17  C   UNL A   1      29.971  27.859  23.090  1.00  0.00     0.067 A 
ATOM     18  C   UNL A   1      29.512  27.061  24.138  1.00  0.00     0.021 A 
ATOM     19  C   UNL A   1      31.094  27.477  22.342  1.00  0.00     0.021 A 
ATOM     20  C   UNL A   1      30.194  25.885  24.450  1.00  0.00     0.011 A 
ATOM     21  C   UNL A   1      31.791  26.309  22.674  1.00  0.00     0.011 A 
BRANCH  17  22
ATOM     22  S   UNL A   1      29.169  29.392  22.676  1.00  0.00     0.175 S 
ATOM     23  C   UNL A   1      27.423  29.108  22.769  1.00  0.00     0.163 C 
ATOM     24  O   UNL A   1      29.488  29.672  21.290  1.00  0.00    -0.224 OA
ATOM     25  O   UNL A   1      29.525  30.324  23.729  1.00  0.00    -0.224 OA
ENDBRANCH  17  22
ENDBRANCH  12  16
BRANCH  15  26
ATOM     26  C   UNL A   1      32.423  20.763  24.404  1.00  0.00    -0.023 A 
ATOM     27  C   UNL A   1      32.254  20.495  23.036  1.00  0.00     0.009 A 
ATOM     28  C   UNL A   1      32.678  19.674  25.267  1.00  0.00     0.009 A 
ATOM     29  C   UNL A   1      32.351  19.187  22.551  1.00  0.00     0.039 A 
ATOM     30  C   UNL A   1      32.808  18.375  24.777  1.00  0.00     0.039 A 
ATOM     31  C   UNL A   1      32.643  18.144  23.420  1.00  0.00     0.123 A 
ATOM     32  F   UNL A   1      32.789  16.903  22.939  1.00  0.00    -0.207 F 
ENDBRANCH  15  26
ENDBRANCH   6  11
ENDBRANCH   3   5
ENDBRANCH   2   3
ENDBRANCH   1   2
BRANCH   1  33
ATOM     33  C   UNL A   1      41.308  19.490  25.969  1.00  0.00     0.275 C 
BRANCH  33  34
ATOM     34  O   UNL A   1      42.712  19.391  26.262  1.00  0.00    -0.458 OA
BRANCH  34  35
ATOM     35  C   UNL A   1      43.538  19.710  25.240  1.00  0.00     0.338 C 
ATOM     36  O   UNL A   1      43.835  19.018  24.281  1.00  0.00    -0.246 OA
BRANCH  35  37
ATOM     37  C   UNL A   1      44.003  21.096  25.393  1.00  0.00     0.060 A 
ATOM     38  C   UNL A   1      44.427  21.510  26.652  1.00  0.00     0.016 A 
ATOM     39  C   UNL A   1      43.882  22.015  24.356  1.00  0.00     0.016 A 
ATOM     40  C   UNL A   1      44.640  22.858  26.916  1.00  0.00     0.010 A 
ATOM     41  C   UNL A   1      44.195  23.358  24.595  1.00  0.00     0.010 A 
ATOM     42  C   UNL A   1      44.542  23.804  25.887  1.00  0.00    -0.014 A 
BRANCH  42  43
ATOM     43  C   UNL A   1      44.782  25.249  26.161  1.00  0.00     0.031 A 
ATOM     44  C   UNL A   1      46.167  25.827  26.015  1.00  0.00     0.074 A 
ATOM     45  C   UNL A   1      43.769  26.042  26.568  1.00  0.00     0.049 A 
ATOM     46  N   UNL A   1      46.621  26.994  26.395  1.00  0.00    -0.248 NA
ATOM     47  C   UNL A   1      47.178  24.975  25.369  1.00  0.00     0.031 C 
ATOM     48  C   UNL A   1      42.376  25.620  26.733  1.00  0.00     0.029 A 
ATOM     49  N   UNL A   1      43.758  27.365  26.941  1.00  0.00    -0.354 N 
ATOM     50  C   UNL A   1      47.981  26.987  26.107  1.00  0.00     0.074 A 
ATOM     51  C   UNL A   1      48.279  25.701  25.511  1.00  0.00     0.031 C 
ATOM     52  C   UNL A   1      41.647  26.658  27.169  1.00  0.00     0.029 A 
ATOM     53  C   UNL A   1      42.533  27.792  27.401  1.00  0.00     0.049 A 
ATOM     54  H   UNL A   1      44.548  27.949  26.884  1.00  0.00     0.167 HD
ATOM     55  C   UNL A   1      48.898  27.962  26.314  1.00  0.00     0.034 A 
ATOM     56  C   UNL A   1      42.167  28.944  27.999  1.00  0.00     0.034 A 
ATOM     57  C   UNL A   1      48.583  29.262  26.847  1.00  0.00     0.049 A 
ATOM     58  C   UNL A   1      43.204  30.008  28.226  1.00  0.00     0.074 A 
ATOM     59  C   UNL A   1      49.430  30.336  27.053  1.00  0.00     0.029 A 
ATOM     60  N   UNL A   1      47.319  29.667  27.252  1.00  0.00    -0.354 N 
ATOM     61  N   UNL A   1      44.474  30.002  27.905  1.00  0.00    -0.248 NA
ATOM     62  C   UNL A   1      42.755  31.243  28.882  1.00  0.00     0.031 C 
ATOM     63  C   UNL A   1      48.685  31.383  27.604  1.00  0.00     0.029 A 
ATOM     64  C   UNL A   1      47.366  30.973  27.713  1.00  0.00     0.049 A 
ATOM     65  H   UNL A   1      46.510  29.109  27.218  1.00  0.00     0.167 HD
ATOM     66  C   UNL A   1      44.971  31.239  28.295  1.00  0.00     0.074 A 
ATOM     67  C   UNL A   1      43.858  31.979  28.855  1.00  0.00     0.031 C 
ATOM     68  C   UNL A   1      46.238  31.714  28.214  1.00  0.00     0.034 A 
BRANCH  55  69
ATOM     69  C   UNL A   1      50.334  27.675  25.950  1.00  0.00     0.023 A 
ATOM     70  C   UNL A   1      51.253  27.306  26.952  1.00  0.00     0.012 A 
ATOM     71  C   UNL A   1      50.756  27.711  24.606  1.00  0.00     0.148 A 
ATOM     72  C   UNL A   1      52.578  27.013  26.628  1.00  0.00     0.002 A 
ATOM     73  C   UNL A   1      52.065  27.373  24.285  1.00  0.00     0.091 A 
ATOM     74  F   UNL A   1      49.873  28.080  23.668  1.00  0.00    -0.205 F 
ATOM     75  C   UNL A   1      52.981  27.036  25.295  1.00  0.00     0.022 A 
BRANCH  73  76
ATOM     76  S   UNL A   1      52.660  27.293  22.590  1.00  0.00     0.127 S 
ATOM     77  O   UNL A   1      51.445  26.912  21.869  1.00  0.00    -0.237 OA
ATOM     78  O   UNL A   1      53.101  28.669  22.355  1.00  0.00    -0.237 OA
ATOM     79  O   UNL A   1      53.727  26.304  22.584  1.00  0.00    -0.744 OA
ENDBRANCH  73  76
ENDBRANCH  55  69
BRANCH  56  80
ATOM     80  C   UNL A   1      40.754  29.140  28.432  1.00  0.00     0.023 A 
ATOM     81  C   UNL A   1      39.765  29.422  27.471  1.00  0.00     0.012 A 
ATOM     82  C   UNL A   1      40.379  29.010  29.785  1.00  0.00     0.148 A 
ATOM     83  C   UNL A   1      38.433  29.594  27.852  1.00  0.00     0.002 A 
ATOM     84  C   UNL A   1      39.043  29.120  30.148  1.00  0.00     0.091 A 
ATOM     85  F   UNL A   1      41.337  28.762  30.689  1.00  0.00    -0.205 F 
ATOM     86  C   UNL A   1      38.070  29.429  29.187  1.00  0.00     0.022 A 
BRANCH  84  87
ATOM     87  S   UNL A   1      38.470  28.779  31.816  1.00  0.00     0.127 S 
ATOM     88  O   UNL A   1      38.897  27.393  32.001  1.00  0.00    -0.237 OA
ATOM     89  O   UNL A   1      39.216  29.763  32.600  1.00  0.00    -0.237 OA
ATOM     90  O   UNL A   1      37.031  29.001  31.790  1.00  0.00    -0.744 OA
ENDBRANCH  84  87
ENDBRANCH  56  80
BRANCH  68  91
ATOM     91  C   UNL A   1      46.488  33.118  28.697  1.00  0.00     0.023 A 
ATOM     92  C   UNL A   1      46.984  33.337  29.997  1.00  0.00     0.012 A 
ATOM     93  C   UNL A   1      46.302  34.215  27.833  1.00  0.00     0.148 A 
ATOM     94  C   UNL A   1      47.266  34.628  30.439  1.00  0.00     0.002 A 
ATOM     95  C   UNL A   1      46.632  35.494  28.262  1.00  0.00     0.091 A 
ATOM     96  F   UNL A   1      45.810  33.985  26.606  1.00  0.00    -0.205 F 
ATOM     97  C   UNL A   1      47.102  35.704  29.568  1.00  0.00     0.022 A 
BRANCH  95  98
ATOM     98  S   UNL A   1      46.544  36.926  27.183  1.00  0.00     0.127 S 
ATOM     99  O   UNL A   1      47.215  36.435  25.981  1.00  0.00    -0.237 OA
ATOM    100  O   UNL A   1      45.100  37.117  27.040  1.00  0.00    -0.237 OA
ATOM    101  O   UNL A   1      47.231  38.003  27.883  1.00  0.00    -0.744 OA
ENDBRANCH  95  98
ENDBRANCH  68  91
ENDBRANCH  42  43
ENDBRANCH  35  37
ENDBRANCH  34  35
ENDBRANCH  33  34
ENDBRANCH   1  33
TORSDOF 18
ENDMDL
