MODEL 1
REMARK VINA RESULT:     -11.8      0.000      0.000
REMARK SMILES C[C@@H]1CN(C(=O)NC[C@@H]2CCC[C@@H]2C(=O)OCCOC(=O)c2ccc(-c3c4nc(c(-c5cccc(S(=O)(=O)[O-])c5F)c5ccc([nH]5)c(-c5cccc(S(=O)(=O)[O-])c5F)c5nc(c(-c6cccc(S(=O)(=O)[O-])c6F)c6ccc3[nH]6)C=C5)C=C4)cc2)C[C@@H]1C
REMARK SMILES IDX 17 1 16 2 14 3 15 4 13 5 9 6 10 7 11 8 12 9 8 10 7 11 5 12
REMARK SMILES IDX 6 13 4 15 1 16 2 17 3 18 86 19 85 20 87 21 18 22 19 23 20 24
REMARK SMILES IDX 21 25 22 26 23 27 84 28 24 29 83 30 25 31 26 32 27 33 77 34
REMARK SMILES IDX 28 35 82 36 76 37 78 38 29 39 81 40 75 41 74 42 30 44 62 45
REMARK SMILES IDX 42 46 61 47 43 48 46 49 60 50 79 51 44 52 45 53 59 55 80 56
REMARK SMILES IDX 47 57 31 58 32 59 40 60 33 61 35 62 41 63 34 64 36 65 37 66
REMARK SMILES IDX 38 67 39 68 63 69 64 70 72 71 65 72 67 73 73 74 66 75 68 76
REMARK SMILES IDX 69 77 70 78 71 79 48 80 49 81 57 82 50 83 52 84 58 85 51 86
REMARK SMILES IDX 53 87 54 88 55 89 56 90
REMARK H PARENT 7 14 78 43 46 54
REMARK Flexibility Score: inf
ROOT
ATOM      1  C   UNL A   1      31.756  30.734  26.426  1.00  0.00     0.274 C 
ENDROOT
BRANCH   1   2
ATOM      2  O   UNL A   1      31.055  30.392  25.212  1.00  0.00    -0.462 OA
BRANCH   2   3
ATOM      3  C   UNL A   1      31.565  29.329  24.551  1.00  0.00     0.309 C 
ATOM      4  O   UNL A   1      32.750  29.199  24.273  1.00  0.00    -0.252 OA
BRANCH   3   5
ATOM      5  C   UNL A   1      30.574  28.257  24.172  1.00  0.00     0.104 C 
ATOM      6  C   UNL A   1      30.937  26.845  24.633  1.00  0.00     0.022 C 
ATOM      7  C   UNL A   1      31.725  26.261  23.453  1.00  0.00     0.006 C 
ATOM      8  C   UNL A   1      31.264  27.020  22.206  1.00  0.00     0.001 C 
ATOM      9  C   UNL A   1      30.313  28.113  22.678  1.00  0.00     0.016 C 
BRANCH   6  10
ATOM     10  C   UNL A   1      31.559  26.695  26.040  1.00  0.00     0.122 C 
BRANCH  10  11
ATOM     11  N   UNL A   1      31.220  25.453  26.711  1.00  0.00    -0.338 N 
ATOM     12  C   UNL A   1      31.487  24.145  26.629  1.00  0.00     0.317 C 
ATOM     13  O   UNL A   1      30.835  23.446  27.417  1.00  0.00    -0.249 OA
ATOM     14  H   UNL A   1      30.603  25.627  27.457  1.00  0.00     0.165 HD
BRANCH  12  15
ATOM     15  N   UNL A   1      32.362  23.582  25.769  1.00  0.00    -0.324 N 
ATOM     16  C   UNL A   1      35.447  23.163  23.707  1.00  0.00     0.010 C 
ATOM     17  C   UNL A   1      34.007  23.393  24.116  1.00  0.00     0.010 C 
ATOM     18  C   UNL A   1      33.809  23.686  25.606  1.00  0.00     0.125 C 
ATOM     19  C   UNL A   1      33.018  22.242  23.882  1.00  0.00     0.010 C 
ATOM     20  C   UNL A   1      31.828  22.682  24.745  1.00  0.00     0.125 C 
ATOM     21  C   UNL A   1      33.531  20.865  24.299  1.00  0.00     0.010 C 
ENDBRANCH  12  15
ENDBRANCH  10  11
ENDBRANCH   6  10
ENDBRANCH   3   5
ENDBRANCH   2   3
ENDBRANCH   1   2
BRANCH   1  22
ATOM     22  C   UNL A   1      31.588  32.201  26.860  1.00  0.00     0.275 C 
BRANCH  22  23
ATOM     23  O   UNL A   1      32.763  33.007  26.640  1.00  0.00    -0.458 OA
BRANCH  23  24
ATOM     24  C   UNL A   1      33.281  33.584  27.752  1.00  0.00     0.338 C 
ATOM     25  O   UNL A   1      32.748  34.447  28.436  1.00  0.00    -0.246 OA
BRANCH  24  26
ATOM     26  C   UNL A   1      34.530  32.910  28.163  1.00  0.00     0.060 A 
ATOM     27  C   UNL A   1      34.421  31.603  28.654  1.00  0.00     0.016 A 
ATOM     28  C   UNL A   1      35.768  33.552  28.154  1.00  0.00     0.016 A 
ATOM     29  C   UNL A   1      35.536  30.930  29.141  1.00  0.00     0.010 A 
ATOM     30  C   UNL A   1      36.889  32.886  28.668  1.00  0.00     0.010 A 
ATOM     31  C   UNL A   1      36.773  31.580  29.183  1.00  0.00    -0.014 A 
BRANCH  31  32
ATOM     32  C   UNL A   1      37.899  30.926  29.888  1.00  0.00     0.031 A 
ATOM     33  C   UNL A   1      38.186  31.305  31.314  1.00  0.00     0.074 A 
ATOM     34  C   UNL A   1      38.627  29.973  29.279  1.00  0.00     0.049 A 
ATOM     35  N   UNL A   1      39.139  30.890  32.105  1.00  0.00    -0.248 NA
ATOM     36  C   UNL A   1      37.272  32.281  31.931  1.00  0.00     0.031 C 
ATOM     37  C   UNL A   1      38.412  29.489  27.916  1.00  0.00     0.029 A 
ATOM     38  N   UNL A   1      39.706  29.251  29.728  1.00  0.00    -0.354 N 
ATOM     39  C   UNL A   1      38.966  31.580  33.299  1.00  0.00     0.074 A 
ATOM     40  C   UNL A   1      37.815  32.439  33.129  1.00  0.00     0.031 C 
ATOM     41  C   UNL A   1      39.350  28.570  27.628  1.00  0.00     0.029 A 
ATOM     42  C   UNL A   1      40.249  28.426  28.771  1.00  0.00     0.049 A 
ATOM     43  H   UNL A   1      40.057  29.319  30.645  1.00  0.00     0.167 HD
ATOM     44  C   UNL A   1      39.696  31.497  34.436  1.00  0.00     0.034 A 
ATOM     45  C   UNL A   1      41.361  27.665  28.807  1.00  0.00     0.034 A 
ATOM     46  C   UNL A   1      40.824  30.624  34.608  1.00  0.00     0.049 A 
ATOM     47  C   UNL A   1      42.177  27.620  30.073  1.00  0.00     0.074 A 
ATOM     48  C   UNL A   1      41.614  30.448  35.730  1.00  0.00     0.029 A 
ATOM     49  N   UNL A   1      41.331  29.785  33.627  1.00  0.00    -0.354 N 
ATOM     50  N   UNL A   1      41.954  28.215  31.221  1.00  0.00    -0.248 NA
ATOM     51  C   UNL A   1      43.383  26.779  30.058  1.00  0.00     0.031 C 
ATOM     52  C   UNL A   1      42.614  29.521  35.419  1.00  0.00     0.029 A 
ATOM     53  C   UNL A   1      42.429  29.096  34.112  1.00  0.00     0.049 A 
ATOM     54  H   UNL A   1      40.962  29.692  32.718  1.00  0.00     0.167 HD
ATOM     55  C   UNL A   1      42.971  27.794  32.073  1.00  0.00     0.074 A 
ATOM     56  C   UNL A   1      43.796  26.877  31.315  1.00  0.00     0.031 C 
ATOM     57  C   UNL A   1      43.208  28.145  33.361  1.00  0.00     0.034 A 
BRANCH  44  58
ATOM     58  C   UNL A   1      39.289  32.376  35.590  1.00  0.00     0.023 A 
ATOM     59  C   UNL A   1      38.441  31.869  36.594  1.00  0.00     0.012 A 
ATOM     60  C   UNL A   1      39.783  33.691  35.701  1.00  0.00     0.148 A 
ATOM     61  C   UNL A   1      38.063  32.666  37.674  1.00  0.00     0.002 A 
ATOM     62  C   UNL A   1      39.438  34.465  36.802  1.00  0.00     0.091 A 
ATOM     63  F   UNL A   1      40.569  34.163  34.723  1.00  0.00    -0.205 F 
ATOM     64  C   UNL A   1      38.569  33.960  37.783  1.00  0.00     0.022 A 
BRANCH  62  65
ATOM     65  S   UNL A   1      40.095  36.116  37.070  1.00  0.00     0.127 S 
ATOM     66  O   UNL A   1      41.513  35.836  37.293  1.00  0.00    -0.237 OA
ATOM     67  O   UNL A   1      39.797  36.775  35.798  1.00  0.00    -0.237 OA
ATOM     68  O   UNL A   1      39.375  36.653  38.216  1.00  0.00    -0.744 OA
ENDBRANCH  62  65
ENDBRANCH  44  58
BRANCH  45  69
ATOM     69  C   UNL A   1      41.761  26.871  27.610  1.00  0.00     0.023 A 
ATOM     70  C   UNL A   1      42.362  27.518  26.513  1.00  0.00     0.012 A 
ATOM     71  C   UNL A   1      41.561  25.477  27.559  1.00  0.00     0.148 A 
ATOM     72  C   UNL A   1      42.729  26.796  25.376  1.00  0.00     0.002 A 
ATOM     73  C   UNL A   1      41.981  24.757  26.448  1.00  0.00     0.091 A 
ATOM     74  F   UNL A   1      40.968  24.883  28.604  1.00  0.00    -0.205 F 
ATOM     75  C   UNL A   1      42.549  25.415  25.348  1.00  0.00     0.022 A 
BRANCH  73  76
ATOM     76  S   UNL A   1      41.908  22.963  26.381  1.00  0.00     0.127 S 
ATOM     77  O   UNL A   1      40.470  22.719  26.440  1.00  0.00    -0.237 OA
ATOM     78  O   UNL A   1      42.529  22.684  25.086  1.00  0.00    -0.237 OA
ATOM     79  O   UNL A   1      42.677  22.495  27.528  1.00  0.00    -0.744 OA
ENDBRANCH  73  76
ENDBRANCH  45  69
BRANCH  57  80
ATOM     80  C   UNL A   1      44.385  27.509  34.054  1.00  0.00     0.023 A 
ATOM     81  C   UNL A   1      45.653  28.118  33.987  1.00  0.00     0.012 A 
ATOM     82  C   UNL A   1      44.215  26.350  34.838  1.00  0.00     0.148 A 
ATOM     83  C   UNL A   1      46.741  27.566  34.662  1.00  0.00     0.002 A 
ATOM     84  C   UNL A   1      45.292  25.833  35.548  1.00  0.00     0.091 A 
ATOM     85  F   UNL A   1      43.004  25.774  34.875  1.00  0.00    -0.205 F 
ATOM     86  C   UNL A   1      46.559  26.432  35.452  1.00  0.00     0.022 A 
BRANCH  84  87
ATOM     87  S   UNL A   1      45.127  24.436  36.666  1.00  0.00     0.127 S 
ATOM     88  O   UNL A   1      44.683  23.380  35.758  1.00  0.00    -0.237 OA
ATOM     89  O   UNL A   1      46.493  24.275  37.167  1.00  0.00    -0.237 OA
ATOM     90  O   UNL A   1      44.158  24.843  37.675  1.00  0.00    -0.744 OA
ENDBRANCH  84  87
ENDBRANCH  57  80
ENDBRANCH  31  32
ENDBRANCH  24  26
ENDBRANCH  23  24
ENDBRANCH  22  23
ENDBRANCH   1  22
TORSDOF 17
ENDMDL
MODEL 2
REMARK VINA RESULT:     -11.7      1.086      7.977
REMARK SMILES C[C@@H]1CN(C(=O)NC[C@@H]2CCC[C@@H]2C(=O)OCCOC(=O)c2ccc(-c3c4nc(c(-c5cccc(S(=O)(=O)[O-])c5F)c5ccc([nH]5)c(-c5cccc(S(=O)(=O)[O-])c5F)c5nc(c(-c6cccc(S(=O)(=O)[O-])c6F)c6ccc3[nH]6)C=C5)C=C4)cc2)C[C@@H]1C
REMARK SMILES IDX 17 1 16 2 14 3 15 4 13 5 9 6 10 7 11 8 12 9 8 10 7 11 5 12
REMARK SMILES IDX 6 13 4 15 1 16 2 17 3 18 86 19 85 20 87 21 18 22 19 23 20 24
REMARK SMILES IDX 21 25 22 26 23 27 84 28 24 29 83 30 25 31 26 32 27 33 77 34
REMARK SMILES IDX 28 35 82 36 76 37 78 38 29 39 81 40 75 41 74 42 30 44 62 45
REMARK SMILES IDX 42 46 61 47 43 48 46 49 60 50 79 51 44 52 45 53 59 55 80 56
REMARK SMILES IDX 47 57 31 58 32 59 40 60 33 61 35 62 41 63 34 64 36 65 37 66
REMARK SMILES IDX 38 67 39 68 63 69 64 70 72 71 65 72 67 73 73 74 66 75 68 76
REMARK SMILES IDX 69 77 70 78 71 79 48 80 49 81 57 82 50 83 52 84 58 85 51 86
REMARK SMILES IDX 53 87 54 88 55 89 56 90
REMARK H PARENT 7 14 78 43 46 54
REMARK Flexibility Score: inf
ROOT
ATOM      1  C   UNL A   1      31.452  29.625  24.348  1.00  0.00     0.274 C 
ENDROOT
BRANCH   1   2
ATOM      2  O   UNL A   1      30.746  28.368  24.420  1.00  0.00    -0.462 OA
BRANCH   2   3
ATOM      3  C   UNL A   1      31.093  27.475  23.465  1.00  0.00     0.309 C 
ATOM      4  O   UNL A   1      30.768  27.569  22.289  1.00  0.00    -0.252 OA
BRANCH   3   5
ATOM      5  C   UNL A   1      31.947  26.322  23.928  1.00  0.00     0.104 C 
ATOM      6  C   UNL A   1      31.569  25.739  25.291  1.00  0.00     0.022 C 
ATOM      7  C   UNL A   1      32.433  26.527  26.283  1.00  0.00     0.006 C 
ATOM      8  C   UNL A   1      33.654  27.017  25.501  1.00  0.00     0.001 C 
ATOM      9  C   UNL A   1      33.436  26.623  24.046  1.00  0.00     0.016 C 
BRANCH   6  10
ATOM     10  C   UNL A   1      30.062  25.611  25.613  1.00  0.00     0.122 C 
BRANCH  10  11
ATOM     11  N   UNL A   1      29.737  24.507  26.499  1.00  0.00    -0.338 N 
ATOM     12  C   UNL A   1      30.239  23.330  26.888  1.00  0.00     0.317 C 
ATOM     13  O   UNL A   1      29.489  22.683  27.632  1.00  0.00    -0.249 OA
ATOM     14  H   UNL A   1      28.882  24.679  26.955  1.00  0.00     0.165 HD
BRANCH  12  15
ATOM     15  N   UNL A   1      31.439  22.836  26.518  1.00  0.00    -0.324 N 
ATOM     16  C   UNL A   1      35.151  22.513  26.259  1.00  0.00     0.010 C 
ATOM     17  C   UNL A   1      33.698  22.772  25.914  1.00  0.00     0.010 C 
ATOM     18  C   UNL A   1      32.766  22.875  27.124  1.00  0.00     0.125 C 
ATOM     19  C   UNL A   1      32.985  21.722  25.049  1.00  0.00     0.010 C 
ATOM     20  C   UNL A   1      31.514  22.113  25.246  1.00  0.00     0.125 C 
ATOM     21  C   UNL A   1      33.238  20.274  25.463  1.00  0.00     0.010 C 
ENDBRANCH  12  15
ENDBRANCH  10  11
ENDBRANCH   6  10
ENDBRANCH   3   5
ENDBRANCH   2   3
ENDBRANCH   1   2
BRANCH   1  22
ATOM     22  C   UNL A   1      31.426  30.439  25.653  1.00  0.00     0.275 C 
BRANCH  22  23
ATOM     23  O   UNL A   1      32.566  30.203  26.504  1.00  0.00    -0.458 OA
BRANCH  23  24
ATOM     24  C   UNL A   1      33.103  31.314  27.066  1.00  0.00     0.338 C 
ATOM     25  O   UNL A   1      32.533  32.380  27.252  1.00  0.00    -0.246 OA
BRANCH  24  26
ATOM     26  C   UNL A   1      34.449  31.033  27.608  1.00  0.00     0.060 A 
ATOM     27  C   UNL A   1      34.742  29.703  27.936  1.00  0.00     0.016 A 
ATOM     28  C   UNL A   1      35.378  32.039  27.872  1.00  0.00     0.016 A 
ATOM     29  C   UNL A   1      35.953  29.367  28.530  1.00  0.00     0.010 A 
ATOM     30  C   UNL A   1      36.589  31.706  28.494  1.00  0.00     0.010 A 
ATOM     31  C   UNL A   1      36.872  30.371  28.844  1.00  0.00    -0.014 A 
BRANCH  31  32
ATOM     32  C   UNL A   1      38.061  30.023  29.656  1.00  0.00     0.031 A 
ATOM     33  C   UNL A   1      39.094  29.097  29.077  1.00  0.00     0.074 A 
ATOM     34  C   UNL A   1      38.240  30.564  30.874  1.00  0.00     0.049 A 
ATOM     35  N   UNL A   1      40.186  28.631  29.622  1.00  0.00    -0.248 NA
ATOM     36  C   UNL A   1      38.865  28.638  27.697  1.00  0.00     0.031 C 
ATOM     37  C   UNL A   1      37.331  31.510  31.520  1.00  0.00     0.029 A 
ATOM     38  N   UNL A   1      39.244  30.380  31.793  1.00  0.00    -0.354 N 
ATOM     39  C   UNL A   1      40.756  27.794  28.670  1.00  0.00     0.074 A 
ATOM     40  C   UNL A   1      39.889  27.818  27.512  1.00  0.00     0.031 C 
ATOM     41  C   UNL A   1      37.804  31.803  32.743  1.00  0.00     0.029 A 
ATOM     42  C   UNL A   1      39.028  31.040  32.980  1.00  0.00     0.049 A 
ATOM     43  H   UNL A   1      40.041  29.829  31.619  1.00  0.00     0.167 HD
ATOM     44  C   UNL A   1      41.902  27.078  28.751  1.00  0.00     0.034 A 
ATOM     45  C   UNL A   1      39.724  31.006  34.134  1.00  0.00     0.034 A 
ATOM     46  C   UNL A   1      42.772  27.077  29.895  1.00  0.00     0.049 A 
ATOM     47  C   UNL A   1      40.976  30.171  34.211  1.00  0.00     0.074 A 
ATOM     48  C   UNL A   1      43.969  26.405  30.067  1.00  0.00     0.029 A 
ATOM     49  N   UNL A   1      42.534  27.775  31.070  1.00  0.00    -0.354 N 
ATOM     50  N   UNL A   1      41.546  29.450  33.275  1.00  0.00    -0.248 NA
ATOM     51  C   UNL A   1      41.695  30.165  35.493  1.00  0.00     0.031 C 
ATOM     52  C   UNL A   1      44.442  26.677  31.354  1.00  0.00     0.029 A 
ATOM     53  C   UNL A   1      43.555  27.543  31.975  1.00  0.00     0.049 A 
ATOM     54  H   UNL A   1      41.753  28.352  31.235  1.00  0.00     0.167 HD
ATOM     55  C   UNL A   1      42.706  28.933  33.844  1.00  0.00     0.074 A 
ATOM     56  C   UNL A   1      42.767  29.443  35.198  1.00  0.00     0.031 C 
ATOM     57  C   UNL A   1      43.629  28.102  33.301  1.00  0.00     0.034 A 
BRANCH  44  58
ATOM     58  C   UNL A   1      42.283  26.237  27.562  1.00  0.00     0.023 A 
ATOM     59  C   UNL A   1      43.054  26.797  26.524  1.00  0.00     0.012 A 
ATOM     60  C   UNL A   1      41.914  24.879  27.494  1.00  0.00     0.148 A 
ATOM     61  C   UNL A   1      43.425  26.029  25.421  1.00  0.00     0.002 A 
ATOM     62  C   UNL A   1      42.323  24.108  26.412  1.00  0.00     0.091 A 
ATOM     63  F   UNL A   1      41.160  24.371  28.479  1.00  0.00    -0.205 F 
ATOM     64  C   UNL A   1      43.068  24.683  25.369  1.00  0.00     0.022 A 
BRANCH  62  65
ATOM     65  S   UNL A   1      41.977  22.349  26.291  1.00  0.00     0.127 S 
ATOM     66  O   UNL A   1      42.653  22.001  25.041  1.00  0.00    -0.237 OA
ATOM     67  O   UNL A   1      42.617  21.826  27.497  1.00  0.00    -0.237 OA
ATOM     68  O   UNL A   1      40.525  22.227  26.272  1.00  0.00    -0.744 OA
ENDBRANCH  62  65
ENDBRANCH  44  58
BRANCH  45  69
ATOM     69  C   UNL A   1      39.261  31.800  35.308  1.00  0.00     0.023 A 
ATOM     70  C   UNL A   1      38.365  31.225  36.230  1.00  0.00     0.012 A 
ATOM     71  C   UNL A   1      39.713  33.118  35.522  1.00  0.00     0.148 A 
ATOM     72  C   UNL A   1      37.906  31.957  37.326  1.00  0.00     0.002 A 
ATOM     73  C   UNL A   1      39.298  33.819  36.647  1.00  0.00     0.091 A 
ATOM     74  F   UNL A   1      40.549  33.655  34.623  1.00  0.00    -0.205 F 
ATOM     75  C   UNL A   1      38.381  33.248  37.541  1.00  0.00     0.022 A 
BRANCH  73  76
ATOM     76  S   UNL A   1      39.958  35.435  37.071  1.00  0.00     0.127 S 
ATOM     77  O   UNL A   1      39.242  35.736  38.308  1.00  0.00    -0.237 OA
ATOM     78  O   UNL A   1      41.383  35.145  37.237  1.00  0.00    -0.237 OA
ATOM     79  O   UNL A   1      39.649  36.296  35.935  1.00  0.00    -0.744 OA
ENDBRANCH  73  76
ENDBRANCH  45  69
BRANCH  57  80
ATOM     80  C   UNL A   1      44.811  27.717  34.152  1.00  0.00     0.023 A 
ATOM     81  C   UNL A   1      45.957  28.535  34.173  1.00  0.00     0.012 A 
ATOM     82  C   UNL A   1      44.753  26.587  34.992  1.00  0.00     0.148 A 
ATOM     83  C   UNL A   1      47.041  28.217  34.991  1.00  0.00     0.002 A 
ATOM     84  C   UNL A   1      45.815  26.304  35.843  1.00  0.00     0.091 A 
ATOM     85  F   UNL A   1      43.660  25.811  34.946  1.00  0.00    -0.205 F 
ATOM     86  C   UNL A   1      46.965  27.109  35.835  1.00  0.00     0.022 A 
BRANCH  84  87
ATOM     87  S   UNL A   1      45.763  24.957  37.031  1.00  0.00     0.127 S 
ATOM     88  O   UNL A   1      44.502  25.217  37.721  1.00  0.00    -0.237 OA
ATOM     89  O   UNL A   1      45.752  23.778  36.163  1.00  0.00    -0.237 OA
ATOM     90  O   UNL A   1      46.963  25.095  37.845  1.00  0.00    -0.744 OA
ENDBRANCH  84  87
ENDBRANCH  57  80
ENDBRANCH  31  32
ENDBRANCH  24  26
ENDBRANCH  23  24
ENDBRANCH  22  23
ENDBRANCH   1  22
TORSDOF 17
ENDMDL
MODEL 3
REMARK VINA RESULT:     -11.5      4.863     10.346
REMARK SMILES C[C@@H]1CN(C(=O)NC[C@@H]2CCC[C@@H]2C(=O)OCCOC(=O)c2ccc(-c3c4nc(c(-c5cccc(S(=O)(=O)[O-])c5F)c5ccc([nH]5)c(-c5cccc(S(=O)(=O)[O-])c5F)c5nc(c(-c6cccc(S(=O)(=O)[O-])c6F)c6ccc3[nH]6)C=C5)C=C4)cc2)C[C@@H]1C
REMARK SMILES IDX 17 1 16 2 14 3 15 4 13 5 9 6 10 7 11 8 12 9 8 10 7 11 5 12
REMARK SMILES IDX 6 13 4 15 1 16 2 17 3 18 86 19 85 20 87 21 18 22 19 23 20 24
REMARK SMILES IDX 21 25 22 26 23 27 84 28 24 29 83 30 25 31 26 32 27 33 77 34
REMARK SMILES IDX 28 35 82 36 76 37 78 38 29 39 81 40 75 41 74 42 30 44 62 45
REMARK SMILES IDX 42 46 61 47 43 48 46 49 60 50 79 51 44 52 45 53 59 55 80 56
REMARK SMILES IDX 47 57 31 58 32 59 40 60 33 61 35 62 41 63 34 64 36 65 37 66
REMARK SMILES IDX 38 67 39 68 63 69 64 70 72 71 65 72 67 73 73 74 66 75 68 76
REMARK SMILES IDX 69 77 70 78 71 79 48 80 49 81 57 82 50 83 52 84 58 85 51 86
REMARK SMILES IDX 53 87 54 88 55 89 56 90
REMARK H PARENT 7 14 78 43 46 54
REMARK Flexibility Score: inf
ROOT
ATOM      1  C   UNL A   1      36.114  20.259  25.138  1.00  0.00     0.274 C 
ENDROOT
BRANCH   1   2
ATOM      2  O   UNL A   1      35.888  21.579  25.674  1.00  0.00    -0.462 OA
BRANCH   2   3
ATOM      3  C   UNL A   1      34.608  21.828  26.032  1.00  0.00     0.309 C 
ATOM      4  O   UNL A   1      33.973  21.146  26.825  1.00  0.00    -0.252 OA
BRANCH   3   5
ATOM      5  C   UNL A   1      33.978  23.044  25.400  1.00  0.00     0.104 C 
ATOM      6  C   UNL A   1      32.746  22.763  24.538  1.00  0.00     0.022 C 
ATOM      7  C   UNL A   1      33.318  22.566  23.128  1.00  0.00     0.006 C 
ATOM      8  C   UNL A   1      34.644  23.329  23.088  1.00  0.00     0.001 C 
ATOM      9  C   UNL A   1      34.896  23.855  24.495  1.00  0.00     0.016 C 
BRANCH   6  10
ATOM     10  C   UNL A   1      31.749  21.698  25.051  1.00  0.00     0.122 C 
BRANCH  10  11
ATOM     11  N   UNL A   1      30.865  22.169  26.102  1.00  0.00    -0.338 N 
ATOM     12  C   UNL A   1      30.431  23.319  26.629  1.00  0.00     0.317 C 
ATOM     13  O   UNL A   1      29.720  23.177  27.633  1.00  0.00    -0.249 OA
ATOM     14  H   UNL A   1      30.460  21.406  26.572  1.00  0.00     0.165 HD
BRANCH  12  15
ATOM     15  N   UNL A   1      30.727  24.550  26.161  1.00  0.00    -0.324 N 
ATOM     16  C   UNL A   1      30.942  27.420  23.781  1.00  0.00     0.010 C 
ATOM     17  C   UNL A   1      31.319  26.250  24.666  1.00  0.00     0.010 C 
ATOM     18  C   UNL A   1      30.135  25.396  25.130  1.00  0.00     0.125 C 
ATOM     19  C   UNL A   1      32.019  26.573  25.995  1.00  0.00     0.010 C 
ATOM     20  C   UNL A   1      31.879  25.241  26.745  1.00  0.00     0.125 C 
ATOM     21  C   UNL A   1      31.397  27.725  26.781  1.00  0.00     0.010 C 
ENDBRANCH  12  15
ENDBRANCH  10  11
ENDBRANCH   6  10
ENDBRANCH   3   5
ENDBRANCH   2   3
ENDBRANCH   1   2
BRANCH   1  22
ATOM     22  C   UNL A   1      37.597  19.860  25.044  1.00  0.00     0.275 C 
BRANCH  22  23
ATOM     23  O   UNL A   1      38.503  20.976  25.158  1.00  0.00    -0.458 OA
BRANCH  23  24
ATOM     24  C   UNL A   1      39.523  20.801  26.035  1.00  0.00     0.338 C 
ATOM     25  O   UNL A   1      40.125  19.759  26.247  1.00  0.00    -0.246 OA
BRANCH  24  26
ATOM     26  C   UNL A   1      39.958  22.095  26.602  1.00  0.00     0.060 A 
ATOM     27  C   UNL A   1      39.357  23.252  26.092  1.00  0.00     0.016 A 
ATOM     28  C   UNL A   1      40.981  22.196  27.544  1.00  0.00     0.016 A 
ATOM     29  C   UNL A   1      39.770  24.512  26.510  1.00  0.00     0.010 A 
ATOM     30  C   UNL A   1      41.417  23.465  27.948  1.00  0.00     0.010 A 
ATOM     31  C   UNL A   1      40.827  24.628  27.416  1.00  0.00    -0.014 A 
BRANCH  31  32
ATOM     32  C   UNL A   1      41.386  25.972  27.693  1.00  0.00     0.031 A 
ATOM     33  C   UNL A   1      42.771  26.300  27.209  1.00  0.00     0.074 A 
ATOM     34  C   UNL A   1      40.650  26.902  28.326  1.00  0.00     0.049 A 
ATOM     35  N   UNL A   1      43.468  27.393  27.372  1.00  0.00    -0.248 NA
ATOM     36  C   UNL A   1      43.461  25.255  26.435  1.00  0.00     0.031 C 
ATOM     37  C   UNL A   1      39.279  26.715  28.799  1.00  0.00     0.029 A 
ATOM     38  N   UNL A   1      40.962  28.189  28.693  1.00  0.00    -0.354 N 
ATOM     39  C   UNL A   1      44.691  27.157  26.757  1.00  0.00     0.074 A 
ATOM     40  C   UNL A   1      44.641  25.816  26.215  1.00  0.00     0.031 C 
ATOM     41  C   UNL A   1      38.876  27.837  29.421  1.00  0.00     0.029 A 
ATOM     42  C   UNL A   1      39.970  28.806  29.419  1.00  0.00     0.049 A 
ATOM     43  H   UNL A   1      41.812  28.626  28.460  1.00  0.00     0.167 HD
ATOM     44  C   UNL A   1      45.756  27.986  26.646  1.00  0.00     0.034 A 
ATOM     45  C   UNL A   1      39.961  30.004  30.036  1.00  0.00     0.034 A 
ATOM     46  C   UNL A   1      45.791  29.326  27.165  1.00  0.00     0.049 A 
ATOM     47  C   UNL A   1      41.173  30.893  29.929  1.00  0.00     0.074 A 
ATOM     48  C   UNL A   1      46.813  30.255  27.083  1.00  0.00     0.029 A 
ATOM     49  N   UNL A   1      44.761  29.926  27.874  1.00  0.00    -0.354 N 
ATOM     50  N   UNL A   1      42.292  30.689  29.274  1.00  0.00    -0.248 NA
ATOM     51  C   UNL A   1      41.114  32.187  30.624  1.00  0.00     0.031 C 
ATOM     52  C   UNL A   1      46.410  31.408  27.763  1.00  0.00     0.029 A 
ATOM     53  C   UNL A   1      45.125  31.209  28.244  1.00  0.00     0.049 A 
ATOM     54  H   UNL A   1      43.897  29.502  28.082  1.00  0.00     0.167 HD
ATOM     55  C   UNL A   1      43.053  31.840  29.450  1.00  0.00     0.074 A 
ATOM     56  C   UNL A   1      42.258  32.746  30.253  1.00  0.00     0.031 C 
ATOM     57  C   UNL A   1      44.301  32.118  28.998  1.00  0.00     0.034 A 
BRANCH  44  58
ATOM     58  C   UNL A   1      46.973  27.464  25.928  1.00  0.00     0.023 A 
ATOM     59  C   UNL A   1      47.083  27.616  24.531  1.00  0.00     0.012 A 
ATOM     60  C   UNL A   1      48.026  26.862  26.643  1.00  0.00     0.148 A 
ATOM     61  C   UNL A   1      48.207  27.149  23.853  1.00  0.00     0.002 A 
ATOM     62  C   UNL A   1      49.163  26.437  25.966  1.00  0.00     0.091 A 
ATOM     63  F   UNL A   1      47.892  26.705  27.968  1.00  0.00    -0.205 F 
ATOM     64  C   UNL A   1      49.251  26.569  24.571  1.00  0.00     0.022 A 
BRANCH  62  65
ATOM     65  S   UNL A   1      50.590  25.745  26.810  1.00  0.00     0.127 S 
ATOM     66  O   UNL A   1      50.065  24.461  27.273  1.00  0.00    -0.237 OA
ATOM     67  O   UNL A   1      51.570  25.648  25.728  1.00  0.00    -0.237 OA
ATOM     68  O   UNL A   1      50.936  26.695  27.859  1.00  0.00    -0.744 OA
ENDBRANCH  62  65
ENDBRANCH  44  58
BRANCH  45  69
ATOM     69  C   UNL A   1      38.757  30.442  30.798  1.00  0.00     0.023 A 
ATOM     70  C   UNL A   1      38.679  30.195  32.182  1.00  0.00     0.012 A 
ATOM     71  C   UNL A   1      37.694  31.114  30.161  1.00  0.00     0.148 A 
ATOM     72  C   UNL A   1      37.553  30.581  32.912  1.00  0.00     0.002 A 
ATOM     73  C   UNL A   1      36.603  31.547  30.904  1.00  0.00     0.091 A 
ATOM     74  F   UNL A   1      37.777  31.322  28.840  1.00  0.00    -0.205 F 
ATOM     75  C   UNL A   1      36.521  31.266  32.275  1.00  0.00     0.022 A 
BRANCH  73  76
ATOM     76  S   UNL A   1      35.292  32.549  30.193  1.00  0.00     0.127 S 
ATOM     77  O   UNL A   1      36.018  33.752  29.793  1.00  0.00    -0.237 OA
ATOM     78  O   UNL A   1      34.835  31.707  29.087  1.00  0.00    -0.237 OA
ATOM     79  O   UNL A   1      34.312  32.726  31.257  1.00  0.00    -0.744 OA
ENDBRANCH  73  76
ENDBRANCH  45  69
BRANCH  57  80
ATOM     80  C   UNL A   1      44.878  33.471  29.326  1.00  0.00     0.023 A 
ATOM     81  C   UNL A   1      45.594  33.658  30.524  1.00  0.00     0.012 A 
ATOM     82  C   UNL A   1      44.778  34.535  28.407  1.00  0.00     0.148 A 
ATOM     83  C   UNL A   1      46.174  34.892  30.819  1.00  0.00     0.002 A 
ATOM     84  C   UNL A   1      45.401  35.747  28.684  1.00  0.00     0.091 A 
ATOM     85  F   UNL A   1      44.078  34.343  27.279  1.00  0.00    -0.205 F 
ATOM     86  C   UNL A   1      46.088  35.931  29.894  1.00  0.00     0.022 A 
BRANCH  84  87
ATOM     87  S   UNL A   1      45.426  37.106  27.509  1.00  0.00     0.127 S 
ATOM     88  O   UNL A   1      44.002  37.396  27.360  1.00  0.00    -0.237 OA
ATOM     89  O   UNL A   1      46.184  38.128  28.233  1.00  0.00    -0.237 OA
ATOM     90  O   UNL A   1      46.089  36.594  26.318  1.00  0.00    -0.744 OA
ENDBRANCH  84  87
ENDBRANCH  57  80
ENDBRANCH  31  32
ENDBRANCH  24  26
ENDBRANCH  23  24
ENDBRANCH  22  23
ENDBRANCH   1  22
TORSDOF 17
ENDMDL
