MODEL 1
REMARK VINA RESULT:     -13.3      0.000      0.000
REMARK SMILES O=C(OCCOC(=O)c1ccc([C@H]2Nc3ccc(Cl)cc3[C@@H]3C=CC[C@@H]23)cc1)c1ccc(-c2c3nc(c(-c4cccc(S(=O)(=O)[O-])c4F)c4ccc([nH]4)c(-c4cccc(S(=O)(=O)[O-])c4F)c4nc(c(-c5cccc(S(=O)(=O)[O-])c5F)c5ccc2[nH]5)C=C4)C=C3)cc1
REMARK SMILES IDX 4 1 3 2 2 3 1 4 29 5 30 6 91 7 31 8 90 9 32 10 33 11 34 12
REMARK SMILES IDX 84 13 35 14 89 15 83 16 85 17 36 18 88 19 82 20 81 21 37 23
REMARK SMILES IDX 69 24 49 25 68 26 50 27 53 28 67 29 86 30 51 31 52 32 66 34
REMARK SMILES IDX 87 35 54 36 38 37 39 38 47 39 40 40 42 41 48 42 41 43 43 44
REMARK SMILES IDX 44 45 45 46 46 47 70 48 71 49 79 50 72 51 74 52 80 53 73 54
REMARK SMILES IDX 75 55 76 56 77 57 78 58 55 59 56 60 64 61 57 62 59 63 65 64
REMARK SMILES IDX 58 65 60 66 61 67 62 68 63 69 5 70 6 71 7 72 8 73 9 74 10 75
REMARK SMILES IDX 28 76 11 77 27 78 12 79 13 80 14 81 26 82 15 83 22 85 25 86
REMARK SMILES IDX 16 87 21 88 23 89 24 90 17 91 20 92 18 93 19 94
REMARK H PARENT 85 22 53 33 14 84
REMARK Flexibility Score: inf
ROOT
ATOM      1  C   UNL A   1      31.404  30.489  25.712  1.00  0.00     0.275 C 
ENDROOT
BRANCH   1   2
ATOM      2  O   UNL A   1      32.783  30.657  26.067  1.00  0.00    -0.458 OA
BRANCH   2   3
ATOM      3  C   UNL A   1      33.332  31.394  27.059  1.00  0.00     0.338 C 
ATOM      4  O   UNL A   1      32.757  32.428  27.399  1.00  0.00    -0.246 OA
BRANCH   3   5
ATOM      5  C   UNL A   1      34.648  31.080  27.706  1.00  0.00     0.060 A 
ATOM      6  C   UNL A   1      35.683  31.980  27.980  1.00  0.00     0.016 A 
ATOM      7  C   UNL A   1      34.846  29.739  28.068  1.00  0.00     0.016 A 
ATOM      8  C   UNL A   1      36.834  31.585  28.667  1.00  0.00     0.010 A 
ATOM      9  C   UNL A   1      36.001  29.342  28.742  1.00  0.00     0.010 A 
ATOM     10  C   UNL A   1      36.998  30.264  29.069  1.00  0.00    -0.014 A 
BRANCH  10  11
ATOM     11  C   UNL A   1      38.241  29.860  29.764  1.00  0.00     0.031 A 
ATOM     12  C   UNL A   1      38.507  30.368  31.147  1.00  0.00     0.074 A 
ATOM     13  C   UNL A   1      39.110  29.023  29.162  1.00  0.00     0.049 A 
ATOM     14  N   UNL A   1      39.490  30.068  31.953  1.00  0.00    -0.248 NA
ATOM     15  C   UNL A   1      37.539  31.327  31.703  1.00  0.00     0.031 C 
ATOM     16  C   UNL A   1      38.952  28.480  27.814  1.00  0.00     0.029 A 
ATOM     17  N   UNL A   1      40.304  28.498  29.586  1.00  0.00    -0.354 N 
ATOM     18  C   UNL A   1      39.247  30.783  33.118  1.00  0.00     0.074 A 
ATOM     19  C   UNL A   1      38.067  31.586  32.889  1.00  0.00     0.031 C 
ATOM     20  C   UNL A   1      40.027  27.739  27.500  1.00  0.00     0.029 A 
ATOM     21  C   UNL A   1      40.940  27.731  28.637  1.00  0.00     0.049 A 
ATOM     22  H   UNL A   1      40.671  28.656  30.485  1.00  0.00     0.167 HD
ATOM     23  C   UNL A   1      39.918  30.733  34.292  1.00  0.00     0.034 A 
ATOM     24  C   UNL A   1      42.121  27.085  28.686  1.00  0.00     0.034 A 
ATOM     25  C   UNL A   1      41.091  29.934  34.506  1.00  0.00     0.049 A 
ATOM     26  C   UNL A   1      42.873  27.079  29.990  1.00  0.00     0.074 A 
ATOM     27  C   UNL A   1      41.847  29.801  35.656  1.00  0.00     0.029 A 
ATOM     28  N   UNL A   1      41.686  29.136  33.539  1.00  0.00    -0.354 N 
ATOM     29  N   UNL A   1      42.554  27.657  31.123  1.00  0.00    -0.248 NA
ATOM     30  C   UNL A   1      44.106  26.283  30.046  1.00  0.00     0.031 C 
ATOM     31  C   UNL A   1      42.912  28.937  35.377  1.00  0.00     0.029 A 
ATOM     32  C   UNL A   1      42.800  28.508  34.063  1.00  0.00     0.049 A 
ATOM     33  H   UNL A   1      41.361  29.032  32.616  1.00  0.00     0.167 HD
ATOM     34  C   UNL A   1      43.518  27.256  32.040  1.00  0.00     0.074 A 
ATOM     35  C   UNL A   1      44.421  26.371  31.331  1.00  0.00     0.031 C 
ATOM     36  C   UNL A   1      43.653  27.594  33.346  1.00  0.00     0.034 A 
BRANCH  23  37
ATOM     37  C   UNL A   1      39.355  31.539  35.431  1.00  0.00     0.023 A 
ATOM     38  C   UNL A   1      38.396  30.951  36.285  1.00  0.00     0.012 A 
ATOM     39  C   UNL A   1      39.761  32.865  35.657  1.00  0.00     0.148 A 
ATOM     40  C   UNL A   1      37.815  31.687  37.315  1.00  0.00     0.002 A 
ATOM     41  C   UNL A   1      39.211  33.580  36.716  1.00  0.00     0.091 A 
ATOM     42  F   UNL A   1      40.659  33.410  34.824  1.00  0.00    -0.205 F 
ATOM     43  C   UNL A   1      38.228  32.998  37.534  1.00  0.00     0.022 A 
BRANCH  41  44
ATOM     44  S   UNL A   1      39.716  35.253  37.125  1.00  0.00     0.127 S 
ATOM     45  O   UNL A   1      38.909  35.521  38.314  1.00  0.00    -0.237 OA
ATOM     46  O   UNL A   1      41.146  35.083  37.384  1.00  0.00    -0.237 OA
ATOM     47  O   UNL A   1      39.398  36.067  35.961  1.00  0.00    -0.744 OA
ENDBRANCH  41  44
ENDBRANCH  23  37
BRANCH  24  48
ATOM     48  C   UNL A   1      42.635  26.345  27.497  1.00  0.00     0.023 A 
ATOM     49  C   UNL A   1      43.412  27.012  26.529  1.00  0.00     0.012 A 
ATOM     50  C   UNL A   1      42.344  24.979  27.316  1.00  0.00     0.148 A 
ATOM     51  C   UNL A   1      43.844  26.346  25.380  1.00  0.00     0.002 A 
ATOM     52  C   UNL A   1      42.820  24.308  26.195  1.00  0.00     0.091 A 
ATOM     53  F   UNL A   1      41.603  24.359  28.246  1.00  0.00    -0.205 F 
ATOM     54  C   UNL A   1      43.553  24.994  25.214  1.00  0.00     0.022 A 
BRANCH  52  55
ATOM     55  S   UNL A   1      42.589  22.542  25.967  1.00  0.00     0.127 S 
ATOM     56  O   UNL A   1      43.114  22.344  24.618  1.00  0.00    -0.237 OA
ATOM     57  O   UNL A   1      43.415  21.987  27.040  1.00  0.00    -0.237 OA
ATOM     58  O   UNL A   1      41.159  22.315  26.136  1.00  0.00    -0.744 OA
ENDBRANCH  52  55
ENDBRANCH  24  48
BRANCH  36  59
ATOM     59  C   UNL A   1      44.793  26.972  34.104  1.00  0.00     0.023 A 
ATOM     60  C   UNL A   1      46.050  27.608  34.134  1.00  0.00     0.012 A 
ATOM     61  C   UNL A   1      44.595  25.790  34.846  1.00  0.00     0.148 A 
ATOM     62  C   UNL A   1      47.103  27.057  34.862  1.00  0.00     0.002 A 
ATOM     63  C   UNL A   1      45.631  25.278  35.614  1.00  0.00     0.091 A 
ATOM     64  F   UNL A   1      43.397  25.190  34.784  1.00  0.00    -0.205 F 
ATOM     65  C   UNL A   1      46.890  25.902  35.612  1.00  0.00     0.022 A 
BRANCH  63  66
ATOM     66  S   UNL A   1      45.415  23.859  36.691  1.00  0.00     0.127 S 
ATOM     67  O   UNL A   1      46.781  23.629  37.157  1.00  0.00    -0.237 OA
ATOM     68  O   UNL A   1      44.503  24.380  37.710  1.00  0.00    -0.237 OA
ATOM     69  O   UNL A   1      44.852  22.806  35.858  1.00  0.00    -0.744 OA
ENDBRANCH  63  66
ENDBRANCH  36  59
ENDBRANCH  10  11
ENDBRANCH   3   5
ENDBRANCH   2   3
ENDBRANCH   1   2
BRANCH   1  70
ATOM     70  C   UNL A   1      31.133  29.461  24.606  1.00  0.00     0.275 C 
BRANCH  70  71
ATOM     71  O   UNL A   1      29.908  29.665  23.878  1.00  0.00    -0.458 OA
BRANCH  71  72
ATOM     72  C   UNL A   1      29.813  28.983  22.703  1.00  0.00     0.338 C 
ATOM     73  O   UNL A   1      29.510  29.468  21.623  1.00  0.00    -0.246 OA
BRANCH  72  74
ATOM     74  C   UNL A   1      30.256  27.574  22.859  1.00  0.00     0.060 A 
ATOM     75  C   UNL A   1      31.405  27.175  22.172  1.00  0.00     0.016 A 
ATOM     76  C   UNL A   1      29.569  26.638  23.634  1.00  0.00     0.016 A 
ATOM     77  C   UNL A   1      31.891  25.867  22.303  1.00  0.00     0.007 A 
ATOM     78  C   UNL A   1      30.063  25.326  23.763  1.00  0.00     0.007 A 
ATOM     79  C   UNL A   1      31.251  24.922  23.124  1.00  0.00    -0.025 A 
BRANCH  79  80
ATOM     80  C   UNL A   1      31.829  23.520  23.369  1.00  0.00     0.114 C 
ATOM     81  N   UNL A   1      33.191  23.385  22.797  1.00  0.00    -0.378 N 
ATOM     82  C   UNL A   1      31.934  23.084  24.834  1.00  0.00     0.031 C 
ATOM     83  C   UNL A   1      34.332  23.357  23.602  1.00  0.00     0.038 A 
ATOM     84  H   UNL A   1      33.293  23.312  21.821  1.00  0.00     0.161 HD
ATOM     85  C   UNL A   1      32.920  24.014  25.555  1.00  0.00     0.049 C 
ATOM     86  C   UNL A   1      30.732  22.940  25.748  1.00  0.00     0.034 C 
ATOM     87  C   UNL A   1      35.561  22.960  23.067  1.00  0.00     0.027 A 
ATOM     88  C   UNL A   1      34.276  23.703  24.977  1.00  0.00    -0.016 A 
ATOM     89  C   UNL A   1      32.607  23.685  26.982  1.00  0.00    -0.023 C 
ATOM     90  C   UNL A   1      31.393  23.125  27.089  1.00  0.00    -0.030 C 
ATOM     91  C   UNL A   1      36.711  22.931  23.865  1.00  0.00     0.022 A 
ATOM     92  C   UNL A   1      35.442  23.743  25.752  1.00  0.00     0.027 A 
ATOM     93  C   UNL A   1      36.650  23.344  25.194  1.00  0.00     0.041 A 
ATOM     94  Cl  UNL A   1      38.076  23.338  26.159  1.00  0.00    -0.084 Cl
ENDBRANCH  79  80
ENDBRANCH  72  74
ENDBRANCH  71  72
ENDBRANCH  70  71
ENDBRANCH   1  70
TORSDOF 15
ENDMDL
MODEL 2
REMARK VINA RESULT:     -13.3      4.879     10.038
REMARK SMILES O=C(OCCOC(=O)c1ccc([C@H]2Nc3ccc(Cl)cc3[C@@H]3C=CC[C@@H]23)cc1)c1ccc(-c2c3nc(c(-c4cccc(S(=O)(=O)[O-])c4F)c4ccc([nH]4)c(-c4cccc(S(=O)(=O)[O-])c4F)c4nc(c(-c5cccc(S(=O)(=O)[O-])c5F)c5ccc2[nH]5)C=C4)C=C3)cc1
REMARK SMILES IDX 4 1 3 2 2 3 1 4 29 5 30 6 91 7 31 8 90 9 32 10 33 11 34 12
REMARK SMILES IDX 84 13 35 14 89 15 83 16 85 17 36 18 88 19 82 20 81 21 37 23
REMARK SMILES IDX 69 24 49 25 68 26 50 27 53 28 67 29 86 30 51 31 52 32 66 34
REMARK SMILES IDX 87 35 54 36 38 37 39 38 47 39 40 40 42 41 48 42 41 43 43 44
REMARK SMILES IDX 44 45 45 46 46 47 70 48 71 49 79 50 72 51 74 52 80 53 73 54
REMARK SMILES IDX 75 55 76 56 77 57 78 58 55 59 56 60 64 61 57 62 59 63 65 64
REMARK SMILES IDX 58 65 60 66 61 67 62 68 63 69 5 70 6 71 7 72 8 73 9 74 10 75
REMARK SMILES IDX 28 76 11 77 27 78 12 79 13 80 14 81 26 82 15 83 22 85 25 86
REMARK SMILES IDX 16 87 21 88 23 89 24 90 17 91 20 92 18 93 19 94
REMARK H PARENT 85 22 53 33 14 84
REMARK Flexibility Score: inf
ROOT
ATOM      1  C   UNL A   1      36.447  20.449  24.961  1.00  0.00     0.275 C 
ENDROOT
BRANCH   1   2
ATOM      2  O   UNL A   1      37.201  21.415  25.707  1.00  0.00    -0.458 OA
BRANCH   2   3
ATOM      3  C   UNL A   1      38.531  21.465  25.952  1.00  0.00     0.338 C 
ATOM      4  O   UNL A   1      39.191  20.441  25.777  1.00  0.00    -0.246 OA
BRANCH   3   5
ATOM      5  C   UNL A   1      39.234  22.665  26.514  1.00  0.00     0.060 A 
ATOM      6  C   UNL A   1      40.290  22.663  27.431  1.00  0.00     0.016 A 
ATOM      7  C   UNL A   1      38.772  23.910  26.064  1.00  0.00     0.016 A 
ATOM      8  C   UNL A   1      40.924  23.846  27.819  1.00  0.00     0.010 A 
ATOM      9  C   UNL A   1      39.397  25.093  26.461  1.00  0.00     0.010 A 
ATOM     10  C   UNL A   1      40.493  25.073  27.325  1.00  0.00    -0.014 A 
BRANCH  10  11
ATOM     11  C   UNL A   1      41.157  26.316  27.778  1.00  0.00     0.031 A 
ATOM     12  C   UNL A   1      42.594  26.551  27.428  1.00  0.00     0.074 A 
ATOM     13  C   UNL A   1      40.462  27.237  28.476  1.00  0.00     0.049 A 
ATOM     14  N   UNL A   1      43.330  27.605  27.656  1.00  0.00    -0.248 NA
ATOM     15  C   UNL A   1      43.294  25.466  26.720  1.00  0.00     0.031 C 
ATOM     16  C   UNL A   1      39.063  27.103  28.878  1.00  0.00     0.029 A 
ATOM     17  N   UNL A   1      40.833  28.453  28.991  1.00  0.00    -0.354 N 
ATOM     18  C   UNL A   1      44.570  27.321  27.103  1.00  0.00     0.074 A 
ATOM     19  C   UNL A   1      44.511  25.970  26.592  1.00  0.00     0.031 C 
ATOM     20  C   UNL A   1      38.705  28.166  29.616  1.00  0.00     0.029 A 
ATOM     21  C   UNL A   1      39.842  29.073  29.718  1.00  0.00     0.049 A 
ATOM     22  H   UNL A   1      41.725  28.845  28.854  1.00  0.00     0.167 HD
ATOM     23  C   UNL A   1      45.644  28.134  26.982  1.00  0.00     0.034 A 
ATOM     24  C   UNL A   1      39.849  30.246  30.379  1.00  0.00     0.034 A 
ATOM     25  C   UNL A   1      45.693  29.473  27.496  1.00  0.00     0.049 A 
ATOM     26  C   UNL A   1      41.072  31.115  30.268  1.00  0.00     0.074 A 
ATOM     27  C   UNL A   1      46.726  30.390  27.426  1.00  0.00     0.029 A 
ATOM     28  N   UNL A   1      44.659  30.087  28.190  1.00  0.00    -0.354 N 
ATOM     29  N   UNL A   1      42.190  30.881  29.623  1.00  0.00    -0.248 NA
ATOM     30  C   UNL A   1      41.015  32.434  30.913  1.00  0.00     0.031 C 
ATOM     31  C   UNL A   1      46.323  31.550  28.095  1.00  0.00     0.029 A 
ATOM     32  C   UNL A   1      45.026  31.368  28.554  1.00  0.00     0.049 A 
ATOM     33  H   UNL A   1      43.789  29.670  28.391  1.00  0.00     0.167 HD
ATOM     34  C   UNL A   1      42.950  32.037  29.744  1.00  0.00     0.074 A 
ATOM     35  C   UNL A   1      42.155  32.978  30.508  1.00  0.00     0.031 C 
ATOM     36  C   UNL A   1      44.195  32.299  29.274  1.00  0.00     0.034 A 
BRANCH  23  37
ATOM     37  C   UNL A   1      46.826  27.591  26.225  1.00  0.00     0.023 A 
ATOM     38  C   UNL A   1      46.889  27.766  24.826  1.00  0.00     0.012 A 
ATOM     39  C   UNL A   1      47.864  26.909  26.884  1.00  0.00     0.148 A 
ATOM     40  C   UNL A   1      47.942  27.228  24.088  1.00  0.00     0.002 A 
ATOM     41  C   UNL A   1      48.935  26.415  26.148  1.00  0.00     0.091 A 
ATOM     42  F   UNL A   1      47.775  26.738  28.211  1.00  0.00    -0.205 F 
ATOM     43  C   UNL A   1      48.967  26.559  24.750  1.00  0.00     0.022 A 
BRANCH  41  44
ATOM     44  S   UNL A   1      50.338  25.592  26.906  1.00  0.00     0.127 S 
ATOM     45  O   UNL A   1      51.212  25.377  25.754  1.00  0.00    -0.237 OA
ATOM     46  O   UNL A   1      50.810  26.606  27.849  1.00  0.00    -0.237 OA
ATOM     47  O   UNL A   1      49.812  24.382  27.522  1.00  0.00    -0.744 OA
ENDBRANCH  41  44
ENDBRANCH  23  37
BRANCH  24  48
ATOM     48  C   UNL A   1      38.652  30.695  31.148  1.00  0.00     0.023 A 
ATOM     49  C   UNL A   1      38.549  30.418  32.525  1.00  0.00     0.012 A 
ATOM     50  C   UNL A   1      37.604  31.388  30.510  1.00  0.00     0.148 A 
ATOM     51  C   UNL A   1      37.405  30.776  33.241  1.00  0.00     0.002 A 
ATOM     52  C   UNL A   1      36.489  31.787  31.239  1.00  0.00     0.091 A 
ATOM     53  F   UNL A   1      37.716  31.643  29.199  1.00  0.00    -0.205 F 
ATOM     54  C   UNL A   1      36.377  31.464  32.600  1.00  0.00     0.022 A 
BRANCH  52  55
ATOM     55  S   UNL A   1      35.178  32.779  30.517  1.00  0.00     0.127 S 
ATOM     56  O   UNL A   1      34.248  32.905  31.635  1.00  0.00    -0.237 OA
ATOM     57  O   UNL A   1      35.888  34.008  30.160  1.00  0.00    -0.237 OA
ATOM     58  O   UNL A   1      34.700  32.012  29.373  1.00  0.00    -0.744 OA
ENDBRANCH  52  55
ENDBRANCH  24  48
BRANCH  36  59
ATOM     59  C   UNL A   1      44.756  33.669  29.537  1.00  0.00     0.023 A 
ATOM     60  C   UNL A   1      45.452  33.928  30.734  1.00  0.00     0.012 A 
ATOM     61  C   UNL A   1      44.654  34.680  28.561  1.00  0.00     0.148 A 
ATOM     62  C   UNL A   1      46.006  35.185  30.972  1.00  0.00     0.002 A 
ATOM     63  C   UNL A   1      45.256  35.911  28.780  1.00  0.00     0.091 A 
ATOM     64  F   UNL A   1      43.967  34.418  27.439  1.00  0.00    -0.205 F 
ATOM     65  C   UNL A   1      45.920  36.170  29.991  1.00  0.00     0.022 A 
BRANCH  63  66
ATOM     66  S   UNL A   1      45.286  37.199  27.531  1.00  0.00     0.127 S 
ATOM     67  O   UNL A   1      45.952  36.521  26.421  1.00  0.00    -0.237 OA
ATOM     68  O   UNL A   1      43.861  37.460  27.320  1.00  0.00    -0.237 OA
ATOM     69  O   UNL A   1      46.022  38.310  28.118  1.00  0.00    -0.744 OA
ENDBRANCH  63  66
ENDBRANCH  36  59
ENDBRANCH  10  11
ENDBRANCH   3   5
ENDBRANCH   2   3
ENDBRANCH   1   2
BRANCH   1  70
ATOM     70  C   UNL A   1      34.951  20.389  25.295  1.00  0.00     0.275 C 
BRANCH  70  71
ATOM     71  O   UNL A   1      34.166  19.571  24.406  1.00  0.00    -0.458 OA
BRANCH  71  72
ATOM     72  C   UNL A   1      32.825  19.582  24.644  1.00  0.00     0.338 C 
ATOM     73  O   UNL A   1      32.170  18.637  25.059  1.00  0.00    -0.246 OA
BRANCH  72  74
ATOM     74  C   UNL A   1      32.255  20.941  24.462  1.00  0.00     0.060 A 
ATOM     75  C   UNL A   1      31.736  21.584  25.589  1.00  0.00     0.016 A 
ATOM     76  C   UNL A   1      32.195  21.585  23.225  1.00  0.00     0.016 A 
ATOM     77  C   UNL A   1      31.212  22.879  25.488  1.00  0.00     0.007 A 
ATOM     78  C   UNL A   1      31.668  22.889  23.130  1.00  0.00     0.007 A 
ATOM     79  C   UNL A   1      31.194  23.574  24.265  1.00  0.00    -0.025 A 
BRANCH  79  80
ATOM     80  C   UNL A   1      30.728  25.033  24.154  1.00  0.00     0.114 C 
ATOM     81  N   UNL A   1      30.673  25.689  25.484  1.00  0.00    -0.378 N 
ATOM     82  C   UNL A   1      31.578  25.943  23.262  1.00  0.00     0.031 C 
ATOM     83  C   UNL A   1      31.620  26.635  25.882  1.00  0.00     0.038 A 
ATOM     84  H   UNL A   1      29.946  25.451  26.103  1.00  0.00     0.161 HD
ATOM     85  C   UNL A   1      32.983  26.056  23.871  1.00  0.00     0.049 C 
ATOM     86  C   UNL A   1      31.771  25.708  21.776  1.00  0.00     0.034 C 
ATOM     87  C   UNL A   1      31.393  27.426  27.012  1.00  0.00     0.027 A 
ATOM     88  C   UNL A   1      32.817  26.837  25.147  1.00  0.00    -0.016 A 
ATOM     89  C   UNL A   1      33.733  26.639  22.713  1.00  0.00    -0.023 C 
ATOM     90  C   UNL A   1      33.081  26.419  21.561  1.00  0.00    -0.030 C 
ATOM     91  C   UNL A   1      32.337  28.375  27.421  1.00  0.00     0.022 A 
ATOM     92  C   UNL A   1      33.791  27.736  25.602  1.00  0.00     0.027 A 
ATOM     93  C   UNL A   1      33.538  28.509  26.728  1.00  0.00     0.041 A 
ATOM     94  Cl  UNL A   1      34.709  29.655  27.258  1.00  0.00    -0.084 Cl
ENDBRANCH  79  80
ENDBRANCH  72  74
ENDBRANCH  71  72
ENDBRANCH  70  71
ENDBRANCH   1  70
TORSDOF 15
ENDMDL
MODEL 3
REMARK VINA RESULT:     -13.0      5.200     10.111
REMARK SMILES O=C(OCCOC(=O)c1ccc([C@H]2Nc3ccc(Cl)cc3[C@@H]3C=CC[C@@H]23)cc1)c1ccc(-c2c3nc(c(-c4cccc(S(=O)(=O)[O-])c4F)c4ccc([nH]4)c(-c4cccc(S(=O)(=O)[O-])c4F)c4nc(c(-c5cccc(S(=O)(=O)[O-])c5F)c5ccc2[nH]5)C=C4)C=C3)cc1
REMARK SMILES IDX 4 1 3 2 2 3 1 4 29 5 30 6 91 7 31 8 90 9 32 10 33 11 34 12
REMARK SMILES IDX 84 13 35 14 89 15 83 16 85 17 36 18 88 19 82 20 81 21 37 23
REMARK SMILES IDX 69 24 49 25 68 26 50 27 53 28 67 29 86 30 51 31 52 32 66 34
REMARK SMILES IDX 87 35 54 36 38 37 39 38 47 39 40 40 42 41 48 42 41 43 43 44
REMARK SMILES IDX 44 45 45 46 46 47 70 48 71 49 79 50 72 51 74 52 80 53 73 54
REMARK SMILES IDX 75 55 76 56 77 57 78 58 55 59 56 60 64 61 57 62 59 63 65 64
REMARK SMILES IDX 58 65 60 66 61 67 62 68 63 69 5 70 6 71 7 72 8 73 9 74 10 75
REMARK SMILES IDX 28 76 11 77 27 78 12 79 13 80 14 81 26 82 15 83 22 85 25 86
REMARK SMILES IDX 16 87 21 88 23 89 24 90 17 91 20 92 18 93 19 94
REMARK H PARENT 85 22 53 33 14 84
REMARK Flexibility Score: inf
ROOT
ATOM      1  C   UNL A   1      36.438  20.353  25.026  1.00  0.00     0.275 C 
ENDROOT
BRANCH   1   2
ATOM      2  O   UNL A   1      37.215  21.388  25.645  1.00  0.00    -0.458 OA
BRANCH   2   3
ATOM      3  C   UNL A   1      38.539  21.420  25.922  1.00  0.00     0.338 C 
ATOM      4  O   UNL A   1      39.187  20.384  25.774  1.00  0.00    -0.246 OA
BRANCH   3   5
ATOM      5  C   UNL A   1      39.247  22.614  26.490  1.00  0.00     0.060 A 
ATOM      6  C   UNL A   1      40.326  22.603  27.379  1.00  0.00     0.016 A 
ATOM      7  C   UNL A   1      38.763  23.864  26.076  1.00  0.00     0.016 A 
ATOM      8  C   UNL A   1      40.961  23.784  27.774  1.00  0.00     0.010 A 
ATOM      9  C   UNL A   1      39.389  25.043  26.481  1.00  0.00     0.010 A 
ATOM     10  C   UNL A   1      40.507  25.016  27.316  1.00  0.00    -0.014 A 
BRANCH  10  11
ATOM     11  C   UNL A   1      41.173  26.256  27.776  1.00  0.00     0.031 A 
ATOM     12  C   UNL A   1      42.617  26.479  27.450  1.00  0.00     0.074 A 
ATOM     13  C   UNL A   1      40.473  27.184  28.459  1.00  0.00     0.049 A 
ATOM     14  N   UNL A   1      43.357  27.528  27.687  1.00  0.00    -0.248 NA
ATOM     15  C   UNL A   1      43.321  25.386  26.757  1.00  0.00     0.031 C 
ATOM     16  C   UNL A   1      39.067  27.062  28.838  1.00  0.00     0.029 A 
ATOM     17  N   UNL A   1      40.845  28.399  28.976  1.00  0.00    -0.354 N 
ATOM     18  C   UNL A   1      44.604  27.233  27.155  1.00  0.00     0.074 A 
ATOM     19  C   UNL A   1      44.544  25.881  26.648  1.00  0.00     0.031 C 
ATOM     20  C   UNL A   1      38.704  28.130  29.567  1.00  0.00     0.029 A 
ATOM     21  C   UNL A   1      39.846  29.028  29.685  1.00  0.00     0.049 A 
ATOM     22  H   UNL A   1      41.742  28.784  28.854  1.00  0.00     0.167 HD
ATOM     23  C   UNL A   1      45.687  28.038  27.050  1.00  0.00     0.034 A 
ATOM     24  C   UNL A   1      39.851  30.203  30.343  1.00  0.00     0.034 A 
ATOM     25  C   UNL A   1      45.736  29.378  27.561  1.00  0.00     0.049 A 
ATOM     26  C   UNL A   1      41.082  31.064  30.249  1.00  0.00     0.074 A 
ATOM     27  C   UNL A   1      46.777  30.287  27.505  1.00  0.00     0.029 A 
ATOM     28  N   UNL A   1      44.695  30.001  28.235  1.00  0.00    -0.354 N 
ATOM     29  N   UNL A   1      42.209  30.818  29.624  1.00  0.00    -0.248 NA
ATOM     30  C   UNL A   1      41.024  32.384  30.890  1.00  0.00     0.031 C 
ATOM     31  C   UNL A   1      46.372  31.452  28.164  1.00  0.00     0.029 A 
ATOM     32  C   UNL A   1      45.066  31.281  28.602  1.00  0.00     0.049 A 
ATOM     33  H   UNL A   1      43.820  29.592  28.423  1.00  0.00     0.167 HD
ATOM     34  C   UNL A   1      42.975  31.970  29.754  1.00  0.00     0.074 A 
ATOM     35  C   UNL A   1      42.174  32.919  30.502  1.00  0.00     0.031 C 
ATOM     36  C   UNL A   1      44.230  32.220  29.305  1.00  0.00     0.034 A 
BRANCH  23  37
ATOM     37  C   UNL A   1      46.876  27.484  26.315  1.00  0.00     0.023 A 
ATOM     38  C   UNL A   1      47.793  26.661  27.004  1.00  0.00     0.012 A 
ATOM     39  C   UNL A   1      47.095  27.774  24.957  1.00  0.00     0.148 A 
ATOM     40  C   UNL A   1      48.933  26.176  26.367  1.00  0.00     0.002 A 
ATOM     41  C   UNL A   1      48.211  27.250  24.314  1.00  0.00     0.091 A 
ATOM     42  F   UNL A   1      46.222  28.572  24.325  1.00  0.00    -0.205 F 
ATOM     43  C   UNL A   1      49.138  26.465  25.021  1.00  0.00     0.022 A 
BRANCH  41  44
ATOM     44  S   UNL A   1      48.538  27.508  22.568  1.00  0.00     0.127 S 
ATOM     45  O   UNL A   1      49.830  28.190  22.609  1.00  0.00    -0.237 OA
ATOM     46  O   UNL A   1      48.588  26.136  22.063  1.00  0.00    -0.237 OA
ATOM     47  O   UNL A   1      47.430  28.306  22.064  1.00  0.00    -0.744 OA
ENDBRANCH  41  44
ENDBRANCH  23  37
BRANCH  24  48
ATOM     48  C   UNL A   1      38.644  30.664  31.090  1.00  0.00     0.023 A 
ATOM     49  C   UNL A   1      38.497  30.357  32.456  1.00  0.00     0.012 A 
ATOM     50  C   UNL A   1      37.631  31.398  30.441  1.00  0.00     0.148 A 
ATOM     51  C   UNL A   1      37.342  30.726  33.150  1.00  0.00     0.002 A 
ATOM     52  C   UNL A   1      36.507  31.807  31.150  1.00  0.00     0.091 A 
ATOM     53  F   UNL A   1      37.786  31.681  29.140  1.00  0.00    -0.205 F 
ATOM     54  C   UNL A   1      36.350  31.455  32.499  1.00  0.00     0.022 A 
BRANCH  52  55
ATOM     55  S   UNL A   1      35.241  32.849  30.417  1.00  0.00     0.127 S 
ATOM     56  O   UNL A   1      34.711  31.982  29.368  1.00  0.00    -0.237 OA
ATOM     57  O   UNL A   1      34.340  33.073  31.548  1.00  0.00    -0.237 OA
ATOM     58  O   UNL A   1      35.940  34.045  29.964  1.00  0.00    -0.744 OA
ENDBRANCH  52  55
ENDBRANCH  24  48
BRANCH  36  59
ATOM     59  C   UNL A   1      44.797  33.587  29.573  1.00  0.00     0.023 A 
ATOM     60  C   UNL A   1      45.545  33.823  30.743  1.00  0.00     0.012 A 
ATOM     61  C   UNL A   1      44.647  34.620  28.625  1.00  0.00     0.148 A 
ATOM     62  C   UNL A   1      46.104  35.077  30.984  1.00  0.00     0.002 A 
ATOM     63  C   UNL A   1      45.253  35.848  28.845  1.00  0.00     0.091 A 
ATOM     64  F   UNL A   1      43.911  34.379  27.530  1.00  0.00    -0.205 F 
ATOM     65  C   UNL A   1      45.970  36.083  30.030  1.00  0.00     0.022 A 
BRANCH  63  66
ATOM     66  S   UNL A   1      45.222  37.164  27.624  1.00  0.00     0.127 S 
ATOM     67  O   UNL A   1      45.797  36.499  26.456  1.00  0.00    -0.237 OA
ATOM     68  O   UNL A   1      43.792  37.455  27.519  1.00  0.00    -0.237 OA
ATOM     69  O   UNL A   1      46.018  38.247  28.183  1.00  0.00    -0.744 OA
ENDBRANCH  63  66
ENDBRANCH  36  59
ENDBRANCH  10  11
ENDBRANCH   3   5
ENDBRANCH   2   3
ENDBRANCH   1   2
BRANCH   1  70
ATOM     70  C   UNL A   1      34.957  20.690  24.808  1.00  0.00     0.275 C 
BRANCH  70  71
ATOM     71  O   UNL A   1      34.033  19.706  25.311  1.00  0.00    -0.458 OA
BRANCH  71  72
ATOM     72  C   UNL A   1      32.828  19.668  24.678  1.00  0.00     0.338 C 
ATOM     73  O   UNL A   1      32.219  18.653  24.373  1.00  0.00    -0.246 OA
BRANCH  72  74
ATOM     74  C   UNL A   1      32.262  21.030  24.512  1.00  0.00     0.060 A 
ATOM     75  C   UNL A   1      31.821  21.695  25.660  1.00  0.00     0.016 A 
ATOM     76  C   UNL A   1      32.130  21.657  23.272  1.00  0.00     0.016 A 
ATOM     77  C   UNL A   1      31.305  22.994  25.573  1.00  0.00     0.007 A 
ATOM     78  C   UNL A   1      31.612  22.965  23.191  1.00  0.00     0.007 A 
ATOM     79  C   UNL A   1      31.217  23.672  24.343  1.00  0.00    -0.025 A 
BRANCH  79  80
ATOM     80  C   UNL A   1      30.759  25.134  24.240  1.00  0.00     0.114 C 
ATOM     81  N   UNL A   1      30.729  25.790  25.570  1.00  0.00    -0.378 N 
ATOM     82  C   UNL A   1      31.603  26.039  23.336  1.00  0.00     0.031 C 
ATOM     83  C   UNL A   1      31.689  26.729  25.954  1.00  0.00     0.038 A 
ATOM     84  H   UNL A   1      30.011  25.556  26.201  1.00  0.00     0.161 HD
ATOM     85  C   UNL A   1      33.017  26.141  23.922  1.00  0.00     0.049 C 
ATOM     86  C   UNL A   1      31.771  25.803  21.846  1.00  0.00     0.034 C 
ATOM     87  C   UNL A   1      31.485  27.521  27.088  1.00  0.00     0.027 A 
ATOM     88  C   UNL A   1      32.876  26.923  25.202  1.00  0.00    -0.016 A 
ATOM     89  C   UNL A   1      33.754  26.719  22.754  1.00  0.00    -0.023 C 
ATOM     90  C   UNL A   1      33.082  26.505  21.612  1.00  0.00    -0.030 C 
ATOM     91  C   UNL A   1      32.442  28.463  27.483  1.00  0.00     0.022 A 
ATOM     92  C   UNL A   1      33.864  27.814  25.641  1.00  0.00     0.027 A 
ATOM     93  C   UNL A   1      33.634  28.589  26.772  1.00  0.00     0.041 A 
ATOM     94  Cl  UNL A   1      34.821  29.726  27.284  1.00  0.00    -0.084 Cl
ENDBRANCH  79  80
ENDBRANCH  72  74
ENDBRANCH  71  72
ENDBRANCH  70  71
ENDBRANCH   1  70
TORSDOF 15
ENDMDL
