MODEL 1
REMARK VINA RESULT:     -11.0      0.000      0.000
REMARK SMILES O=C(Cc1cccc(NS(=O)(=O)c2cccc(Cl)c2)c1)OCCOC(=O)c1ccc(-c2c3nc(c(-c4cccc(S(=O)(=O)[O-])c4F)c4ccc([nH]4)c(-c4cccc(S(=O)(=O)[O-])c4F)c4nc(c(-c5cccc(S(=O)(=O)[O-])c5F)c5ccc2[nH]5)C=C4)C=C3)cc1
REMARK SMILES IDX 22 1 21 2 2 3 1 4 3 5 4 6 5 7 20 8 6 9 8 10 7 11 9 12 10 14
REMARK SMILES IDX 11 15 12 16 13 17 14 18 19 19 15 20 17 21 16 22 18 23 23 24
REMARK SMILES IDX 24 25 25 26 26 27 27 28 28 29 89 30 29 31 88 32 30 33 31 34
REMARK SMILES IDX 32 35 82 36 33 37 87 38 81 39 83 40 34 41 86 42 80 43 79 44
REMARK SMILES IDX 35 46 67 47 47 48 66 49 48 50 51 51 65 52 84 53 49 54 50 55
REMARK SMILES IDX 64 57 85 58 52 59 36 60 37 61 45 62 38 63 40 64 46 65 39 66
REMARK SMILES IDX 41 67 42 68 43 69 44 70 68 71 69 72 77 73 70 74 72 75 78 76
REMARK SMILES IDX 71 77 73 78 74 79 75 80 76 81 53 82 54 83 62 84 55 85 57 86
REMARK SMILES IDX 63 87 56 88 58 89 59 90 60 91 61 92
REMARK H PARENT 9 13 83 45 51 56
REMARK Flexibility Score: inf
ROOT
ATOM      1  C   UNL A   1      38.581  20.503  25.212  1.00  0.00     0.274 C 
ENDROOT
BRANCH   1   2
ATOM      2  O   UNL A   1      38.352  21.857  25.644  1.00  0.00    -0.462 OA
BRANCH   2   3
ATOM      3  C   UNL A   1      37.120  22.400  25.427  1.00  0.00     0.310 C 
ATOM      4  O   UNL A   1      36.736  23.376  26.061  1.00  0.00    -0.252 OA
BRANCH   3   5
ATOM      5  C   UNL A   1      36.223  21.609  24.502  1.00  0.00     0.158 C 
BRANCH   5   6
ATOM      6  C   UNL A   1      34.857  22.183  24.221  1.00  0.00    -0.035 A 
ATOM      7  C   UNL A   1      34.594  22.961  23.087  1.00  0.00     0.004 A 
ATOM      8  C   UNL A   1      33.780  21.812  25.038  1.00  0.00     0.031 A 
ATOM      9  C   UNL A   1      33.282  23.264  22.721  1.00  0.00     0.002 A 
ATOM     10  C   UNL A   1      32.475  22.205  24.725  1.00  0.00     0.049 A 
ATOM     11  C   UNL A   1      32.217  22.846  23.517  1.00  0.00     0.027 A 
BRANCH  10  12
ATOM     12  N   UNL A   1      31.483  21.971  25.709  1.00  0.00    -0.280 N 
ATOM     13  H   UNL A   1      30.994  21.117  25.677  1.00  0.00     0.180 HD
BRANCH  12  14
ATOM     14  S   UNL A   1      31.089  23.056  26.930  1.00  0.00     0.261 S 
ATOM     15  O   UNL A   1      29.718  22.803  27.323  1.00  0.00    -0.201 OA
ATOM     16  O   UNL A   1      32.198  23.050  27.853  1.00  0.00    -0.201 OA
BRANCH  14  17
ATOM     17  C   UNL A   1      31.079  24.698  26.217  1.00  0.00     0.089 A 
ATOM     18  C   UNL A   1      32.210  25.519  26.219  1.00  0.00     0.022 A 
ATOM     19  C   UNL A   1      29.922  25.081  25.526  1.00  0.00     0.042 A 
ATOM     20  C   UNL A   1      32.206  26.689  25.457  1.00  0.00     0.003 A 
ATOM     21  C   UNL A   1      29.920  26.262  24.797  1.00  0.00     0.042 A 
ATOM     22  C   UNL A   1      31.064  27.058  24.742  1.00  0.00     0.020 A 
ATOM     23  Cl  UNL A   1      28.509  26.731  23.929  1.00  0.00    -0.084 Cl
ENDBRANCH  14  17
ENDBRANCH  12  14
ENDBRANCH  10  12
ENDBRANCH   5   6
ENDBRANCH   3   5
ENDBRANCH   2   3
ENDBRANCH   1   2
BRANCH   1  24
ATOM     24  C   UNL A   1      39.546  19.739  26.119  1.00  0.00     0.275 C 
BRANCH  24  25
ATOM     25  O   UNL A   1      40.742  19.384  25.408  1.00  0.00    -0.458 OA
BRANCH  25  26
ATOM     26  C   UNL A   1      41.880  19.430  26.150  1.00  0.00     0.338 C 
ATOM     27  O   UNL A   1      42.646  18.510  26.357  1.00  0.00    -0.246 OA
BRANCH  26  28
ATOM     28  C   UNL A   1      42.165  20.833  26.533  1.00  0.00     0.060 A 
ATOM     29  C   UNL A   1      42.272  21.775  25.502  1.00  0.00     0.016 A 
ATOM     30  C   UNL A   1      42.309  21.231  27.866  1.00  0.00     0.016 A 
ATOM     31  C   UNL A   1      42.546  23.111  25.798  1.00  0.00     0.010 A 
ATOM     32  C   UNL A   1      42.592  22.569  28.160  1.00  0.00     0.010 A 
ATOM     33  C   UNL A   1      42.731  23.512  27.127  1.00  0.00    -0.014 A 
BRANCH  33  34
ATOM     34  C   UNL A   1      43.158  24.898  27.434  1.00  0.00     0.031 A 
ATOM     35  C   UNL A   1      42.150  25.879  27.969  1.00  0.00     0.074 A 
ATOM     36  C   UNL A   1      44.425  25.292  27.212  1.00  0.00     0.049 A 
ATOM     37  N   UNL A   1      42.317  27.131  28.306  1.00  0.00    -0.248 NA
ATOM     38  C   UNL A   1      40.774  25.384  28.145  1.00  0.00     0.031 C 
ATOM     39  C   UNL A   1      45.491  24.449  26.669  1.00  0.00     0.029 A 
ATOM     40  N   UNL A   1      45.019  26.516  27.387  1.00  0.00    -0.354 N 
ATOM     41  C   UNL A   1      41.070  27.581  28.720  1.00  0.00     0.074 A 
ATOM     42  C   UNL A   1      40.151  26.471  28.582  1.00  0.00     0.031 C 
ATOM     43  C   UNL A   1      46.600  25.195  26.519  1.00  0.00     0.029 A 
ATOM     44  C   UNL A   1      46.320  26.565  26.947  1.00  0.00     0.049 A 
ATOM     45  H   UNL A   1      44.557  27.287  27.788  1.00  0.00     0.167 HD
ATOM     46  C   UNL A   1      40.724  28.801  29.192  1.00  0.00     0.034 A 
ATOM     47  C   UNL A   1      47.180  27.601  26.879  1.00  0.00     0.034 A 
ATOM     48  C   UNL A   1      41.633  29.904  29.345  1.00  0.00     0.049 A 
ATOM     49  C   UNL A   1      46.755  28.958  27.377  1.00  0.00     0.074 A 
ATOM     50  C   UNL A   1      41.385  31.151  29.892  1.00  0.00     0.029 A 
ATOM     51  N   UNL A   1      42.953  29.905  28.929  1.00  0.00    -0.354 N 
ATOM     52  N   UNL A   1      45.627  29.316  27.940  1.00  0.00    -0.248 NA
ATOM     53  C   UNL A   1      47.736  30.048  27.258  1.00  0.00     0.031 C 
ATOM     54  C   UNL A   1      42.551  31.916  29.784  1.00  0.00     0.029 A 
ATOM     55  C   UNL A   1      43.528  31.140  29.183  1.00  0.00     0.049 A 
ATOM     56  H   UNL A   1      43.416  29.142  28.514  1.00  0.00     0.167 HD
ATOM     57  C   UNL A   1      45.774  30.661  28.266  1.00  0.00     0.074 A 
ATOM     58  C   UNL A   1      47.108  31.048  27.863  1.00  0.00     0.031 C 
ATOM     59  C   UNL A   1      44.875  31.504  28.832  1.00  0.00     0.034 A 
BRANCH  46  60
ATOM     60  C   UNL A   1      39.300  29.004  29.629  1.00  0.00     0.023 A 
ATOM     61  C   UNL A   1      38.925  28.640  30.937  1.00  0.00     0.012 A 
ATOM     62  C   UNL A   1      38.363  29.629  28.785  1.00  0.00     0.148 A 
ATOM     63  C   UNL A   1      37.633  28.884  31.396  1.00  0.00     0.002 A 
ATOM     64  C   UNL A   1      37.086  29.898  29.260  1.00  0.00     0.091 A 
ATOM     65  F   UNL A   1      38.739  29.944  27.537  1.00  0.00    -0.205 F 
ATOM     66  C   UNL A   1      36.718  29.522  30.563  1.00  0.00     0.022 A 
BRANCH  64  67
ATOM     67  S   UNL A   1      35.853  30.770  28.288  1.00  0.00     0.127 S 
ATOM     68  O   UNL A   1      34.794  30.978  29.275  1.00  0.00    -0.237 OA
ATOM     69  O   UNL A   1      36.570  31.984  27.897  1.00  0.00    -0.237 OA
ATOM     70  O   UNL A   1      35.511  29.883  27.185  1.00  0.00    -0.744 OA
ENDBRANCH  64  67
ENDBRANCH  46  60
BRANCH  47  71
ATOM     71  C   UNL A   1      48.550  27.405  26.331  1.00  0.00     0.023 A 
ATOM     72  C   UNL A   1      49.613  27.103  27.202  1.00  0.00     0.012 A 
ATOM     73  C   UNL A   1      48.807  27.543  24.955  1.00  0.00     0.148 A 
ATOM     74  C   UNL A   1      50.915  26.971  26.715  1.00  0.00     0.002 A 
ATOM     75  C   UNL A   1      50.098  27.369  24.471  1.00  0.00     0.091 A 
ATOM     76  F   UNL A   1      47.787  27.861  24.144  1.00  0.00    -0.205 F 
ATOM     77  C   UNL A   1      51.156  27.094  25.348  1.00  0.00     0.022 A 
BRANCH  75  78
ATOM     78  S   UNL A   1      50.443  27.423  22.710  1.00  0.00     0.127 S 
ATOM     79  O   UNL A   1      49.388  26.570  22.172  1.00  0.00    -0.237 OA
ATOM     80  O   UNL A   1      50.298  28.846  22.404  1.00  0.00    -0.237 OA
ATOM     81  O   UNL A   1      51.805  26.917  22.593  1.00  0.00    -0.744 OA
ENDBRANCH  75  78
ENDBRANCH  47  71
BRANCH  59  82
ATOM     82  C   UNL A   1      45.299  32.930  29.068  1.00  0.00     0.023 A 
ATOM     83  C   UNL A   1      45.953  33.270  30.269  1.00  0.00     0.012 A 
ATOM     84  C   UNL A   1      45.126  33.913  28.073  1.00  0.00     0.148 A 
ATOM     85  C   UNL A   1      46.406  34.571  30.487  1.00  0.00     0.002 A 
ATOM     86  C   UNL A   1      45.619  35.197  28.280  1.00  0.00     0.091 A 
ATOM     87  F   UNL A   1      44.484  33.577  26.945  1.00  0.00    -0.205 F 
ATOM     88  C   UNL A   1      46.249  35.530  29.490  1.00  0.00     0.022 A 
BRANCH  86  89
ATOM     89  S   UNL A   1      45.546  36.469  27.013  1.00  0.00     0.127 S 
ATOM     90  O   UNL A   1      46.221  35.815  25.893  1.00  0.00    -0.237 OA
ATOM     91  O   UNL A   1      44.104  36.651  26.833  1.00  0.00    -0.237 OA
ATOM     92  O   UNL A   1      46.232  37.627  27.570  1.00  0.00    -0.744 OA
ENDBRANCH  86  89
ENDBRANCH  59  82
ENDBRANCH  33  34
ENDBRANCH  26  28
ENDBRANCH  25  26
ENDBRANCH  24  25
ENDBRANCH   1  24
TORSDOF 18
ENDMDL
MODEL 2
REMARK VINA RESULT:     -11.0      2.155      2.514
REMARK SMILES O=C(Cc1cccc(NS(=O)(=O)c2cccc(Cl)c2)c1)OCCOC(=O)c1ccc(-c2c3nc(c(-c4cccc(S(=O)(=O)[O-])c4F)c4ccc([nH]4)c(-c4cccc(S(=O)(=O)[O-])c4F)c4nc(c(-c5cccc(S(=O)(=O)[O-])c5F)c5ccc2[nH]5)C=C4)C=C3)cc1
REMARK SMILES IDX 22 1 21 2 2 3 1 4 3 5 4 6 5 7 20 8 6 9 8 10 7 11 9 12 10 14
REMARK SMILES IDX 11 15 12 16 13 17 14 18 19 19 15 20 17 21 16 22 18 23 23 24
REMARK SMILES IDX 24 25 25 26 26 27 27 28 28 29 89 30 29 31 88 32 30 33 31 34
REMARK SMILES IDX 32 35 82 36 33 37 87 38 81 39 83 40 34 41 86 42 80 43 79 44
REMARK SMILES IDX 35 46 67 47 47 48 66 49 48 50 51 51 65 52 84 53 49 54 50 55
REMARK SMILES IDX 64 57 85 58 52 59 36 60 37 61 45 62 38 63 40 64 46 65 39 66
REMARK SMILES IDX 41 67 42 68 43 69 44 70 68 71 69 72 77 73 70 74 72 75 78 76
REMARK SMILES IDX 71 77 73 78 74 79 75 80 76 81 53 82 54 83 62 84 55 85 57 86
REMARK SMILES IDX 63 87 56 88 58 89 59 90 60 91 61 92
REMARK H PARENT 9 13 83 45 51 56
REMARK Flexibility Score: inf
ROOT
ATOM      1  C   UNL A   1      39.258  21.058  25.743  1.00  0.00     0.274 C 
ENDROOT
BRANCH   1   2
ATOM      2  O   UNL A   1      37.850  21.154  25.457  1.00  0.00    -0.462 OA
BRANCH   2   3
ATOM      3  C   UNL A   1      37.309  22.398  25.313  1.00  0.00     0.310 C 
ATOM      4  O   UNL A   1      37.134  23.131  26.281  1.00  0.00    -0.252 OA
BRANCH   3   5
ATOM      5  C   UNL A   1      36.786  22.715  23.931  1.00  0.00     0.158 C 
BRANCH   5   6
ATOM      6  C   UNL A   1      35.304  22.545  23.706  1.00  0.00    -0.035 A 
ATOM      7  C   UNL A   1      34.538  21.632  24.443  1.00  0.00     0.004 A 
ATOM      8  C   UNL A   1      34.640  23.424  22.839  1.00  0.00     0.031 A 
ATOM      9  C   UNL A   1      33.144  21.673  24.396  1.00  0.00     0.002 A 
ATOM     10  C   UNL A   1      33.247  23.393  22.716  1.00  0.00     0.049 A 
ATOM     11  C   UNL A   1      32.497  22.586  23.566  1.00  0.00     0.027 A 
BRANCH  10  12
ATOM     12  N   UNL A   1      32.680  24.162  21.669  1.00  0.00    -0.280 N 
ATOM     13  H   UNL A   1      32.372  23.687  20.864  1.00  0.00     0.180 HD
BRANCH  12  14
ATOM     14  S   UNL A   1      32.498  25.831  21.716  1.00  0.00     0.261 S 
ATOM     15  O   UNL A   1      33.817  26.424  21.620  1.00  0.00    -0.201 OA
ATOM     16  O   UNL A   1      31.414  26.147  20.819  1.00  0.00    -0.201 OA
BRANCH  14  17
ATOM     17  C   UNL A   1      31.903  26.268  23.346  1.00  0.00     0.089 A 
ATOM     18  C   UNL A   1      30.635  25.897  23.803  1.00  0.00     0.022 A 
ATOM     19  C   UNL A   1      32.818  26.885  24.210  1.00  0.00     0.042 A 
ATOM     20  C   UNL A   1      30.315  26.072  25.151  1.00  0.00     0.003 A 
ATOM     21  C   UNL A   1      32.478  27.081  25.542  1.00  0.00     0.042 A 
ATOM     22  C   UNL A   1      31.238  26.658  26.021  1.00  0.00     0.020 A 
ATOM     23  Cl  UNL A   1      33.603  27.820  26.614  1.00  0.00    -0.084 Cl
ENDBRANCH  14  17
ENDBRANCH  12  14
ENDBRANCH  10  12
ENDBRANCH   5   6
ENDBRANCH   3   5
ENDBRANCH   2   3
ENDBRANCH   1   2
BRANCH   1  24
ATOM     24  C   UNL A   1      39.711  19.631  26.050  1.00  0.00     0.275 C 
BRANCH  24  25
ATOM     25  O   UNL A   1      40.933  19.323  25.360  1.00  0.00    -0.458 OA
BRANCH  25  26
ATOM     26  C   UNL A   1      42.040  19.296  26.149  1.00  0.00     0.338 C 
ATOM     27  O   UNL A   1      42.702  18.318  26.432  1.00  0.00    -0.246 OA
BRANCH  26  28
ATOM     28  C   UNL A   1      42.448  20.682  26.477  1.00  0.00     0.060 A 
ATOM     29  C   UNL A   1      42.763  21.533  25.410  1.00  0.00     0.016 A 
ATOM     30  C   UNL A   1      42.510  21.153  27.793  1.00  0.00     0.016 A 
ATOM     31  C   UNL A   1      43.161  22.848  25.655  1.00  0.00     0.010 A 
ATOM     32  C   UNL A   1      42.918  22.469  28.036  1.00  0.00     0.010 A 
ATOM     33  C   UNL A   1      43.263  23.317  26.970  1.00  0.00    -0.014 A 
BRANCH  33  34
ATOM     34  C   UNL A   1      43.818  24.666  27.239  1.00  0.00     0.031 A 
ATOM     35  C   UNL A   1      42.904  25.753  27.733  1.00  0.00     0.074 A 
ATOM     36  C   UNL A   1      45.118  24.931  27.018  1.00  0.00     0.049 A 
ATOM     37  N   UNL A   1      43.186  26.994  28.033  1.00  0.00    -0.248 NA
ATOM     38  C   UNL A   1      41.486  25.397  27.910  1.00  0.00     0.031 C 
ATOM     39  C   UNL A   1      46.103  23.974  26.512  1.00  0.00     0.029 A 
ATOM     40  N   UNL A   1      45.824  26.098  27.161  1.00  0.00    -0.354 N 
ATOM     41  C   UNL A   1      41.985  27.573  28.420  1.00  0.00     0.074 A 
ATOM     42  C   UNL A   1      40.966  26.551  28.307  1.00  0.00     0.031 C 
ATOM     43  C   UNL A   1      47.279  24.607  26.350  1.00  0.00     0.029 A 
ATOM     44  C   UNL A   1      47.128  26.010  26.733  1.00  0.00     0.049 A 
ATOM     45  H   UNL A   1      45.435  26.921  27.534  1.00  0.00     0.167 HD
ATOM     46  C   UNL A   1      41.753  28.835  28.851  1.00  0.00     0.034 A 
ATOM     47  C   UNL A   1      48.083  26.957  26.642  1.00  0.00     0.034 A 
ATOM     48  C   UNL A   1      42.762  29.851  28.979  1.00  0.00     0.049 A 
ATOM     49  C   UNL A   1      47.784  28.363  27.094  1.00  0.00     0.074 A 
ATOM     50  C   UNL A   1      42.629  31.133  29.485  1.00  0.00     0.029 A 
ATOM     51  N   UNL A   1      44.078  29.714  28.577  1.00  0.00    -0.354 N 
ATOM     52  N   UNL A   1      46.691  28.843  27.634  1.00  0.00    -0.248 NA
ATOM     53  C   UNL A   1      48.866  29.351  26.952  1.00  0.00     0.031 C 
ATOM     54  C   UNL A   1      43.863  31.780  29.366  1.00  0.00     0.029 A 
ATOM     55  C   UNL A   1      44.766  30.896  28.799  1.00  0.00     0.049 A 
ATOM     56  H   UNL A   1      44.470  28.898  28.190  1.00  0.00     0.167 HD
ATOM     57  C   UNL A   1      46.963  30.178  27.920  1.00  0.00     0.074 A 
ATOM     58  C   UNL A   1      48.331  30.424  27.519  1.00  0.00     0.031 C 
ATOM     59  C   UNL A   1      46.145  31.120  28.450  1.00  0.00     0.034 A 
BRANCH  46  60
ATOM     60  C   UNL A   1      40.352  29.186  29.267  1.00  0.00     0.023 A 
ATOM     61  C   UNL A   1      39.422  29.580  28.285  1.00  0.00     0.012 A 
ATOM     62  C   UNL A   1      39.934  29.043  30.604  1.00  0.00     0.148 A 
ATOM     63  C   UNL A   1      38.098  29.840  28.628  1.00  0.00     0.002 A 
ATOM     64  C   UNL A   1      38.604  29.274  30.933  1.00  0.00     0.091 A 
ATOM     65  F   UNL A   1      40.844  28.690  31.523  1.00  0.00    -0.205 F 
ATOM     66  C   UNL A   1      37.687  29.677  29.949  1.00  0.00     0.022 A 
BRANCH  64  67
ATOM     67  S   UNL A   1      37.960  29.032  32.592  1.00  0.00     0.127 S 
ATOM     68  O   UNL A   1      38.122  27.588  32.762  1.00  0.00    -0.237 OA
ATOM     69  O   UNL A   1      38.869  29.847  33.398  1.00  0.00    -0.237 OA
ATOM     70  O   UNL A   1      36.583  29.505  32.561  1.00  0.00    -0.744 OA
ENDBRANCH  64  67
ENDBRANCH  46  60
BRANCH  47  71
ATOM     71  C   UNL A   1      49.431  26.615  26.114  1.00  0.00     0.023 A 
ATOM     72  C   UNL A   1      50.324  25.871  26.909  1.00  0.00     0.012 A 
ATOM     73  C   UNL A   1      49.842  27.046  24.840  1.00  0.00     0.148 A 
ATOM     74  C   UNL A   1      51.613  25.588  26.454  1.00  0.00     0.002 A 
ATOM     75  C   UNL A   1      51.112  26.725  24.376  1.00  0.00     0.091 A 
ATOM     76  F   UNL A   1      48.990  27.779  24.109  1.00  0.00    -0.205 F 
ATOM     77  C   UNL A   1      52.004  26.006  25.184  1.00  0.00     0.022 A 
BRANCH  75  78
ATOM     78  S   UNL A   1      51.630  27.158  22.713  1.00  0.00     0.127 S 
ATOM     79  O   UNL A   1      50.474  26.743  21.923  1.00  0.00    -0.237 OA
ATOM     80  O   UNL A   1      51.820  28.606  22.809  1.00  0.00    -0.237 OA
ATOM     81  O   UNL A   1      52.858  26.401  22.507  1.00  0.00    -0.744 OA
ENDBRANCH  75  78
ENDBRANCH  47  71
BRANCH  59  82
ATOM     82  C   UNL A   1      46.700  32.506  28.647  1.00  0.00     0.023 A 
ATOM     83  C   UNL A   1      47.297  32.846  29.877  1.00  0.00     0.012 A 
ATOM     84  C   UNL A   1      46.707  33.442  27.593  1.00  0.00     0.148 A 
ATOM     85  C   UNL A   1      47.869  34.105  30.065  1.00  0.00     0.002 A 
ATOM     86  C   UNL A   1      47.318  34.678  27.773  1.00  0.00     0.091 A 
ATOM     87  F   UNL A   1      46.117  33.108  26.436  1.00  0.00    -0.205 F 
ATOM     88  C   UNL A   1      47.890  35.015  29.010  1.00  0.00     0.022 A 
BRANCH  86  89
ATOM     89  S   UNL A   1      47.475  35.875  26.441  1.00  0.00     0.127 S 
ATOM     90  O   UNL A   1      48.128  35.081  25.402  1.00  0.00    -0.237 OA
ATOM     91  O   UNL A   1      46.079  36.216  26.160  1.00  0.00    -0.237 OA
ATOM     92  O   UNL A   1      48.265  36.973  26.983  1.00  0.00    -0.744 OA
ENDBRANCH  86  89
ENDBRANCH  59  82
ENDBRANCH  33  34
ENDBRANCH  26  28
ENDBRANCH  25  26
ENDBRANCH  24  25
ENDBRANCH   1  24
TORSDOF 18
ENDMDL
MODEL 3
REMARK VINA RESULT:     -10.9      1.518      7.638
REMARK SMILES O=C(Cc1cccc(NS(=O)(=O)c2cccc(Cl)c2)c1)OCCOC(=O)c1ccc(-c2c3nc(c(-c4cccc(S(=O)(=O)[O-])c4F)c4ccc([nH]4)c(-c4cccc(S(=O)(=O)[O-])c4F)c4nc(c(-c5cccc(S(=O)(=O)[O-])c5F)c5ccc2[nH]5)C=C4)C=C3)cc1
REMARK SMILES IDX 22 1 21 2 2 3 1 4 3 5 4 6 5 7 20 8 6 9 8 10 7 11 9 12 10 14
REMARK SMILES IDX 11 15 12 16 13 17 14 18 19 19 15 20 17 21 16 22 18 23 23 24
REMARK SMILES IDX 24 25 25 26 26 27 27 28 28 29 89 30 29 31 88 32 30 33 31 34
REMARK SMILES IDX 32 35 82 36 33 37 87 38 81 39 83 40 34 41 86 42 80 43 79 44
REMARK SMILES IDX 35 46 67 47 47 48 66 49 48 50 51 51 65 52 84 53 49 54 50 55
REMARK SMILES IDX 64 57 85 58 52 59 36 60 37 61 45 62 38 63 40 64 46 65 39 66
REMARK SMILES IDX 41 67 42 68 43 69 44 70 68 71 69 72 77 73 70 74 72 75 78 76
REMARK SMILES IDX 71 77 73 78 74 79 75 80 76 81 53 82 54 83 62 84 55 85 57 86
REMARK SMILES IDX 63 87 56 88 58 89 59 90 60 91 61 92
REMARK H PARENT 9 13 83 45 51 56
REMARK Flexibility Score: inf
ROOT
ATOM      1  C   UNL A   1      38.136  21.306  25.360  1.00  0.00     0.274 C 
ENDROOT
BRANCH   1   2
ATOM      2  O   UNL A   1      37.111  21.356  24.351  1.00  0.00    -0.462 OA
BRANCH   2   3
ATOM      3  C   UNL A   1      36.627  22.578  23.988  1.00  0.00     0.310 C 
ATOM      4  O   UNL A   1      36.698  22.971  22.829  1.00  0.00    -0.252 OA
BRANCH   3   5
ATOM      5  C   UNL A   1      36.180  23.458  25.133  1.00  0.00     0.158 C 
BRANCH   5   6
ATOM      6  C   UNL A   1      34.877  23.098  25.802  1.00  0.00    -0.035 A 
ATOM      7  C   UNL A   1      34.811  22.193  26.869  1.00  0.00     0.004 A 
ATOM      8  C   UNL A   1      33.712  23.793  25.446  1.00  0.00     0.031 A 
ATOM      9  C   UNL A   1      33.645  22.072  27.627  1.00  0.00     0.002 A 
ATOM     10  C   UNL A   1      32.517  23.592  26.142  1.00  0.00     0.049 A 
ATOM     11  C   UNL A   1      32.510  22.807  27.291  1.00  0.00     0.027 A 
BRANCH  10  12
ATOM     12  N   UNL A   1      31.348  24.169  25.587  1.00  0.00    -0.280 N 
ATOM     13  H   UNL A   1      30.862  23.657  24.902  1.00  0.00     0.180 HD
BRANCH  12  14
ATOM     14  S   UNL A   1      30.738  25.672  26.025  1.00  0.00     0.261 S 
ATOM     15  O   UNL A   1      29.334  25.505  26.341  1.00  0.00    -0.201 OA
ATOM     16  O   UNL A   1      31.697  26.251  26.934  1.00  0.00    -0.201 OA
BRANCH  14  17
ATOM     17  C   UNL A   1      30.773  26.719  24.574  1.00  0.00     0.089 A 
ATOM     18  C   UNL A   1      29.611  27.085  23.889  1.00  0.00     0.022 A 
ATOM     19  C   UNL A   1      32.011  27.278  24.227  1.00  0.00     0.042 A 
ATOM     20  C   UNL A   1      29.680  28.076  22.907  1.00  0.00     0.003 A 
ATOM     21  C   UNL A   1      32.071  28.240  23.228  1.00  0.00     0.042 A 
ATOM     22  C   UNL A   1      30.908  28.657  22.581  1.00  0.00     0.020 A 
ATOM     23  Cl  UNL A   1      33.584  28.945  22.808  1.00  0.00    -0.084 Cl
ENDBRANCH  14  17
ENDBRANCH  12  14
ENDBRANCH  10  12
ENDBRANCH   5   6
ENDBRANCH   3   5
ENDBRANCH   2   3
ENDBRANCH   1   2
BRANCH   1  24
ATOM     24  C   UNL A   1      38.945  20.009  25.331  1.00  0.00     0.275 C 
BRANCH  24  25
ATOM     25  O   UNL A   1      39.682  19.839  26.552  1.00  0.00    -0.458 OA
BRANCH  25  26
ATOM     26  C   UNL A   1      41.016  20.082  26.449  1.00  0.00     0.338 C 
ATOM     27  O   UNL A   1      41.858  19.320  26.017  1.00  0.00    -0.246 OA
BRANCH  26  28
ATOM     28  C   UNL A   1      41.288  21.503  26.771  1.00  0.00     0.060 A 
ATOM     29  C   UNL A   1      41.578  22.362  25.704  1.00  0.00     0.016 A 
ATOM     30  C   UNL A   1      41.247  21.996  28.079  1.00  0.00     0.016 A 
ATOM     31  C   UNL A   1      41.850  23.710  25.943  1.00  0.00     0.010 A 
ATOM     32  C   UNL A   1      41.528  23.345  28.317  1.00  0.00     0.010 A 
ATOM     33  C   UNL A   1      41.850  24.205  27.253  1.00  0.00    -0.014 A 
BRANCH  33  34
ATOM     34  C   UNL A   1      42.273  25.600  27.522  1.00  0.00     0.031 A 
ATOM     35  C   UNL A   1      43.661  26.036  27.140  1.00  0.00     0.074 A 
ATOM     36  C   UNL A   1      41.440  26.466  28.128  1.00  0.00     0.049 A 
ATOM     37  N   UNL A   1      44.225  27.207  27.282  1.00  0.00    -0.248 NA
ATOM     38  C   UNL A   1      44.527  25.020  26.520  1.00  0.00     0.031 C 
ATOM     39  C   UNL A   1      40.081  26.161  28.575  1.00  0.00     0.029 A 
ATOM     40  N   UNL A   1      41.634  27.772  28.501  1.00  0.00    -0.354 N 
ATOM     41  C   UNL A   1      45.514  27.069  26.784  1.00  0.00     0.074 A 
ATOM     42  C   UNL A   1      45.655  25.696  26.346  1.00  0.00     0.031 C 
ATOM     43  C   UNL A   1      39.577  27.241  29.199  1.00  0.00     0.029 A 
ATOM     44  C   UNL A   1      40.578  28.307  29.200  1.00  0.00     0.049 A 
ATOM     45  H   UNL A   1      42.450  28.278  28.289  1.00  0.00     0.167 HD
ATOM     46  C   UNL A   1      46.487  28.004  26.681  1.00  0.00     0.034 A 
ATOM     47  C   UNL A   1      40.442  29.512  29.790  1.00  0.00     0.034 A 
ATOM     48  C   UNL A   1      46.351  29.372  27.101  1.00  0.00     0.049 A 
ATOM     49  C   UNL A   1      41.558  30.520  29.691  1.00  0.00     0.074 A 
ATOM     50  C   UNL A   1      47.258  30.408  26.960  1.00  0.00     0.029 A 
ATOM     51  N   UNL A   1      45.254  29.890  27.766  1.00  0.00    -0.354 N 
ATOM     52  N   UNL A   1      42.698  30.432  29.051  1.00  0.00    -0.248 NA
ATOM     53  C   UNL A   1      41.352  31.809  30.373  1.00  0.00     0.031 C 
ATOM     54  C   UNL A   1      46.718  31.549  27.562  1.00  0.00     0.029 A 
ATOM     55  C   UNL A   1      45.469  31.225  28.065  1.00  0.00     0.049 A 
ATOM     56  H   UNL A   1      44.440  29.385  27.994  1.00  0.00     0.167 HD
ATOM     57  C   UNL A   1      43.331  31.659  29.230  1.00  0.00     0.074 A 
ATOM     58  C   UNL A   1      42.437  32.482  30.014  1.00  0.00     0.031 C 
ATOM     59  C   UNL A   1      44.552  32.059  28.798  1.00  0.00     0.034 A 
BRANCH  46  60
ATOM     60  C   UNL A   1      47.785  27.596  26.042  1.00  0.00     0.023 A 
ATOM     61  C   UNL A   1      48.793  27.023  26.842  1.00  0.00     0.012 A 
ATOM     62  C   UNL A   1      47.973  27.698  24.651  1.00  0.00     0.148 A 
ATOM     63  C   UNL A   1      49.978  26.568  26.267  1.00  0.00     0.002 A 
ATOM     64  C   UNL A   1      49.144  27.212  24.082  1.00  0.00     0.091 A 
ATOM     65  F   UNL A   1      47.008  28.269  23.916  1.00  0.00    -0.205 F 
ATOM     66  C   UNL A   1      50.148  26.652  24.888  1.00  0.00     0.022 A 
BRANCH  64  67
ATOM     67  S   UNL A   1      49.435  27.217  22.309  1.00  0.00     0.127 S 
ATOM     68  O   UNL A   1      48.551  26.141  21.863  1.00  0.00    -0.237 OA
ATOM     69  O   UNL A   1      48.999  28.561  21.929  1.00  0.00    -0.237 OA
ATOM     70  O   UNL A   1      50.859  26.967  22.135  1.00  0.00    -0.744 OA
ENDBRANCH  64  67
ENDBRANCH  46  60
BRANCH  47  71
ATOM     71  C   UNL A   1      39.193  29.854  30.522  1.00  0.00     0.023 A 
ATOM     72  C   UNL A   1      39.013  29.399  31.842  1.00  0.00     0.012 A 
ATOM     73  C   UNL A   1      38.174  30.603  29.908  1.00  0.00     0.148 A 
ATOM     74  C   UNL A   1      37.825  29.661  32.527  1.00  0.00     0.002 A 
ATOM     75  C   UNL A   1      37.011  30.896  30.610  1.00  0.00     0.091 A 
ATOM     76  F   UNL A   1      38.351  31.002  28.640  1.00  0.00    -0.205 F 
ATOM     77  C   UNL A   1      36.828  30.418  31.915  1.00  0.00     0.022 A 
BRANCH  75  78
ATOM     78  S   UNL A   1      35.739  31.947  29.902  1.00  0.00     0.127 S 
ATOM     79  O   UNL A   1      34.850  32.151  31.042  1.00  0.00    -0.237 OA
ATOM     80  O   UNL A   1      36.498  33.130  29.496  1.00  0.00    -0.237 OA
ATOM     81  O   UNL A   1      35.201  31.167  28.794  1.00  0.00    -0.744 OA
ENDBRANCH  75  78
ENDBRANCH  47  71
BRANCH  59  82
ATOM     82  C   UNL A   1      44.999  33.455  29.144  1.00  0.00     0.023 A 
ATOM     83  C   UNL A   1      45.658  33.689  30.367  1.00  0.00     0.012 A 
ATOM     84  C   UNL A   1      44.843  34.516  28.229  1.00  0.00     0.148 A 
ATOM     85  C   UNL A   1      46.131  34.962  30.687  1.00  0.00     0.002 A 
ATOM     86  C   UNL A   1      45.357  35.771  28.535  1.00  0.00     0.091 A 
ATOM     87  F   UNL A   1      44.196  34.279  27.079  1.00  0.00    -0.205 F 
ATOM     88  C   UNL A   1      45.992  35.998  29.767  1.00  0.00     0.022 A 
BRANCH  86  89
ATOM     89  S   UNL A   1      45.306  37.139  27.371  1.00  0.00     0.127 S 
ATOM     90  O   UNL A   1      46.089  36.612  26.255  1.00  0.00    -0.237 OA
ATOM     91  O   UNL A   1      43.873  37.269  27.103  1.00  0.00    -0.237 OA
ATOM     92  O   UNL A   1      45.892  38.277  28.067  1.00  0.00    -0.744 OA
ENDBRANCH  86  89
ENDBRANCH  59  82
ENDBRANCH  33  34
ENDBRANCH  26  28
ENDBRANCH  25  26
ENDBRANCH  24  25
ENDBRANCH   1  24
TORSDOF 18
ENDMDL
