MODEL 1
REMARK VINA RESULT:     -12.7      0.000      0.000
REMARK SMILES CS(=O)(=O)c1ccc(/C=C(/C(=O)OCCOC(=O)c2ccc(-c3c4nc(c(-c5cccc(S(=O)(=O)[O-])c5F)c5ccc([nH]5)c(-c5cccc(S(=O)(=O)[O-])c5F)c5nc(c(-c6cccc(S(=O)(=O)[O-])c6F)c6ccc3[nH]6)C=C5)C=C4)cc2)c2ccc(-c3ccc(F)cc3F)cc2)cc1
REMARK SMILES IDX 15 1 14 2 13 3 11 4 12 5 10 6 9 7 8 8 5 9 6 10 97 11 7 12
REMARK SMILES IDX 96 13 2 14 1 15 3 16 4 17 82 18 83 19 95 20 84 21 94 22
REMARK SMILES IDX 85 23 86 24 87 25 92 26 88 27 91 28 93 29 89 30 90 31 16 32
REMARK SMILES IDX 17 33 18 34 19 35 20 36 81 37 21 38 80 39 22 40 23 41 24 42
REMARK SMILES IDX 74 43 25 44 79 45 73 46 75 47 26 48 78 49 72 50 71 51 27 53
REMARK SMILES IDX 59 54 39 55 58 56 40 57 43 58 57 59 76 60 41 61 42 62 56 64
REMARK SMILES IDX 77 65 44 66 28 67 29 68 37 69 30 70 32 71 38 72 31 73 33 74
REMARK SMILES IDX 34 75 35 76 36 77 60 78 61 79 69 80 62 81 64 82 70 83 63 84
REMARK SMILES IDX 65 85 66 86 67 87 68 88 45 89 46 90 54 91 47 92 49 93 55 94
REMARK SMILES IDX 48 95 50 96 51 97 52 98 53 99
REMARK H PARENT 75 52 43 63
REMARK Flexibility Score: inf
ROOT
ATOM      1  C   UNL A   1      33.242  28.977  25.205  1.00  0.00     0.275 C 
ENDROOT
BRANCH   1   2
ATOM      2  C   UNL A   1      33.745  28.092  24.067  1.00  0.00     0.275 C 
BRANCH   2   3
ATOM      3  O   UNL A   1      32.779  27.073  23.739  1.00  0.00    -0.458 OA
BRANCH   3   4
ATOM      4  C   UNL A   1      33.187  26.164  22.815  1.00  0.00     0.338 C 
ATOM      5  O   UNL A   1      33.487  26.413  21.655  1.00  0.00    -0.246 OA
BRANCH   4   6
ATOM      6  C   UNL A   1      33.261  24.786  23.385  1.00  0.00     0.067 C 
ATOM      7  C   UNL A   1      32.206  23.956  23.215  1.00  0.00     0.024 C 
BRANCH   7   8
ATOM      8  C   UNL A   1      32.169  22.495  23.453  1.00  0.00    -0.025 A 
ATOM      9  C   UNL A   1      32.420  19.714  23.730  1.00  0.00     0.067 A 
ATOM     10  C   UNL A   1      32.420  20.522  24.863  1.00  0.00     0.021 A 
ATOM     11  C   UNL A   1      32.196  20.264  22.468  1.00  0.00     0.021 A 
ATOM     12  C   UNL A   1      32.265  21.901  24.719  1.00  0.00     0.009 A 
ATOM     13  C   UNL A   1      32.075  21.651  22.335  1.00  0.00     0.009 A 
BRANCH   9  14
ATOM     14  S   UNL A   1      32.730  17.978  23.914  1.00  0.00     0.175 S 
ATOM     15  C   UNL A   1      34.447  17.912  24.364  1.00  0.00     0.163 C 
ATOM     16  O   UNL A   1      32.592  17.362  22.607  1.00  0.00    -0.224 OA
ATOM     17  O   UNL A   1      31.940  17.516  25.039  1.00  0.00    -0.224 OA
ENDBRANCH   9  14
ENDBRANCH   7   8
BRANCH   6  18
ATOM     18  C   UNL A   1      34.545  24.348  23.961  1.00  0.00    -0.011 A 
ATOM     19  C   UNL A   1      34.820  24.620  25.306  1.00  0.00     0.009 A 
ATOM     20  C   UNL A   1      35.470  23.613  23.218  1.00  0.00     0.009 A 
ATOM     21  C   UNL A   1      35.991  24.139  25.902  1.00  0.00     0.009 A 
ATOM     22  C   UNL A   1      36.637  23.130  23.826  1.00  0.00     0.009 A 
ATOM     23  C   UNL A   1      36.926  23.374  25.182  1.00  0.00    -0.015 A 
BRANCH  23  24
ATOM     24  C   UNL A   1      38.150  22.845  25.836  1.00  0.00     0.018 A 
ATOM     25  C   UNL A   1      38.906  23.650  26.714  1.00  0.00     0.015 A 
ATOM     26  C   UNL A   1      38.610  21.528  25.631  1.00  0.00     0.133 A 
ATOM     27  C   UNL A   1      40.051  23.160  27.351  1.00  0.00     0.040 A 
ATOM     28  C   UNL A   1      39.744  21.029  26.270  1.00  0.00     0.079 A 
ATOM     29  F   UNL A   1      37.954  20.697  24.807  1.00  0.00    -0.206 F 
ATOM     30  C   UNL A   1      40.453  21.852  27.129  1.00  0.00     0.126 A 
ATOM     31  F   UNL A   1      41.524  21.373  27.772  1.00  0.00    -0.207 F 
ENDBRANCH  23  24
ENDBRANCH   6  18
ENDBRANCH   4   6
ENDBRANCH   3   4
ENDBRANCH   2   3
ENDBRANCH   1   2
BRANCH   1  32
ATOM     32  O   UNL A   1      34.327  29.321  26.082  1.00  0.00    -0.458 OA
BRANCH  32  33
ATOM     33  C   UNL A   1      34.123  30.407  26.862  1.00  0.00     0.338 C 
ATOM     34  O   UNL A   1      33.223  31.224  26.772  1.00  0.00    -0.246 OA
BRANCH  33  35
ATOM     35  C   UNL A   1      35.156  30.480  27.909  1.00  0.00     0.060 A 
ATOM     36  C   UNL A   1      36.030  31.562  27.948  1.00  0.00     0.016 A 
ATOM     37  C   UNL A   1      35.361  29.383  28.744  1.00  0.00     0.016 A 
ATOM     38  C   UNL A   1      37.184  31.491  28.730  1.00  0.00     0.010 A 
ATOM     39  C   UNL A   1      36.456  29.373  29.614  1.00  0.00     0.010 A 
ATOM     40  C   UNL A   1      37.415  30.402  29.582  1.00  0.00    -0.014 A 
BRANCH  40  41
ATOM     41  C   UNL A   1      38.648  30.309  30.422  1.00  0.00     0.031 A 
ATOM     42  C   UNL A   1      39.817  29.468  29.965  1.00  0.00     0.074 A 
ATOM     43  C   UNL A   1      38.715  30.926  31.620  1.00  0.00     0.049 A 
ATOM     44  N   UNL A   1      40.823  29.002  30.659  1.00  0.00    -0.248 NA
ATOM     45  C   UNL A   1      39.845  29.080  28.544  1.00  0.00     0.031 C 
ATOM     46  C   UNL A   1      37.689  31.804  32.184  1.00  0.00     0.029 A 
ATOM     47  N   UNL A   1      39.683  30.882  32.596  1.00  0.00    -0.354 N 
ATOM     48  C   UNL A   1      41.541  28.185  29.792  1.00  0.00     0.074 A 
ATOM     49  C   UNL A   1      40.877  28.247  28.508  1.00  0.00     0.031 C 
ATOM     50  C   UNL A   1      38.081  32.223  33.394  1.00  0.00     0.029 A 
ATOM     51  C   UNL A   1      39.330  31.558  33.743  1.00  0.00     0.049 A 
ATOM     52  H   UNL A   1      40.542  30.414  32.487  1.00  0.00     0.167 HD
ATOM     53  C   UNL A   1      42.650  27.449  30.047  1.00  0.00     0.034 A 
ATOM     54  C   UNL A   1      39.894  31.589  34.966  1.00  0.00     0.034 A 
ATOM     55  C   UNL A   1      43.361  27.470  31.298  1.00  0.00     0.049 A 
ATOM     56  C   UNL A   1      41.132  30.780  35.221  1.00  0.00     0.074 A 
ATOM     57  C   UNL A   1      44.519  26.794  31.640  1.00  0.00     0.029 A 
ATOM     58  N   UNL A   1      42.996  28.222  32.404  1.00  0.00    -0.354 N 
ATOM     59  N   UNL A   1      41.798  30.014  34.393  1.00  0.00    -0.248 NA
ATOM     60  C   UNL A   1      41.698  30.839  36.576  1.00  0.00     0.031 C 
ATOM     61  C   UNL A   1      44.854  27.135  32.954  1.00  0.00     0.029 A 
ATOM     62  C   UNL A   1      43.910  28.033  33.426  1.00  0.00     0.049 A 
ATOM     63  H   UNL A   1      42.203  28.803  32.455  1.00  0.00     0.167 HD
ATOM     64  C   UNL A   1      42.875  29.519  35.117  1.00  0.00     0.074 A 
ATOM     65  C   UNL A   1      42.783  30.086  36.448  1.00  0.00     0.031 C 
ATOM     66  C   UNL A   1      43.842  28.656  34.721  1.00  0.00     0.034 A 
BRANCH  53  67
ATOM     67  C   UNL A   1      43.191  26.568  28.951  1.00  0.00     0.023 A 
ATOM     68  C   UNL A   1      42.749  25.237  28.835  1.00  0.00     0.012 A 
ATOM     69  C   UNL A   1      44.070  27.091  27.978  1.00  0.00     0.148 A 
ATOM     70  C   UNL A   1      43.187  24.432  27.782  1.00  0.00     0.002 A 
ATOM     71  C   UNL A   1      44.470  26.296  26.910  1.00  0.00     0.091 A 
ATOM     72  F   UNL A   1      44.499  28.354  28.116  1.00  0.00    -0.205 F 
ATOM     73  C   UNL A   1      44.036  24.965  26.815  1.00  0.00     0.022 A 
BRANCH  71  74
ATOM     74  S   UNL A   1      45.495  26.924  25.573  1.00  0.00     0.127 S 
ATOM     75  O   UNL A   1      45.643  25.737  24.732  1.00  0.00    -0.237 OA
ATOM     76  O   UNL A   1      44.651  27.975  25.000  1.00  0.00    -0.237 OA
ATOM     77  O   UNL A   1      46.715  27.408  26.202  1.00  0.00    -0.744 OA
ENDBRANCH  71  74
ENDBRANCH  53  67
BRANCH  54  78
ATOM     78  C   UNL A   1      39.271  32.418  36.036  1.00  0.00     0.023 A 
ATOM     79  C   UNL A   1      38.258  31.860  36.838  1.00  0.00     0.012 A 
ATOM     80  C   UNL A   1      39.733  33.719  36.320  1.00  0.00     0.148 A 
ATOM     81  C   UNL A   1      37.713  32.586  37.899  1.00  0.00     0.002 A 
ATOM     82  C   UNL A   1      39.234  34.408  37.418  1.00  0.00     0.091 A 
ATOM     83  F   UNL A   1      40.678  34.246  35.528  1.00  0.00    -0.205 F 
ATOM     84  C   UNL A   1      38.214  33.850  38.201  1.00  0.00     0.022 A 
BRANCH  82  85
ATOM     85  S   UNL A   1      39.951  35.963  37.966  1.00  0.00     0.127 S 
ATOM     86  O   UNL A   1      41.312  35.562  38.307  1.00  0.00    -0.237 OA
ATOM     87  O   UNL A   1      39.836  36.796  36.767  1.00  0.00    -0.237 OA
ATOM     88  O   UNL A   1      39.114  36.402  39.075  1.00  0.00    -0.744 OA
ENDBRANCH  82  85
ENDBRANCH  54  78
BRANCH  66  89
ATOM     89  C   UNL A   1      44.911  28.299  35.715  1.00  0.00     0.023 A 
ATOM     90  C   UNL A   1      46.125  29.011  35.720  1.00  0.00     0.012 A 
ATOM     91  C   UNL A   1      44.672  27.323  36.702  1.00  0.00     0.148 A 
ATOM     92  C   UNL A   1      47.095  28.747  36.686  1.00  0.00     0.002 A 
ATOM     93  C   UNL A   1      45.627  27.092  37.685  1.00  0.00     0.091 A 
ATOM     94  F   UNL A   1      43.515  26.646  36.665  1.00  0.00    -0.205 F 
ATOM     95  C   UNL A   1      46.841  27.797  37.674  1.00  0.00     0.022 A 
BRANCH  93  96
ATOM     96  S   UNL A   1      45.354  25.949  39.045  1.00  0.00     0.127 S 
ATOM     97  O   UNL A   1      44.184  26.536  39.696  1.00  0.00    -0.237 OA
ATOM     98  O   UNL A   1      45.095  24.691  38.344  1.00  0.00    -0.237 OA
ATOM     99  O   UNL A   1      46.579  25.962  39.833  1.00  0.00    -0.744 OA
ENDBRANCH  93  96
ENDBRANCH  66  89
ENDBRANCH  40  41
ENDBRANCH  33  35
ENDBRANCH  32  33
ENDBRANCH   1  32
TORSDOF 18
ENDMDL
MODEL 2
REMARK VINA RESULT:     -12.3      4.823     10.479
REMARK SMILES CS(=O)(=O)c1ccc(/C=C(/C(=O)OCCOC(=O)c2ccc(-c3c4nc(c(-c5cccc(S(=O)(=O)[O-])c5F)c5ccc([nH]5)c(-c5cccc(S(=O)(=O)[O-])c5F)c5nc(c(-c6cccc(S(=O)(=O)[O-])c6F)c6ccc3[nH]6)C=C5)C=C4)cc2)c2ccc(-c3ccc(F)cc3F)cc2)cc1
REMARK SMILES IDX 15 1 14 2 13 3 11 4 12 5 10 6 9 7 8 8 5 9 6 10 97 11 7 12
REMARK SMILES IDX 96 13 2 14 1 15 3 16 4 17 82 18 83 19 95 20 84 21 94 22
REMARK SMILES IDX 85 23 86 24 87 25 92 26 88 27 91 28 93 29 89 30 90 31 16 32
REMARK SMILES IDX 17 33 18 34 19 35 20 36 81 37 21 38 80 39 22 40 23 41 24 42
REMARK SMILES IDX 74 43 25 44 79 45 73 46 75 47 26 48 78 49 72 50 71 51 27 53
REMARK SMILES IDX 59 54 39 55 58 56 40 57 43 58 57 59 76 60 41 61 42 62 56 64
REMARK SMILES IDX 77 65 44 66 28 67 29 68 37 69 30 70 32 71 38 72 31 73 33 74
REMARK SMILES IDX 34 75 35 76 36 77 60 78 61 79 69 80 62 81 64 82 70 83 63 84
REMARK SMILES IDX 65 85 66 86 67 87 68 88 45 89 46 90 54 91 47 92 49 93 55 94
REMARK SMILES IDX 48 95 50 96 51 97 52 98 53 99
REMARK H PARENT 75 52 43 63
REMARK Flexibility Score: inf
ROOT
ATOM      1  C   UNL A   1      36.136  22.324  26.036  1.00  0.00     0.275 C 
ENDROOT
BRANCH   1   2
ATOM      2  C   UNL A   1      34.968  22.766  25.157  1.00  0.00     0.275 C 
BRANCH   2   3
ATOM      3  O   UNL A   1      34.036  23.574  25.905  1.00  0.00    -0.458 OA
BRANCH   3   4
ATOM      4  C   UNL A   1      32.743  23.495  25.494  1.00  0.00     0.338 C 
ATOM      5  O   UNL A   1      32.028  22.507  25.577  1.00  0.00    -0.246 OA
BRANCH   4   6
ATOM      6  C   UNL A   1      32.257  24.792  24.935  1.00  0.00     0.067 C 
ATOM      7  C   UNL A   1      31.299  24.769  23.981  1.00  0.00     0.024 C 
BRANCH   7   8
ATOM      8  C   UNL A   1      30.494  25.912  23.490  1.00  0.00    -0.025 A 
ATOM      9  C   UNL A   1      28.976  28.197  22.907  1.00  0.00     0.067 A 
ATOM     10  C   UNL A   1      30.239  28.048  22.344  1.00  0.00     0.021 A 
ATOM     11  C   UNL A   1      28.418  27.176  23.676  1.00  0.00     0.021 A 
ATOM     12  C   UNL A   1      30.977  26.896  22.616  1.00  0.00     0.009 A 
ATOM     13  C   UNL A   1      29.180  26.041  23.967  1.00  0.00     0.009 A 
BRANCH   9  14
ATOM     14  S   UNL A   1      28.094  29.714  22.648  1.00  0.00     0.175 S 
ATOM     15  C   UNL A   1      29.104  30.923  23.471  1.00  0.00     0.163 C 
ATOM     16  O   UNL A   1      26.837  29.625  23.369  1.00  0.00    -0.224 OA
ATOM     17  O   UNL A   1      28.115  29.987  21.224  1.00  0.00    -0.224 OA
ENDBRANCH   9  14
ENDBRANCH   7   8
BRANCH   6  18
ATOM     18  C   UNL A   1      32.730  26.036  25.570  1.00  0.00    -0.011 A 
ATOM     19  C   UNL A   1      33.787  26.743  24.987  1.00  0.00     0.009 A 
ATOM     20  C   UNL A   1      32.111  26.562  26.705  1.00  0.00     0.009 A 
ATOM     21  C   UNL A   1      34.197  27.971  25.518  1.00  0.00     0.009 A 
ATOM     22  C   UNL A   1      32.525  27.795  27.225  1.00  0.00     0.009 A 
ATOM     23  C   UNL A   1      33.573  28.534  26.644  1.00  0.00    -0.015 A 
BRANCH  23  24
ATOM     24  C   UNL A   1      33.999  29.853  27.178  1.00  0.00     0.018 A 
ATOM     25  C   UNL A   1      33.131  30.965  27.135  1.00  0.00     0.015 A 
ATOM     26  C   UNL A   1      35.266  30.063  27.759  1.00  0.00     0.133 A 
ATOM     27  C   UNL A   1      33.510  32.209  27.650  1.00  0.00     0.040 A 
ATOM     28  C   UNL A   1      35.648  31.296  28.283  1.00  0.00     0.079 A 
ATOM     29  F   UNL A   1      36.155  29.061  27.835  1.00  0.00    -0.206 F 
ATOM     30  C   UNL A   1      34.762  32.359  28.227  1.00  0.00     0.126 A 
ATOM     31  F   UNL A   1      35.108  33.539  28.757  1.00  0.00    -0.207 F 
ENDBRANCH  23  24
ENDBRANCH   6  18
ENDBRANCH   4   6
ENDBRANCH   3   4
ENDBRANCH   2   3
ENDBRANCH   1   2
BRANCH   1  32
ATOM     32  O   UNL A   1      37.381  22.743  25.454  1.00  0.00    -0.458 OA
BRANCH  32  33
ATOM     33  C   UNL A   1      38.495  22.286  26.069  1.00  0.00     0.338 C 
ATOM     34  O   UNL A   1      38.912  21.140  26.087  1.00  0.00    -0.246 OA
BRANCH  33  35
ATOM     35  C   UNL A   1      39.200  23.395  26.732  1.00  0.00     0.060 A 
ATOM     36  C   UNL A   1      38.892  24.711  26.400  1.00  0.00     0.016 A 
ATOM     37  C   UNL A   1      40.288  23.117  27.558  1.00  0.00     0.016 A 
ATOM     38  C   UNL A   1      39.750  25.741  26.788  1.00  0.00     0.010 A 
ATOM     39  C   UNL A   1      41.074  24.168  28.041  1.00  0.00     0.010 A 
ATOM     40  C   UNL A   1      40.850  25.492  27.620  1.00  0.00    -0.014 A 
BRANCH  40  41
ATOM     41  C   UNL A   1      41.781  26.583  28.040  1.00  0.00     0.031 A 
ATOM     42  C   UNL A   1      41.274  27.733  28.878  1.00  0.00     0.074 A 
ATOM     43  C   UNL A   1      43.067  26.589  27.633  1.00  0.00     0.049 A 
ATOM     44  N   UNL A   1      41.808  28.910  29.079  1.00  0.00    -0.248 NA
ATOM     45  C   UNL A   1      39.983  27.542  29.561  1.00  0.00     0.031 C 
ATOM     46  C   UNL A   1      43.718  25.535  26.854  1.00  0.00     0.029 A 
ATOM     47  N   UNL A   1      44.053  27.534  27.794  1.00  0.00    -0.354 N 
ATOM     48  C   UNL A   1      40.877  29.633  29.818  1.00  0.00     0.074 A 
ATOM     49  C   UNL A   1      39.757  28.750  30.063  1.00  0.00     0.031 C 
ATOM     50  C   UNL A   1      44.990  25.880  26.615  1.00  0.00     0.029 A 
ATOM     51  C   UNL A   1      45.215  27.228  27.122  1.00  0.00     0.049 A 
ATOM     52  H   UNL A   1      43.940  28.349  28.335  1.00  0.00     0.167 HD
ATOM     53  C   UNL A   1      40.950  30.916  30.248  1.00  0.00     0.034 A 
ATOM     54  C   UNL A   1      46.315  27.963  26.868  1.00  0.00     0.034 A 
ATOM     55  C   UNL A   1      42.108  31.756  30.085  1.00  0.00     0.049 A 
ATOM     56  C   UNL A   1      46.383  29.376  27.370  1.00  0.00     0.074 A 
ATOM     57  C   UNL A   1      42.296  33.055  30.524  1.00  0.00     0.029 A 
ATOM     58  N   UNL A   1      43.281  31.373  29.453  1.00  0.00    -0.354 N 
ATOM     59  N   UNL A   1      45.497  30.044  28.066  1.00  0.00    -0.248 NA
ATOM     60  C   UNL A   1      47.600  30.137  27.054  1.00  0.00     0.031 C 
ATOM     61  C   UNL A   1      43.583  33.459  30.156  1.00  0.00     0.029 A 
ATOM     62  C   UNL A   1      44.200  32.407  29.499  1.00  0.00     0.049 A 
ATOM     63  H   UNL A   1      43.436  30.496  29.034  1.00  0.00     0.167 HD
ATOM     64  C   UNL A   1      46.056  31.294  28.293  1.00  0.00     0.074 A 
ATOM     65  C   UNL A   1      47.367  31.286  27.674  1.00  0.00     0.031 C 
ATOM     66  C   UNL A   1      45.524  32.360  28.938  1.00  0.00     0.034 A 
BRANCH  53  67
ATOM     67  C   UNL A   1      39.758  31.501  30.961  1.00  0.00     0.023 A 
ATOM     68  C   UNL A   1      38.700  32.059  30.220  1.00  0.00     0.012 A 
ATOM     69  C   UNL A   1      39.647  31.409  32.365  1.00  0.00     0.148 A 
ATOM     70  C   UNL A   1      37.558  32.539  30.865  1.00  0.00     0.002 A 
ATOM     71  C   UNL A   1      38.489  31.852  32.996  1.00  0.00     0.091 A 
ATOM     72  F   UNL A   1      40.674  30.895  33.057  1.00  0.00    -0.205 F 
ATOM     73  C   UNL A   1      37.448  32.424  32.249  1.00  0.00     0.022 A 
BRANCH  71  74
ATOM     74  S   UNL A   1      38.226  31.667  34.765  1.00  0.00     0.127 S 
ATOM     75  O   UNL A   1      39.328  32.457  35.311  1.00  0.00    -0.237 OA
ATOM     76  O   UNL A   1      36.900  32.262  34.947  1.00  0.00    -0.237 OA
ATOM     77  O   UNL A   1      38.285  30.236  35.027  1.00  0.00    -0.744 OA
ENDBRANCH  71  74
ENDBRANCH  53  67
BRANCH  54  78
ATOM     78  C   UNL A   1      47.434  27.359  26.090  1.00  0.00     0.023 A 
ATOM     79  C   UNL A   1      47.508  27.583  24.703  1.00  0.00     0.012 A 
ATOM     80  C   UNL A   1      48.466  26.640  26.726  1.00  0.00     0.148 A 
ATOM     81  C   UNL A   1      48.587  27.096  23.963  1.00  0.00     0.002 A 
ATOM     82  C   UNL A   1      49.569  26.217  25.995  1.00  0.00     0.091 A 
ATOM     83  F   UNL A   1      48.365  26.411  28.043  1.00  0.00    -0.205 F 
ATOM     84  C   UNL A   1      49.626  26.432  24.611  1.00  0.00     0.022 A 
BRANCH  82  85
ATOM     85  S   UNL A   1      51.019  25.510  26.790  1.00  0.00     0.127 S 
ATOM     86  O   UNL A   1      50.441  24.388  27.523  1.00  0.00    -0.237 OA
ATOM     87  O   UNL A   1      51.848  25.136  25.643  1.00  0.00    -0.237 OA
ATOM     88  O   UNL A   1      51.577  26.586  27.599  1.00  0.00    -0.744 OA
ENDBRANCH  82  85
ENDBRANCH  54  78
BRANCH  66  89
ATOM     89  C   UNL A   1      46.366  33.600  29.055  1.00  0.00     0.023 A 
ATOM     90  C   UNL A   1      47.252  33.741  30.141  1.00  0.00     0.012 A 
ATOM     91  C   UNL A   1      46.348  34.576  28.040  1.00  0.00     0.148 A 
ATOM     92  C   UNL A   1      48.098  34.846  30.223  1.00  0.00     0.002 A 
ATOM     93  C   UNL A   1      47.221  35.655  28.108  1.00  0.00     0.091 A 
ATOM     94  F   UNL A   1      45.483  34.427  27.026  1.00  0.00    -0.205 F 
ATOM     95  C   UNL A   1      48.091  35.795  29.202  1.00  0.00     0.022 A 
BRANCH  93  96
ATOM     96  S   UNL A   1      47.343  36.881  26.801  1.00  0.00     0.127 S 
ATOM     97  O   UNL A   1      45.974  37.393  26.746  1.00  0.00    -0.237 OA
ATOM     98  O   UNL A   1      48.324  37.819  27.347  1.00  0.00    -0.237 OA
ATOM     99  O   UNL A   1      47.788  36.162  25.615  1.00  0.00    -0.744 OA
ENDBRANCH  93  96
ENDBRANCH  66  89
ENDBRANCH  40  41
ENDBRANCH  33  35
ENDBRANCH  32  33
ENDBRANCH   1  32
TORSDOF 18
ENDMDL
MODEL 3
REMARK VINA RESULT:     -12.2      1.865      2.271
REMARK SMILES CS(=O)(=O)c1ccc(/C=C(/C(=O)OCCOC(=O)c2ccc(-c3c4nc(c(-c5cccc(S(=O)(=O)[O-])c5F)c5ccc([nH]5)c(-c5cccc(S(=O)(=O)[O-])c5F)c5nc(c(-c6cccc(S(=O)(=O)[O-])c6F)c6ccc3[nH]6)C=C5)C=C4)cc2)c2ccc(-c3ccc(F)cc3F)cc2)cc1
REMARK SMILES IDX 15 1 14 2 13 3 11 4 12 5 10 6 9 7 8 8 5 9 6 10 97 11 7 12
REMARK SMILES IDX 96 13 2 14 1 15 3 16 4 17 82 18 83 19 95 20 84 21 94 22
REMARK SMILES IDX 85 23 86 24 87 25 92 26 88 27 91 28 93 29 89 30 90 31 16 32
REMARK SMILES IDX 17 33 18 34 19 35 20 36 81 37 21 38 80 39 22 40 23 41 24 42
REMARK SMILES IDX 74 43 25 44 79 45 73 46 75 47 26 48 78 49 72 50 71 51 27 53
REMARK SMILES IDX 59 54 39 55 58 56 40 57 43 58 57 59 76 60 41 61 42 62 56 64
REMARK SMILES IDX 77 65 44 66 28 67 29 68 37 69 30 70 32 71 38 72 31 73 33 74
REMARK SMILES IDX 34 75 35 76 36 77 60 78 61 79 69 80 62 81 64 82 70 83 63 84
REMARK SMILES IDX 65 85 66 86 67 87 68 88 45 89 46 90 54 91 47 92 49 93 55 94
REMARK SMILES IDX 48 95 50 96 51 97 52 98 53 99
REMARK H PARENT 75 52 43 63
REMARK Flexibility Score: inf
ROOT
ATOM      1  C   UNL A   1      32.860  28.946  24.914  1.00  0.00     0.275 C 
ENDROOT
BRANCH   1   2
ATOM      2  C   UNL A   1      33.074  27.442  24.760  1.00  0.00     0.275 C 
BRANCH   2   3
ATOM      3  O   UNL A   1      32.461  26.954  23.549  1.00  0.00    -0.458 OA
BRANCH   3   4
ATOM      4  C   UNL A   1      33.235  26.124  22.802  1.00  0.00     0.338 C 
ATOM      5  O   UNL A   1      33.846  26.438  21.790  1.00  0.00    -0.246 OA
BRANCH   4   6
ATOM      6  C   UNL A   1      33.290  24.746  23.377  1.00  0.00     0.067 C 
ATOM      7  C   UNL A   1      32.229  23.926  23.197  1.00  0.00     0.024 C 
BRANCH   7   8
ATOM      8  C   UNL A   1      32.175  22.466  23.439  1.00  0.00    -0.025 A 
ATOM      9  C   UNL A   1      32.402  19.686  23.740  1.00  0.00     0.067 A 
ATOM     10  C   UNL A   1      32.351  20.499  24.868  1.00  0.00     0.021 A 
ATOM     11  C   UNL A   1      32.240  20.231  22.466  1.00  0.00     0.021 A 
ATOM     12  C   UNL A   1      32.209  21.878  24.711  1.00  0.00     0.009 A 
ATOM     13  C   UNL A   1      32.132  21.618  22.321  1.00  0.00     0.009 A 
BRANCH   9  14
ATOM     14  S   UNL A   1      32.696  17.949  23.945  1.00  0.00     0.175 S 
ATOM     15  C   UNL A   1      34.421  17.871  24.363  1.00  0.00     0.163 C 
ATOM     16  O   UNL A   1      32.527  17.314  22.651  1.00  0.00    -0.224 OA
ATOM     17  O   UNL A   1      31.923  17.514  25.091  1.00  0.00    -0.224 OA
ENDBRANCH   9  14
ENDBRANCH   7   8
BRANCH   6  18
ATOM     18  C   UNL A   1      34.563  24.298  23.970  1.00  0.00    -0.011 A 
ATOM     19  C   UNL A   1      34.797  24.513  25.332  1.00  0.00     0.009 A 
ATOM     20  C   UNL A   1      35.517  23.608  23.222  1.00  0.00     0.009 A 
ATOM     21  C   UNL A   1      35.957  24.020  25.940  1.00  0.00     0.009 A 
ATOM     22  C   UNL A   1      36.672  23.111  23.841  1.00  0.00     0.009 A 
ATOM     23  C   UNL A   1      36.920  23.298  25.214  1.00  0.00    -0.015 A 
BRANCH  23  24
ATOM     24  C   UNL A   1      38.133  22.754  25.878  1.00  0.00     0.018 A 
ATOM     25  C   UNL A   1      38.534  21.418  25.667  1.00  0.00     0.015 A 
ATOM     26  C   UNL A   1      38.943  23.530  26.731  1.00  0.00     0.133 A 
ATOM     27  C   UNL A   1      39.682  20.895  26.271  1.00  0.00     0.040 A 
ATOM     28  C   UNL A   1      40.095  23.020  27.329  1.00  0.00     0.079 A 
ATOM     29  F   UNL A   1      38.631  24.809  26.991  1.00  0.00    -0.206 F 
ATOM     30  C   UNL A   1      40.456  21.705  27.088  1.00  0.00     0.126 A 
ATOM     31  F   UNL A   1      41.576  21.216  27.632  1.00  0.00    -0.207 F 
ENDBRANCH  23  24
ENDBRANCH   6  18
ENDBRANCH   4   6
ENDBRANCH   3   4
ENDBRANCH   2   3
ENDBRANCH   1   2
BRANCH   1  32
ATOM     32  O   UNL A   1      33.954  29.531  25.639  1.00  0.00    -0.458 OA
BRANCH  32  33
ATOM     33  C   UNL A   1      33.608  30.278  26.712  1.00  0.00     0.338 C 
ATOM     34  O   UNL A   1      32.520  30.776  26.947  1.00  0.00    -0.246 OA
BRANCH  33  35
ATOM     35  C   UNL A   1      34.753  30.410  27.628  1.00  0.00     0.060 A 
ATOM     36  C   UNL A   1      35.410  31.631  27.749  1.00  0.00     0.016 A 
ATOM     37  C   UNL A   1      35.278  29.269  28.235  1.00  0.00     0.016 A 
ATOM     38  C   UNL A   1      36.659  31.686  28.368  1.00  0.00     0.010 A 
ATOM     39  C   UNL A   1      36.472  29.358  28.956  1.00  0.00     0.010 A 
ATOM     40  C   UNL A   1      37.210  30.556  28.989  1.00  0.00    -0.014 A 
BRANCH  40  41
ATOM     41  C   UNL A   1      38.549  30.598  29.651  1.00  0.00     0.031 A 
ATOM     42  C   UNL A   1      39.737  29.922  29.007  1.00  0.00     0.074 A 
ATOM     43  C   UNL A   1      38.706  31.187  30.855  1.00  0.00     0.049 A 
ATOM     44  N   UNL A   1      40.878  29.569  29.540  1.00  0.00    -0.248 NA
ATOM     45  C   UNL A   1      39.615  29.577  27.580  1.00  0.00     0.031 C 
ATOM     46  C   UNL A   1      37.669  31.914  31.588  1.00  0.00     0.029 A 
ATOM     47  N   UNL A   1      39.797  31.240  31.690  1.00  0.00    -0.354 N 
ATOM     48  C   UNL A   1      41.563  28.871  28.550  1.00  0.00     0.074 A 
ATOM     49  C   UNL A   1      40.726  28.882  27.371  1.00  0.00     0.031 C 
ATOM     50  C   UNL A   1      38.170  32.349  32.752  1.00  0.00     0.029 A 
ATOM     51  C   UNL A   1      39.526  31.837  32.901  1.00  0.00     0.049 A 
ATOM     52  H   UNL A   1      40.683  30.887  31.447  1.00  0.00     0.167 HD
ATOM     53  C   UNL A   1      42.777  28.274  28.623  1.00  0.00     0.034 A 
ATOM     54  C   UNL A   1      40.246  31.907  34.038  1.00  0.00     0.034 A 
ATOM     55  C   UNL A   1      43.647  28.352  29.768  1.00  0.00     0.049 A 
ATOM     56  C   UNL A   1      41.597  31.255  34.090  1.00  0.00     0.074 A 
ATOM     57  C   UNL A   1      44.914  27.819  29.923  1.00  0.00     0.029 A 
ATOM     58  N   UNL A   1      43.349  29.024  30.943  1.00  0.00    -0.354 N 
ATOM     59  N   UNL A   1      42.230  30.600  33.149  1.00  0.00    -0.248 NA
ATOM     60  C   UNL A   1      42.333  31.350  35.359  1.00  0.00     0.031 C 
ATOM     61  C   UNL A   1      45.384  28.166  31.193  1.00  0.00     0.029 A 
ATOM     62  C   UNL A   1      44.412  28.926  31.824  1.00  0.00     0.049 A 
ATOM     63  H   UNL A   1      42.507  29.499  31.124  1.00  0.00     0.167 HD
ATOM     64  C   UNL A   1      43.448  30.226  33.700  1.00  0.00     0.074 A 
ATOM     65  C   UNL A   1      43.472  30.743  35.054  1.00  0.00     0.031 C 
ATOM     66  C   UNL A   1      44.448  29.503  33.143  1.00  0.00     0.034 A 
BRANCH  53  67
ATOM     67  C   UNL A   1      43.265  27.497  27.428  1.00  0.00     0.023 A 
ATOM     68  C   UNL A   1      43.840  28.173  26.335  1.00  0.00     0.012 A 
ATOM     69  C   UNL A   1      43.240  26.085  27.432  1.00  0.00     0.148 A 
ATOM     70  C   UNL A   1      44.362  27.461  25.254  1.00  0.00     0.002 A 
ATOM     71  C   UNL A   1      43.798  25.382  26.369  1.00  0.00     0.091 A 
ATOM     72  F   UNL A   1      42.669  25.458  28.470  1.00  0.00    -0.205 F 
ATOM     73  C   UNL A   1      44.352  26.068  25.278  1.00  0.00     0.022 A 
BRANCH  71  74
ATOM     74  S   UNL A   1      43.905  23.588  26.354  1.00  0.00     0.127 S 
ATOM     75  O   UNL A   1      45.293  23.378  25.943  1.00  0.00    -0.237 OA
ATOM     76  O   UNL A   1      43.625  23.246  27.750  1.00  0.00    -0.237 OA
ATOM     77  O   UNL A   1      42.893  23.138  25.409  1.00  0.00    -0.744 OA
ENDBRANCH  71  74
ENDBRANCH  53  67
BRANCH  54  78
ATOM     78  C   UNL A   1      39.682  32.624  35.216  1.00  0.00     0.023 A 
ATOM     79  C   UNL A   1      39.716  34.030  35.249  1.00  0.00     0.012 A 
ATOM     80  C   UNL A   1      39.037  31.928  36.260  1.00  0.00     0.148 A 
ATOM     81  C   UNL A   1      39.124  34.729  36.302  1.00  0.00     0.002 A 
ATOM     82  C   UNL A   1      38.392  32.633  37.268  1.00  0.00     0.091 A 
ATOM     83  F   UNL A   1      39.040  30.588  36.228  1.00  0.00    -0.205 F 
ATOM     84  C   UNL A   1      38.445  34.033  37.300  1.00  0.00     0.022 A 
BRANCH  82  85
ATOM     85  S   UNL A   1      37.357  31.809  38.486  1.00  0.00     0.127 S 
ATOM     86  O   UNL A   1      38.182  31.896  39.688  1.00  0.00    -0.237 OA
ATOM     87  O   UNL A   1      36.162  32.654  38.498  1.00  0.00    -0.237 OA
ATOM     88  O   UNL A   1      37.132  30.470  37.958  1.00  0.00    -0.744 OA
ENDBRANCH  82  85
ENDBRANCH  54  78
BRANCH  66  89
ATOM     89  C   UNL A   1      45.680  29.257  33.969  1.00  0.00     0.023 A 
ATOM     90  C   UNL A   1      46.718  30.208  33.973  1.00  0.00     0.012 A 
ATOM     91  C   UNL A   1      45.764  28.131  34.810  1.00  0.00     0.148 A 
ATOM     92  C   UNL A   1      47.831  30.035  34.795  1.00  0.00     0.002 A 
ATOM     93  C   UNL A   1      46.857  27.984  35.655  1.00  0.00     0.091 A 
ATOM     94  F   UNL A   1      44.771  27.230  34.774  1.00  0.00    -0.205 F 
ATOM     95  C   UNL A   1      47.894  28.931  35.643  1.00  0.00     0.022 A 
BRANCH  93  96
ATOM     96  S   UNL A   1      46.987  26.641  36.841  1.00  0.00     0.127 S 
ATOM     97  O   UNL A   1      46.990  25.471  35.964  1.00  0.00    -0.237 OA
ATOM     98  O   UNL A   1      48.269  26.922  37.488  1.00  0.00    -0.237 OA
ATOM     99  O   UNL A   1      45.828  26.762  37.715  1.00  0.00    -0.744 OA
ENDBRANCH  93  96
ENDBRANCH  66  89
ENDBRANCH  40  41
ENDBRANCH  33  35
ENDBRANCH  32  33
ENDBRANCH   1  32
TORSDOF 18
ENDMDL
