MODEL 1
REMARK VINA RESULT:     -12.1      0.000      0.000
REMARK SMILES Cn1ccc(C(=O)NCc2ccc(C(=O)OCCOC(=O)c3ccc(-c4c5nc(c(-c6cccc(S(=O)(=O)[O-])c6F)c6ccc([nH]6)c(-c6cccc(S(=O)(=O)[O-])c6F)c6nc(c(-c7cccc(S(=O)(=O)[O-])c7F)c7ccc4[nH]7)C=C6)C=C5)cc3)cc2)cc1=O
REMARK SMILES IDX 17 1 16 2 14 3 15 4 13 5 10 6 11 7 86 8 12 9 85 10 9 11 8 12
REMARK SMILES IDX 6 13 7 14 5 16 1 17 2 18 3 19 88 20 4 21 87 22 89 23 18 24
REMARK SMILES IDX 19 25 20 26 21 27 22 28 23 29 84 30 24 31 83 32 25 33 26 34
REMARK SMILES IDX 27 35 77 36 28 37 82 38 76 39 78 40 29 41 81 42 75 43 74 44
REMARK SMILES IDX 30 46 62 47 42 48 61 49 43 50 46 51 60 52 79 53 44 54 45 55
REMARK SMILES IDX 59 57 80 58 47 59 31 60 32 61 40 62 33 63 35 64 41 65 34 66
REMARK SMILES IDX 36 67 37 68 38 69 39 70 63 71 64 72 72 73 65 74 67 75 73 76
REMARK SMILES IDX 66 77 68 78 69 79 70 80 71 81 48 82 49 83 57 84 50 85 52 86
REMARK SMILES IDX 58 87 51 88 53 89 54 90 55 91 56 92
REMARK H PARENT 8 15 78 45 46 56
REMARK Flexibility Score: inf
ROOT
ATOM      1  C   UNL A   1      35.688  20.043  25.057  1.00  0.00     0.275 C 
ENDROOT
BRANCH   1   2
ATOM      2  O   UNL A   1      34.851  21.102  25.568  1.00  0.00    -0.458 OA
BRANCH   2   3
ATOM      3  C   UNL A   1      33.606  21.186  25.033  1.00  0.00     0.338 C 
ATOM      4  O   UNL A   1      32.669  20.438  25.258  1.00  0.00    -0.246 OA
BRANCH   3   5
ATOM      5  C   UNL A   1      33.481  22.393  24.179  1.00  0.00     0.060 A 
ATOM      6  C   UNL A   1      33.318  24.725  22.599  1.00  0.00    -0.029 A 
ATOM      7  C   UNL A   1      34.255  24.635  23.632  1.00  0.00     0.006 A 
ATOM      8  C   UNL A   1      32.466  23.627  22.368  1.00  0.00     0.006 A 
ATOM      9  C   UNL A   1      34.302  23.499  24.440  1.00  0.00     0.016 A 
ATOM     10  C   UNL A   1      32.551  22.465  23.144  1.00  0.00     0.016 A 
BRANCH   6  11
ATOM     11  C   UNL A   1      33.286  25.972  21.744  1.00  0.00     0.152 C 
BRANCH  11  12
ATOM     12  N   UNL A   1      33.562  27.160  22.519  1.00  0.00    -0.348 N 
ATOM     13  C   UNL A   1      32.803  28.179  22.984  1.00  0.00     0.251 C 
ATOM     14  O   UNL A   1      33.421  29.130  23.479  1.00  0.00    -0.269 OA
ATOM     15  H   UNL A   1      34.513  27.248  22.763  1.00  0.00     0.164 HD
BRANCH  13  16
ATOM     16  C   UNL A   1      31.300  28.186  23.014  1.00  0.00     0.046 A 
ATOM     17  C   UNL A   1      27.080  28.767  23.037  1.00  0.00     0.153 C 
ATOM     18  N   UNL A   1      28.515  28.533  23.000  1.00  0.00    -0.319 N 
ATOM     19  C   UNL A   1      29.323  29.478  22.406  1.00  0.00     0.089 A 
ATOM     20  C   UNL A   1      29.034  27.367  23.552  1.00  0.00     0.251 A 
ATOM     21  C   UNL A   1      30.652  29.338  22.397  1.00  0.00     0.032 A 
ATOM     22  C   UNL A   1      30.517  27.212  23.502  1.00  0.00     0.085 A 
ATOM     23  O   UNL A   1      28.364  26.482  24.078  1.00  0.00    -0.269 OA
ENDBRANCH  13  16
ENDBRANCH  11  12
ENDBRANCH   6  11
ENDBRANCH   3   5
ENDBRANCH   2   3
ENDBRANCH   1   2
BRANCH   1  24
ATOM     24  C   UNL A   1      37.066  20.563  24.642  1.00  0.00     0.275 C 
BRANCH  24  25
ATOM     25  O   UNL A   1      37.587  21.473  25.626  1.00  0.00    -0.458 OA
BRANCH  25  26
ATOM     26  C   UNL A   1      38.862  21.232  26.010  1.00  0.00     0.338 C 
ATOM     27  O   UNL A   1      39.531  20.240  25.775  1.00  0.00    -0.246 OA
BRANCH  26  28
ATOM     28  C   UNL A   1      39.417  22.406  26.696  1.00  0.00     0.060 A 
ATOM     29  C   UNL A   1      38.933  23.654  26.328  1.00  0.00     0.016 A 
ATOM     30  C   UNL A   1      40.524  22.307  27.531  1.00  0.00     0.016 A 
ATOM     31  C   UNL A   1      39.634  24.807  26.661  1.00  0.00     0.010 A 
ATOM     32  C   UNL A   1      41.147  23.479  27.984  1.00  0.00     0.010 A 
ATOM     33  C   UNL A   1      40.743  24.745  27.516  1.00  0.00    -0.014 A 
BRANCH  33  34
ATOM     34  C   UNL A   1      41.467  25.993  27.908  1.00  0.00     0.031 A 
ATOM     35  C   UNL A   1      40.764  27.076  28.692  1.00  0.00     0.074 A 
ATOM     36  C   UNL A   1      42.756  26.173  27.544  1.00  0.00     0.049 A 
ATOM     37  N   UNL A   1      41.166  28.292  28.964  1.00  0.00    -0.248 NA
ATOM     38  C   UNL A   1      39.429  26.760  29.228  1.00  0.00     0.031 C 
ATOM     39  C   UNL A   1      43.567  25.213  26.789  1.00  0.00     0.029 A 
ATOM     40  N   UNL A   1      43.609  27.233  27.739  1.00  0.00    -0.354 N 
ATOM     41  C   UNL A   1      40.106  28.912  29.619  1.00  0.00     0.074 A 
ATOM     42  C   UNL A   1      39.048  27.930  29.724  1.00  0.00     0.031 C 
ATOM     43  C   UNL A   1      44.793  25.717  26.599  1.00  0.00     0.029 A 
ATOM     44  C   UNL A   1      44.830  27.076  27.121  1.00  0.00     0.049 A 
ATOM     45  H   UNL A   1      43.370  28.029  28.268  1.00  0.00     0.167 HD
ATOM     46  C   UNL A   1      40.023  30.179  30.087  1.00  0.00     0.034 A 
ATOM     47  C   UNL A   1      45.846  27.939  26.932  1.00  0.00     0.034 A 
ATOM     48  C   UNL A   1      41.105  31.128  30.049  1.00  0.00     0.049 A 
ATOM     49  C   UNL A   1      45.728  29.334  27.473  1.00  0.00     0.074 A 
ATOM     50  C   UNL A   1      41.138  32.412  30.566  1.00  0.00     0.029 A 
ATOM     51  N   UNL A   1      42.340  30.902  29.464  1.00  0.00    -0.354 N 
ATOM     52  N   UNL A   1      44.745  29.876  28.148  1.00  0.00    -0.248 NA
ATOM     53  C   UNL A   1      46.866  30.235  27.240  1.00  0.00     0.031 C 
ATOM     54  C   UNL A   1      42.380  32.975  30.261  1.00  0.00     0.029 A 
ATOM     55  C   UNL A   1      43.137  32.027  29.592  1.00  0.00     0.049 A 
ATOM     56  H   UNL A   1      42.612  30.065  29.022  1.00  0.00     0.167 HD
ATOM     57  C   UNL A   1      45.156  31.168  28.445  1.00  0.00     0.074 A 
ATOM     58  C   UNL A   1      46.489  31.321  27.901  1.00  0.00     0.031 C 
ATOM     59  C   UNL A   1      44.482  32.148  29.094  1.00  0.00     0.034 A 
BRANCH  46  60
ATOM     60  C   UNL A   1      38.721  30.637  30.695  1.00  0.00     0.023 A 
ATOM     61  C   UNL A   1      38.529  30.584  32.089  1.00  0.00     0.012 A 
ATOM     62  C   UNL A   1      37.724  31.219  29.882  1.00  0.00     0.148 A 
ATOM     63  C   UNL A   1      37.358  31.082  32.663  1.00  0.00     0.002 A 
ATOM     64  C   UNL A   1      36.582  31.754  30.464  1.00  0.00     0.091 A 
ATOM     65  F   UNL A   1      37.919  31.246  28.555  1.00  0.00    -0.205 F 
ATOM     66  C   UNL A   1      36.392  31.676  31.854  1.00  0.00     0.022 A 
BRANCH  64  67
ATOM     67  S   UNL A   1      35.321  32.617  29.519  1.00  0.00     0.127 S 
ATOM     68  O   UNL A   1      34.344  32.939  30.558  1.00  0.00    -0.237 OA
ATOM     69  O   UNL A   1      36.063  33.768  29.002  1.00  0.00    -0.237 OA
ATOM     70  O   UNL A   1      34.863  31.681  28.505  1.00  0.00    -0.744 OA
ENDBRANCH  64  67
ENDBRANCH  46  60
BRANCH  47  71
ATOM     71  C   UNL A   1      47.054  27.515  26.164  1.00  0.00     0.023 A 
ATOM     72  C   UNL A   1      48.077  26.794  26.808  1.00  0.00     0.012 A 
ATOM     73  C   UNL A   1      47.185  27.813  24.792  1.00  0.00     0.148 A 
ATOM     74  C   UNL A   1      49.222  26.408  26.109  1.00  0.00     0.002 A 
ATOM     75  C   UNL A   1      48.296  27.367  24.087  1.00  0.00     0.091 A 
ATOM     76  F   UNL A   1      46.211  28.518  24.198  1.00  0.00    -0.205 F 
ATOM     77  C   UNL A   1      49.326  26.683  24.748  1.00  0.00     0.022 A 
BRANCH  75  78
ATOM     78  S   UNL A   1      48.435  27.552  22.306  1.00  0.00     0.127 S 
ATOM     79  O   UNL A   1      49.634  28.376  22.184  1.00  0.00    -0.237 OA
ATOM     80  O   UNL A   1      48.593  26.165  21.868  1.00  0.00    -0.237 OA
ATOM     81  O   UNL A   1      47.189  28.173  21.879  1.00  0.00    -0.744 OA
ENDBRANCH  75  78
ENDBRANCH  47  71
BRANCH  59  82
ATOM     82  C   UNL A   1      45.190  33.460  29.301  1.00  0.00     0.023 A 
ATOM     83  C   UNL A   1      45.990  33.659  30.443  1.00  0.00     0.012 A 
ATOM     84  C   UNL A   1      45.108  34.475  28.326  1.00  0.00     0.148 A 
ATOM     85  C   UNL A   1      46.671  34.861  30.629  1.00  0.00     0.002 A 
ATOM     86  C   UNL A   1      45.831  35.649  28.493  1.00  0.00     0.091 A 
ATOM     87  F   UNL A   1      44.325  34.273  27.257  1.00  0.00    -0.205 F 
ATOM     88  C   UNL A   1      46.601  35.849  29.650  1.00  0.00     0.022 A 
BRANCH  86  89
ATOM     89  S   UNL A   1      45.882  36.934  27.240  1.00  0.00     0.127 S 
ATOM     90  O   UNL A   1      46.881  37.848  27.792  1.00  0.00    -0.237 OA
ATOM     91  O   UNL A   1      46.321  36.194  26.056  1.00  0.00    -0.237 OA
ATOM     92  O   UNL A   1      44.530  37.467  27.153  1.00  0.00    -0.744 OA
ENDBRANCH  86  89
ENDBRANCH  59  82
ENDBRANCH  33  34
ENDBRANCH  26  28
ENDBRANCH  25  26
ENDBRANCH  24  25
ENDBRANCH   1  24
TORSDOF 17
ENDMDL
MODEL 2
REMARK VINA RESULT:     -12.1      5.317     10.418
REMARK SMILES Cn1ccc(C(=O)NCc2ccc(C(=O)OCCOC(=O)c3ccc(-c4c5nc(c(-c6cccc(S(=O)(=O)[O-])c6F)c6ccc([nH]6)c(-c6cccc(S(=O)(=O)[O-])c6F)c6nc(c(-c7cccc(S(=O)(=O)[O-])c7F)c7ccc4[nH]7)C=C6)C=C5)cc3)cc2)cc1=O
REMARK SMILES IDX 17 1 16 2 14 3 15 4 13 5 10 6 11 7 86 8 12 9 85 10 9 11 8 12
REMARK SMILES IDX 6 13 7 14 5 16 1 17 2 18 3 19 88 20 4 21 87 22 89 23 18 24
REMARK SMILES IDX 19 25 20 26 21 27 22 28 23 29 84 30 24 31 83 32 25 33 26 34
REMARK SMILES IDX 27 35 77 36 28 37 82 38 76 39 78 40 29 41 81 42 75 43 74 44
REMARK SMILES IDX 30 46 62 47 42 48 61 49 43 50 46 51 60 52 79 53 44 54 45 55
REMARK SMILES IDX 59 57 80 58 47 59 31 60 32 61 40 62 33 63 35 64 41 65 34 66
REMARK SMILES IDX 36 67 37 68 38 69 39 70 63 71 64 72 72 73 65 74 67 75 73 76
REMARK SMILES IDX 66 77 68 78 69 79 70 80 71 81 48 82 49 83 57 84 50 85 52 86
REMARK SMILES IDX 58 87 51 88 53 89 54 90 55 91 56 92
REMARK H PARENT 8 15 78 45 46 56
REMARK Flexibility Score: inf
ROOT
ATOM      1  C   UNL A   1      31.330  29.326  24.171  1.00  0.00     0.275 C 
ENDROOT
BRANCH   1   2
ATOM      2  O   UNL A   1      30.916  27.944  24.207  1.00  0.00    -0.458 OA
BRANCH   2   3
ATOM      3  C   UNL A   1      30.821  27.320  23.006  1.00  0.00     0.338 C 
ATOM      4  O   UNL A   1      30.573  27.847  21.933  1.00  0.00    -0.246 OA
BRANCH   3   5
ATOM      5  C   UNL A   1      31.157  25.881  23.132  1.00  0.00     0.060 A 
ATOM      6  C   UNL A   1      31.872  23.158  23.320  1.00  0.00    -0.029 A 
ATOM      7  C   UNL A   1      32.606  24.027  22.508  1.00  0.00     0.006 A 
ATOM      8  C   UNL A   1      30.776  23.675  24.038  1.00  0.00     0.006 A 
ATOM      9  C   UNL A   1      32.222  25.362  22.383  1.00  0.00     0.016 A 
ATOM     10  C   UNL A   1      30.425  25.028  23.955  1.00  0.00     0.016 A 
BRANCH   6  11
ATOM     11  C   UNL A   1      32.308  21.714  23.431  1.00  0.00     0.152 C 
BRANCH  11  12
ATOM     12  N   UNL A   1      33.632  21.597  23.998  1.00  0.00    -0.348 N 
ATOM     13  C   UNL A   1      34.301  20.605  24.631  1.00  0.00     0.251 C 
ATOM     14  O   UNL A   1      35.383  20.923  25.139  1.00  0.00    -0.269 OA
ATOM     15  H   UNL A   1      34.166  22.419  23.903  1.00  0.00     0.164 HD
BRANCH  13  16
ATOM     16  C   UNL A   1      33.863  19.167  24.679  1.00  0.00     0.046 A 
ATOM     17  C   UNL A   1      32.505  15.188  25.358  1.00  0.00     0.153 C 
ATOM     18  N   UNL A   1      32.944  16.548  25.087  1.00  0.00    -0.319 N 
ATOM     19  C   UNL A   1      32.514  17.558  25.918  1.00  0.00     0.089 A 
ATOM     20  C   UNL A   1      33.773  16.796  23.998  1.00  0.00     0.251 A 
ATOM     21  C   UNL A   1      32.935  18.815  25.747  1.00  0.00     0.032 A 
ATOM     22  C   UNL A   1      34.204  18.210  23.802  1.00  0.00     0.085 A 
ATOM     23  O   UNL A   1      34.172  15.941  23.212  1.00  0.00    -0.269 OA
ENDBRANCH  13  16
ENDBRANCH  11  12
ENDBRANCH   6  11
ENDBRANCH   3   5
ENDBRANCH   2   3
ENDBRANCH   1   2
BRANCH   1  24
ATOM     24  C   UNL A   1      31.433  29.921  25.577  1.00  0.00     0.275 C 
BRANCH  24  25
ATOM     25  O   UNL A   1      32.791  29.883  26.051  1.00  0.00    -0.458 OA
BRANCH  25  26
ATOM     26  C   UNL A   1      33.140  30.901  26.870  1.00  0.00     0.338 C 
ATOM     27  O   UNL A   1      32.425  31.801  27.280  1.00  0.00    -0.246 OA
BRANCH  26  28
ATOM     28  C   UNL A   1      34.530  30.741  27.316  1.00  0.00     0.060 A 
ATOM     29  C   UNL A   1      34.996  29.449  27.517  1.00  0.00     0.016 A 
ATOM     30  C   UNL A   1      35.295  31.829  27.724  1.00  0.00     0.016 A 
ATOM     31  C   UNL A   1      36.150  29.225  28.258  1.00  0.00     0.010 A 
ATOM     32  C   UNL A   1      36.531  31.601  28.346  1.00  0.00     0.010 A 
ATOM     33  C   UNL A   1      36.954  30.297  28.668  1.00  0.00    -0.014 A 
BRANCH  33  34
ATOM     34  C   UNL A   1      38.218  30.047  29.426  1.00  0.00     0.031 A 
ATOM     35  C   UNL A   1      39.287  29.139  28.864  1.00  0.00     0.074 A 
ATOM     36  C   UNL A   1      38.408  30.618  30.636  1.00  0.00     0.049 A 
ATOM     37  N   UNL A   1      40.357  28.664  29.448  1.00  0.00    -0.248 NA
ATOM     38  C   UNL A   1      39.125  28.692  27.470  1.00  0.00     0.031 C 
ATOM     39  C   UNL A   1      37.468  31.523  31.305  1.00  0.00     0.029 A 
ATOM     40  N   UNL A   1      39.445  30.509  31.532  1.00  0.00    -0.354 N 
ATOM     41  C   UNL A   1      40.944  27.796  28.530  1.00  0.00     0.074 A 
ATOM     42  C   UNL A   1      40.122  27.827  27.341  1.00  0.00     0.031 C 
ATOM     43  C   UNL A   1      37.972  31.894  32.489  1.00  0.00     0.029 A 
ATOM     44  C   UNL A   1      39.219  31.177  32.716  1.00  0.00     0.049 A 
ATOM     45  H   UNL A   1      40.269  30.003  31.347  1.00  0.00     0.167 HD
ATOM     46  C   UNL A   1      42.062  27.046  28.668  1.00  0.00     0.034 A 
ATOM     47  C   UNL A   1      39.894  31.170  33.881  1.00  0.00     0.034 A 
ATOM     48  C   UNL A   1      42.919  27.076  29.824  1.00  0.00     0.049 A 
ATOM     49  C   UNL A   1      41.137  30.336  33.999  1.00  0.00     0.074 A 
ATOM     50  C   UNL A   1      44.114  26.406  30.024  1.00  0.00     0.029 A 
ATOM     51  N   UNL A   1      42.678  27.811  30.974  1.00  0.00    -0.354 N 
ATOM     52  N   UNL A   1      41.710  29.579  33.096  1.00  0.00    -0.248 NA
ATOM     53  C   UNL A   1      41.836  30.365  35.291  1.00  0.00     0.031 C 
ATOM     54  C   UNL A   1      44.576  26.707  31.309  1.00  0.00     0.029 A 
ATOM     55  C   UNL A   1      43.691  27.598  31.892  1.00  0.00     0.049 A 
ATOM     56  H   UNL A   1      41.900  28.398  31.117  1.00  0.00     0.167 HD
ATOM     57  C   UNL A   1      42.849  29.066  33.700  1.00  0.00     0.074 A 
ATOM     58  C   UNL A   1      42.902  29.619  35.037  1.00  0.00     0.031 C 
ATOM     59  C   UNL A   1      43.762  28.198  33.200  1.00  0.00     0.034 A 
BRANCH  46  60
ATOM     60  C   UNL A   1      42.448  26.118  27.544  1.00  0.00     0.023 A 
ATOM     61  C   UNL A   1      43.349  26.543  26.547  1.00  0.00     0.012 A 
ATOM     62  C   UNL A   1      41.992  24.782  27.538  1.00  0.00     0.148 A 
ATOM     63  C   UNL A   1      43.772  25.662  25.551  1.00  0.00     0.002 A 
ATOM     64  C   UNL A   1      42.454  23.898  26.570  1.00  0.00     0.091 A 
ATOM     65  F   UNL A   1      41.123  24.401  28.486  1.00  0.00    -0.205 F 
ATOM     66  C   UNL A   1      43.335  24.340  25.569  1.00  0.00     0.022 A 
BRANCH  64  67
ATOM     67  S   UNL A   1      42.019  22.155  26.558  1.00  0.00     0.127 S 
ATOM     68  O   UNL A   1      40.578  22.213  26.314  1.00  0.00    -0.237 OA
ATOM     69  O   UNL A   1      42.807  21.652  25.432  1.00  0.00    -0.237 OA
ATOM     70  O   UNL A   1      42.408  21.632  27.859  1.00  0.00    -0.744 OA
ENDBRANCH  64  67
ENDBRANCH  46  60
BRANCH  47  71
ATOM     71  C   UNL A   1      39.388  31.957  35.044  1.00  0.00     0.023 A 
ATOM     72  C   UNL A   1      38.478  31.370  35.943  1.00  0.00     0.012 A 
ATOM     73  C   UNL A   1      39.816  33.281  35.269  1.00  0.00     0.148 A 
ATOM     74  C   UNL A   1      37.978  32.099  37.024  1.00  0.00     0.002 A 
ATOM     75  C   UNL A   1      39.366  33.977  36.384  1.00  0.00     0.091 A 
ATOM     76  F   UNL A   1      40.667  33.832  34.391  1.00  0.00    -0.205 F 
ATOM     77  C   UNL A   1      38.431  33.396  37.251  1.00  0.00     0.022 A 
BRANCH  75  78
ATOM     78  S   UNL A   1      40.014  35.593  36.826  1.00  0.00     0.127 S 
ATOM     79  O   UNL A   1      39.586  36.407  35.691  1.00  0.00    -0.237 OA
ATOM     80  O   UNL A   1      39.312  35.869  38.080  1.00  0.00    -0.237 OA
ATOM     81  O   UNL A   1      41.451  35.412  36.975  1.00  0.00    -0.744 OA
ENDBRANCH  75  78
ENDBRANCH  47  71
BRANCH  59  82
ATOM     82  C   UNL A   1      44.927  27.829  34.078  1.00  0.00     0.023 A 
ATOM     83  C   UNL A   1      45.991  28.735  34.257  1.00  0.00     0.012 A 
ATOM     84  C   UNL A   1      44.934  26.604  34.775  1.00  0.00     0.148 A 
ATOM     85  C   UNL A   1      47.062  28.412  35.090  1.00  0.00     0.002 A 
ATOM     86  C   UNL A   1      45.977  26.313  35.644  1.00  0.00     0.091 A 
ATOM     87  F   UNL A   1      43.921  25.749  34.574  1.00  0.00    -0.205 F 
ATOM     88  C   UNL A   1      47.048  27.209  35.791  1.00  0.00     0.022 A 
BRANCH  86  89
ATOM     89  S   UNL A   1      45.996  24.835  36.663  1.00  0.00     0.127 S 
ATOM     90  O   UNL A   1      47.350  24.872  37.215  1.00  0.00    -0.237 OA
ATOM     91  O   UNL A   1      44.935  25.114  37.631  1.00  0.00    -0.237 OA
ATOM     92  O   UNL A   1      45.719  23.722  35.766  1.00  0.00    -0.744 OA
ENDBRANCH  86  89
ENDBRANCH  59  82
ENDBRANCH  33  34
ENDBRANCH  26  28
ENDBRANCH  25  26
ENDBRANCH  24  25
ENDBRANCH   1  24
TORSDOF 17
ENDMDL
MODEL 3
REMARK VINA RESULT:     -12.0      1.803      2.302
REMARK SMILES Cn1ccc(C(=O)NCc2ccc(C(=O)OCCOC(=O)c3ccc(-c4c5nc(c(-c6cccc(S(=O)(=O)[O-])c6F)c6ccc([nH]6)c(-c6cccc(S(=O)(=O)[O-])c6F)c6nc(c(-c7cccc(S(=O)(=O)[O-])c7F)c7ccc4[nH]7)C=C6)C=C5)cc3)cc2)cc1=O
REMARK SMILES IDX 17 1 16 2 14 3 15 4 13 5 10 6 11 7 86 8 12 9 85 10 9 11 8 12
REMARK SMILES IDX 6 13 7 14 5 16 1 17 2 18 3 19 88 20 4 21 87 22 89 23 18 24
REMARK SMILES IDX 19 25 20 26 21 27 22 28 23 29 84 30 24 31 83 32 25 33 26 34
REMARK SMILES IDX 27 35 77 36 28 37 82 38 76 39 78 40 29 41 81 42 75 43 74 44
REMARK SMILES IDX 30 46 62 47 42 48 61 49 43 50 46 51 60 52 79 53 44 54 45 55
REMARK SMILES IDX 59 57 80 58 47 59 31 60 32 61 40 62 33 63 35 64 41 65 34 66
REMARK SMILES IDX 36 67 37 68 38 69 39 70 63 71 64 72 72 73 65 74 67 75 73 76
REMARK SMILES IDX 66 77 68 78 69 79 70 80 71 81 48 82 49 83 57 84 50 85 52 86
REMARK SMILES IDX 58 87 51 88 53 89 54 90 55 91 56 92
REMARK H PARENT 8 15 78 45 46 56
REMARK Flexibility Score: inf
ROOT
ATOM      1  C   UNL A   1      35.347  20.329  25.060  1.00  0.00     0.275 C 
ENDROOT
BRANCH   1   2
ATOM      2  O   UNL A   1      34.233  19.970  25.906  1.00  0.00    -0.458 OA
BRANCH   2   3
ATOM      3  C   UNL A   1      33.043  19.793  25.278  1.00  0.00     0.338 C 
ATOM      4  O   UNL A   1      32.374  18.772  25.266  1.00  0.00    -0.246 OA
BRANCH   3   5
ATOM      5  C   UNL A   1      32.582  21.059  24.657  1.00  0.00     0.060 A 
ATOM      6  C   UNL A   1      31.697  23.423  23.396  1.00  0.00    -0.029 A 
ATOM      7  C   UNL A   1      31.913  22.261  22.650  1.00  0.00     0.006 A 
ATOM      8  C   UNL A   1      31.928  23.381  24.785  1.00  0.00     0.006 A 
ATOM      9  C   UNL A   1      32.394  21.108  23.270  1.00  0.00     0.016 A 
ATOM     10  C   UNL A   1      32.358  22.207  25.416  1.00  0.00     0.016 A 
BRANCH   6  11
ATOM     11  C   UNL A   1      31.181  24.660  22.695  1.00  0.00     0.152 C 
BRANCH  11  12
ATOM     12  N   UNL A   1      32.239  25.364  22.006  1.00  0.00    -0.348 N 
ATOM     13  C   UNL A   1      32.914  26.513  22.240  1.00  0.00     0.251 C 
ATOM     14  O   UNL A   1      33.653  26.901  21.328  1.00  0.00    -0.269 OA
ATOM     15  H   UNL A   1      32.533  24.907  21.184  1.00  0.00     0.164 HD
BRANCH  13  16
ATOM     16  C   UNL A   1      32.887  27.276  23.536  1.00  0.00     0.046 A 
ATOM     17  C   UNL A   1      32.942  28.945  27.455  1.00  0.00     0.153 C 
ATOM     18  N   UNL A   1      32.948  28.411  26.101  1.00  0.00    -0.319 N 
ATOM     19  C   UNL A   1      33.654  27.255  25.851  1.00  0.00     0.089 A 
ATOM     20  C   UNL A   1      32.254  29.080  25.098  1.00  0.00     0.251 A 
ATOM     21  C   UNL A   1      33.644  26.693  24.639  1.00  0.00     0.032 A 
ATOM     22  C   UNL A   1      32.283  28.455  23.744  1.00  0.00     0.085 A 
ATOM     23  O   UNL A   1      31.624  30.122  25.257  1.00  0.00    -0.269 OA
ENDBRANCH  13  16
ENDBRANCH  11  12
ENDBRANCH   6  11
ENDBRANCH   3   5
ENDBRANCH   2   3
ENDBRANCH   1   2
BRANCH   1  24
ATOM     24  C   UNL A   1      36.180  21.456  25.673  1.00  0.00     0.275 C 
BRANCH  24  25
ATOM     25  O   UNL A   1      37.447  21.579  25.001  1.00  0.00    -0.458 OA
BRANCH  25  26
ATOM     26  C   UNL A   1      38.518  21.183  25.725  1.00  0.00     0.338 C 
ATOM     27  O   UNL A   1      39.027  20.074  25.751  1.00  0.00    -0.246 OA
BRANCH  26  28
ATOM     28  C   UNL A   1      39.097  22.325  26.444  1.00  0.00     0.060 A 
ATOM     29  C   UNL A   1      38.611  23.590  26.138  1.00  0.00     0.016 A 
ATOM     30  C   UNL A   1      40.224  22.187  27.246  1.00  0.00     0.016 A 
ATOM     31  C   UNL A   1      39.327  24.724  26.501  1.00  0.00     0.010 A 
ATOM     32  C   UNL A   1      40.866  23.337  27.730  1.00  0.00     0.010 A 
ATOM     33  C   UNL A   1      40.457  24.623  27.324  1.00  0.00    -0.014 A 
BRANCH  33  34
ATOM     34  C   UNL A   1      41.198  25.851  27.747  1.00  0.00     0.031 A 
ATOM     35  C   UNL A   1      40.513  26.917  28.570  1.00  0.00     0.074 A 
ATOM     36  C   UNL A   1      42.485  26.028  27.377  1.00  0.00     0.049 A 
ATOM     37  N   UNL A   1      40.931  28.119  28.875  1.00  0.00    -0.248 NA
ATOM     38  C   UNL A   1      39.180  26.599  29.108  1.00  0.00     0.031 C 
ATOM     39  C   UNL A   1      43.279  25.083  26.587  1.00  0.00     0.029 A 
ATOM     40  N   UNL A   1      43.351  27.073  27.597  1.00  0.00    -0.354 N 
ATOM     41  C   UNL A   1      39.882  28.730  29.558  1.00  0.00     0.074 A 
ATOM     42  C   UNL A   1      38.816  27.757  29.642  1.00  0.00     0.031 C 
ATOM     43  C   UNL A   1      44.509  25.580  26.400  1.00  0.00     0.029 A 
ATOM     44  C   UNL A   1      44.565  26.922  26.964  1.00  0.00     0.049 A 
ATOM     45  H   UNL A   1      43.125  27.855  28.152  1.00  0.00     0.167 HD
ATOM     46  C   UNL A   1      39.817  29.983  30.066  1.00  0.00     0.034 A 
ATOM     47  C   UNL A   1      45.589  27.780  26.792  1.00  0.00     0.034 A 
ATOM     48  C   UNL A   1      40.909  30.921  30.047  1.00  0.00     0.049 A 
ATOM     49  C   UNL A   1      45.491  29.159  27.377  1.00  0.00     0.074 A 
ATOM     50  C   UNL A   1      40.961  32.189  30.603  1.00  0.00     0.029 A 
ATOM     51  N   UNL A   1      42.136  30.700  29.444  1.00  0.00    -0.354 N 
ATOM     52  N   UNL A   1      44.519  29.689  28.076  1.00  0.00    -0.248 NA
ATOM     53  C   UNL A   1      46.636  30.054  27.161  1.00  0.00     0.031 C 
ATOM     54  C   UNL A   1      42.206  32.748  30.304  1.00  0.00     0.029 A 
ATOM     55  C   UNL A   1      42.946  31.813  29.599  1.00  0.00     0.049 A 
ATOM     56  H   UNL A   1      42.396  29.875  28.975  1.00  0.00     0.167 HD
ATOM     57  C   UNL A   1      44.946  30.968  28.409  1.00  0.00     0.074 A 
ATOM     58  C   UNL A   1      46.276  31.123  27.858  1.00  0.00     0.031 C 
ATOM     59  C   UNL A   1      44.289  31.935  29.094  1.00  0.00     0.034 A 
BRANCH  46  60
ATOM     60  C   UNL A   1      38.525  30.436  30.698  1.00  0.00     0.023 A 
ATOM     61  C   UNL A   1      38.307  30.254  32.078  1.00  0.00     0.012 A 
ATOM     62  C   UNL A   1      37.569  31.138  29.934  1.00  0.00     0.148 A 
ATOM     63  C   UNL A   1      37.148  30.744  32.684  1.00  0.00     0.002 A 
ATOM     64  C   UNL A   1      36.440  31.663  30.552  1.00  0.00     0.091 A 
ATOM     65  F   UNL A   1      37.788  31.287  28.620  1.00  0.00    -0.205 F 
ATOM     66  C   UNL A   1      36.223  31.457  31.925  1.00  0.00     0.022 A 
BRANCH  64  67
ATOM     67  S   UNL A   1      35.235  32.670  29.681  1.00  0.00     0.127 S 
ATOM     68  O   UNL A   1      34.721  31.724  28.691  1.00  0.00    -0.237 OA
ATOM     69  O   UNL A   1      34.291  33.007  30.748  1.00  0.00    -0.237 OA
ATOM     70  O   UNL A   1      35.969  33.802  29.136  1.00  0.00    -0.744 OA
ENDBRANCH  64  67
ENDBRANCH  46  60
BRANCH  47  71
ATOM     71  C   UNL A   1      46.785  27.367  26.001  1.00  0.00     0.023 A 
ATOM     72  C   UNL A   1      46.845  27.650  24.623  1.00  0.00     0.012 A 
ATOM     73  C   UNL A   1      47.870  26.707  26.612  1.00  0.00     0.148 A 
ATOM     74  C   UNL A   1      47.948  27.253  23.864  1.00  0.00     0.002 A 
ATOM     75  C   UNL A   1      48.993  26.375  25.864  1.00  0.00     0.091 A 
ATOM     76  F   UNL A   1      47.788  26.426  27.921  1.00  0.00    -0.205 F 
ATOM     77  C   UNL A   1      49.025  26.628  24.486  1.00  0.00     0.022 A 
BRANCH  75  78
ATOM     78  S   UNL A   1      50.478  25.702  26.618  1.00  0.00     0.127 S 
ATOM     79  O   UNL A   1      51.366  25.574  25.466  1.00  0.00    -0.237 OA
ATOM     80  O   UNL A   1      50.844  26.758  27.563  1.00  0.00    -0.237 OA
ATOM     81  O   UNL A   1      50.067  24.455  27.248  1.00  0.00    -0.744 OA
ENDBRANCH  75  78
ENDBRANCH  47  71
BRANCH  59  82
ATOM     82  C   UNL A   1      45.012  33.232  29.334  1.00  0.00     0.023 A 
ATOM     83  C   UNL A   1      45.823  33.388  30.476  1.00  0.00     0.012 A 
ATOM     84  C   UNL A   1      44.935  34.276  28.391  1.00  0.00     0.148 A 
ATOM     85  C   UNL A   1      46.518  34.577  30.693  1.00  0.00     0.002 A 
ATOM     86  C   UNL A   1      45.672  35.437  28.587  1.00  0.00     0.091 A 
ATOM     87  F   UNL A   1      44.143  34.115  27.322  1.00  0.00    -0.205 F 
ATOM     88  C   UNL A   1      46.453  35.594  29.744  1.00  0.00     0.022 A 
BRANCH  86  89
ATOM     89  S   UNL A   1      45.729  36.757  27.372  1.00  0.00     0.127 S 
ATOM     90  O   UNL A   1      46.546  37.758  28.058  1.00  0.00    -0.237 OA
ATOM     91  O   UNL A   1      46.386  36.107  26.238  1.00  0.00    -0.237 OA
ATOM     92  O   UNL A   1      44.346  37.143  27.130  1.00  0.00    -0.744 OA
ENDBRANCH  86  89
ENDBRANCH  59  82
ENDBRANCH  33  34
ENDBRANCH  26  28
ENDBRANCH  25  26
ENDBRANCH  24  25
ENDBRANCH   1  24
TORSDOF 17
ENDMDL
