MODEL 1
REMARK VINA RESULT:     -10.8      0.000      0.000
REMARK SMILES CC(C)(C)OC(=O)N1C[C@H](Oc2ccncc2)C[C@H]1C(=O)OCCOC(=O)c1ccc(-c2c3nc(c(-c4cccc(S(=O)(=O)[O-])c4F)c4ccc([nH]4)c(-c4cccc(S(=O)(=O)[O-])c4F)c4nc(c(-c5cccc(S(=O)(=O)[O-])c5F)c5ccc2[nH]5)C=C4)C=C3)cc1
REMARK SMILES IDX 23 1 22 2 20 3 21 4 19 5 8 6 9 7 10 8 18 9 6 10 7 11 5 12
REMARK SMILES IDX 2 13 1 14 3 15 4 16 11 17 12 18 13 19 17 20 14 21 16 22
REMARK SMILES IDX 15 23 24 24 25 25 26 26 27 27 28 28 29 29 90 30 30 31 89 32
REMARK SMILES IDX 31 33 32 34 33 35 83 36 34 37 88 38 82 39 84 40 35 41 87 42
REMARK SMILES IDX 81 43 80 44 36 46 68 47 48 48 67 49 49 50 52 51 66 52 85 53
REMARK SMILES IDX 50 54 51 55 65 57 86 58 53 59 37 60 38 61 46 62 39 63 41 64
REMARK SMILES IDX 47 65 40 66 42 67 43 68 44 69 45 70 69 71 70 72 78 73 71 74
REMARK SMILES IDX 73 75 79 76 72 77 74 78 75 79 76 80 77 81 54 82 55 83 63 84
REMARK SMILES IDX 56 85 58 86 64 87 57 88 59 89 60 90 61 91 62 92
REMARK H PARENT 84 45 52 56
REMARK Flexibility Score: inf
ROOT
ATOM      1  C   UNL A   1      35.569  21.083  25.327  1.00  0.00     0.274 C 
ENDROOT
BRANCH   1   2
ATOM      2  O   UNL A   1      35.557  21.745  26.603  1.00  0.00    -0.461 OA
BRANCH   2   3
ATOM      3  C   UNL A   1      34.411  22.372  26.975  1.00  0.00     0.329 C 
ATOM      4  O   UNL A   1      33.826  22.210  28.040  1.00  0.00    -0.250 OA
BRANCH   3   5
ATOM      5  C   UNL A   1      33.913  23.278  25.841  1.00  0.00     0.202 C 
ATOM      6  N   UNL A   1      32.462  23.327  25.862  1.00  0.00    -0.291 N 
ATOM      7  C   UNL A   1      31.971  24.599  26.354  1.00  0.00     0.169 C 
ATOM      8  C   UNL A   1      33.084  25.582  26.007  1.00  0.00     0.195 C 
ATOM      9  C   UNL A   1      34.364  24.738  26.027  1.00  0.00     0.084 C 
BRANCH   6  10
ATOM     10  C   UNL A   1      31.728  22.286  25.364  1.00  0.00     0.411 C 
ATOM     11  O   UNL A   1      30.711  21.871  25.888  1.00  0.00    -0.224 OA
BRANCH  10  12
ATOM     12  O   UNL A   1      32.312  21.755  24.262  1.00  0.00    -0.444 OA
BRANCH  12  13
ATOM     13  C   UNL A   1      32.145  22.376  22.964  1.00  0.00     0.106 C 
ATOM     14  C   UNL A   1      31.768  21.213  22.037  1.00  0.00     0.056 C 
ATOM     15  C   UNL A   1      33.480  22.975  22.525  1.00  0.00     0.056 C 
ATOM     16  C   UNL A   1      31.013  23.414  22.911  1.00  0.00     0.056 C 
ENDBRANCH  12  13
ENDBRANCH  10  12
ENDBRANCH   6  10
BRANCH   8  17
ATOM     17  O   UNL A   1      32.880  26.352  24.806  1.00  0.00    -0.488 OA
BRANCH  17  18
ATOM     18  C   UNL A   1      32.265  27.564  24.918  1.00  0.00     0.122 A 
ATOM     19  C   UNL A   1      32.713  28.507  25.832  1.00  0.00     0.066 A 
ATOM     20  C   UNL A   1      31.291  27.917  23.992  1.00  0.00     0.066 A 
ATOM     21  C   UNL A   1      32.097  29.746  25.845  1.00  0.00     0.115 A 
ATOM     22  C   UNL A   1      30.741  29.185  24.077  1.00  0.00     0.115 A 
ATOM     23  N   UNL A   1      31.113  30.105  24.995  1.00  0.00    -0.264 NA
ENDBRANCH  17  18
ENDBRANCH   8  17
ENDBRANCH   3   5
ENDBRANCH   2   3
ENDBRANCH   1   2
BRANCH   1  24
ATOM     24  C   UNL A   1      36.981  20.557  25.057  1.00  0.00     0.275 C 
BRANCH  24  25
ATOM     25  O   UNL A   1      37.941  21.612  25.265  1.00  0.00    -0.458 OA
BRANCH  25  26
ATOM     26  C   UNL A   1      38.953  21.301  26.110  1.00  0.00     0.338 C 
ATOM     27  O   UNL A   1      39.387  20.195  26.385  1.00  0.00    -0.246 OA
BRANCH  26  28
ATOM     28  C   UNL A   1      39.640  22.541  26.493  1.00  0.00     0.060 A 
ATOM     29  C   UNL A   1      40.694  22.424  27.399  1.00  0.00     0.016 A 
ATOM     30  C   UNL A   1      39.240  23.790  26.029  1.00  0.00     0.016 A 
ATOM     31  C   UNL A   1      41.367  23.553  27.856  1.00  0.00     0.010 A 
ATOM     32  C   UNL A   1      39.917  24.927  26.483  1.00  0.00     0.010 A 
ATOM     33  C   UNL A   1      40.978  24.817  27.404  1.00  0.00    -0.014 A 
BRANCH  33  34
ATOM     34  C   UNL A   1      41.656  26.033  27.914  1.00  0.00     0.031 A 
ATOM     35  C   UNL A   1      40.872  27.059  28.677  1.00  0.00     0.074 A 
ATOM     36  C   UNL A   1      42.963  26.232  27.662  1.00  0.00     0.049 A 
ATOM     37  N   UNL A   1      41.234  28.253  29.067  1.00  0.00    -0.248 NA
ATOM     38  C   UNL A   1      39.496  26.692  29.048  1.00  0.00     0.031 C 
ATOM     39  C   UNL A   1      43.836  25.297  26.954  1.00  0.00     0.029 A 
ATOM     40  N   UNL A   1      43.772  27.307  27.936  1.00  0.00    -0.354 N 
ATOM     41  C   UNL A   1      40.115  28.806  29.675  1.00  0.00     0.074 A 
ATOM     42  C   UNL A   1      39.067  27.809  29.619  1.00  0.00     0.031 C 
ATOM     43  C   UNL A   1      45.048  25.853  26.812  1.00  0.00     0.029 A 
ATOM     44  C   UNL A   1      45.020  27.204  27.366  1.00  0.00     0.049 A 
ATOM     45  H   UNL A   1      43.488  28.073  28.485  1.00  0.00     0.167 HD
ATOM     46  C   UNL A   1      39.977  30.033  30.231  1.00  0.00     0.034 A 
ATOM     47  C   UNL A   1      46.007  28.114  27.249  1.00  0.00     0.034 A 
ATOM     48  C   UNL A   1      41.034  31.005  30.315  1.00  0.00     0.049 A 
ATOM     49  C   UNL A   1      45.819  29.485  27.839  1.00  0.00     0.074 A 
ATOM     50  C   UNL A   1      41.012  32.248  30.923  1.00  0.00     0.029 A 
ATOM     51  N   UNL A   1      42.294  30.853  29.760  1.00  0.00    -0.354 N 
ATOM     52  N   UNL A   1      44.795  29.960  28.505  1.00  0.00    -0.248 NA
ATOM     53  C   UNL A   1      46.925  30.440  27.673  1.00  0.00     0.031 C 
ATOM     54  C   UNL A   1      42.252  32.859  30.707  1.00  0.00     0.029 A 
ATOM     55  C   UNL A   1      43.052  31.990  29.983  1.00  0.00     0.049 A 
ATOM     56  H   UNL A   1      42.605  30.054  29.276  1.00  0.00     0.167 HD
ATOM     57  C   UNL A   1      45.133  31.265  28.847  1.00  0.00     0.074 A 
ATOM     58  C   UNL A   1      46.472  31.494  28.339  1.00  0.00     0.031 C 
ATOM     59  C   UNL A   1      44.395  32.195  29.502  1.00  0.00     0.034 A 
BRANCH  46  60
ATOM     60  C   UNL A   1      38.628  30.390  30.795  1.00  0.00     0.023 A 
ATOM     61  C   UNL A   1      38.281  29.988  32.100  1.00  0.00     0.012 A 
ATOM     62  C   UNL A   1      37.714  31.149  30.038  1.00  0.00     0.148 A 
ATOM     63  C   UNL A   1      37.030  30.304  32.629  1.00  0.00     0.002 A 
ATOM     64  C   UNL A   1      36.484  31.494  30.588  1.00  0.00     0.091 A 
ATOM     65  F   UNL A   1      38.051  31.497  28.788  1.00  0.00    -0.205 F 
ATOM     66  C   UNL A   1      36.136  31.063  31.877  1.00  0.00     0.022 A 
BRANCH  64  67
ATOM     67  S   UNL A   1      35.301  32.526  29.715  1.00  0.00     0.127 S 
ATOM     68  O   UNL A   1      36.083  33.738  29.480  1.00  0.00    -0.237 OA
ATOM     69  O   UNL A   1      35.026  31.736  28.513  1.00  0.00    -0.237 OA
ATOM     70  O   UNL A   1      34.164  32.670  30.612  1.00  0.00    -0.744 OA
ENDBRANCH  64  67
ENDBRANCH  46  60
BRANCH  47  71
ATOM     71  C   UNL A   1      47.252  27.750  26.515  1.00  0.00     0.023 A 
ATOM     72  C   UNL A   1      48.320  27.150  27.207  1.00  0.00     0.012 A 
ATOM     73  C   UNL A   1      47.350  27.933  25.120  1.00  0.00     0.148 A 
ATOM     74  C   UNL A   1      49.469  26.748  26.523  1.00  0.00     0.002 A 
ATOM     75  C   UNL A   1      48.471  27.478  24.439  1.00  0.00     0.091 A 
ATOM     76  F   UNL A   1      46.329  28.526  24.486  1.00  0.00    -0.205 F 
ATOM     77  C   UNL A   1      49.538  26.899  25.140  1.00  0.00     0.022 A 
BRANCH  75  78
ATOM     78  S   UNL A   1      48.582  27.497  22.645  1.00  0.00     0.127 S 
ATOM     79  O   UNL A   1      49.866  28.158  22.432  1.00  0.00    -0.237 OA
ATOM     80  O   UNL A   1      48.563  26.068  22.329  1.00  0.00    -0.237 OA
ATOM     81  O   UNL A   1      47.409  28.228  22.185  1.00  0.00    -0.744 OA
ENDBRANCH  75  78
ENDBRANCH  47  71
BRANCH  59  82
ATOM     82  C   UNL A   1      45.008  33.555  29.713  1.00  0.00     0.023 A 
ATOM     83  C   UNL A   1      45.784  33.793  30.864  1.00  0.00     0.012 A 
ATOM     84  C   UNL A   1      44.895  34.562  28.732  1.00  0.00     0.148 A 
ATOM     85  C   UNL A   1      46.424  35.018  31.046  1.00  0.00     0.002 A 
ATOM     86  C   UNL A   1      45.573  35.764  28.900  1.00  0.00     0.091 A 
ATOM     87  F   UNL A   1      44.140  34.319  27.653  1.00  0.00    -0.205 F 
ATOM     88  C   UNL A   1      46.330  35.997  30.060  1.00  0.00     0.022 A 
BRANCH  86  89
ATOM     89  S   UNL A   1      45.586  37.049  27.645  1.00  0.00     0.127 S 
ATOM     90  O   UNL A   1      46.154  36.341  26.499  1.00  0.00    -0.237 OA
ATOM     91  O   UNL A   1      44.164  37.372  27.519  1.00  0.00    -0.237 OA
ATOM     92  O   UNL A   1      46.406  38.127  28.180  1.00  0.00    -0.744 OA
ENDBRANCH  86  89
ENDBRANCH  59  82
ENDBRANCH  33  34
ENDBRANCH  26  28
ENDBRANCH  25  26
ENDBRANCH  24  25
ENDBRANCH   1  24
TORSDOF 19
ENDMDL
MODEL 2
REMARK VINA RESULT:     -10.7      1.685      2.376
REMARK SMILES CC(C)(C)OC(=O)N1C[C@H](Oc2ccncc2)C[C@H]1C(=O)OCCOC(=O)c1ccc(-c2c3nc(c(-c4cccc(S(=O)(=O)[O-])c4F)c4ccc([nH]4)c(-c4cccc(S(=O)(=O)[O-])c4F)c4nc(c(-c5cccc(S(=O)(=O)[O-])c5F)c5ccc2[nH]5)C=C4)C=C3)cc1
REMARK SMILES IDX 23 1 22 2 20 3 21 4 19 5 8 6 9 7 10 8 18 9 6 10 7 11 5 12
REMARK SMILES IDX 2 13 1 14 3 15 4 16 11 17 12 18 13 19 17 20 14 21 16 22
REMARK SMILES IDX 15 23 24 24 25 25 26 26 27 27 28 28 29 29 90 30 30 31 89 32
REMARK SMILES IDX 31 33 32 34 33 35 83 36 34 37 88 38 82 39 84 40 35 41 87 42
REMARK SMILES IDX 81 43 80 44 36 46 68 47 48 48 67 49 49 50 52 51 66 52 85 53
REMARK SMILES IDX 50 54 51 55 65 57 86 58 53 59 37 60 38 61 46 62 39 63 41 64
REMARK SMILES IDX 47 65 40 66 42 67 43 68 44 69 45 70 69 71 70 72 78 73 71 74
REMARK SMILES IDX 73 75 79 76 72 77 74 78 75 79 76 80 77 81 54 82 55 83 63 84
REMARK SMILES IDX 56 85 58 86 64 87 57 88 59 89 60 90 61 91 62 92
REMARK H PARENT 84 45 52 56
REMARK Flexibility Score: inf
ROOT
ATOM      1  C   UNL A   1      35.779  22.122  25.618  1.00  0.00     0.274 C 
ENDROOT
BRANCH   1   2
ATOM      2  O   UNL A   1      34.928  21.367  26.496  1.00  0.00    -0.461 OA
BRANCH   2   3
ATOM      3  C   UNL A   1      33.788  21.962  26.934  1.00  0.00     0.329 C 
ATOM      4  O   UNL A   1      33.324  21.865  28.064  1.00  0.00    -0.250 OA
BRANCH   3   5
ATOM      5  C   UNL A   1      33.123  22.736  25.787  1.00  0.00     0.202 C 
ATOM      6  N   UNL A   1      32.012  21.963  25.262  1.00  0.00    -0.291 N 
ATOM      7  C   UNL A   1      30.733  22.524  25.650  1.00  0.00     0.169 C 
ATOM      8  C   UNL A   1      31.025  24.007  25.845  1.00  0.00     0.195 C 
ATOM      9  C   UNL A   1      32.498  24.058  26.268  1.00  0.00     0.084 C 
BRANCH   6  10
ATOM     10  C   UNL A   1      32.240  20.905  24.427  1.00  0.00     0.411 C 
ATOM     11  O   UNL A   1      32.484  21.028  23.241  1.00  0.00    -0.224 OA
BRANCH  10  12
ATOM     12  O   UNL A   1      32.103  19.724  25.077  1.00  0.00    -0.444 OA
BRANCH  12  13
ATOM     13  C   UNL A   1      32.689  18.512  24.543  1.00  0.00     0.106 C 
ATOM     14  C   UNL A   1      34.199  18.787  24.561  1.00  0.00     0.056 C 
ATOM     15  C   UNL A   1      32.216  18.324  23.102  1.00  0.00     0.056 C 
ATOM     16  C   UNL A   1      32.422  17.262  25.395  1.00  0.00     0.056 C 
ENDBRANCH  12  13
ENDBRANCH  10  12
ENDBRANCH   6  10
BRANCH   8  17
ATOM     17  O   UNL A   1      30.679  24.859  24.735  1.00  0.00    -0.488 OA
BRANCH  17  18
ATOM     18  C   UNL A   1      31.667  25.205  23.860  1.00  0.00     0.122 A 
ATOM     19  C   UNL A   1      32.575  26.207  24.172  1.00  0.00     0.066 A 
ATOM     20  C   UNL A   1      31.865  24.432  22.723  1.00  0.00     0.066 A 
ATOM     21  C   UNL A   1      33.599  26.459  23.277  1.00  0.00     0.115 A 
ATOM     22  C   UNL A   1      32.926  24.754  21.893  1.00  0.00     0.115 A 
ATOM     23  N   UNL A   1      33.792  25.763  22.138  1.00  0.00    -0.264 NA
ENDBRANCH  17  18
ENDBRANCH   8  17
ENDBRANCH   3   5
ENDBRANCH   2   3
ENDBRANCH   1   2
BRANCH   1  24
ATOM     24  C   UNL A   1      36.727  21.159  24.901  1.00  0.00     0.275 C 
BRANCH  24  25
ATOM     25  O   UNL A   1      38.066  21.690  24.919  1.00  0.00    -0.458 OA
BRANCH  25  26
ATOM     26  C   UNL A   1      38.830  21.273  25.957  1.00  0.00     0.338 C 
ATOM     27  O   UNL A   1      39.086  20.127  26.286  1.00  0.00    -0.246 OA
BRANCH  26  28
ATOM     28  C   UNL A   1      39.526  22.435  26.524  1.00  0.00     0.060 A 
ATOM     29  C   UNL A   1      39.174  23.688  26.022  1.00  0.00     0.016 A 
ATOM     30  C   UNL A   1      40.531  22.310  27.477  1.00  0.00     0.016 A 
ATOM     31  C   UNL A   1      39.820  24.837  26.465  1.00  0.00     0.010 A 
ATOM     32  C   UNL A   1      41.180  23.464  27.928  1.00  0.00     0.010 A 
ATOM     33  C   UNL A   1      40.835  24.733  27.420  1.00  0.00    -0.014 A 
BRANCH  33  34
ATOM     34  C   UNL A   1      41.563  25.944  27.871  1.00  0.00     0.031 A 
ATOM     35  C   UNL A   1      40.841  26.999  28.654  1.00  0.00     0.074 A 
ATOM     36  C   UNL A   1      42.858  26.111  27.546  1.00  0.00     0.049 A 
ATOM     37  N   UNL A   1      41.246  28.192  29.001  1.00  0.00    -0.248 NA
ATOM     38  C   UNL A   1      39.480  26.667  29.104  1.00  0.00     0.031 C 
ATOM     39  C   UNL A   1      43.675  25.146  26.811  1.00  0.00     0.029 A 
ATOM     40  N   UNL A   1      43.702  27.175  27.757  1.00  0.00    -0.354 N 
ATOM     41  C   UNL A   1      40.172  28.780  29.657  1.00  0.00     0.074 A 
ATOM     42  C   UNL A   1      39.103  27.803  29.676  1.00  0.00     0.031 C 
ATOM     43  C   UNL A   1      44.888  25.675  26.594  1.00  0.00     0.029 A 
ATOM     44  C   UNL A   1      44.915  27.037  27.124  1.00  0.00     0.049 A 
ATOM     45  H   UNL A   1      43.462  27.956  28.305  1.00  0.00     0.167 HD
ATOM     46  C   UNL A   1      40.087  30.018  30.196  1.00  0.00     0.034 A 
ATOM     47  C   UNL A   1      45.912  27.924  26.937  1.00  0.00     0.034 A 
ATOM     48  C   UNL A   1      41.165  30.970  30.206  1.00  0.00     0.049 A 
ATOM     49  C   UNL A   1      45.783  29.309  27.509  1.00  0.00     0.074 A 
ATOM     50  C   UNL A   1      41.200  32.224  30.790  1.00  0.00     0.029 A 
ATOM     51  N   UNL A   1      42.392  30.783  29.587  1.00  0.00    -0.354 N 
ATOM     52  N   UNL A   1      44.805  29.817  28.220  1.00  0.00    -0.248 NA
ATOM     53  C   UNL A   1      46.896  30.238  27.267  1.00  0.00     0.031 C 
ATOM     54  C   UNL A   1      42.439  32.806  30.497  1.00  0.00     0.029 A 
ATOM     55  C   UNL A   1      43.182  31.908  29.748  1.00  0.00     0.049 A 
ATOM     56  H   UNL A   1      42.661  29.969  29.103  1.00  0.00     0.167 HD
ATOM     57  C   UNL A   1      45.186  31.121  28.518  1.00  0.00     0.074 A 
ATOM     58  C   UNL A   1      46.500  31.313  27.936  1.00  0.00     0.031 C 
ATOM     59  C   UNL A   1      44.501  32.077  29.193  1.00  0.00     0.034 A 
BRANCH  46  60
ATOM     60  C   UNL A   1      38.777  30.413  30.823  1.00  0.00     0.023 A 
ATOM     61  C   UNL A   1      38.531  30.126  32.180  1.00  0.00     0.012 A 
ATOM     62  C   UNL A   1      37.800  31.094  30.071  1.00  0.00     0.148 A 
ATOM     63  C   UNL A   1      37.317  30.477  32.770  1.00  0.00     0.002 A 
ATOM     64  C   UNL A   1      36.608  31.476  30.677  1.00  0.00     0.091 A 
ATOM     65  F   UNL A   1      38.040  31.333  28.774  1.00  0.00    -0.205 F 
ATOM     66  C   UNL A   1      36.360  31.159  32.021  1.00  0.00     0.022 A 
BRANCH  64  67
ATOM     67  S   UNL A   1      35.350  32.417  29.805  1.00  0.00     0.127 S 
ATOM     68  O   UNL A   1      34.947  31.475  28.762  1.00  0.00    -0.237 OA
ATOM     69  O   UNL A   1      34.347  32.636  30.849  1.00  0.00    -0.237 OA
ATOM     70  O   UNL A   1      36.011  33.628  29.343  1.00  0.00    -0.744 OA
ENDBRANCH  64  67
ENDBRANCH  46  60
BRANCH  47  71
ATOM     71  C   UNL A   1      47.109  27.521  26.145  1.00  0.00     0.023 A 
ATOM     72  C   UNL A   1      47.172  27.822  24.773  1.00  0.00     0.012 A 
ATOM     73  C   UNL A   1      48.213  26.901  26.767  1.00  0.00     0.148 A 
ATOM     74  C   UNL A   1      48.311  27.504  24.030  1.00  0.00     0.002 A 
ATOM     75  C   UNL A   1      49.364  26.642  26.035  1.00  0.00     0.091 A 
ATOM     76  F   UNL A   1      48.121  26.605  28.071  1.00  0.00    -0.205 F 
ATOM     77  C   UNL A   1      49.410  26.929  24.663  1.00  0.00     0.022 A 
BRANCH  75  78
ATOM     78  S   UNL A   1      50.875  26.039  26.799  1.00  0.00     0.127 S 
ATOM     79  O   UNL A   1      51.786  25.986  25.659  1.00  0.00    -0.237 OA
ATOM     80  O   UNL A   1      51.162  27.097  27.769  1.00  0.00    -0.237 OA
ATOM     81  O   UNL A   1      50.531  24.756  27.395  1.00  0.00    -0.744 OA
ENDBRANCH  75  78
ENDBRANCH  47  71
BRANCH  59  82
ATOM     82  C   UNL A   1      45.150  33.427  29.345  1.00  0.00     0.023 A 
ATOM     83  C   UNL A   1      45.952  33.687  30.474  1.00  0.00     0.012 A 
ATOM     84  C   UNL A   1      45.046  34.401  28.331  1.00  0.00     0.148 A 
ATOM     85  C   UNL A   1      46.624  34.901  30.603  1.00  0.00     0.002 A 
ATOM     86  C   UNL A   1      45.756  35.591  28.444  1.00  0.00     0.091 A 
ATOM     87  F   UNL A   1      44.267  34.140  27.273  1.00  0.00    -0.205 F 
ATOM     88  C   UNL A   1      46.538  35.846  29.583  1.00  0.00     0.022 A 
BRANCH  86  89
ATOM     89  S   UNL A   1      45.779  36.831  27.145  1.00  0.00     0.127 S 
ATOM     90  O   UNL A   1      44.362  37.179  27.040  1.00  0.00    -0.237 OA
ATOM     91  O   UNL A   1      46.622  37.875  27.728  1.00  0.00    -0.237 OA
ATOM     92  O   UNL A   1      46.347  36.178  25.974  1.00  0.00    -0.744 OA
ENDBRANCH  86  89
ENDBRANCH  59  82
ENDBRANCH  33  34
ENDBRANCH  26  28
ENDBRANCH  25  26
ENDBRANCH  24  25
ENDBRANCH   1  24
TORSDOF 19
ENDMDL
MODEL 3
REMARK VINA RESULT:     -10.6      1.611      2.088
REMARK SMILES CC(C)(C)OC(=O)N1C[C@H](Oc2ccncc2)C[C@H]1C(=O)OCCOC(=O)c1ccc(-c2c3nc(c(-c4cccc(S(=O)(=O)[O-])c4F)c4ccc([nH]4)c(-c4cccc(S(=O)(=O)[O-])c4F)c4nc(c(-c5cccc(S(=O)(=O)[O-])c5F)c5ccc2[nH]5)C=C4)C=C3)cc1
REMARK SMILES IDX 23 1 22 2 20 3 21 4 19 5 8 6 9 7 10 8 18 9 6 10 7 11 5 12
REMARK SMILES IDX 2 13 1 14 3 15 4 16 11 17 12 18 13 19 17 20 14 21 16 22
REMARK SMILES IDX 15 23 24 24 25 25 26 26 27 27 28 28 29 29 90 30 30 31 89 32
REMARK SMILES IDX 31 33 32 34 33 35 83 36 34 37 88 38 82 39 84 40 35 41 87 42
REMARK SMILES IDX 81 43 80 44 36 46 68 47 48 48 67 49 49 50 52 51 66 52 85 53
REMARK SMILES IDX 50 54 51 55 65 57 86 58 53 59 37 60 38 61 46 62 39 63 41 64
REMARK SMILES IDX 47 65 40 66 42 67 43 68 44 69 45 70 69 71 70 72 78 73 71 74
REMARK SMILES IDX 73 75 79 76 72 77 74 78 75 79 76 80 77 81 54 82 55 83 63 84
REMARK SMILES IDX 56 85 58 86 64 87 57 88 59 89 60 90 61 91 62 92
REMARK H PARENT 84 45 52 56
REMARK Flexibility Score: inf
ROOT
ATOM      1  C   UNL A   1      34.891  23.050  26.314  1.00  0.00     0.274 C 
ENDROOT
BRANCH   1   2
ATOM      2  O   UNL A   1      33.883  22.789  27.306  1.00  0.00    -0.461 OA
BRANCH   2   3
ATOM      3  C   UNL A   1      32.635  23.274  27.077  1.00  0.00     0.329 C 
ATOM      4  O   UNL A   1      31.622  22.944  27.683  1.00  0.00    -0.250 OA
BRANCH   3   5
ATOM      5  C   UNL A   1      32.660  24.262  25.902  1.00  0.00     0.202 C 
ATOM      6  N   UNL A   1      31.671  23.866  24.916  1.00  0.00    -0.291 N 
ATOM      7  C   UNL A   1      30.522  24.749  24.919  1.00  0.00     0.169 C 
ATOM      8  C   UNL A   1      31.077  26.075  25.424  1.00  0.00     0.195 C 
ATOM      9  C   UNL A   1      32.249  25.682  26.332  1.00  0.00     0.084 C 
BRANCH   6  10
ATOM     10  C   UNL A   1      31.926  22.829  24.061  1.00  0.00     0.411 C 
ATOM     11  O   UNL A   1      32.239  21.714  24.434  1.00  0.00    -0.224 OA
BRANCH  10  12
ATOM     12  O   UNL A   1      31.841  23.224  22.767  1.00  0.00    -0.444 OA
BRANCH  12  13
ATOM     13  C   UNL A   1      33.018  23.669  22.051  1.00  0.00     0.106 C 
ATOM     14  C   UNL A   1      32.777  25.169  21.828  1.00  0.00     0.056 C 
ATOM     15  C   UNL A   1      33.081  22.952  20.703  1.00  0.00     0.056 C 
ATOM     16  C   UNL A   1      34.326  23.509  22.840  1.00  0.00     0.056 C 
ENDBRANCH  12  13
ENDBRANCH  10  12
ENDBRANCH   6  10
BRANCH   8  17
ATOM     17  O   UNL A   1      31.394  27.044  24.405  1.00  0.00    -0.488 OA
BRANCH  17  18
ATOM     18  C   UNL A   1      30.413  27.908  24.015  1.00  0.00     0.122 A 
ATOM     19  C   UNL A   1      30.643  29.275  23.975  1.00  0.00     0.066 A 
ATOM     20  C   UNL A   1      29.231  27.398  23.493  1.00  0.00     0.066 A 
ATOM     21  C   UNL A   1      29.634  30.092  23.498  1.00  0.00     0.115 A 
ATOM     22  C   UNL A   1      28.284  28.294  23.028  1.00  0.00     0.115 A 
ATOM     23  N   UNL A   1      28.454  29.635  23.032  1.00  0.00    -0.264 NA
ENDBRANCH  17  18
ENDBRANCH   8  17
ENDBRANCH   3   5
ENDBRANCH   2   3
ENDBRANCH   1   2
BRANCH   1  24
ATOM     24  C   UNL A   1      35.707  21.774  26.094  1.00  0.00     0.275 C 
BRANCH  24  25
ATOM     25  O   UNL A   1      36.847  22.064  25.261  1.00  0.00    -0.458 OA
BRANCH  25  26
ATOM     26  C   UNL A   1      38.015  21.526  25.687  1.00  0.00     0.338 C 
ATOM     27  O   UNL A   1      38.458  20.414  25.453  1.00  0.00    -0.246 OA
BRANCH  26  28
ATOM     28  C   UNL A   1      38.819  22.585  26.309  1.00  0.00     0.060 A 
ATOM     29  C   UNL A   1      38.379  23.897  26.133  1.00  0.00     0.016 A 
ATOM     30  C   UNL A   1      39.998  22.320  26.999  1.00  0.00     0.016 A 
ATOM     31  C   UNL A   1      39.109  24.966  26.643  1.00  0.00     0.010 A 
ATOM     32  C   UNL A   1      40.732  23.391  27.517  1.00  0.00     0.010 A 
ATOM     33  C   UNL A   1      40.298  24.720  27.336  1.00  0.00    -0.014 A 
BRANCH  33  34
ATOM     34  C   UNL A   1      41.110  25.850  27.849  1.00  0.00     0.031 A 
ATOM     35  C   UNL A   1      40.457  26.929  28.660  1.00  0.00     0.074 A 
ATOM     36  C   UNL A   1      42.421  25.924  27.557  1.00  0.00     0.049 A 
ATOM     37  N   UNL A   1      40.948  28.071  29.062  1.00  0.00    -0.248 NA
ATOM     38  C   UNL A   1      39.064  26.691  29.069  1.00  0.00     0.031 C 
ATOM     39  C   UNL A   1      43.175  24.925  26.800  1.00  0.00     0.029 A 
ATOM     40  N   UNL A   1      43.343  26.907  27.826  1.00  0.00    -0.354 N 
ATOM     41  C   UNL A   1      39.910  28.718  29.720  1.00  0.00     0.074 A 
ATOM     42  C   UNL A   1      38.766  27.831  29.678  1.00  0.00     0.031 C 
ATOM     43  C   UNL A   1      44.431  25.362  26.629  1.00  0.00     0.029 A 
ATOM     44  C   UNL A   1      44.555  26.695  27.212  1.00  0.00     0.049 A 
ATOM     45  H   UNL A   1      43.154  27.684  28.401  1.00  0.00     0.167 HD
ATOM     46  C   UNL A   1      39.912  29.938  30.306  1.00  0.00     0.034 A 
ATOM     47  C   UNL A   1      45.624  27.506  27.081  1.00  0.00     0.034 A 
ATOM     48  C   UNL A   1      41.063  30.799  30.374  1.00  0.00     0.049 A 
ATOM     49  C   UNL A   1      45.593  28.874  27.705  1.00  0.00     0.074 A 
ATOM     50  C   UNL A   1      41.185  32.022  31.009  1.00  0.00     0.029 A 
ATOM     51  N   UNL A   1      42.284  30.536  29.773  1.00  0.00    -0.354 N 
ATOM     52  N   UNL A   1      44.643  29.431  28.416  1.00  0.00    -0.248 NA
ATOM     53  C   UNL A   1      46.782  29.718  27.523  1.00  0.00     0.031 C 
ATOM     54  C   UNL A   1      42.472  32.513  30.764  1.00  0.00     0.029 A 
ATOM     55  C   UNL A   1      43.158  31.587  29.994  1.00  0.00     0.049 A 
ATOM     56  H   UNL A   1      42.498  29.723  29.262  1.00  0.00     0.167 HD
ATOM     57  C   UNL A   1      45.120  30.688  28.773  1.00  0.00     0.074 A 
ATOM     58  C   UNL A   1      46.458  30.796  28.226  1.00  0.00     0.031 C 
ATOM     59  C   UNL A   1      44.499  31.670  29.473  1.00  0.00     0.034 A 
BRANCH  46  60
ATOM     60  C   UNL A   1      38.625  30.414  30.922  1.00  0.00     0.023 A 
ATOM     61  C   UNL A   1      38.353  30.147  32.279  1.00  0.00     0.012 A 
ATOM     62  C   UNL A   1      37.695  31.148  30.161  1.00  0.00     0.148 A 
ATOM     63  C   UNL A   1      37.158  30.574  32.859  1.00  0.00     0.002 A 
ATOM     64  C   UNL A   1      36.524  31.604  30.757  1.00  0.00     0.091 A 
ATOM     65  F   UNL A   1      37.957  31.367  28.864  1.00  0.00    -0.205 F 
ATOM     66  C   UNL A   1      36.248  31.308  32.101  1.00  0.00     0.022 A 
BRANCH  64  67
ATOM     67  S   UNL A   1      35.330  32.614  29.873  1.00  0.00     0.127 S 
ATOM     68  O   UNL A   1      34.879  31.694  28.831  1.00  0.00    -0.237 OA
ATOM     69  O   UNL A   1      34.335  32.897  30.909  1.00  0.00    -0.237 OA
ATOM     70  O   UNL A   1      36.066  33.782  29.411  1.00  0.00    -0.744 OA
ENDBRANCH  64  67
ENDBRANCH  46  60
BRANCH  47  71
ATOM     71  C   UNL A   1      46.802  27.038  26.298  1.00  0.00     0.023 A 
ATOM     72  C   UNL A   1      46.869  27.295  24.916  1.00  0.00     0.012 A 
ATOM     73  C   UNL A   1      47.887  26.399  26.933  1.00  0.00     0.148 A 
ATOM     74  C   UNL A   1      47.993  26.916  24.179  1.00  0.00     0.002 A 
ATOM     75  C   UNL A   1      49.025  26.079  26.206  1.00  0.00     0.091 A 
ATOM     76  F   UNL A   1      47.791  26.146  28.246  1.00  0.00    -0.205 F 
ATOM     77  C   UNL A   1      49.075  26.322  24.826  1.00  0.00     0.022 A 
BRANCH  75  78
ATOM     78  S   UNL A   1      50.518  25.447  26.982  1.00  0.00     0.127 S 
ATOM     79  O   UNL A   1      51.403  25.277  25.833  1.00  0.00    -0.237 OA
ATOM     80  O   UNL A   1      50.876  26.546  27.880  1.00  0.00    -0.237 OA
ATOM     81  O   UNL A   1      50.122  24.222  27.662  1.00  0.00    -0.744 OA
ENDBRANCH  75  78
ENDBRANCH  47  71
BRANCH  59  82
ATOM     82  C   UNL A   1      45.250  32.957  29.692  1.00  0.00     0.023 A 
ATOM     83  C   UNL A   1      46.141  33.062  30.778  1.00  0.00     0.012 A 
ATOM     84  C   UNL A   1      45.149  34.022  28.773  1.00  0.00     0.148 A 
ATOM     85  C   UNL A   1      46.904  34.214  30.960  1.00  0.00     0.002 A 
ATOM     86  C   UNL A   1      45.947  35.148  28.936  1.00  0.00     0.091 A 
ATOM     87  F   UNL A   1      44.285  33.906  27.755  1.00  0.00    -0.205 F 
ATOM     88  C   UNL A   1      46.818  35.250  30.033  1.00  0.00     0.022 A 
BRANCH  86  89
ATOM     89  S   UNL A   1      45.972  36.494  27.746  1.00  0.00     0.127 S 
ATOM     90  O   UNL A   1      45.935  35.771  26.476  1.00  0.00    -0.237 OA
ATOM     91  O   UNL A   1      44.742  37.218  28.072  1.00  0.00    -0.237 OA
ATOM     92  O   UNL A   1      47.198  37.238  28.004  1.00  0.00    -0.744 OA
ENDBRANCH  86  89
ENDBRANCH  59  82
ENDBRANCH  33  34
ENDBRANCH  26  28
ENDBRANCH  25  26
ENDBRANCH  24  25
ENDBRANCH   1  24
TORSDOF 19
ENDMDL
