MODEL 1
REMARK VINA RESULT:     -11.8      0.000      0.000
REMARK SMILES Cc1cc(C)c2c(CCCC(=O)OCCOC(=O)c3ccc(-c4c5nc(c(-c6cccc(S(=O)(=O)[O-])c6F)c6ccc([nH]6)c(-c6cccc(S(=O)(=O)[O-])c6F)c6nc(c(-c7cccc(S(=O)(=O)[O-])c7F)c7ccc4[nH]7)C=C6)C=C5)cc3)c(-c3ccccn3)[nH]c2c1
REMARK SMILES IDX 14 1 13 2 11 3 12 4 10 5 9 6 8 7 7 8 1 9 2 10 3 11 91 12
REMARK SMILES IDX 4 13 90 14 5 15 6 16 89 17 82 18 83 20 84 21 88 22 85 23
REMARK SMILES IDX 87 24 86 25 15 26 16 27 17 28 18 29 19 30 20 31 81 32 21 33
REMARK SMILES IDX 80 34 22 35 23 36 24 37 74 38 25 39 79 40 73 41 75 42 26 43
REMARK SMILES IDX 78 44 72 45 71 46 27 48 59 49 39 50 58 51 40 52 43 53 57 54
REMARK SMILES IDX 76 55 41 56 42 57 56 59 77 60 44 61 28 62 29 63 37 64 30 65
REMARK SMILES IDX 32 66 38 67 31 68 33 69 34 70 35 71 36 72 60 73 61 74 69 75
REMARK SMILES IDX 62 76 64 77 70 78 63 79 65 80 66 81 67 82 68 83 45 84 46 85
REMARK SMILES IDX 54 86 47 87 49 88 55 89 48 90 50 91 51 92 52 93 53 94
REMARK H PARENT 89 19 75 47 43 58
REMARK Flexibility Score: inf
ROOT
ATOM      1  C   UNL A   1      32.936  28.397  27.260  1.00  0.00     0.274 C 
ENDROOT
BRANCH   1   2
ATOM      2  O   UNL A   1      33.207  27.591  26.099  1.00  0.00    -0.462 OA
BRANCH   2   3
ATOM      3  C   UNL A   1      32.314  26.659  25.685  1.00  0.00     0.305 C 
ATOM      4  O   UNL A   1      31.119  26.881  25.522  1.00  0.00    -0.252 OA
BRANCH   3   5
ATOM      5  C   UNL A   1      32.937  25.291  25.447  1.00  0.00     0.123 C 
BRANCH   5   6
ATOM      6  C   UNL A   1      34.442  25.169  25.212  1.00  0.00     0.017 C 
BRANCH   6   7
ATOM      7  C   UNL A   1      34.969  24.160  24.194  1.00  0.00     0.039 C 
BRANCH   7   8
ATOM      8  C   UNL A   1      35.136  22.734  24.649  1.00  0.00    -0.013 A 
ATOM      9  C   UNL A   1      32.263  17.813  23.916  1.00  0.00     0.044 C 
ATOM     10  C   UNL A   1      32.946  19.140  24.050  1.00  0.00    -0.049 A 
ATOM     11  C   UNL A   1      32.364  20.289  23.515  1.00  0.00     0.007 A 
ATOM     12  C   UNL A   1      34.140  19.237  24.763  1.00  0.00     0.030 A 
ATOM     13  C   UNL A   1      32.958  21.566  23.638  1.00  0.00    -0.041 A 
ATOM     14  C   UNL A   1      34.735  20.496  24.881  1.00  0.00     0.047 A 
ATOM     15  C   UNL A   1      32.229  22.723  22.999  1.00  0.00     0.045 C 
ATOM     16  C   UNL A   1      34.198  21.664  24.340  1.00  0.00     0.006 A 
ATOM     17  N   UNL A   1      35.896  20.832  25.520  1.00  0.00    -0.353 N 
ATOM     18  C   UNL A   1      36.213  22.150  25.328  1.00  0.00     0.068 A 
ATOM     19  H   UNL A   1      36.438  20.205  26.051  1.00  0.00     0.167 HD
BRANCH  18  20
ATOM     20  C   UNL A   1      37.493  22.624  25.840  1.00  0.00     0.087 A 
ATOM     21  C   UNL A   1      37.664  23.912  26.332  1.00  0.00     0.030 A 
ATOM     22  N   UNL A   1      38.505  21.734  25.751  1.00  0.00    -0.255 NA
ATOM     23  C   UNL A   1      38.906  24.259  26.869  1.00  0.00     0.004 A 
ATOM     24  C   UNL A   1      39.685  22.082  26.315  1.00  0.00     0.112 A 
ATOM     25  C   UNL A   1      39.927  23.317  26.892  1.00  0.00     0.020 A 
ENDBRANCH  18  20
ENDBRANCH   7   8
ENDBRANCH   6   7
ENDBRANCH   5   6
ENDBRANCH   3   5
ENDBRANCH   2   3
ENDBRANCH   1   2
BRANCH   1  26
ATOM     26  C   UNL A   1      32.358  29.744  26.857  1.00  0.00     0.275 C 
BRANCH  26  27
ATOM     27  O   UNL A   1      33.413  30.691  26.822  1.00  0.00    -0.458 OA
BRANCH  27  28
ATOM     28  C   UNL A   1      33.104  31.879  27.384  1.00  0.00     0.338 C 
ATOM     29  O   UNL A   1      32.079  32.521  27.253  1.00  0.00    -0.246 OA
BRANCH  28  30
ATOM     30  C   UNL A   1      34.223  32.305  28.211  1.00  0.00     0.060 A 
ATOM     31  C   UNL A   1      35.156  33.185  27.648  1.00  0.00     0.016 A 
ATOM     32  C   UNL A   1      34.446  31.612  29.404  1.00  0.00     0.016 A 
ATOM     33  C   UNL A   1      36.422  33.207  28.177  1.00  0.00     0.010 A 
ATOM     34  C   UNL A   1      35.713  31.607  29.907  1.00  0.00     0.010 A 
ATOM     35  C   UNL A   1      36.693  32.332  29.227  1.00  0.00    -0.014 A 
BRANCH  35  36
ATOM     36  C   UNL A   1      38.066  32.094  29.583  1.00  0.00     0.031 A 
ATOM     37  C   UNL A   1      38.526  30.720  29.319  1.00  0.00     0.074 A 
ATOM     38  C   UNL A   1      38.839  33.141  29.928  1.00  0.00     0.049 A 
ATOM     39  N   UNL A   1      38.987  29.868  30.171  1.00  0.00    -0.248 NA
ATOM     40  C   UNL A   1      38.303  30.169  27.972  1.00  0.00     0.031 C 
ATOM     41  C   UNL A   1      38.486  34.566  29.886  1.00  0.00     0.029 A 
ATOM     42  N   UNL A   1      40.169  33.160  30.187  1.00  0.00    -0.354 N 
ATOM     43  C   UNL A   1      39.323  28.751  29.416  1.00  0.00     0.074 A 
ATOM     44  C   UNL A   1      38.680  28.904  28.139  1.00  0.00     0.031 C 
ATOM     45  C   UNL A   1      39.622  35.292  29.819  1.00  0.00     0.029 A 
ATOM     46  C   UNL A   1      40.756  34.392  29.923  1.00  0.00     0.049 A 
ATOM     47  H   UNL A   1      40.668  32.381  30.527  1.00  0.00     0.167 HD
ATOM     48  C   UNL A   1      40.329  27.919  29.790  1.00  0.00     0.034 A 
ATOM     49  C   UNL A   1      42.069  34.605  29.664  1.00  0.00     0.034 A 
ATOM     50  C   UNL A   1      40.702  28.116  31.165  1.00  0.00     0.049 A 
ATOM     51  C   UNL A   1      42.813  33.417  30.163  1.00  0.00     0.074 A 
ATOM     52  C   UNL A   1      40.023  28.056  32.366  1.00  0.00     0.029 A 
ATOM     53  N   UNL A   1      41.854  28.826  31.412  1.00  0.00    -0.354 N 
ATOM     54  N   UNL A   1      42.890  33.091  31.425  1.00  0.00    -0.248 NA
ATOM     55  C   UNL A   1      43.074  32.335  29.225  1.00  0.00     0.031 C 
ATOM     56  C   UNL A   1      40.556  29.125  33.140  1.00  0.00     0.029 A 
ATOM     57  C   UNL A   1      41.567  29.738  32.394  1.00  0.00     0.049 A 
ATOM     58  H   UNL A   1      42.723  28.702  30.966  1.00  0.00     0.167 HD
ATOM     59  C   UNL A   1      42.758  31.706  31.439  1.00  0.00     0.074 A 
ATOM     60  C   UNL A   1      42.988  31.291  30.055  1.00  0.00     0.031 C 
ATOM     61  C   UNL A   1      42.172  31.052  32.487  1.00  0.00     0.034 A 
BRANCH  48  62
ATOM     62  C   UNL A   1      41.203  27.169  28.823  1.00  0.00     0.023 A 
ATOM     63  C   UNL A   1      41.506  25.828  29.131  1.00  0.00     0.012 A 
ATOM     64  C   UNL A   1      41.929  27.771  27.769  1.00  0.00     0.148 A 
ATOM     65  C   UNL A   1      42.502  25.129  28.442  1.00  0.00     0.002 A 
ATOM     66  C   UNL A   1      42.847  27.043  27.023  1.00  0.00     0.091 A 
ATOM     67  F   UNL A   1      41.852  29.090  27.565  1.00  0.00    -0.205 F 
ATOM     68  C   UNL A   1      43.161  25.730  27.376  1.00  0.00     0.022 A 
BRANCH  66  69
ATOM     69  S   UNL A   1      43.658  27.758  25.589  1.00  0.00     0.127 S 
ATOM     70  O   UNL A   1      42.523  28.037  24.716  1.00  0.00    -0.237 OA
ATOM     71  O   UNL A   1      44.303  28.938  26.164  1.00  0.00    -0.237 OA
ATOM     72  O   UNL A   1      44.592  26.738  25.127  1.00  0.00    -0.744 OA
ENDBRANCH  66  69
ENDBRANCH  48  62
BRANCH  49  73
ATOM     73  C   UNL A   1      42.661  35.607  28.744  1.00  0.00     0.023 A 
ATOM     74  C   UNL A   1      42.389  35.538  27.366  1.00  0.00     0.012 A 
ATOM     75  C   UNL A   1      43.315  36.767  29.231  1.00  0.00     0.148 A 
ATOM     76  C   UNL A   1      42.747  36.584  26.504  1.00  0.00     0.002 A 
ATOM     77  C   UNL A   1      43.693  37.791  28.368  1.00  0.00     0.091 A 
ATOM     78  F   UNL A   1      43.484  36.913  30.551  1.00  0.00    -0.205 F 
ATOM     79  C   UNL A   1      43.401  37.708  27.004  1.00  0.00     0.022 A 
BRANCH  77  80
ATOM     80  S   UNL A   1      44.544  39.265  28.952  1.00  0.00     0.127 S 
ATOM     81  O   UNL A   1      43.674  39.709  30.042  1.00  0.00    -0.237 OA
ATOM     82  O   UNL A   1      45.832  38.724  29.376  1.00  0.00    -0.237 OA
ATOM     83  O   UNL A   1      44.585  40.178  27.815  1.00  0.00    -0.744 OA
ENDBRANCH  77  80
ENDBRANCH  49  73
BRANCH  61  84
ATOM     84  C   UNL A   1      41.835  31.832  33.740  1.00  0.00     0.023 A 
ATOM     85  C   UNL A   1      42.800  32.080  34.740  1.00  0.00     0.012 A 
ATOM     86  C   UNL A   1      40.620  32.539  33.789  1.00  0.00     0.148 A 
ATOM     87  C   UNL A   1      42.558  32.999  35.765  1.00  0.00     0.002 A 
ATOM     88  C   UNL A   1      40.405  33.492  34.779  1.00  0.00     0.091 A 
ATOM     89  F   UNL A   1      39.712  32.302  32.829  1.00  0.00    -0.205 F 
ATOM     90  C   UNL A   1      41.369  33.720  35.773  1.00  0.00     0.022 A 
BRANCH  88  91
ATOM     91  S   UNL A   1      38.966  34.565  34.760  1.00  0.00     0.127 S 
ATOM     92  O   UNL A   1      38.752  34.763  33.328  1.00  0.00    -0.237 OA
ATOM     93  O   UNL A   1      37.952  33.742  35.421  1.00  0.00    -0.237 OA
ATOM     94  O   UNL A   1      39.342  35.759  35.509  1.00  0.00    -0.744 OA
ENDBRANCH  88  91
ENDBRANCH  61  84
ENDBRANCH  35  36
ENDBRANCH  28  30
ENDBRANCH  27  28
ENDBRANCH  26  27
ENDBRANCH   1  26
TORSDOF 18
ENDMDL
MODEL 2
REMARK VINA RESULT:     -11.8      1.745      3.209
REMARK SMILES Cc1cc(C)c2c(CCCC(=O)OCCOC(=O)c3ccc(-c4c5nc(c(-c6cccc(S(=O)(=O)[O-])c6F)c6ccc([nH]6)c(-c6cccc(S(=O)(=O)[O-])c6F)c6nc(c(-c7cccc(S(=O)(=O)[O-])c7F)c7ccc4[nH]7)C=C6)C=C5)cc3)c(-c3ccccn3)[nH]c2c1
REMARK SMILES IDX 14 1 13 2 11 3 12 4 10 5 9 6 8 7 7 8 1 9 2 10 3 11 91 12
REMARK SMILES IDX 4 13 90 14 5 15 6 16 89 17 82 18 83 20 84 21 88 22 85 23
REMARK SMILES IDX 87 24 86 25 15 26 16 27 17 28 18 29 19 30 20 31 81 32 21 33
REMARK SMILES IDX 80 34 22 35 23 36 24 37 74 38 25 39 79 40 73 41 75 42 26 43
REMARK SMILES IDX 78 44 72 45 71 46 27 48 59 49 39 50 58 51 40 52 43 53 57 54
REMARK SMILES IDX 76 55 41 56 42 57 56 59 77 60 44 61 28 62 29 63 37 64 30 65
REMARK SMILES IDX 32 66 38 67 31 68 33 69 34 70 35 71 36 72 60 73 61 74 69 75
REMARK SMILES IDX 62 76 64 77 70 78 63 79 65 80 66 81 67 82 68 83 45 84 46 85
REMARK SMILES IDX 54 86 47 87 49 88 55 89 48 90 50 91 51 92 52 93 53 94
REMARK H PARENT 89 19 75 47 43 58
REMARK Flexibility Score: inf
ROOT
ATOM      1  C   UNL A   1      31.818  30.042  26.063  1.00  0.00     0.274 C 
ENDROOT
BRANCH   1   2
ATOM      2  O   UNL A   1      33.157  29.769  25.612  1.00  0.00    -0.462 OA
BRANCH   2   3
ATOM      3  C   UNL A   1      33.837  28.696  26.084  1.00  0.00     0.305 C 
ATOM      4  O   UNL A   1      34.434  28.681  27.155  1.00  0.00    -0.252 OA
BRANCH   3   5
ATOM      5  C   UNL A   1      33.798  27.498  25.146  1.00  0.00     0.123 C 
BRANCH   5   6
ATOM      6  C   UNL A   1      33.989  26.088  25.702  1.00  0.00     0.017 C 
BRANCH   6   7
ATOM      7  C   UNL A   1      32.771  25.196  25.936  1.00  0.00     0.039 C 
BRANCH   7   8
ATOM      8  C   UNL A   1      32.257  24.398  24.767  1.00  0.00    -0.013 A 
ATOM      9  C   UNL A   1      32.541  18.913  23.082  1.00  0.00     0.044 C 
ATOM     10  C   UNL A   1      32.518  20.318  23.601  1.00  0.00    -0.049 A 
ATOM     11  C   UNL A   1      33.248  20.661  24.739  1.00  0.00     0.007 A 
ATOM     12  C   UNL A   1      31.811  21.302  22.911  1.00  0.00     0.030 A 
ATOM     13  C   UNL A   1      33.277  21.978  25.252  1.00  0.00    -0.041 A 
ATOM     14  C   UNL A   1      31.832  22.604  23.417  1.00  0.00     0.047 A 
ATOM     15  C   UNL A   1      34.095  22.208  26.499  1.00  0.00     0.045 C 
ATOM     16  C   UNL A   1      32.528  22.981  24.564  1.00  0.00     0.006 A 
ATOM     17  N   UNL A   1      31.216  23.720  22.921  1.00  0.00    -0.353 N 
ATOM     18  C   UNL A   1      31.378  24.795  23.752  1.00  0.00     0.068 A 
ATOM     19  H   UNL A   1      30.717  23.746  22.073  1.00  0.00     0.167 HD
BRANCH  18  20
ATOM     20  C   UNL A   1      30.666  26.024  23.422  1.00  0.00     0.087 A 
ATOM     21  C   UNL A   1      29.367  26.267  23.848  1.00  0.00     0.030 A 
ATOM     22  N   UNL A   1      31.349  26.880  22.631  1.00  0.00    -0.255 NA
ATOM     23  C   UNL A   1      28.787  27.501  23.548  1.00  0.00     0.004 A 
ATOM     24  C   UNL A   1      30.780  28.085  22.390  1.00  0.00     0.112 A 
ATOM     25  C   UNL A   1      29.519  28.442  22.834  1.00  0.00     0.020 A 
ENDBRANCH  18  20
ENDBRANCH   7   8
ENDBRANCH   6   7
ENDBRANCH   5   6
ENDBRANCH   3   5
ENDBRANCH   2   3
ENDBRANCH   1   2
BRANCH   1  26
ATOM     26  C   UNL A   1      31.691  31.481  26.535  1.00  0.00     0.275 C 
BRANCH  26  27
ATOM     27  O   UNL A   1      32.819  31.788  27.339  1.00  0.00    -0.458 OA
BRANCH  27  28
ATOM     28  C   UNL A   1      32.871  33.076  27.741  1.00  0.00     0.338 C 
ATOM     29  O   UNL A   1      32.047  33.951  27.553  1.00  0.00    -0.246 OA
BRANCH  28  30
ATOM     30  C   UNL A   1      34.113  33.282  28.471  1.00  0.00     0.060 A 
ATOM     31  C   UNL A   1      35.180  33.884  27.792  1.00  0.00     0.016 A 
ATOM     32  C   UNL A   1      34.257  32.632  29.700  1.00  0.00     0.016 A 
ATOM     33  C   UNL A   1      36.453  33.646  28.249  1.00  0.00     0.010 A 
ATOM     34  C   UNL A   1      35.522  32.364  30.133  1.00  0.00     0.010 A 
ATOM     35  C   UNL A   1      36.590  32.799  29.347  1.00  0.00    -0.014 A 
BRANCH  35  36
ATOM     36  C   UNL A   1      37.894  32.271  29.645  1.00  0.00     0.031 A 
ATOM     37  C   UNL A   1      38.076  30.862  29.258  1.00  0.00     0.074 A 
ATOM     38  C   UNL A   1      38.859  33.116  30.053  1.00  0.00     0.049 A 
ATOM     39  N   UNL A   1      38.372  29.868  30.025  1.00  0.00    -0.248 NA
ATOM     40  C   UNL A   1      37.736  30.480  27.877  1.00  0.00     0.031 C 
ATOM     41  C   UNL A   1      38.790  34.582  30.137  1.00  0.00     0.029 A 
ATOM     42  N   UNL A   1      40.171  32.857  30.277  1.00  0.00    -0.354 N 
ATOM     43  C   UNL A   1      38.477  28.775  29.173  1.00  0.00     0.074 A 
ATOM     44  C   UNL A   1      37.862  29.157  27.931  1.00  0.00     0.031 C 
ATOM     45  C   UNL A   1      40.045  35.078  30.098  1.00  0.00     0.029 A 
ATOM     46  C   UNL A   1      40.983  33.971  30.098  1.00  0.00     0.049 A 
ATOM     47  H   UNL A   1      40.513  31.971  30.539  1.00  0.00     0.167 HD
ATOM     48  C   UNL A   1      39.306  27.737  29.451  1.00  0.00     0.034 A 
ATOM     49  C   UNL A   1      42.310  33.948  29.822  1.00  0.00     0.034 A 
ATOM     50  C   UNL A   1      39.725  27.741  30.827  1.00  0.00     0.049 A 
ATOM     51  C   UNL A   1      42.814  32.602  30.203  1.00  0.00     0.074 A 
ATOM     52  C   UNL A   1      39.060  27.711  32.037  1.00  0.00     0.029 A 
ATOM     53  N   UNL A   1      40.996  28.191  31.100  1.00  0.00    -0.354 N 
ATOM     54  N   UNL A   1      42.840  32.160  31.432  1.00  0.00    -0.248 NA
ATOM     55  C   UNL A   1      42.850  31.573  29.173  1.00  0.00     0.031 C 
ATOM     56  C   UNL A   1      39.799  28.587  32.881  1.00  0.00     0.029 A 
ATOM     57  C   UNL A   1      40.901  29.055  32.160  1.00  0.00     0.049 A 
ATOM     58  H   UNL A   1      41.819  27.941  30.622  1.00  0.00     0.167 HD
ATOM     59  C   UNL A   1      42.441  30.831  31.336  1.00  0.00     0.074 A 
ATOM     60  C   UNL A   1      42.572  30.499  29.918  1.00  0.00     0.031 C 
ATOM     61  C   UNL A   1      41.751  30.215  32.344  1.00  0.00     0.034 A 
BRANCH  48  62
ATOM     62  C   UNL A   1      40.008  26.917  28.403  1.00  0.00     0.023 A 
ATOM     63  C   UNL A   1      39.794  25.525  28.420  1.00  0.00     0.012 A 
ATOM     64  C   UNL A   1      41.039  27.403  27.566  1.00  0.00     0.148 A 
ATOM     65  C   UNL A   1      40.585  24.656  27.663  1.00  0.00     0.002 A 
ATOM     66  C   UNL A   1      41.756  26.547  26.741  1.00  0.00     0.091 A 
ATOM     67  F   UNL A   1      41.440  28.675  27.660  1.00  0.00    -0.205 F 
ATOM     68  C   UNL A   1      41.555  25.168  26.809  1.00  0.00     0.022 A 
BRANCH  66  69
ATOM     69  S   UNL A   1      42.959  27.176  25.566  1.00  0.00     0.127 S 
ATOM     70  O   UNL A   1      42.139  28.069  24.753  1.00  0.00    -0.237 OA
ATOM     71  O   UNL A   1      43.919  27.845  26.445  1.00  0.00    -0.237 OA
ATOM     72  O   UNL A   1      43.493  25.998  24.892  1.00  0.00    -0.744 OA
ENDBRANCH  66  69
ENDBRANCH  48  62
BRANCH  49  73
ATOM     73  C   UNL A   1      43.075  34.892  28.972  1.00  0.00     0.023 A 
ATOM     74  C   UNL A   1      43.187  34.654  27.589  1.00  0.00     0.012 A 
ATOM     75  C   UNL A   1      43.514  36.147  29.463  1.00  0.00     0.148 A 
ATOM     76  C   UNL A   1      43.711  35.628  26.727  1.00  0.00     0.002 A 
ATOM     77  C   UNL A   1      44.058  37.101  28.608  1.00  0.00     0.091 A 
ATOM     78  F   UNL A   1      43.315  36.446  30.753  1.00  0.00    -0.205 F 
ATOM     79  C   UNL A   1      44.147  36.849  27.237  1.00  0.00     0.022 A 
BRANCH  77  80
ATOM     80  S   UNL A   1      44.644  38.694  29.206  1.00  0.00     0.127 S 
ATOM     81  O   UNL A   1      45.955  38.797  28.563  1.00  0.00    -0.237 OA
ATOM     82  O   UNL A   1      43.631  39.606  28.683  1.00  0.00    -0.237 OA
ATOM     83  O   UNL A   1      44.702  38.578  30.658  1.00  0.00    -0.744 OA
ENDBRANCH  77  80
ENDBRANCH  49  73
BRANCH  61  84
ATOM     84  C   UNL A   1      41.586  30.936  33.664  1.00  0.00     0.023 A 
ATOM     85  C   UNL A   1      42.619  30.970  34.624  1.00  0.00     0.012 A 
ATOM     86  C   UNL A   1      40.487  31.799  33.829  1.00  0.00     0.148 A 
ATOM     87  C   UNL A   1      42.558  31.833  35.722  1.00  0.00     0.002 A 
ATOM     88  C   UNL A   1      40.455  32.695  34.893  1.00  0.00     0.091 A 
ATOM     89  F   UNL A   1      39.513  31.765  32.907  1.00  0.00    -0.205 F 
ATOM     90  C   UNL A   1      41.485  32.709  35.846  1.00  0.00     0.022 A 
BRANCH  88  91
ATOM     91  S   UNL A   1      39.184  33.955  35.028  1.00  0.00     0.127 S 
ATOM     92  O   UNL A   1      39.549  34.624  36.275  1.00  0.00    -0.237 OA
ATOM     93  O   UNL A   1      39.401  34.752  33.819  1.00  0.00    -0.237 OA
ATOM     94  O   UNL A   1      37.911  33.242  35.049  1.00  0.00    -0.744 OA
ENDBRANCH  88  91
ENDBRANCH  61  84
ENDBRANCH  35  36
ENDBRANCH  28  30
ENDBRANCH  27  28
ENDBRANCH  26  27
ENDBRANCH   1  26
TORSDOF 18
ENDMDL
MODEL 3
REMARK VINA RESULT:     -11.7      4.772      9.738
REMARK SMILES Cc1cc(C)c2c(CCCC(=O)OCCOC(=O)c3ccc(-c4c5nc(c(-c6cccc(S(=O)(=O)[O-])c6F)c6ccc([nH]6)c(-c6cccc(S(=O)(=O)[O-])c6F)c6nc(c(-c7cccc(S(=O)(=O)[O-])c7F)c7ccc4[nH]7)C=C6)C=C5)cc3)c(-c3ccccn3)[nH]c2c1
REMARK SMILES IDX 14 1 13 2 11 3 12 4 10 5 9 6 8 7 7 8 1 9 2 10 3 11 91 12
REMARK SMILES IDX 4 13 90 14 5 15 6 16 89 17 82 18 83 20 84 21 88 22 85 23
REMARK SMILES IDX 87 24 86 25 15 26 16 27 17 28 18 29 19 30 20 31 81 32 21 33
REMARK SMILES IDX 80 34 22 35 23 36 24 37 74 38 25 39 79 40 73 41 75 42 26 43
REMARK SMILES IDX 78 44 72 45 71 46 27 48 59 49 39 50 58 51 40 52 43 53 57 54
REMARK SMILES IDX 76 55 41 56 42 57 56 59 77 60 44 61 28 62 29 63 37 64 30 65
REMARK SMILES IDX 32 66 38 67 31 68 33 69 34 70 35 71 36 72 60 73 61 74 69 75
REMARK SMILES IDX 62 76 64 77 70 78 63 79 65 80 66 81 67 82 68 83 45 84 46 85
REMARK SMILES IDX 54 86 47 87 49 88 55 89 48 90 50 91 51 92 52 93 53 94
REMARK H PARENT 89 19 75 47 43 58
REMARK Flexibility Score: inf
ROOT
ATOM      1  C   UNL A   1      37.188  21.515  23.989  1.00  0.00     0.274 C 
ENDROOT
BRANCH   1   2
ATOM      2  O   UNL A   1      37.159  22.838  24.554  1.00  0.00    -0.462 OA
BRANCH   2   3
ATOM      3  C   UNL A   1      36.015  23.564  24.545  1.00  0.00     0.305 C 
ATOM      4  O   UNL A   1      35.490  24.004  23.528  1.00  0.00    -0.252 OA
BRANCH   3   5
ATOM      5  C   UNL A   1      35.438  23.796  25.935  1.00  0.00     0.123 C 
BRANCH   5   6
ATOM      6  C   UNL A   1      34.151  24.602  26.102  1.00  0.00     0.017 C 
BRANCH   6   7
ATOM      7  C   UNL A   1      32.799  23.895  26.023  1.00  0.00     0.039 C 
BRANCH   7   8
ATOM      8  C   UNL A   1      32.397  23.309  24.695  1.00  0.00    -0.013 A 
ATOM      9  C   UNL A   1      32.450  18.082  22.312  1.00  0.00     0.044 C 
ATOM     10  C   UNL A   1      32.472  19.405  23.015  1.00  0.00    -0.049 A 
ATOM     11  C   UNL A   1      33.053  19.522  24.278  1.00  0.00     0.007 A 
ATOM     12  C   UNL A   1      31.963  20.537  22.380  1.00  0.00     0.030 A 
ATOM     13  C   UNL A   1      33.120  20.754  24.969  1.00  0.00    -0.041 A 
ATOM     14  C   UNL A   1      32.021  21.755  23.062  1.00  0.00     0.047 A 
ATOM     15  C   UNL A   1      33.763  20.736  26.335  1.00  0.00     0.045 C 
ATOM     16  C   UNL A   1      32.571  21.909  24.335  1.00  0.00     0.006 A 
ATOM     17  N   UNL A   1      31.585  22.984  22.649  1.00  0.00    -0.353 N 
ATOM     18  C   UNL A   1      31.715  23.923  23.637  1.00  0.00     0.068 A 
ATOM     19  H   UNL A   1      31.221  23.170  21.754  1.00  0.00     0.167 HD
BRANCH  18  20
ATOM     20  C   UNL A   1      31.169  25.251  23.390  1.00  0.00     0.087 A 
ATOM     21  C   UNL A   1      31.685  26.096  22.415  1.00  0.00     0.030 A 
ATOM     22  N   UNL A   1      30.161  25.614  24.212  1.00  0.00    -0.255 NA
ATOM     23  C   UNL A   1      31.056  27.323  22.196  1.00  0.00     0.004 A 
ATOM     24  C   UNL A   1      29.544  26.790  23.952  1.00  0.00     0.112 A 
ATOM     25  C   UNL A   1      29.943  27.664  22.955  1.00  0.00     0.020 A 
ENDBRANCH  18  20
ENDBRANCH   7   8
ENDBRANCH   6   7
ENDBRANCH   5   6
ENDBRANCH   3   5
ENDBRANCH   2   3
ENDBRANCH   1   2
BRANCH   1  26
ATOM     26  C   UNL A   1      37.387  20.470  25.075  1.00  0.00     0.275 C 
BRANCH  26  27
ATOM     27  O   UNL A   1      38.406  20.925  25.951  1.00  0.00    -0.458 OA
BRANCH  27  28
ATOM     28  C   UNL A   1      39.543  20.200  25.894  1.00  0.00     0.338 C 
ATOM     29  O   UNL A   1      39.691  19.078  25.447  1.00  0.00    -0.246 OA
BRANCH  28  30
ATOM     30  C   UNL A   1      40.623  20.988  26.466  1.00  0.00     0.060 A 
ATOM     31  C   UNL A   1      40.840  20.898  27.847  1.00  0.00     0.016 A 
ATOM     32  C   UNL A   1      41.195  21.980  25.665  1.00  0.00     0.016 A 
ATOM     33  C   UNL A   1      41.470  21.946  28.471  1.00  0.00     0.010 A 
ATOM     34  C   UNL A   1      41.788  23.038  26.289  1.00  0.00     0.010 A 
ATOM     35  C   UNL A   1      41.829  23.038  27.684  1.00  0.00    -0.014 A 
BRANCH  35  36
ATOM     36  C   UNL A   1      42.183  24.267  28.340  1.00  0.00     0.031 A 
ATOM     37  C   UNL A   1      41.174  25.332  28.209  1.00  0.00     0.074 A 
ATOM     38  C   UNL A   1      43.262  24.287  29.145  1.00  0.00     0.049 A 
ATOM     39  N   UNL A   1      41.326  26.498  27.679  1.00  0.00    -0.248 NA
ATOM     40  C   UNL A   1      39.784  25.008  28.571  1.00  0.00     0.031 C 
ATOM     41  C   UNL A   1      44.100  23.148  29.547  1.00  0.00     0.029 A 
ATOM     42  N   UNL A   1      43.706  25.292  29.939  1.00  0.00    -0.354 N 
ATOM     43  C   UNL A   1      40.102  27.133  27.850  1.00  0.00     0.074 A 
ATOM     44  C   UNL A   1      39.148  26.112  28.186  1.00  0.00     0.031 C 
ATOM     45  C   UNL A   1      44.732  23.460  30.699  1.00  0.00     0.029 A 
ATOM     46  C   UNL A   1      44.425  24.838  31.039  1.00  0.00     0.049 A 
ATOM     47  H   UNL A   1      43.537  26.245  29.756  1.00  0.00     0.167 HD
ATOM     48  C   UNL A   1      40.015  28.482  27.979  1.00  0.00     0.034 A 
ATOM     49  C   UNL A   1      44.613  25.515  32.198  1.00  0.00     0.034 A 
ATOM     50  C   UNL A   1      41.221  29.139  27.551  1.00  0.00     0.049 A 
ATOM     51  C   UNL A   1      44.337  26.949  31.917  1.00  0.00     0.074 A 
ATOM     52  C   UNL A   1      41.940  29.161  26.372  1.00  0.00     0.029 A 
ATOM     53  N   UNL A   1      42.076  29.590  28.529  1.00  0.00    -0.354 N 
ATOM     54  N   UNL A   1      45.064  27.681  31.116  1.00  0.00    -0.248 NA
ATOM     55  C   UNL A   1      42.988  27.442  32.154  1.00  0.00     0.031 C 
ATOM     56  C   UNL A   1      43.305  29.164  26.777  1.00  0.00     0.029 A 
ATOM     57  C   UNL A   1      43.341  29.201  28.174  1.00  0.00     0.049 A 
ATOM     58  H   UNL A   1      41.825  30.098  29.335  1.00  0.00     0.167 HD
ATOM     59  C   UNL A   1      44.144  28.449  30.409  1.00  0.00     0.074 A 
ATOM     60  C   UNL A   1      42.899  28.340  31.168  1.00  0.00     0.031 C 
ATOM     61  C   UNL A   1      44.379  28.845  29.121  1.00  0.00     0.034 A 
BRANCH  48  62
ATOM     62  C   UNL A   1      38.973  29.182  28.807  1.00  0.00     0.023 A 
ATOM     63  C   UNL A   1      38.159  30.130  28.157  1.00  0.00     0.012 A 
ATOM     64  C   UNL A   1      38.911  29.137  30.219  1.00  0.00     0.148 A 
ATOM     65  C   UNL A   1      37.344  31.008  28.877  1.00  0.00     0.002 A 
ATOM     66  C   UNL A   1      38.027  29.942  30.925  1.00  0.00     0.091 A 
ATOM     67  F   UNL A   1      39.804  28.420  30.910  1.00  0.00    -0.205 F 
ATOM     68  C   UNL A   1      37.264  30.903  30.261  1.00  0.00     0.022 A 
BRANCH  66  69
ATOM     69  S   UNL A   1      37.835  29.780  32.703  1.00  0.00     0.127 S 
ATOM     70  O   UNL A   1      36.722  30.686  32.963  1.00  0.00    -0.237 OA
ATOM     71  O   UNL A   1      37.522  28.358  32.844  1.00  0.00    -0.237 OA
ATOM     72  O   UNL A   1      39.124  30.162  33.266  1.00  0.00    -0.744 OA
ENDBRANCH  66  69
ENDBRANCH  48  62
BRANCH  49  73
ATOM     73  C   UNL A   1      44.701  24.958  33.570  1.00  0.00     0.023 A 
ATOM     74  C   UNL A   1      43.524  24.647  34.275  1.00  0.00     0.012 A 
ATOM     75  C   UNL A   1      45.933  24.519  34.116  1.00  0.00     0.148 A 
ATOM     76  C   UNL A   1      43.569  23.923  35.475  1.00  0.00     0.002 A 
ATOM     77  C   UNL A   1      45.976  23.823  35.320  1.00  0.00     0.091 A 
ATOM     78  F   UNL A   1      47.057  24.699  33.411  1.00  0.00    -0.205 F 
ATOM     79  C   UNL A   1      44.793  23.514  35.998  1.00  0.00     0.022 A 
BRANCH  77  80
ATOM     80  S   UNL A   1      47.526  23.272  36.050  1.00  0.00     0.127 S 
ATOM     81  O   UNL A   1      48.035  22.357  35.028  1.00  0.00    -0.237 OA
ATOM     82  O   UNL A   1      48.265  24.525  36.174  1.00  0.00    -0.237 OA
ATOM     83  O   UNL A   1      47.166  22.623  37.305  1.00  0.00    -0.744 OA
ENDBRANCH  77  80
ENDBRANCH  49  73
BRANCH  61  84
ATOM     84  C   UNL A   1      45.749  28.605  28.521  1.00  0.00     0.023 A 
ATOM     85  C   UNL A   1      46.835  29.465  28.788  1.00  0.00     0.012 A 
ATOM     86  C   UNL A   1      46.006  27.370  27.899  1.00  0.00     0.148 A 
ATOM     87  C   UNL A   1      48.141  29.110  28.439  1.00  0.00     0.002 A 
ATOM     88  C   UNL A   1      47.313  26.996  27.603  1.00  0.00     0.091 A 
ATOM     89  F   UNL A   1      44.968  26.555  27.657  1.00  0.00    -0.205 F 
ATOM     90  C   UNL A   1      48.382  27.867  27.864  1.00  0.00     0.022 A 
BRANCH  88  91
ATOM     91  S   UNL A   1      47.711  25.351  27.005  1.00  0.00     0.127 S 
ATOM     92  O   UNL A   1      47.011  24.500  27.965  1.00  0.00    -0.237 OA
ATOM     93  O   UNL A   1      47.136  25.357  25.659  1.00  0.00    -0.237 OA
ATOM     94  O   UNL A   1      49.167  25.255  27.028  1.00  0.00    -0.744 OA
ENDBRANCH  88  91
ENDBRANCH  61  84
ENDBRANCH  35  36
ENDBRANCH  28  30
ENDBRANCH  27  28
ENDBRANCH  26  27
ENDBRANCH   1  26
TORSDOF 18
ENDMDL
