MODEL 1
REMARK VINA RESULT:     -11.4      0.000      0.000
REMARK SMILES CC[NH2+][C@@]1(C(=O)OCCOC(=O)c2ccc(-c3c4nc(c(-c5cccc(S(=O)(=O)[O-])c5F)c5ccc([nH]5)c(-c5cccc(S(=O)(=O)[O-])c5F)c5nc(c(-c6cccc(S(=O)(=O)[O-])c6F)c6ccc3[nH]6)C=C5)C=C4)cc2)CC[C@H](Oc2ccc3c(c2)OCO3)C1
REMARK SMILES IDX 9 1 8 2 7 3 5 4 6 5 4 6 76 7 89 8 77 9 78 10 3 11 2 14 1 15
REMARK SMILES IDX 79 16 80 17 81 18 85 19 82 20 84 21 83 22 86 23 88 24 87 25
REMARK SMILES IDX 10 26 11 27 12 28 13 29 14 30 75 31 15 32 74 33 16 34 17 35
REMARK SMILES IDX 18 36 68 37 19 38 73 39 67 40 69 41 20 42 72 43 66 44 65 45
REMARK SMILES IDX 21 47 53 48 33 49 52 50 34 51 37 52 51 53 70 54 35 55 36 56
REMARK SMILES IDX 50 58 71 59 38 60 22 61 23 62 31 63 24 64 26 65 32 66 25 67
REMARK SMILES IDX 27 68 28 69 29 70 30 71 54 72 55 73 63 74 56 75 58 76 64 77
REMARK SMILES IDX 57 78 59 79 60 80 61 81 62 82 39 83 40 84 48 85 41 86 43 87
REMARK SMILES IDX 49 88 42 89 44 90 45 91 46 92 47 93
REMARK H PARENT 3 12 3 13 69 46 37 57
REMARK Flexibility Score: inf
ROOT
ATOM      1  C   UNL A   1      36.945  21.476  24.272  1.00  0.00     0.275 C 
ENDROOT
BRANCH   1   2
ATOM      2  C   UNL A   1      36.384  22.781  23.716  1.00  0.00     0.274 C 
BRANCH   2   3
ATOM      3  O   UNL A   1      35.036  22.537  23.306  1.00  0.00    -0.457 OA
BRANCH   3   4
ATOM      4  C   UNL A   1      34.072  23.157  24.024  1.00  0.00     0.368 C 
ATOM      5  O   UNL A   1      34.293  23.884  24.989  1.00  0.00    -0.245 OA
BRANCH   4   6
ATOM      6  C   UNL A   1      32.652  22.933  23.414  1.00  0.00     0.198 C 
ATOM      7  C   UNL A   1      31.625  23.117  24.536  1.00  0.00     0.085 C 
ATOM      8  C   UNL A   1      32.332  21.472  23.035  1.00  0.00     0.126 C 
ATOM      9  C   UNL A   1      31.827  21.851  25.380  1.00  0.00     0.052 C 
ATOM     10  C   UNL A   1      32.228  20.746  24.384  1.00  0.00     0.180 C 
BRANCH   6  11
ATOM     11  N   UNL A   1      32.435  23.775  22.219  1.00  0.00    -0.332 N 
ATOM     12  H   UNL A   1      33.006  23.399  21.462  1.00  0.00     0.347 HD
ATOM     13  H   UNL A   1      31.433  23.743  22.034  1.00  0.00     0.347 HD
BRANCH  11  14
ATOM     14  C   UNL A   1      32.769  25.190  22.375  1.00  0.00     0.257 C 
ATOM     15  C   UNL A   1      31.593  26.042  21.941  1.00  0.00     0.071 C 
ENDBRANCH  11  14
ENDBRANCH   6  11
BRANCH  10  16
ATOM     16  O   UNL A   1      33.540  20.238  24.566  1.00  0.00    -0.490 OA
BRANCH  16  17
ATOM     17  C   UNL A   1      33.849  18.930  24.678  1.00  0.00     0.123 A 
ATOM     18  C   UNL A   1      35.102  18.341  24.482  1.00  0.00     0.050 A 
ATOM     19  C   UNL A   1      32.738  18.156  25.029  1.00  0.00     0.097 A 
ATOM     20  C   UNL A   1      35.249  16.953  24.623  1.00  0.00     0.054 A 
ATOM     21  C   UNL A   1      32.916  16.806  25.187  1.00  0.00     0.169 A 
ATOM     22  C   UNL A   1      34.141  16.217  24.992  1.00  0.00     0.166 A 
ATOM     23  O   UNL A   1      31.959  15.919  25.568  1.00  0.00    -0.453 OA
ATOM     24  O   UNL A   1      34.103  14.879  25.239  1.00  0.00    -0.454 OA
ATOM     25  C   UNL A   1      32.779  14.762  25.807  1.00  0.00     0.468 C 
ENDBRANCH  16  17
ENDBRANCH  10  16
ENDBRANCH   4   6
ENDBRANCH   3   4
ENDBRANCH   2   3
ENDBRANCH   1   2
BRANCH   1  26
ATOM     26  O   UNL A   1      37.263  21.624  25.669  1.00  0.00    -0.458 OA
BRANCH  26  27
ATOM     27  C   UNL A   1      38.534  21.277  26.018  1.00  0.00     0.338 C 
ATOM     28  O   UNL A   1      39.052  20.183  25.909  1.00  0.00    -0.246 OA
BRANCH  27  29
ATOM     29  C   UNL A   1      39.246  22.477  26.509  1.00  0.00     0.060 A 
ATOM     30  C   UNL A   1      38.815  23.744  26.097  1.00  0.00     0.016 A 
ATOM     31  C   UNL A   1      40.350  22.353  27.357  1.00  0.00     0.016 A 
ATOM     32  C   UNL A   1      39.463  24.889  26.565  1.00  0.00     0.010 A 
ATOM     33  C   UNL A   1      41.013  23.497  27.804  1.00  0.00     0.010 A 
ATOM     34  C   UNL A   1      40.571  24.771  27.418  1.00  0.00    -0.014 A 
BRANCH  34  35
ATOM     35  C   UNL A   1      41.338  25.974  27.814  1.00  0.00     0.031 A 
ATOM     36  C   UNL A   1      40.645  27.026  28.624  1.00  0.00     0.074 A 
ATOM     37  C   UNL A   1      42.617  26.145  27.432  1.00  0.00     0.049 A 
ATOM     38  N   UNL A   1      41.116  28.152  29.088  1.00  0.00    -0.248 NA
ATOM     39  C   UNL A   1      39.227  26.784  28.939  1.00  0.00     0.031 C 
ATOM     40  C   UNL A   1      43.374  25.213  26.605  1.00  0.00     0.029 A 
ATOM     41  N   UNL A   1      43.502  27.168  27.669  1.00  0.00    -0.354 N 
ATOM     42  C   UNL A   1      40.052  28.764  29.732  1.00  0.00     0.074 A 
ATOM     43  C   UNL A   1      38.910  27.885  29.604  1.00  0.00     0.031 C 
ATOM     44  C   UNL A   1      44.614  25.689  26.413  1.00  0.00     0.029 A 
ATOM     45  C   UNL A   1      44.723  26.995  27.055  1.00  0.00     0.049 A 
ATOM     46  H   UNL A   1      43.285  27.950  28.225  1.00  0.00     0.167 HD
ATOM     47  C   UNL A   1      40.028  29.957  30.369  1.00  0.00     0.034 A 
ATOM     48  C   UNL A   1      45.794  27.811  26.990  1.00  0.00     0.034 A 
ATOM     49  C   UNL A   1      41.154  30.846  30.454  1.00  0.00     0.049 A 
ATOM     50  C   UNL A   1      45.727  29.144  27.687  1.00  0.00     0.074 A 
ATOM     51  C   UNL A   1      41.235  32.070  31.094  1.00  0.00     0.029 A 
ATOM     52  N   UNL A   1      42.384  30.625  29.853  1.00  0.00    -0.354 N 
ATOM     53  N   UNL A   1      44.756  29.652  28.406  1.00  0.00    -0.248 NA
ATOM     54  C   UNL A   1      46.910  30.012  27.578  1.00  0.00     0.031 C 
ATOM     55  C   UNL A   1      42.500  32.608  30.841  1.00  0.00     0.029 A 
ATOM     56  C   UNL A   1      43.225  31.698  30.089  1.00  0.00     0.049 A 
ATOM     57  H   UNL A   1      42.622  29.823  29.333  1.00  0.00     0.167 HD
ATOM     58  C   UNL A   1      45.220  30.880  28.863  1.00  0.00     0.074 A 
ATOM     59  C   UNL A   1      46.569  31.029  28.359  1.00  0.00     0.031 C 
ATOM     60  C   UNL A   1      44.583  31.807  29.619  1.00  0.00     0.034 A 
BRANCH  47  61
ATOM     61  C   UNL A   1      38.731  30.369  31.010  1.00  0.00     0.023 A 
ATOM     62  C   UNL A   1      38.489  30.057  32.364  1.00  0.00     0.012 A 
ATOM     63  C   UNL A   1      37.766  31.087  30.280  1.00  0.00     0.148 A 
ATOM     64  C   UNL A   1      37.290  30.425  32.971  1.00  0.00     0.002 A 
ATOM     65  C   UNL A   1      36.594  31.490  30.905  1.00  0.00     0.091 A 
ATOM     66  F   UNL A   1      38.008  31.351  28.988  1.00  0.00    -0.205 F 
ATOM     67  C   UNL A   1      36.348  31.148  32.245  1.00  0.00     0.022 A 
BRANCH  65  68
ATOM     68  S   UNL A   1      35.350  32.488  30.079  1.00  0.00     0.127 S 
ATOM     69  O   UNL A   1      34.353  32.651  31.138  1.00  0.00    -0.237 OA
ATOM     70  O   UNL A   1      36.099  33.702  29.755  1.00  0.00    -0.237 OA
ATOM     71  O   UNL A   1      34.910  31.714  28.927  1.00  0.00    -0.744 OA
ENDBRANCH  65  68
ENDBRANCH  47  61
BRANCH  48  72
ATOM     72  C   UNL A   1      47.021  27.400  26.246  1.00  0.00     0.023 A 
ATOM     73  C   UNL A   1      47.139  27.702  24.875  1.00  0.00     0.012 A 
ATOM     74  C   UNL A   1      48.065  26.702  26.883  1.00  0.00     0.148 A 
ATOM     75  C   UNL A   1      48.251  27.280  24.144  1.00  0.00     0.002 A 
ATOM     76  C   UNL A   1      49.199  26.337  26.164  1.00  0.00     0.091 A 
ATOM     77  F   UNL A   1      47.931  26.406  28.184  1.00  0.00    -0.205 F 
ATOM     78  C   UNL A   1      49.284  26.606  24.790  1.00  0.00     0.022 A 
BRANCH  76  79
ATOM     79  S   UNL A   1      50.631  25.581  26.940  1.00  0.00     0.127 S 
ATOM     80  O   UNL A   1      51.533  25.415  25.803  1.00  0.00    -0.237 OA
ATOM     81  O   UNL A   1      51.031  26.610  27.899  1.00  0.00    -0.237 OA
ATOM     82  O   UNL A   1      50.145  24.350  27.548  1.00  0.00    -0.744 OA
ENDBRANCH  76  79
ENDBRANCH  48  72
BRANCH  60  83
ATOM     83  C   UNL A   1      45.350  33.047  29.996  1.00  0.00     0.023 A 
ATOM     84  C   UNL A   1      46.136  33.069  31.165  1.00  0.00     0.012 A 
ATOM     85  C   UNL A   1      45.349  34.167  29.141  1.00  0.00     0.148 A 
ATOM     86  C   UNL A   1      46.883  34.200  31.494  1.00  0.00     0.002 A 
ATOM     87  C   UNL A   1      46.140  35.267  29.445  1.00  0.00     0.091 A 
ATOM     88  F   UNL A   1      44.580  34.132  28.043  1.00  0.00    -0.205 F 
ATOM     89  C   UNL A   1      46.896  35.291  30.627  1.00  0.00     0.022 A 
BRANCH  87  90
ATOM     90  S   UNL A   1      46.300  36.672  28.339  1.00  0.00     0.127 S 
ATOM     91  O   UNL A   1      44.939  37.208  28.339  1.00  0.00    -0.237 OA
ATOM     92  O   UNL A   1      47.283  37.502  29.035  1.00  0.00    -0.237 OA
ATOM     93  O   UNL A   1      46.756  36.134  27.064  1.00  0.00    -0.744 OA
ENDBRANCH  87  90
ENDBRANCH  60  83
ENDBRANCH  34  35
ENDBRANCH  27  29
ENDBRANCH  26  27
ENDBRANCH   1  26
TORSDOF 18
ENDMDL
MODEL 2
REMARK VINA RESULT:     -11.4      4.989      9.721
REMARK SMILES CC[NH2+][C@@]1(C(=O)OCCOC(=O)c2ccc(-c3c4nc(c(-c5cccc(S(=O)(=O)[O-])c5F)c5ccc([nH]5)c(-c5cccc(S(=O)(=O)[O-])c5F)c5nc(c(-c6cccc(S(=O)(=O)[O-])c6F)c6ccc3[nH]6)C=C5)C=C4)cc2)CC[C@H](Oc2ccc3c(c2)OCO3)C1
REMARK SMILES IDX 9 1 8 2 7 3 5 4 6 5 4 6 76 7 89 8 77 9 78 10 3 11 2 14 1 15
REMARK SMILES IDX 79 16 80 17 81 18 85 19 82 20 84 21 83 22 86 23 88 24 87 25
REMARK SMILES IDX 10 26 11 27 12 28 13 29 14 30 75 31 15 32 74 33 16 34 17 35
REMARK SMILES IDX 18 36 68 37 19 38 73 39 67 40 69 41 20 42 72 43 66 44 65 45
REMARK SMILES IDX 21 47 53 48 33 49 52 50 34 51 37 52 51 53 70 54 35 55 36 56
REMARK SMILES IDX 50 58 71 59 38 60 22 61 23 62 31 63 24 64 26 65 32 66 25 67
REMARK SMILES IDX 27 68 28 69 29 70 30 71 54 72 55 73 63 74 56 75 58 76 64 77
REMARK SMILES IDX 57 78 59 79 60 80 61 81 62 82 39 83 40 84 48 85 41 86 43 87
REMARK SMILES IDX 49 88 42 89 44 90 45 91 46 92 47 93
REMARK H PARENT 3 12 3 13 69 46 37 57
REMARK Flexibility Score: inf
ROOT
ATOM      1  C   UNL A   1      31.615  29.793  26.531  1.00  0.00     0.275 C 
ENDROOT
BRANCH   1   2
ATOM      2  C   UNL A   1      31.780  28.280  26.631  1.00  0.00     0.274 C 
BRANCH   2   3
ATOM      3  O   UNL A   1      32.341  27.820  25.398  1.00  0.00    -0.457 OA
BRANCH   3   4
ATOM      4  C   UNL A   1      31.463  27.377  24.471  1.00  0.00     0.368 C 
ATOM      5  O   UNL A   1      30.473  26.698  24.730  1.00  0.00    -0.245 OA
BRANCH   4   6
ATOM      6  C   UNL A   1      31.790  27.925  23.046  1.00  0.00     0.198 C 
ATOM      7  C   UNL A   1      31.206  26.946  22.022  1.00  0.00     0.085 C 
ATOM      8  C   UNL A   1      33.277  27.835  22.641  1.00  0.00     0.126 C 
ATOM      9  C   UNL A   1      32.151  25.742  22.139  1.00  0.00     0.052 C 
ATOM     10  C   UNL A   1      33.533  26.328  22.481  1.00  0.00     0.180 C 
BRANCH   6  11
ATOM     11  N   UNL A   1      31.358  29.329  22.890  1.00  0.00    -0.332 N 
ATOM     12  H   UNL A   1      31.452  29.789  23.796  1.00  0.00     0.347 HD
ATOM     13  H   UNL A   1      31.952  29.725  22.163  1.00  0.00     0.347 HD
BRANCH  11  14
ATOM     14  C   UNL A   1      29.982  29.518  22.430  1.00  0.00     0.257 C 
ATOM     15  C   UNL A   1      29.219  30.355  23.437  1.00  0.00     0.071 C 
ENDBRANCH  11  14
ENDBRANCH   6  11
BRANCH  10  16
ATOM     16  O   UNL A   1      34.029  25.961  23.759  1.00  0.00    -0.490 OA
BRANCH  16  17
ATOM     17  C   UNL A   1      34.169  24.692  24.192  1.00  0.00     0.123 A 
ATOM     18  C   UNL A   1      34.777  23.631  23.512  1.00  0.00     0.050 A 
ATOM     19  C   UNL A   1      33.618  24.506  25.465  1.00  0.00     0.097 A 
ATOM     20  C   UNL A   1      34.825  22.360  24.103  1.00  0.00     0.054 A 
ATOM     21  C   UNL A   1      33.702  23.261  26.030  1.00  0.00     0.169 A 
ATOM     22  C   UNL A   1      34.292  22.213  25.368  1.00  0.00     0.166 A 
ATOM     23  O   UNL A   1      33.261  22.921  27.270  1.00  0.00    -0.453 OA
ATOM     24  O   UNL A   1      34.303  21.080  26.124  1.00  0.00    -0.454 OA
ATOM     25  C   UNL A   1      33.847  21.613  27.387  1.00  0.00     0.468 C 
ENDBRANCH  16  17
ENDBRANCH  10  16
ENDBRANCH   4   6
ENDBRANCH   3   4
ENDBRANCH   2   3
ENDBRANCH   1   2
BRANCH   1  26
ATOM     26  O   UNL A   1      32.870  30.411  26.184  1.00  0.00    -0.458 OA
BRANCH  26  27
ATOM     27  C   UNL A   1      33.234  31.469  26.962  1.00  0.00     0.338 C 
ATOM     28  O   UNL A   1      32.626  32.510  27.114  1.00  0.00    -0.246 OA
BRANCH  27  29
ATOM     29  C   UNL A   1      34.489  31.140  27.671  1.00  0.00     0.060 A 
ATOM     30  C   UNL A   1      34.742  29.810  28.032  1.00  0.00     0.016 A 
ATOM     31  C   UNL A   1      35.406  32.142  28.001  1.00  0.00     0.016 A 
ATOM     32  C   UNL A   1      35.932  29.478  28.685  1.00  0.00     0.010 A 
ATOM     33  C   UNL A   1      36.581  31.813  28.676  1.00  0.00     0.010 A 
ATOM     34  C   UNL A   1      36.855  30.480  29.016  1.00  0.00    -0.014 A 
BRANCH  34  35
ATOM     35  C   UNL A   1      38.056  30.151  29.820  1.00  0.00     0.031 A 
ATOM     36  C   UNL A   1      39.050  29.186  29.253  1.00  0.00     0.074 A 
ATOM     37  C   UNL A   1      38.239  30.674  31.046  1.00  0.00     0.049 A 
ATOM     38  N   UNL A   1      40.170  28.758  29.770  1.00  0.00    -0.248 NA
ATOM     39  C   UNL A   1      38.731  28.614  27.934  1.00  0.00     0.031 C 
ATOM     40  C   UNL A   1      37.317  31.582  31.715  1.00  0.00     0.029 A 
ATOM     41  N   UNL A   1      39.253  30.504  31.957  1.00  0.00    -0.354 N 
ATOM     42  C   UNL A   1      40.683  27.853  28.853  1.00  0.00     0.074 A 
ATOM     43  C   UNL A   1      39.755  27.793  27.745  1.00  0.00     0.031 C 
ATOM     44  C   UNL A   1      37.805  31.909  32.923  1.00  0.00     0.029 A 
ATOM     45  C   UNL A   1      39.051  31.182  33.140  1.00  0.00     0.049 A 
ATOM     46  H   UNL A   1      40.047  29.951  31.783  1.00  0.00     0.167 HD
ATOM     47  C   UNL A   1      41.823  27.130  28.932  1.00  0.00     0.034 A 
ATOM     48  C   UNL A   1      39.772  31.190  34.278  1.00  0.00     0.034 A 
ATOM     49  C   UNL A   1      42.718  27.160  30.056  1.00  0.00     0.049 A 
ATOM     50  C   UNL A   1      41.023  30.355  34.346  1.00  0.00     0.074 A 
ATOM     51  C   UNL A   1      43.909  26.478  30.224  1.00  0.00     0.029 A 
ATOM     52  N   UNL A   1      42.503  27.883  31.220  1.00  0.00    -0.354 N 
ATOM     53  N   UNL A   1      41.565  29.605  33.417  1.00  0.00    -0.248 NA
ATOM     54  C   UNL A   1      41.772  30.377  35.611  1.00  0.00     0.031 C 
ATOM     55  C   UNL A   1      44.392  26.755  31.507  1.00  0.00     0.029 A 
ATOM     56  C   UNL A   1      43.529  27.650  32.118  1.00  0.00     0.049 A 
ATOM     57  H   UNL A   1      41.732  28.475  31.383  1.00  0.00     0.167 HD
ATOM     58  C   UNL A   1      42.733  29.094  33.971  1.00  0.00     0.074 A 
ATOM     59  C   UNL A   1      42.832  29.640  35.309  1.00  0.00     0.031 C 
ATOM     60  C   UNL A   1      43.635  28.241  33.428  1.00  0.00     0.034 A 
BRANCH  47  61
ATOM     61  C   UNL A   1      42.153  26.236  27.769  1.00  0.00     0.023 A 
ATOM     62  C   UNL A   1      42.940  26.729  26.709  1.00  0.00     0.012 A 
ATOM     63  C   UNL A   1      41.706  24.902  27.741  1.00  0.00     0.148 A 
ATOM     64  C   UNL A   1      43.249  25.916  25.619  1.00  0.00     0.002 A 
ATOM     65  C   UNL A   1      42.056  24.085  26.675  1.00  0.00     0.091 A 
ATOM     66  F   UNL A   1      40.939  24.464  28.749  1.00  0.00    -0.205 F 
ATOM     67  C   UNL A   1      42.815  24.593  25.607  1.00  0.00     0.022 A 
BRANCH  65  68
ATOM     68  S   UNL A   1      41.610  22.347  26.599  1.00  0.00     0.127 S 
ATOM     69  O   UNL A   1      42.278  21.925  25.369  1.00  0.00    -0.237 OA
ATOM     70  O   UNL A   1      42.208  21.825  27.828  1.00  0.00    -0.237 OA
ATOM     71  O   UNL A   1      40.156  22.304  26.561  1.00  0.00    -0.744 OA
ENDBRANCH  65  68
ENDBRANCH  47  61
BRANCH  48  72
ATOM     72  C   UNL A   1      39.341  32.013  35.448  1.00  0.00     0.023 A 
ATOM     73  C   UNL A   1      38.454  31.466  36.396  1.00  0.00     0.012 A 
ATOM     74  C   UNL A   1      39.793  33.336  35.620  1.00  0.00     0.148 A 
ATOM     75  C   UNL A   1      37.992  32.233  37.467  1.00  0.00     0.002 A 
ATOM     76  C   UNL A   1      39.378  34.075  36.722  1.00  0.00     0.091 A 
ATOM     77  F   UNL A   1      40.623  33.848  34.700  1.00  0.00    -0.205 F 
ATOM     78  C   UNL A   1      38.461  33.533  37.635  1.00  0.00     0.022 A 
BRANCH  76  79
ATOM     79  S   UNL A   1      40.028  35.709  37.088  1.00  0.00     0.127 S 
ATOM     80  O   UNL A   1      39.655  36.453  35.888  1.00  0.00    -0.237 OA
ATOM     81  O   UNL A   1      39.280  36.067  38.293  1.00  0.00    -0.237 OA
ATOM     82  O   UNL A   1      41.457  35.526  37.300  1.00  0.00    -0.744 OA
ENDBRANCH  76  79
ENDBRANCH  48  72
BRANCH  60  83
ATOM     83  C   UNL A   1      44.840  27.878  34.257  1.00  0.00     0.023 A 
ATOM     84  C   UNL A   1      45.998  28.679  34.215  1.00  0.00     0.012 A 
ATOM     85  C   UNL A   1      44.788  26.781  35.139  1.00  0.00     0.148 A 
ATOM     86  C   UNL A   1      47.099  28.372  35.015  1.00  0.00     0.002 A 
ATOM     87  C   UNL A   1      45.866  26.515  35.973  1.00  0.00     0.091 A 
ATOM     88  F   UNL A   1      43.683  26.021  35.150  1.00  0.00    -0.205 F 
ATOM     89  C   UNL A   1      47.027  27.301  35.903  1.00  0.00     0.022 A 
BRANCH  87  90
ATOM     90  S   UNL A   1      45.823  25.223  37.219  1.00  0.00     0.127 S 
ATOM     91  O   UNL A   1      44.656  25.611  38.011  1.00  0.00    -0.237 OA
ATOM     92  O   UNL A   1      45.639  24.020  36.408  1.00  0.00    -0.237 OA
ATOM     93  O   UNL A   1      47.100  25.292  37.917  1.00  0.00    -0.744 OA
ENDBRANCH  87  90
ENDBRANCH  60  83
ENDBRANCH  34  35
ENDBRANCH  27  29
ENDBRANCH  26  27
ENDBRANCH   1  26
TORSDOF 18
ENDMDL
MODEL 3
REMARK VINA RESULT:     -11.4      5.696     10.834
REMARK SMILES CC[NH2+][C@@]1(C(=O)OCCOC(=O)c2ccc(-c3c4nc(c(-c5cccc(S(=O)(=O)[O-])c5F)c5ccc([nH]5)c(-c5cccc(S(=O)(=O)[O-])c5F)c5nc(c(-c6cccc(S(=O)(=O)[O-])c6F)c6ccc3[nH]6)C=C5)C=C4)cc2)CC[C@H](Oc2ccc3c(c2)OCO3)C1
REMARK SMILES IDX 9 1 8 2 7 3 5 4 6 5 4 6 76 7 89 8 77 9 78 10 3 11 2 14 1 15
REMARK SMILES IDX 79 16 80 17 81 18 85 19 82 20 84 21 83 22 86 23 88 24 87 25
REMARK SMILES IDX 10 26 11 27 12 28 13 29 14 30 75 31 15 32 74 33 16 34 17 35
REMARK SMILES IDX 18 36 68 37 19 38 73 39 67 40 69 41 20 42 72 43 66 44 65 45
REMARK SMILES IDX 21 47 53 48 33 49 52 50 34 51 37 52 51 53 70 54 35 55 36 56
REMARK SMILES IDX 50 58 71 59 38 60 22 61 23 62 31 63 24 64 26 65 32 66 25 67
REMARK SMILES IDX 27 68 28 69 29 70 30 71 54 72 55 73 63 74 56 75 58 76 64 77
REMARK SMILES IDX 57 78 59 79 60 80 61 81 62 82 39 83 40 84 48 85 41 86 43 87
REMARK SMILES IDX 49 88 42 89 44 90 45 91 46 92 47 93
REMARK H PARENT 3 12 3 13 69 46 37 57
REMARK Flexibility Score: inf
ROOT
ATOM      1  C   UNL A   1      31.765  29.830  26.542  1.00  0.00     0.275 C 
ENDROOT
BRANCH   1   2
ATOM      2  C   UNL A   1      31.806  28.389  27.039  1.00  0.00     0.274 C 
BRANCH   2   3
ATOM      3  O   UNL A   1      32.353  27.582  25.992  1.00  0.00    -0.457 OA
BRANCH   3   4
ATOM      4  C   UNL A   1      31.466  26.865  25.266  1.00  0.00     0.368 C 
ATOM      5  O   UNL A   1      30.292  26.696  25.584  1.00  0.00    -0.245 OA
BRANCH   4   6
ATOM      6  C   UNL A   1      32.078  26.370  23.917  1.00  0.00     0.198 C 
ATOM      7  C   UNL A   1      33.314  27.226  23.620  1.00  0.00     0.085 C 
ATOM      8  C   UNL A   1      31.245  26.711  22.663  1.00  0.00     0.126 C 
ATOM      9  C   UNL A   1      32.695  28.576  23.229  1.00  0.00     0.052 C 
ATOM     10  C   UNL A   1      31.362  28.238  22.537  1.00  0.00     0.180 C 
BRANCH   6  11
ATOM     11  N   UNL A   1      32.312  24.911  23.928  1.00  0.00    -0.332 N 
ATOM     12  H   UNL A   1      31.482  24.463  24.317  1.00  0.00     0.347 HD
ATOM     13  H   UNL A   1      32.506  24.652  22.961  1.00  0.00     0.347 HD
BRANCH  11  14
ATOM     14  C   UNL A   1      33.469  24.464  24.703  1.00  0.00     0.257 C 
ATOM     15  C   UNL A   1      33.495  22.951  24.752  1.00  0.00     0.071 C 
ENDBRANCH  11  14
ENDBRANCH   6  11
BRANCH  10  16
ATOM     16  O   UNL A   1      30.209  28.695  23.225  1.00  0.00    -0.490 OA
BRANCH  16  17
ATOM     17  C   UNL A   1      29.598  29.876  23.001  1.00  0.00     0.123 A 
ATOM     18  C   UNL A   1      29.454  30.935  23.903  1.00  0.00     0.050 A 
ATOM     19  C   UNL A   1      29.083  29.964  21.703  1.00  0.00     0.097 A 
ATOM     20  C   UNL A   1      28.772  32.097  23.511  1.00  0.00     0.054 A 
ATOM     21  C   UNL A   1      28.445  31.120  21.338  1.00  0.00     0.169 A 
ATOM     22  C   UNL A   1      28.294  32.163  22.218  1.00  0.00     0.166 A 
ATOM     23  O   UNL A   1      27.929  31.388  20.109  1.00  0.00    -0.453 OA
ATOM     24  O   UNL A   1      27.668  33.225  21.641  1.00  0.00    -0.454 OA
ATOM     25  C   UNL A   1      27.648  32.790  20.263  1.00  0.00     0.468 C 
ENDBRANCH  16  17
ENDBRANCH  10  16
ENDBRANCH   4   6
ENDBRANCH   3   4
ENDBRANCH   2   3
ENDBRANCH   1   2
BRANCH   1  26
ATOM     26  O   UNL A   1      33.102  30.322  26.325  1.00  0.00    -0.458 OA
BRANCH  26  27
ATOM     27  C   UNL A   1      33.485  31.349  27.135  1.00  0.00     0.338 C 
ATOM     28  O   UNL A   1      32.878  32.380  27.349  1.00  0.00    -0.246 OA
BRANCH  27  29
ATOM     29  C   UNL A   1      34.762  30.996  27.793  1.00  0.00     0.060 A 
ATOM     30  C   UNL A   1      34.923  29.711  28.328  1.00  0.00     0.016 A 
ATOM     31  C   UNL A   1      35.791  31.935  27.902  1.00  0.00     0.016 A 
ATOM     32  C   UNL A   1      36.129  29.354  28.936  1.00  0.00     0.010 A 
ATOM     33  C   UNL A   1      36.985  31.586  28.533  1.00  0.00     0.010 A 
ATOM     34  C   UNL A   1      37.165  30.293  29.047  1.00  0.00    -0.014 A 
BRANCH  34  35
ATOM     35  C   UNL A   1      38.396  29.959  29.802  1.00  0.00     0.031 A 
ATOM     36  C   UNL A   1      39.349  28.968  29.208  1.00  0.00     0.074 A 
ATOM     37  C   UNL A   1      38.643  30.501  31.008  1.00  0.00     0.049 A 
ATOM     38  N   UNL A   1      40.484  28.532  29.682  1.00  0.00    -0.248 NA
ATOM     39  C   UNL A   1      38.962  28.378  27.916  1.00  0.00     0.031 C 
ATOM     40  C   UNL A   1      37.765  31.436  31.701  1.00  0.00     0.029 A 
ATOM     41  N   UNL A   1      39.694  30.331  31.876  1.00  0.00    -0.354 N 
ATOM     42  C   UNL A   1      40.941  27.603  28.760  1.00  0.00     0.074 A 
ATOM     43  C   UNL A   1      39.963  27.538  27.696  1.00  0.00     0.031 C 
ATOM     44  C   UNL A   1      38.313  31.775  32.879  1.00  0.00     0.029 A 
ATOM     45  C   UNL A   1      39.556  31.033  33.053  1.00  0.00     0.049 A 
ATOM     46  H   UNL A   1      40.471  29.762  31.677  1.00  0.00     0.167 HD
ATOM     47  C   UNL A   1      42.074  26.864  28.801  1.00  0.00     0.034 A 
ATOM     48  C   UNL A   1      40.328  31.050  34.158  1.00  0.00     0.034 A 
ATOM     49  C   UNL A   1      43.018  26.899  29.883  1.00  0.00     0.049 A 
ATOM     50  C   UNL A   1      41.568  30.196  34.185  1.00  0.00     0.074 A 
ATOM     51  C   UNL A   1      44.206  26.202  30.009  1.00  0.00     0.029 A 
ATOM     52  N   UNL A   1      42.867  27.646  31.042  1.00  0.00    -0.354 N 
ATOM     53  N   UNL A   1      42.056  29.422  33.246  1.00  0.00    -0.248 NA
ATOM     54  C   UNL A   1      42.374  30.229  35.414  1.00  0.00     0.031 C 
ATOM     55  C   UNL A   1      44.750  26.493  31.264  1.00  0.00     0.029 A 
ATOM     56  C   UNL A   1      43.929  27.413  31.897  1.00  0.00     0.049 A 
ATOM     57  H   UNL A   1      42.114  28.253  31.228  1.00  0.00     0.167 HD
ATOM     58  C   UNL A   1      43.240  28.902  33.757  1.00  0.00     0.074 A 
ATOM     59  C   UNL A   1      43.408  29.470  35.079  1.00  0.00     0.031 C 
ATOM     60  C   UNL A   1      44.104  28.025  33.190  1.00  0.00     0.034 A 
BRANCH  47  61
ATOM     61  C   UNL A   1      42.337  25.944  27.641  1.00  0.00     0.023 A 
ATOM     62  C   UNL A   1      43.068  26.410  26.530  1.00  0.00     0.012 A 
ATOM     63  C   UNL A   1      41.883  24.612  27.665  1.00  0.00     0.148 A 
ATOM     64  C   UNL A   1      43.315  25.573  25.443  1.00  0.00     0.002 A 
ATOM     65  C   UNL A   1      42.172  23.771  26.599  1.00  0.00     0.091 A 
ATOM     66  F   UNL A   1      41.169  24.199  28.721  1.00  0.00    -0.205 F 
ATOM     67  C   UNL A   1      42.875  24.253  25.482  1.00  0.00     0.022 A 
BRANCH  65  68
ATOM     68  S   UNL A   1      41.715  22.035  26.584  1.00  0.00     0.127 S 
ATOM     69  O   UNL A   1      40.258  22.114  26.489  1.00  0.00    -0.237 OA
ATOM     70  O   UNL A   1      42.380  21.555  25.372  1.00  0.00    -0.237 OA
ATOM     71  O   UNL A   1      42.225  21.470  27.825  1.00  0.00    -0.744 OA
ENDBRANCH  65  68
ENDBRANCH  47  61
BRANCH  48  72
ATOM     72  C   UNL A   1      39.963  31.900  35.331  1.00  0.00     0.023 A 
ATOM     73  C   UNL A   1      40.580  33.155  35.500  1.00  0.00     0.012 A 
ATOM     74  C   UNL A   1      39.021  31.467  36.285  1.00  0.00     0.148 A 
ATOM     75  C   UNL A   1      40.298  33.944  36.617  1.00  0.00     0.002 A 
ATOM     76  C   UNL A   1      38.699  32.284  37.363  1.00  0.00     0.091 A 
ATOM     77  F   UNL A   1      38.456  30.263  36.119  1.00  0.00    -0.205 F 
ATOM     78  C   UNL A   1      39.352  33.513  37.543  1.00  0.00     0.022 A 
BRANCH  76  79
ATOM     79  S   UNL A   1      37.402  31.868  38.534  1.00  0.00     0.127 S 
ATOM     80  O   UNL A   1      38.073  32.085  39.813  1.00  0.00    -0.237 OA
ATOM     81  O   UNL A   1      36.371  32.852  38.203  1.00  0.00    -0.237 OA
ATOM     82  O   UNL A   1      37.033  30.490  38.239  1.00  0.00    -0.744 OA
ENDBRANCH  76  79
ENDBRANCH  48  72
BRANCH  60  83
ATOM     83  C   UNL A   1      45.339  27.658  33.969  1.00  0.00     0.023 A 
ATOM     84  C   UNL A   1      46.513  28.426  33.844  1.00  0.00     0.012 A 
ATOM     85  C   UNL A   1      45.304  26.592  34.890  1.00  0.00     0.148 A 
ATOM     86  C   UNL A   1      47.645  28.117  34.598  1.00  0.00     0.002 A 
ATOM     87  C   UNL A   1      46.416  26.326  35.679  1.00  0.00     0.091 A 
ATOM     88  F   UNL A   1      44.183  25.862  34.981  1.00  0.00    -0.205 F 
ATOM     89  C   UNL A   1      47.591  27.077  35.524  1.00  0.00     0.022 A 
BRANCH  87  90
ATOM     90  S   UNL A   1      46.403  25.076  36.968  1.00  0.00     0.127 S 
ATOM     91  O   UNL A   1      47.740  25.227  37.542  1.00  0.00    -0.237 OA
ATOM     92  O   UNL A   1      45.313  25.533  37.830  1.00  0.00    -0.237 OA
ATOM     93  O   UNL A   1      46.154  23.806  36.298  1.00  0.00    -0.744 OA
ENDBRANCH  87  90
ENDBRANCH  60  83
ENDBRANCH  34  35
ENDBRANCH  27  29
ENDBRANCH  26  27
ENDBRANCH   1  26
TORSDOF 18
ENDMDL
