MODEL 1
REMARK VINA RESULT:     -11.2      0.000      0.000
REMARK SMILES N#CCSCC(=O)N1Cc2ccccc2C[C@@H]1C(=O)OCCOC(=O)c1ccc(-c2c3nc(c(-c4cccc(S(=O)(=O)[O-])c4F)c4ccc([nH]4)c(-c4cccc(S(=O)(=O)[O-])c4F)c4nc(c(-c5cccc(S(=O)(=O)[O-])c5F)c5ccc2[nH]5)C=C4)C=C3)cc1
REMARK SMILES IDX 21 1 20 2 18 3 19 4 17 5 8 6 9 7 10 8 16 9 11 10 15 11 12 12
REMARK SMILES IDX 14 13 13 14 6 15 7 16 5 17 4 18 3 19 2 20 1 21 22 22 23 23
REMARK SMILES IDX 24 24 25 25 26 26 27 27 88 28 28 29 87 30 29 31 30 32 31 33
REMARK SMILES IDX 81 34 32 35 86 36 80 37 82 38 33 39 85 40 79 41 78 42 34 44
REMARK SMILES IDX 66 45 46 46 65 47 47 48 50 49 64 50 83 51 48 52 49 53 63 55
REMARK SMILES IDX 84 56 51 57 35 58 36 59 44 60 37 61 39 62 45 63 38 64 40 65
REMARK SMILES IDX 41 66 42 67 43 68 67 69 68 70 76 71 69 72 71 73 77 74 70 75
REMARK SMILES IDX 72 76 73 77 74 78 75 79 52 80 53 81 61 82 54 83 56 84 62 85
REMARK SMILES IDX 55 86 57 87 58 88 59 89 60 90
REMARK H PARENT 82 43 50 54
REMARK Flexibility Score: inf
ROOT
ATOM      1  C   UNL A   1      36.880  22.565  23.493  1.00  0.00     0.274 C 
ENDROOT
BRANCH   1   2
ATOM      2  O   UNL A   1      36.056  23.548  24.151  1.00  0.00    -0.461 OA
BRANCH   2   3
ATOM      3  C   UNL A   1      34.731  23.465  23.878  1.00  0.00     0.329 C 
ATOM      4  O   UNL A   1      34.259  23.869  22.821  1.00  0.00    -0.250 OA
BRANCH   3   5
ATOM      5  C   UNL A   1      33.851  22.903  25.012  1.00  0.00     0.199 C 
ATOM      6  N   UNL A   1      32.578  22.440  24.439  1.00  0.00    -0.323 N 
ATOM      7  C   UNL A   1      31.415  23.341  24.544  1.00  0.00     0.156 C 
ATOM      8  C   UNL A   1      31.721  24.765  24.955  1.00  0.00    -0.025 A 
ATOM      9  C   UNL A   1      33.703  23.890  26.170  1.00  0.00     0.073 C 
ATOM     10  C   UNL A   1      30.910  25.829  24.550  1.00  0.00     0.006 A 
ATOM     11  C   UNL A   1      32.838  25.039  25.759  1.00  0.00    -0.040 A 
ATOM     12  C   UNL A   1      31.247  27.142  24.890  1.00  0.00     0.000 A 
ATOM     13  C   UNL A   1      33.172  26.352  26.103  1.00  0.00     0.004 A 
ATOM     14  C   UNL A   1      32.383  27.405  25.654  1.00  0.00     0.000 A 
BRANCH   6  15
ATOM     15  C   UNL A   1      32.429  21.262  23.713  1.00  0.00     0.233 C 
ATOM     16  O   UNL A   1      32.136  21.328  22.510  1.00  0.00    -0.274 OA
BRANCH  15  17
ATOM     17  C   UNL A   1      32.390  19.878  24.372  1.00  0.00     0.170 C 
BRANCH  17  18
ATOM     18  S   UNL A   1      33.884  18.873  24.565  1.00  0.00    -0.137 SA
BRANCH  18  19
ATOM     19  C   UNL A   1      33.209  17.200  24.921  1.00  0.00     0.189 C 
BRANCH  19  20
ATOM     20  C   UNL A   1      34.343  16.203  25.096  1.00  0.00     0.073 C 
ATOM     21  N   UNL A   1      35.284  15.377  25.242  1.00  0.00    -0.197 NA
ENDBRANCH  19  20
ENDBRANCH  18  19
ENDBRANCH  17  18
ENDBRANCH  15  17
ENDBRANCH   6  15
ENDBRANCH   3   5
ENDBRANCH   2   3
ENDBRANCH   1   2
BRANCH   1  22
ATOM     22  C   UNL A   1      37.159  21.315  24.348  1.00  0.00     0.275 C 
BRANCH  22  23
ATOM     23  O   UNL A   1      37.517  21.628  25.713  1.00  0.00    -0.458 OA
BRANCH  23  24
ATOM     24  C   UNL A   1      38.826  21.438  26.027  1.00  0.00     0.338 C 
ATOM     25  O   UNL A   1      39.526  20.506  25.664  1.00  0.00    -0.246 OA
BRANCH  24  26
ATOM     26  C   UNL A   1      39.397  22.634  26.690  1.00  0.00     0.060 A 
ATOM     27  C   UNL A   1      38.805  23.869  26.394  1.00  0.00     0.016 A 
ATOM     28  C   UNL A   1      40.507  22.581  27.531  1.00  0.00     0.016 A 
ATOM     29  C   UNL A   1      39.301  25.050  26.923  1.00  0.00     0.010 A 
ATOM     30  C   UNL A   1      41.037  23.778  28.036  1.00  0.00     0.010 A 
ATOM     31  C   UNL A   1      40.445  25.015  27.717  1.00  0.00    -0.014 A 
BRANCH  31  32
ATOM     32  C   UNL A   1      41.080  26.306  28.066  1.00  0.00     0.031 A 
ATOM     33  C   UNL A   1      42.470  26.582  27.572  1.00  0.00     0.074 A 
ATOM     34  C   UNL A   1      40.387  27.249  28.727  1.00  0.00     0.049 A 
ATOM     35  N   UNL A   1      43.206  27.651  27.729  1.00  0.00    -0.248 NA
ATOM     36  C   UNL A   1      43.114  25.516  26.787  1.00  0.00     0.031 C 
ATOM     37  C   UNL A   1      39.010  27.112  29.198  1.00  0.00     0.029 A 
ATOM     38  N   UNL A   1      40.755  28.512  29.118  1.00  0.00    -0.354 N 
ATOM     39  C   UNL A   1      44.409  27.377  27.093  1.00  0.00     0.074 A 
ATOM     40  C   UNL A   1      44.307  26.042  26.545  1.00  0.00     0.031 C 
ATOM     41  C   UNL A   1      38.657  28.238  29.843  1.00  0.00     0.029 A 
ATOM     42  C   UNL A   1      39.787  29.164  29.845  1.00  0.00     0.049 A 
ATOM     43  H   UNL A   1      41.627  28.912  28.900  1.00  0.00     0.167 HD
ATOM     44  C   UNL A   1      45.497  28.170  26.967  1.00  0.00     0.034 A 
ATOM     45  C   UNL A   1      39.820  30.364  30.455  1.00  0.00     0.034 A 
ATOM     46  C   UNL A   1      45.586  29.505  27.495  1.00  0.00     0.049 A 
ATOM     47  C   UNL A   1      41.055  31.216  30.322  1.00  0.00     0.074 A 
ATOM     48  C   UNL A   1      46.643  30.394  27.414  1.00  0.00     0.029 A 
ATOM     49  N   UNL A   1      44.579  30.142  28.203  1.00  0.00    -0.354 N 
ATOM     50  N   UNL A   1      42.157  30.976  29.652  1.00  0.00    -0.248 NA
ATOM     51  C   UNL A   1      41.038  32.521  31.000  1.00  0.00     0.031 C 
ATOM     52  C   UNL A   1      46.279  31.565  28.088  1.00  0.00     0.029 A 
ATOM     53  C   UNL A   1      44.988  31.412  28.570  1.00  0.00     0.049 A 
ATOM     54  H   UNL A   1      43.701  29.748  28.415  1.00  0.00     0.167 HD
ATOM     55  C   UNL A   1      42.949  32.111  29.796  1.00  0.00     0.074 A 
ATOM     56  C   UNL A   1      42.190  33.046  30.602  1.00  0.00     0.031 C 
ATOM     57  C   UNL A   1      44.196  32.352  29.321  1.00  0.00     0.034 A 
BRANCH  44  58
ATOM     58  C   UNL A   1      46.678  27.614  26.218  1.00  0.00     0.023 A 
ATOM     59  C   UNL A   1      46.782  27.819  24.827  1.00  0.00     0.012 A 
ATOM     60  C   UNL A   1      47.699  26.921  26.896  1.00  0.00     0.148 A 
ATOM     61  C   UNL A   1      47.873  27.319  24.118  1.00  0.00     0.002 A 
ATOM     62  C   UNL A   1      48.802  26.460  26.187  1.00  0.00     0.091 A 
ATOM     63  F   UNL A   1      47.565  26.712  28.213  1.00  0.00    -0.205 F 
ATOM     64  C   UNL A   1      48.887  26.649  24.798  1.00  0.00     0.022 A 
BRANCH  62  65
ATOM     65  S   UNL A   1      50.188  25.645  26.988  1.00  0.00     0.127 S 
ATOM     66  O   UNL A   1      50.558  26.626  28.008  1.00  0.00    -0.237 OA
ATOM     67  O   UNL A   1      49.571  24.426  27.512  1.00  0.00    -0.237 OA
ATOM     68  O   UNL A   1      51.177  25.421  25.944  1.00  0.00    -0.744 OA
ENDBRANCH  62  65
ENDBRANCH  44  58
BRANCH  45  69
ATOM     69  C   UNL A   1      38.636  30.843  31.220  1.00  0.00     0.023 A 
ATOM     70  C   UNL A   1      38.602  30.694  32.620  1.00  0.00     0.012 A 
ATOM     71  C   UNL A   1      37.550  31.460  30.569  1.00  0.00     0.148 A 
ATOM     72  C   UNL A   1      37.497  31.130  33.355  1.00  0.00     0.002 A 
ATOM     73  C   UNL A   1      36.477  31.939  31.312  1.00  0.00     0.091 A 
ATOM     74  F   UNL A   1      37.589  31.570  29.233  1.00  0.00    -0.205 F 
ATOM     75  C   UNL A   1      36.442  31.762  32.703  1.00  0.00     0.022 A 
BRANCH  73  76
ATOM     76  S   UNL A   1      35.138  32.873  30.562  1.00  0.00     0.127 S 
ATOM     77  O   UNL A   1      34.202  33.000  31.677  1.00  0.00    -0.237 OA
ATOM     78  O   UNL A   1      35.808  34.115  30.177  1.00  0.00    -0.237 OA
ATOM     79  O   UNL A   1      34.683  32.066  29.438  1.00  0.00    -0.744 OA
ENDBRANCH  73  76
ENDBRANCH  45  69
BRANCH  57  80
ATOM     80  C   UNL A   1      44.810  33.693  29.622  1.00  0.00     0.023 A 
ATOM     81  C   UNL A   1      45.694  33.830  30.711  1.00  0.00     0.012 A 
ATOM     82  C   UNL A   1      44.568  34.800  28.785  1.00  0.00     0.148 A 
ATOM     83  C   UNL A   1      46.302  35.055  30.980  1.00  0.00     0.002 A 
ATOM     84  C   UNL A   1      45.213  36.006  29.032  1.00  0.00     0.091 A 
ATOM     85  F   UNL A   1      43.707  34.658  27.766  1.00  0.00    -0.205 F 
ATOM     86  C   UNL A   1      46.071  36.139  30.135  1.00  0.00     0.022 A 
BRANCH  84  87
ATOM     87  S   UNL A   1      45.043  37.419  27.936  1.00  0.00     0.127 S 
ATOM     88  O   UNL A   1      45.901  38.407  28.585  1.00  0.00    -0.237 OA
ATOM     89  O   UNL A   1      45.561  36.900  26.669  1.00  0.00    -0.237 OA
ATOM     90  O   UNL A   1      43.620  37.733  27.916  1.00  0.00    -0.744 OA
ENDBRANCH  84  87
ENDBRANCH  57  80
ENDBRANCH  31  32
ENDBRANCH  24  26
ENDBRANCH  23  24
ENDBRANCH  22  23
ENDBRANCH   1  22
TORSDOF 19
ENDMDL
MODEL 2
REMARK VINA RESULT:     -11.2      5.158     10.427
REMARK SMILES N#CCSCC(=O)N1Cc2ccccc2C[C@@H]1C(=O)OCCOC(=O)c1ccc(-c2c3nc(c(-c4cccc(S(=O)(=O)[O-])c4F)c4ccc([nH]4)c(-c4cccc(S(=O)(=O)[O-])c4F)c4nc(c(-c5cccc(S(=O)(=O)[O-])c5F)c5ccc2[nH]5)C=C4)C=C3)cc1
REMARK SMILES IDX 21 1 20 2 18 3 19 4 17 5 8 6 9 7 10 8 16 9 11 10 15 11 12 12
REMARK SMILES IDX 14 13 13 14 6 15 7 16 5 17 4 18 3 19 2 20 1 21 22 22 23 23
REMARK SMILES IDX 24 24 25 25 26 26 27 27 88 28 28 29 87 30 29 31 30 32 31 33
REMARK SMILES IDX 81 34 32 35 86 36 80 37 82 38 33 39 85 40 79 41 78 42 34 44
REMARK SMILES IDX 66 45 46 46 65 47 47 48 50 49 64 50 83 51 48 52 49 53 63 55
REMARK SMILES IDX 84 56 51 57 35 58 36 59 44 60 37 61 39 62 45 63 38 64 40 65
REMARK SMILES IDX 41 66 42 67 43 68 67 69 68 70 76 71 69 72 71 73 77 74 70 75
REMARK SMILES IDX 72 76 73 77 74 78 75 79 52 80 53 81 61 82 54 83 56 84 62 85
REMARK SMILES IDX 55 86 57 87 58 88 59 89 60 90
REMARK H PARENT 82 43 50 54
REMARK Flexibility Score: inf
ROOT
ATOM      1  C   UNL A   1      33.009  29.490  24.889  1.00  0.00     0.274 C 
ENDROOT
BRANCH   1   2
ATOM      2  O   UNL A   1      32.546  28.204  24.428  1.00  0.00    -0.461 OA
BRANCH   2   3
ATOM      3  C   UNL A   1      32.679  27.988  23.097  1.00  0.00     0.329 C 
ATOM      4  O   UNL A   1      33.321  28.743  22.376  1.00  0.00    -0.250 OA
BRANCH   3   5
ATOM      5  C   UNL A   1      31.907  26.775  22.539  1.00  0.00     0.199 C 
ATOM      6  N   UNL A   1      30.739  26.521  23.396  1.00  0.00    -0.323 N 
ATOM      7  C   UNL A   1      30.855  25.457  24.410  1.00  0.00     0.156 C 
ATOM      8  C   UNL A   1      32.256  24.944  24.668  1.00  0.00    -0.025 A 
ATOM      9  C   UNL A   1      32.813  25.562  22.327  1.00  0.00     0.073 C 
ATOM     10  C   UNL A   1      32.622  24.423  25.912  1.00  0.00     0.006 A 
ATOM     11  C   UNL A   1      33.218  24.987  23.648  1.00  0.00    -0.040 A 
ATOM     12  C   UNL A   1      33.937  24.012  26.147  1.00  0.00     0.000 A 
ATOM     13  C   UNL A   1      34.533  24.572  23.880  1.00  0.00     0.004 A 
ATOM     14  C   UNL A   1      34.894  24.099  25.137  1.00  0.00     0.000 A 
BRANCH   6  15
ATOM     15  C   UNL A   1      29.579  27.290  23.386  1.00  0.00     0.233 C 
ATOM     16  O   UNL A   1      28.517  26.785  23.778  1.00  0.00    -0.274 OA
BRANCH  15  17
ATOM     17  C   UNL A   1      29.497  28.662  22.707  1.00  0.00     0.170 C 
BRANCH  17  18
ATOM     18  S   UNL A   1      28.025  29.709  22.849  1.00  0.00    -0.137 SA
BRANCH  18  19
ATOM     19  C   UNL A   1      28.106  30.738  21.327  1.00  0.00     0.189 C 
BRANCH  19  20
ATOM     20  C   UNL A   1      28.065  32.213  21.690  1.00  0.00     0.073 C 
ATOM     21  N   UNL A   1      28.032  33.437  21.991  1.00  0.00    -0.197 NA
ENDBRANCH  19  20
ENDBRANCH  18  19
ENDBRANCH  17  18
ENDBRANCH  15  17
ENDBRANCH   6  15
ENDBRANCH   3   5
ENDBRANCH   2   3
ENDBRANCH   1   2
BRANCH   1  22
ATOM     22  C   UNL A   1      32.007  30.223  25.799  1.00  0.00     0.275 C 
BRANCH  22  23
ATOM     23  O   UNL A   1      32.506  30.439  27.138  1.00  0.00    -0.458 OA
BRANCH  23  24
ATOM     24  C   UNL A   1      33.276  31.548  27.297  1.00  0.00     0.338 C 
ATOM     25  O   UNL A   1      32.890  32.706  27.251  1.00  0.00    -0.246 OA
BRANCH  24  26
ATOM     26  C   UNL A   1      34.633  31.194  27.776  1.00  0.00     0.060 A 
ATOM     27  C   UNL A   1      34.890  29.836  28.010  1.00  0.00     0.016 A 
ATOM     28  C   UNL A   1      35.616  32.143  28.049  1.00  0.00     0.016 A 
ATOM     29  C   UNL A   1      36.112  29.411  28.508  1.00  0.00     0.010 A 
ATOM     30  C   UNL A   1      36.839  31.720  28.592  1.00  0.00     0.010 A 
ATOM     31  C   UNL A   1      37.081  30.356  28.839  1.00  0.00    -0.014 A 
BRANCH  31  32
ATOM     32  C   UNL A   1      38.270  29.888  29.585  1.00  0.00     0.031 A 
ATOM     33  C   UNL A   1      38.464  30.353  31.000  1.00  0.00     0.074 A 
ATOM     34  C   UNL A   1      39.107  28.989  29.039  1.00  0.00     0.049 A 
ATOM     35  N   UNL A   1      39.410  30.049  31.848  1.00  0.00    -0.248 NA
ATOM     36  C   UNL A   1      37.447  31.275  31.535  1.00  0.00     0.031 C 
ATOM     37  C   UNL A   1      38.980  28.422  27.697  1.00  0.00     0.029 A 
ATOM     38  N   UNL A   1      40.234  28.397  29.552  1.00  0.00    -0.354 N 
ATOM     39  C   UNL A   1      39.125  30.764  33.003  1.00  0.00     0.074 A 
ATOM     40  C   UNL A   1      37.916  31.517  32.751  1.00  0.00     0.031 C 
ATOM     41  C   UNL A   1      40.009  27.584  27.480  1.00  0.00     0.029 A 
ATOM     42  C   UNL A   1      40.874  27.571  28.659  1.00  0.00     0.049 A 
ATOM     43  H   UNL A   1      40.554  28.550  30.469  1.00  0.00     0.167 HD
ATOM     44  C   UNL A   1      39.804  30.784  34.173  1.00  0.00     0.034 A 
ATOM     45  C   UNL A   1      42.034  26.896  28.776  1.00  0.00     0.034 A 
ATOM     46  C   UNL A   1      40.993  30.016  34.426  1.00  0.00     0.049 A 
ATOM     47  C   UNL A   1      42.784  26.957  30.081  1.00  0.00     0.074 A 
ATOM     48  C   UNL A   1      41.751  29.961  35.582  1.00  0.00     0.029 A 
ATOM     49  N   UNL A   1      41.598  29.172  33.509  1.00  0.00    -0.354 N 
ATOM     50  N   UNL A   1      42.461  27.576  31.192  1.00  0.00    -0.248 NA
ATOM     51  C   UNL A   1      44.040  26.197  30.162  1.00  0.00     0.031 C 
ATOM     52  C   UNL A   1      42.825  29.092  35.357  1.00  0.00     0.029 A 
ATOM     53  C   UNL A   1      42.723  28.592  34.068  1.00  0.00     0.049 A 
ATOM     54  H   UNL A   1      41.276  29.009  32.592  1.00  0.00     0.167 HD
ATOM     55  C   UNL A   1      43.453  27.253  32.112  1.00  0.00     0.074 A 
ATOM     56  C   UNL A   1      44.376  26.366  31.434  1.00  0.00     0.031 C 
ATOM     57  C   UNL A   1      43.596  27.664  33.397  1.00  0.00     0.034 A 
BRANCH  44  58
ATOM     58  C   UNL A   1      39.266  31.658  35.272  1.00  0.00     0.023 A 
ATOM     59  C   UNL A   1      38.281  31.155  36.147  1.00  0.00     0.012 A 
ATOM     60  C   UNL A   1      39.759  32.964  35.461  1.00  0.00     0.148 A 
ATOM     61  C   UNL A   1      37.776  31.948  37.177  1.00  0.00     0.002 A 
ATOM     62  C   UNL A   1      39.278  33.733  36.514  1.00  0.00     0.091 A 
ATOM     63  F   UNL A   1      40.673  33.433  34.600  1.00  0.00    -0.205 F 
ATOM     64  C   UNL A   1      38.281  33.231  37.366  1.00  0.00     0.022 A 
BRANCH  62  65
ATOM     65  S   UNL A   1      39.916  35.372  36.877  1.00  0.00     0.127 S 
ATOM     66  O   UNL A   1      41.355  35.118  36.954  1.00  0.00    -0.237 OA
ATOM     67  O   UNL A   1      39.495  36.137  35.703  1.00  0.00    -0.237 OA
ATOM     68  O   UNL A   1      39.283  35.780  38.123  1.00  0.00    -0.744 OA
ENDBRANCH  62  65
ENDBRANCH  44  58
BRANCH  45  69
ATOM     69  C   UNL A   1      42.540  26.081  27.637  1.00  0.00     0.023 A 
ATOM     70  C   UNL A   1      43.472  26.638  26.740  1.00  0.00     0.012 A 
ATOM     71  C   UNL A   1      42.113  24.753  27.447  1.00  0.00     0.148 A 
ATOM     72  C   UNL A   1      43.953  25.893  25.662  1.00  0.00     0.002 A 
ATOM     73  C   UNL A   1      42.636  23.999  26.402  1.00  0.00     0.091 A 
ATOM     74  F   UNL A   1      41.205  24.249  28.296  1.00  0.00    -0.205 F 
ATOM     75  C   UNL A   1      43.544  24.572  25.500  1.00  0.00     0.022 A 
BRANCH  73  76
ATOM     76  S   UNL A   1      42.253  22.255  26.198  1.00  0.00     0.127 S 
ATOM     77  O   UNL A   1      43.022  21.919  25.002  1.00  0.00    -0.237 OA
ATOM     78  O   UNL A   1      42.768  21.682  27.442  1.00  0.00    -0.237 OA
ATOM     79  O   UNL A   1      40.805  22.188  26.064  1.00  0.00    -0.744 OA
ENDBRANCH  73  76
ENDBRANCH  45  69
BRANCH  57  80
ATOM     80  C   UNL A   1      44.773  27.132  34.172  1.00  0.00     0.023 A 
ATOM     81  C   UNL A   1      45.990  27.842  34.172  1.00  0.00     0.012 A 
ATOM     82  C   UNL A   1      44.650  25.969  34.957  1.00  0.00     0.148 A 
ATOM     83  C   UNL A   1      47.077  27.384  34.915  1.00  0.00     0.002 A 
ATOM     84  C   UNL A   1      45.724  25.544  35.732  1.00  0.00     0.091 A 
ATOM     85  F   UNL A   1      43.492  25.294  34.928  1.00  0.00    -0.205 F 
ATOM     86  C   UNL A   1      46.940  26.244  35.704  1.00  0.00     0.022 A 
BRANCH  84  87
ATOM     87  S   UNL A   1      45.596  24.141  36.846  1.00  0.00     0.127 S 
ATOM     88  O   UNL A   1      46.999  23.876  37.156  1.00  0.00    -0.237 OA
ATOM     89  O   UNL A   1      44.820  24.691  37.959  1.00  0.00    -0.237 OA
ATOM     90  O   UNL A   1      44.907  23.101  36.094  1.00  0.00    -0.744 OA
ENDBRANCH  84  87
ENDBRANCH  57  80
ENDBRANCH  31  32
ENDBRANCH  24  26
ENDBRANCH  23  24
ENDBRANCH  22  23
ENDBRANCH   1  22
TORSDOF 19
ENDMDL
MODEL 3
REMARK VINA RESULT:     -11.0      4.956     10.036
REMARK SMILES N#CCSCC(=O)N1Cc2ccccc2C[C@@H]1C(=O)OCCOC(=O)c1ccc(-c2c3nc(c(-c4cccc(S(=O)(=O)[O-])c4F)c4ccc([nH]4)c(-c4cccc(S(=O)(=O)[O-])c4F)c4nc(c(-c5cccc(S(=O)(=O)[O-])c5F)c5ccc2[nH]5)C=C4)C=C3)cc1
REMARK SMILES IDX 21 1 20 2 18 3 19 4 17 5 8 6 9 7 10 8 16 9 11 10 15 11 12 12
REMARK SMILES IDX 14 13 13 14 6 15 7 16 5 17 4 18 3 19 2 20 1 21 22 22 23 23
REMARK SMILES IDX 24 24 25 25 26 26 27 27 88 28 28 29 87 30 29 31 30 32 31 33
REMARK SMILES IDX 81 34 32 35 86 36 80 37 82 38 33 39 85 40 79 41 78 42 34 44
REMARK SMILES IDX 66 45 46 46 65 47 47 48 50 49 64 50 83 51 48 52 49 53 63 55
REMARK SMILES IDX 84 56 51 57 35 58 36 59 44 60 37 61 39 62 45 63 38 64 40 65
REMARK SMILES IDX 41 66 42 67 43 68 67 69 68 70 76 71 69 72 71 73 77 74 70 75
REMARK SMILES IDX 72 76 73 77 74 78 75 79 52 80 53 81 61 82 54 83 56 84 62 85
REMARK SMILES IDX 55 86 57 87 58 88 59 89 60 90
REMARK H PARENT 82 43 50 54
REMARK Flexibility Score: inf
ROOT
ATOM      1  C   UNL A   1      31.329  29.418  25.400  1.00  0.00     0.274 C 
ENDROOT
BRANCH   1   2
ATOM      2  O   UNL A   1      31.847  28.077  25.278  1.00  0.00    -0.461 OA
BRANCH   2   3
ATOM      3  C   UNL A   1      30.966  27.091  25.575  1.00  0.00     0.329 C 
ATOM      4  O   UNL A   1      30.603  26.867  26.724  1.00  0.00    -0.250 OA
BRANCH   3   5
ATOM      5  C   UNL A   1      30.513  26.222  24.384  1.00  0.00     0.199 C 
ATOM      6  N   UNL A   1      31.513  26.331  23.311  1.00  0.00    -0.323 N 
ATOM      7  C   UNL A   1      31.227  27.264  22.205  1.00  0.00     0.156 C 
ATOM      8  C   UNL A   1      30.087  28.231  22.438  1.00  0.00    -0.025 A 
ATOM      9  C   UNL A   1      29.082  26.537  23.952  1.00  0.00     0.073 C 
ATOM     10  C   UNL A   1      30.060  29.486  21.823  1.00  0.00     0.006 A 
ATOM     11  C   UNL A   1      29.029  27.877  23.289  1.00  0.00    -0.040 A 
ATOM     12  C   UNL A   1      29.029  30.387  22.101  1.00  0.00     0.000 A 
ATOM     13  C   UNL A   1      27.994  28.777  23.564  1.00  0.00     0.004 A 
ATOM     14  C   UNL A   1      28.005  30.038  22.981  1.00  0.00     0.000 A 
BRANCH   6  15
ATOM     15  C   UNL A   1      32.752  25.698  23.328  1.00  0.00     0.233 C 
ATOM     16  O   UNL A   1      33.750  26.313  22.924  1.00  0.00    -0.274 OA
BRANCH  15  17
ATOM     17  C   UNL A   1      32.917  24.200  23.613  1.00  0.00     0.170 C 
BRANCH  17  18
ATOM     18  S   UNL A   1      33.055  23.561  25.302  1.00  0.00    -0.137 SA
BRANCH  18  19
ATOM     19  C   UNL A   1      31.589  22.461  25.445  1.00  0.00     0.189 C 
BRANCH  19  20
ATOM     20  C   UNL A   1      30.605  23.027  26.456  1.00  0.00     0.073 C 
ATOM     21  N   UNL A   1      29.788  23.497  27.294  1.00  0.00    -0.197 NA
ENDBRANCH  19  20
ENDBRANCH  18  19
ENDBRANCH  17  18
ENDBRANCH  15  17
ENDBRANCH   6  15
ENDBRANCH   3   5
ENDBRANCH   2   3
ENDBRANCH   1   2
BRANCH   1  22
ATOM     22  C   UNL A   1      31.898  30.197  26.600  1.00  0.00     0.275 C 
BRANCH  22  23
ATOM     23  O   UNL A   1      33.286  30.561  26.436  1.00  0.00    -0.458 OA
BRANCH  23  24
ATOM     24  C   UNL A   1      33.741  31.516  27.289  1.00  0.00     0.338 C 
ATOM     25  O   UNL A   1      33.094  32.451  27.735  1.00  0.00    -0.246 OA
BRANCH  24  26
ATOM     26  C   UNL A   1      35.079  31.167  27.820  1.00  0.00     0.060 A 
ATOM     27  C   UNL A   1      35.310  29.818  28.126  1.00  0.00     0.016 A 
ATOM     28  C   UNL A   1      36.069  32.114  28.072  1.00  0.00     0.016 A 
ATOM     29  C   UNL A   1      36.512  29.401  28.677  1.00  0.00     0.010 A 
ATOM     30  C   UNL A   1      37.271  31.702  28.668  1.00  0.00     0.010 A 
ATOM     31  C   UNL A   1      37.486  30.348  28.987  1.00  0.00    -0.014 A 
BRANCH  31  32
ATOM     32  C   UNL A   1      38.649  29.901  29.786  1.00  0.00     0.031 A 
ATOM     33  C   UNL A   1      38.791  30.399  31.195  1.00  0.00     0.074 A 
ATOM     34  C   UNL A   1      39.506  28.991  29.292  1.00  0.00     0.049 A 
ATOM     35  N   UNL A   1      39.706  30.117  32.083  1.00  0.00    -0.248 NA
ATOM     36  C   UNL A   1      37.755  31.331  31.671  1.00  0.00     0.031 C 
ATOM     37  C   UNL A   1      39.428  28.392  27.960  1.00  0.00     0.029 A 
ATOM     38  N   UNL A   1      40.615  28.414  29.858  1.00  0.00    -0.354 N 
ATOM     39  C   UNL A   1      39.380  30.859  33.210  1.00  0.00     0.074 A 
ATOM     40  C   UNL A   1      38.179  31.603  32.897  1.00  0.00     0.031 C 
ATOM     41  C   UNL A   1      40.465  27.551  27.800  1.00  0.00     0.029 A 
ATOM     42  C   UNL A   1      41.287  27.568  29.008  1.00  0.00     0.049 A 
ATOM     43  H   UNL A   1      40.901  28.589  30.783  1.00  0.00     0.167 HD
ATOM     44  C   UNL A   1      40.016  30.908  34.403  1.00  0.00     0.034 A 
ATOM     45  C   UNL A   1      42.443  26.899  29.183  1.00  0.00     0.034 A 
ATOM     46  C   UNL A   1      41.196  30.149  34.717  1.00  0.00     0.049 A 
ATOM     47  C   UNL A   1      43.146  26.992  30.512  1.00  0.00     0.074 A 
ATOM     48  C   UNL A   1      41.913  30.123  35.900  1.00  0.00     0.029 A 
ATOM     49  N   UNL A   1      41.835  29.285  33.842  1.00  0.00    -0.354 N 
ATOM     50  N   UNL A   1      42.783  27.637  31.596  1.00  0.00    -0.248 NA
ATOM     51  C   UNL A   1      44.399  26.237  30.656  1.00  0.00     0.031 C 
ATOM     52  C   UNL A   1      42.995  29.252  35.734  1.00  0.00     0.029 A 
ATOM     53  C   UNL A   1      42.940  28.721  34.455  1.00  0.00     0.049 A 
ATOM     54  H   UNL A   1      41.546  29.100  32.919  1.00  0.00     0.167 HD
ATOM     55  C   UNL A   1      43.741  27.338  32.559  1.00  0.00     0.074 A 
ATOM     56  C   UNL A   1      44.689  26.437  31.935  1.00  0.00     0.031 C 
ATOM     57  C   UNL A   1      43.838  27.780  33.837  1.00  0.00     0.034 A 
BRANCH  44  58
ATOM     58  C   UNL A   1      39.437  31.807  35.461  1.00  0.00     0.023 A 
ATOM     59  C   UNL A   1      38.454  31.309  36.340  1.00  0.00     0.012 A 
ATOM     60  C   UNL A   1      39.892  33.132  35.608  1.00  0.00     0.148 A 
ATOM     61  C   UNL A   1      37.912  32.125  37.332  1.00  0.00     0.002 A 
ATOM     62  C   UNL A   1      39.374  33.926  36.625  1.00  0.00     0.091 A 
ATOM     63  F   UNL A   1      40.805  33.594  34.743  1.00  0.00    -0.205 F 
ATOM     64  C   UNL A   1      38.378  33.428  37.481  1.00  0.00     0.022 A 
BRANCH  62  65
ATOM     65  S   UNL A   1      39.962  35.595  36.935  1.00  0.00     0.127 S 
ATOM     66  O   UNL A   1      39.268  35.924  38.181  1.00  0.00    -0.237 OA
ATOM     67  O   UNL A   1      41.404  35.394  37.077  1.00  0.00    -0.237 OA
ATOM     68  O   UNL A   1      39.571  36.379  35.773  1.00  0.00    -0.744 OA
ENDBRANCH  62  65
ENDBRANCH  44  58
BRANCH  45  69
ATOM     69  C   UNL A   1      42.990  26.058  28.083  1.00  0.00     0.023 A 
ATOM     70  C   UNL A   1      43.978  26.584  27.228  1.00  0.00     0.012 A 
ATOM     71  C   UNL A   1      42.549  24.735  27.889  1.00  0.00     0.148 A 
ATOM     72  C   UNL A   1      44.499  25.815  26.185  1.00  0.00     0.002 A 
ATOM     73  C   UNL A   1      43.109  23.957  26.883  1.00  0.00     0.091 A 
ATOM     74  F   UNL A   1      41.589  24.260  28.697  1.00  0.00    -0.205 F 
ATOM     75  C   UNL A   1      44.073  24.500  26.020  1.00  0.00     0.022 A 
BRANCH  73  76
ATOM     76  S   UNL A   1      42.704  22.218  26.683  1.00  0.00     0.127 S 
ATOM     77  O   UNL A   1      43.845  21.732  25.910  1.00  0.00    -0.237 OA
ATOM     78  O   UNL A   1      42.658  21.753  28.069  1.00  0.00    -0.237 OA
ATOM     79  O   UNL A   1      41.417  22.194  26.001  1.00  0.00    -0.744 OA
ENDBRANCH  73  76
ENDBRANCH  45  69
BRANCH  57  80
ATOM     80  C   UNL A   1      44.987  27.269  34.666  1.00  0.00     0.023 A 
ATOM     81  C   UNL A   1      46.198  27.988  34.703  1.00  0.00     0.012 A 
ATOM     82  C   UNL A   1      44.842  26.117  35.465  1.00  0.00     0.148 A 
ATOM     83  C   UNL A   1      47.258  27.550  35.496  1.00  0.00     0.002 A 
ATOM     84  C   UNL A   1      45.887  25.713  36.288  1.00  0.00     0.091 A 
ATOM     85  F   UNL A   1      43.690  25.433  35.401  1.00  0.00    -0.205 F 
ATOM     86  C   UNL A   1      47.098  26.421  36.297  1.00  0.00     0.022 A 
BRANCH  84  87
ATOM     87  S   UNL A   1      45.725  24.326  37.418  1.00  0.00     0.127 S 
ATOM     88  O   UNL A   1      45.455  23.222  36.501  1.00  0.00    -0.237 OA
ATOM     89  O   UNL A   1      47.043  24.282  38.054  1.00  0.00    -0.237 OA
ATOM     90  O   UNL A   1      44.638  24.678  38.322  1.00  0.00    -0.744 OA
ENDBRANCH  84  87
ENDBRANCH  57  80
ENDBRANCH  31  32
ENDBRANCH  24  26
ENDBRANCH  23  24
ENDBRANCH  22  23
ENDBRANCH   1  22
TORSDOF 19
ENDMDL
