MODEL 1
REMARK VINA RESULT:     -11.6      0.000      0.000
REMARK SMILES C[NH+](C)[C@H]1CCN(C(=O)C(=O)c2ccccc2)C[C@H]1CCC(=O)OCCOC(=O)c1ccc(-c2c3nc(c(-c4cccc(S(=O)(=O)[O-])c4F)c4ccc([nH]4)c(-c4cccc(S(=O)(=O)[O-])c4F)c4nc(c(-c5cccc(S(=O)(=O)[O-])c5F)c5ccc2[nH]5)C=C4)C=C3)cc1
REMARK SMILES IDX 25 1 24 2 22 3 23 4 21 5 20 6 19 7 4 8 5 9 6 10 18 11 7 12
REMARK SMILES IDX 2 13 1 14 3 15 8 17 9 18 10 19 11 20 12 21 13 22 17 23 14 24
REMARK SMILES IDX 16 25 15 26 26 27 27 28 28 29 29 30 30 31 31 32 92 33 32 34
REMARK SMILES IDX 91 35 33 36 34 37 35 38 85 39 36 40 90 41 84 42 86 43 37 44
REMARK SMILES IDX 89 45 83 46 82 47 38 49 70 50 50 51 69 52 51 53 54 54 68 55
REMARK SMILES IDX 87 56 52 57 53 58 67 60 88 61 55 62 39 63 40 64 48 65 41 66
REMARK SMILES IDX 43 67 49 68 42 69 44 70 45 71 46 72 47 73 71 74 72 75 80 76
REMARK SMILES IDX 73 77 75 78 81 79 74 80 76 81 77 82 78 83 79 84 56 85 57 86
REMARK SMILES IDX 65 87 58 88 60 89 66 90 59 91 61 92 62 93 63 94 64 95
REMARK H PARENT 2 16 86 48 54 59
REMARK Flexibility Score: inf
ROOT
ATOM      1  C   UNL A   1      31.620  28.645  27.191  1.00  0.00     0.274 C 
ENDROOT
BRANCH   1   2
ATOM      2  O   UNL A   1      32.609  27.658  26.832  1.00  0.00    -0.462 OA
BRANCH   2   3
ATOM      3  C   UNL A   1      32.163  26.389  26.661  1.00  0.00     0.305 C 
ATOM      4  O   UNL A   1      31.003  26.028  26.818  1.00  0.00    -0.252 OA
BRANCH   3   5
ATOM      5  C   UNL A   1      33.228  25.459  26.126  1.00  0.00     0.123 C 
BRANCH   5   6
ATOM      6  C   UNL A   1      32.791  24.218  25.380  1.00  0.00     0.023 C 
BRANCH   6   7
ATOM      7  C   UNL A   1      33.835  23.320  24.688  1.00  0.00     0.067 C 
ATOM      8  C   UNL A   1      33.362  22.023  23.959  1.00  0.00     0.190 C 
ATOM      9  C   UNL A   1      32.457  22.366  22.760  1.00  0.00     0.087 C 
ATOM     10  C   UNL A   1      33.179  23.309  21.804  1.00  0.00     0.126 C 
ATOM     11  C   UNL A   1      34.537  24.233  23.641  1.00  0.00     0.129 C 
ATOM     12  N   UNL A   1      33.661  24.499  22.493  1.00  0.00    -0.335 N 
BRANCH   8  13
ATOM     13  N   UNL A   1      32.862  20.869  24.714  1.00  0.00    -0.337 N 
ATOM     14  C   UNL A   1      33.397  20.538  26.020  1.00  0.00     0.332 C 
ATOM     15  C   UNL A   1      32.527  19.695  23.923  1.00  0.00     0.332 C 
ATOM     16  H   UNL A   1      31.992  21.318  25.001  1.00  0.00     0.347 HD
ENDBRANCH   8  13
BRANCH  12  17
ATOM     17  C   UNL A   1      33.303  25.750  21.971  1.00  0.00     0.294 C 
ATOM     18  O   UNL A   1      33.210  25.951  20.761  1.00  0.00    -0.265 OA
BRANCH  17  19
ATOM     19  C   UNL A   1      33.053  26.948  22.899  1.00  0.00     0.250 C 
ATOM     20  O   UNL A   1      33.999  27.527  23.425  1.00  0.00    -0.283 OA
BRANCH  19  21
ATOM     21  C   UNL A   1      31.672  27.510  23.030  1.00  0.00     0.028 A 
ATOM     22  C   UNL A   1      31.455  28.827  22.596  1.00  0.00     0.012 A 
ATOM     23  C   UNL A   1      30.586  26.769  23.515  1.00  0.00     0.012 A 
ATOM     24  C   UNL A   1      30.170  29.375  22.598  1.00  0.00     0.001 A 
ATOM     25  C   UNL A   1      29.300  27.321  23.516  1.00  0.00     0.001 A 
ATOM     26  C   UNL A   1      29.092  28.618  23.049  1.00  0.00     0.000 A 
ENDBRANCH  19  21
ENDBRANCH  17  19
ENDBRANCH  12  17
ENDBRANCH   6   7
ENDBRANCH   5   6
ENDBRANCH   3   5
ENDBRANCH   2   3
ENDBRANCH   1   2
BRANCH   1  27
ATOM     27  C   UNL A   1      31.686  29.814  26.212  1.00  0.00     0.275 C 
BRANCH  27  28
ATOM     28  O   UNL A   1      33.035  30.302  26.136  1.00  0.00    -0.458 OA
BRANCH  28  29
ATOM     29  C   UNL A   1      33.318  31.327  26.972  1.00  0.00     0.338 C 
ATOM     30  O   UNL A   1      32.618  32.285  27.246  1.00  0.00    -0.246 OA
BRANCH  29  31
ATOM     31  C   UNL A   1      34.615  31.076  27.608  1.00  0.00     0.060 A 
ATOM     32  C   UNL A   1      34.932  29.776  28.002  1.00  0.00     0.016 A 
ATOM     33  C   UNL A   1      35.463  32.136  27.911  1.00  0.00     0.016 A 
ATOM     34  C   UNL A   1      36.052  29.539  28.784  1.00  0.00     0.010 A 
ATOM     35  C   UNL A   1      36.652  31.876  28.594  1.00  0.00     0.010 A 
ATOM     36  C   UNL A   1      36.946  30.579  29.055  1.00  0.00    -0.014 A 
BRANCH  36  37
ATOM     37  C   UNL A   1      38.212  30.308  29.780  1.00  0.00     0.031 A 
ATOM     38  C   UNL A   1      39.241  29.393  29.184  1.00  0.00     0.074 A 
ATOM     39  C   UNL A   1      38.401  30.847  31.000  1.00  0.00     0.049 A 
ATOM     40  N   UNL A   1      40.292  28.859  29.747  1.00  0.00    -0.248 NA
ATOM     41  C   UNL A   1      39.055  29.014  27.774  1.00  0.00     0.031 C 
ATOM     42  C   UNL A   1      37.471  31.757  31.677  1.00  0.00     0.029 A 
ATOM     43  N   UNL A   1      39.420  30.685  31.905  1.00  0.00    -0.354 N 
ATOM     44  C   UNL A   1      40.851  28.023  28.790  1.00  0.00     0.074 A 
ATOM     45  C   UNL A   1      40.032  28.134  27.601  1.00  0.00     0.031 C 
ATOM     46  C   UNL A   1      37.958  32.069  32.884  1.00  0.00     0.029 A 
ATOM     47  C   UNL A   1      39.186  31.318  33.104  1.00  0.00     0.049 A 
ATOM     48  H   UNL A   1      40.237  30.170  31.715  1.00  0.00     0.167 HD
ATOM     49  C   UNL A   1      41.950  27.241  28.894  1.00  0.00     0.034 A 
ATOM     50  C   UNL A   1      39.847  31.253  34.275  1.00  0.00     0.034 A 
ATOM     51  C   UNL A   1      42.788  27.189  30.063  1.00  0.00     0.049 A 
ATOM     52  C   UNL A   1      41.067  30.385  34.365  1.00  0.00     0.074 A 
ATOM     53  C   UNL A   1      43.953  26.470  30.257  1.00  0.00     0.029 A 
ATOM     54  N   UNL A   1      42.549  27.891  31.236  1.00  0.00    -0.354 N 
ATOM     55  N   UNL A   1      41.619  29.645  33.434  1.00  0.00    -0.248 NA
ATOM     56  C   UNL A   1      41.762  30.347  35.658  1.00  0.00     0.031 C 
ATOM     57  C   UNL A   1      44.415  26.733  31.553  1.00  0.00     0.029 A 
ATOM     58  C   UNL A   1      43.540  27.619  32.163  1.00  0.00     0.049 A 
ATOM     59  H   UNL A   1      41.784  28.494  31.387  1.00  0.00     0.167 HD
ATOM     60  C   UNL A   1      42.725  29.052  34.024  1.00  0.00     0.074 A 
ATOM     61  C   UNL A   1      42.786  29.549  35.386  1.00  0.00     0.031 C 
ATOM     62  C   UNL A   1      43.596  28.156  33.498  1.00  0.00     0.034 A 
BRANCH  49  63
ATOM     63  C   UNL A   1      42.320  26.400  27.703  1.00  0.00     0.023 A 
ATOM     64  C   UNL A   1      43.088  26.961  26.663  1.00  0.00     0.012 A 
ATOM     65  C   UNL A   1      41.930  25.048  27.620  1.00  0.00     0.148 A 
ATOM     66  C   UNL A   1      43.435  26.201  25.546  1.00  0.00     0.002 A 
ATOM     67  C   UNL A   1      42.310  24.287  26.519  1.00  0.00     0.091 A 
ATOM     68  F   UNL A   1      41.172  24.538  28.602  1.00  0.00    -0.205 F 
ATOM     69  C   UNL A   1      43.055  24.864  25.478  1.00  0.00     0.022 A 
BRANCH  67  70
ATOM     70  S   UNL A   1      41.911  22.541  26.385  1.00  0.00     0.127 S 
ATOM     71  O   UNL A   1      42.468  22.208  25.075  1.00  0.00    -0.237 OA
ATOM     72  O   UNL A   1      42.636  21.963  27.518  1.00  0.00    -0.237 OA
ATOM     73  O   UNL A   1      40.462  22.460  26.498  1.00  0.00    -0.744 OA
ENDBRANCH  67  70
ENDBRANCH  49  63
BRANCH  50  74
ATOM     74  C   UNL A   1      39.345  32.038  35.438  1.00  0.00     0.023 A 
ATOM     75  C   UNL A   1      38.565  31.399  36.419  1.00  0.00     0.012 A 
ATOM     76  C   UNL A   1      39.725  33.382  35.630  1.00  0.00     0.148 A 
ATOM     77  C   UNL A   1      38.171  32.085  37.569  1.00  0.00     0.002 A 
ATOM     78  C   UNL A   1      39.382  34.039  36.805  1.00  0.00     0.091 A 
ATOM     79  F   UNL A   1      40.449  33.981  34.674  1.00  0.00    -0.205 F 
ATOM     80  C   UNL A   1      38.592  33.396  37.771  1.00  0.00     0.022 A 
BRANCH  78  81
ATOM     81  S   UNL A   1      40.028  35.668  37.210  1.00  0.00     0.127 S 
ATOM     82  O   UNL A   1      41.456  35.400  37.340  1.00  0.00    -0.237 OA
ATOM     83  O   UNL A   1      39.652  36.449  36.030  1.00  0.00    -0.237 OA
ATOM     84  O   UNL A   1      39.337  36.065  38.429  1.00  0.00    -0.744 OA
ENDBRANCH  78  81
ENDBRANCH  50  74
BRANCH  62  85
ATOM     85  C   UNL A   1      44.685  27.649  34.403  1.00  0.00     0.023 A 
ATOM     86  C   UNL A   1      45.881  28.384  34.519  1.00  0.00     0.012 A 
ATOM     87  C   UNL A   1      44.499  26.495  35.187  1.00  0.00     0.148 A 
ATOM     88  C   UNL A   1      46.887  27.966  35.388  1.00  0.00     0.002 A 
ATOM     89  C   UNL A   1      45.490  26.106  36.080  1.00  0.00     0.091 A 
ATOM     90  F   UNL A   1      43.362  25.799  35.042  1.00  0.00    -0.205 F 
ATOM     91  C   UNL A   1      46.686  26.836  36.177  1.00  0.00     0.022 A 
BRANCH  89  92
ATOM     92  S   UNL A   1      45.281  24.710  37.192  1.00  0.00     0.127 S 
ATOM     93  O   UNL A   1      44.085  25.099  37.937  1.00  0.00    -0.237 OA
ATOM     94  O   UNL A   1      45.087  23.596  36.264  1.00  0.00    -0.237 OA
ATOM     95  O   UNL A   1      46.510  24.637  37.971  1.00  0.00    -0.744 OA
ENDBRANCH  89  92
ENDBRANCH  62  85
ENDBRANCH  36  37
ENDBRANCH  29  31
ENDBRANCH  28  29
ENDBRANCH  27  28
ENDBRANCH   1  27
TORSDOF 20
ENDMDL
MODEL 2
REMARK VINA RESULT:     -11.4      1.320      3.174
REMARK SMILES C[NH+](C)[C@H]1CCN(C(=O)C(=O)c2ccccc2)C[C@H]1CCC(=O)OCCOC(=O)c1ccc(-c2c3nc(c(-c4cccc(S(=O)(=O)[O-])c4F)c4ccc([nH]4)c(-c4cccc(S(=O)(=O)[O-])c4F)c4nc(c(-c5cccc(S(=O)(=O)[O-])c5F)c5ccc2[nH]5)C=C4)C=C3)cc1
REMARK SMILES IDX 25 1 24 2 22 3 23 4 21 5 20 6 19 7 4 8 5 9 6 10 18 11 7 12
REMARK SMILES IDX 2 13 1 14 3 15 8 17 9 18 10 19 11 20 12 21 13 22 17 23 14 24
REMARK SMILES IDX 16 25 15 26 26 27 27 28 28 29 29 30 30 31 31 32 92 33 32 34
REMARK SMILES IDX 91 35 33 36 34 37 35 38 85 39 36 40 90 41 84 42 86 43 37 44
REMARK SMILES IDX 89 45 83 46 82 47 38 49 70 50 50 51 69 52 51 53 54 54 68 55
REMARK SMILES IDX 87 56 52 57 53 58 67 60 88 61 55 62 39 63 40 64 48 65 41 66
REMARK SMILES IDX 43 67 49 68 42 69 44 70 45 71 46 72 47 73 71 74 72 75 80 76
REMARK SMILES IDX 73 77 75 78 81 79 74 80 76 81 77 82 78 83 79 84 56 85 57 86
REMARK SMILES IDX 65 87 58 88 60 89 66 90 59 91 61 92 62 93 63 94 64 95
REMARK H PARENT 2 16 86 48 54 59
REMARK Flexibility Score: inf
ROOT
ATOM      1  C   UNL A   1      31.552  28.660  24.914  1.00  0.00     0.274 C 
ENDROOT
BRANCH   1   2
ATOM      2  O   UNL A   1      32.510  27.819  25.589  1.00  0.00    -0.462 OA
BRANCH   2   3
ATOM      3  C   UNL A   1      32.023  27.002  26.555  1.00  0.00     0.305 C 
ATOM      4  O   UNL A   1      31.489  27.383  27.590  1.00  0.00    -0.252 OA
BRANCH   3   5
ATOM      5  C   UNL A   1      32.089  25.540  26.177  1.00  0.00     0.123 C 
BRANCH   5   6
ATOM      6  C   UNL A   1      32.705  25.167  24.847  1.00  0.00     0.023 C 
BRANCH   6   7
ATOM      7  C   UNL A   1      31.811  24.727  23.672  1.00  0.00     0.067 C 
ATOM      8  C   UNL A   1      32.459  24.468  22.275  1.00  0.00     0.190 C 
ATOM      9  C   UNL A   1      33.437  23.279  22.337  1.00  0.00     0.087 C 
ATOM     10  C   UNL A   1      32.727  22.035  22.859  1.00  0.00     0.126 C 
ATOM     11  C   UNL A   1      31.131  23.408  24.141  1.00  0.00     0.129 C 
ATOM     12  N   UNL A   1      32.082  22.289  24.141  1.00  0.00    -0.335 N 
BRANCH   8  13
ATOM     13  N   UNL A   1      32.987  25.573  21.468  1.00  0.00    -0.337 N 
ATOM     14  C   UNL A   1      33.174  26.894  22.036  1.00  0.00     0.332 C 
ATOM     15  C   UNL A   1      32.547  25.608  20.082  1.00  0.00     0.332 C 
ATOM     16  H   UNL A   1      33.953  25.247  21.487  1.00  0.00     0.347 HD
ENDBRANCH   8  13
BRANCH  12  17
ATOM     17  C   UNL A   1      32.376  21.427  25.207  1.00  0.00     0.294 C 
ATOM     18  O   UNL A   1      31.755  20.380  25.390  1.00  0.00    -0.265 OA
BRANCH  17  19
ATOM     19  C   UNL A   1      33.468  21.780  26.227  1.00  0.00     0.250 C 
ATOM     20  O   UNL A   1      33.226  21.734  27.429  1.00  0.00    -0.283 OA
BRANCH  19  21
ATOM     21  C   UNL A   1      34.871  22.017  25.760  1.00  0.00     0.028 A 
ATOM     22  C   UNL A   1      35.505  23.203  26.161  1.00  0.00     0.012 A 
ATOM     23  C   UNL A   1      35.588  21.094  24.988  1.00  0.00     0.012 A 
ATOM     24  C   UNL A   1      36.845  23.438  25.842  1.00  0.00     0.001 A 
ATOM     25  C   UNL A   1      36.930  21.332  24.669  1.00  0.00     0.001 A 
ATOM     26  C   UNL A   1      37.559  22.497  25.105  1.00  0.00     0.000 A 
ENDBRANCH  19  21
ENDBRANCH  17  19
ENDBRANCH  12  17
ENDBRANCH   6   7
ENDBRANCH   5   6
ENDBRANCH   3   5
ENDBRANCH   2   3
ENDBRANCH   1   2
BRANCH   1  27
ATOM     27  C   UNL A   1      31.665  30.088  25.441  1.00  0.00     0.275 C 
BRANCH  27  28
ATOM     28  O   UNL A   1      33.003  30.325  25.906  1.00  0.00    -0.458 OA
BRANCH  28  29
ATOM     29  C   UNL A   1      33.118  31.300  26.837  1.00  0.00     0.338 C 
ATOM     30  O   UNL A   1      32.330  32.194  27.085  1.00  0.00    -0.246 OA
BRANCH  29  31
ATOM     31  C   UNL A   1      34.343  31.076  27.610  1.00  0.00     0.060 A 
ATOM     32  C   UNL A   1      35.176  32.160  27.884  1.00  0.00     0.016 A 
ATOM     33  C   UNL A   1      34.718  29.784  27.969  1.00  0.00     0.016 A 
ATOM     34  C   UNL A   1      36.433  31.953  28.431  1.00  0.00     0.010 A 
ATOM     35  C   UNL A   1      35.932  29.593  28.630  1.00  0.00     0.010 A 
ATOM     36  C   UNL A   1      36.810  30.671  28.847  1.00  0.00    -0.014 A 
BRANCH  36  37
ATOM     37  C   UNL A   1      38.098  30.462  29.552  1.00  0.00     0.031 A 
ATOM     38  C   UNL A   1      39.146  29.567  28.959  1.00  0.00     0.074 A 
ATOM     39  C   UNL A   1      38.293  31.039  30.754  1.00  0.00     0.049 A 
ATOM     40  N   UNL A   1      40.225  29.084  29.513  1.00  0.00    -0.248 NA
ATOM     41  C   UNL A   1      38.945  29.144  27.563  1.00  0.00     0.031 C 
ATOM     42  C   UNL A   1      37.346  31.935  31.426  1.00  0.00     0.029 A 
ATOM     43  N   UNL A   1      39.335  30.936  31.641  1.00  0.00    -0.354 N 
ATOM     44  C   UNL A   1      40.793  28.242  28.566  1.00  0.00     0.074 A 
ATOM     45  C   UNL A   1      39.947  28.294  27.392  1.00  0.00     0.031 C 
ATOM     46  C   UNL A   1      37.846  32.296  32.614  1.00  0.00     0.029 A 
ATOM     47  C   UNL A   1      39.104  31.592  32.828  1.00  0.00     0.049 A 
ATOM     48  H   UNL A   1      40.165  30.444  31.447  1.00  0.00     0.167 HD
ATOM     49  C   UNL A   1      41.921  27.500  28.668  1.00  0.00     0.034 A 
ATOM     50  C   UNL A   1      39.790  31.581  33.986  1.00  0.00     0.034 A 
ATOM     51  C   UNL A   1      42.783  27.508  29.819  1.00  0.00     0.049 A 
ATOM     52  C   UNL A   1      41.040  30.758  34.073  1.00  0.00     0.074 A 
ATOM     53  C   UNL A   1      43.976  26.835  30.008  1.00  0.00     0.029 A 
ATOM     54  N   UNL A   1      42.543  28.233  30.978  1.00  0.00    -0.354 N 
ATOM     55  N   UNL A   1      41.598  30.012  33.149  1.00  0.00    -0.248 NA
ATOM     56  C   UNL A   1      41.761  30.777  35.351  1.00  0.00     0.031 C 
ATOM     57  C   UNL A   1      44.455  27.147  31.287  1.00  0.00     0.029 A 
ATOM     58  C   UNL A   1      43.562  28.019  31.891  1.00  0.00     0.049 A 
ATOM     59  H   UNL A   1      41.762  28.813  31.130  1.00  0.00     0.167 HD
ATOM     60  C   UNL A   1      42.736  29.472  33.731  1.00  0.00     0.074 A 
ATOM     61  C   UNL A   1      42.807  30.007  35.078  1.00  0.00     0.031 C 
ATOM     62  C   UNL A   1      43.627  28.593  33.211  1.00  0.00     0.034 A 
BRANCH  49  63
ATOM     63  C   UNL A   1      42.295  26.641  27.491  1.00  0.00     0.023 A 
ATOM     64  C   UNL A   1      42.962  27.216  26.390  1.00  0.00     0.012 A 
ATOM     65  C   UNL A   1      42.011  25.261  27.481  1.00  0.00     0.148 A 
ATOM     66  C   UNL A   1      43.311  26.439  25.286  1.00  0.00     0.002 A 
ATOM     67  C   UNL A   1      42.393  24.486  26.391  1.00  0.00     0.091 A 
ATOM     68  F   UNL A   1      41.347  24.735  28.521  1.00  0.00    -0.205 F 
ATOM     69  C   UNL A   1      43.036  25.074  25.290  1.00  0.00     0.022 A 
BRANCH  67  70
ATOM     70  S   UNL A   1      42.129  22.710  26.345  1.00  0.00     0.127 S 
ATOM     71  O   UNL A   1      40.672  22.623  26.430  1.00  0.00    -0.237 OA
ATOM     72  O   UNL A   1      42.686  22.341  25.042  1.00  0.00    -0.237 OA
ATOM     73  O   UNL A   1      42.865  22.175  27.482  1.00  0.00    -0.744 OA
ENDBRANCH  67  70
ENDBRANCH  49  63
BRANCH  50  74
ATOM     74  C   UNL A   1      39.285  32.378  35.139  1.00  0.00     0.023 A 
ATOM     75  C   UNL A   1      38.462  31.762  36.099  1.00  0.00     0.012 A 
ATOM     76  C   UNL A   1      39.702  33.710  35.343  1.00  0.00     0.148 A 
ATOM     77  C   UNL A   1      38.061  32.459  37.240  1.00  0.00     0.002 A 
ATOM     78  C   UNL A   1      39.350  34.375  36.511  1.00  0.00     0.091 A 
ATOM     79  F   UNL A   1      40.467  34.288  34.406  1.00  0.00    -0.205 F 
ATOM     80  C   UNL A   1      38.518  33.756  37.456  1.00  0.00     0.022 A 
BRANCH  78  81
ATOM     81  S   UNL A   1      40.037  35.982  36.935  1.00  0.00     0.127 S 
ATOM     82  O   UNL A   1      39.182  36.390  38.045  1.00  0.00    -0.237 OA
ATOM     83  O   UNL A   1      41.411  35.641  37.308  1.00  0.00    -0.237 OA
ATOM     84  O   UNL A   1      39.932  36.780  35.721  1.00  0.00    -0.744 OA
ENDBRANCH  78  81
ENDBRANCH  50  74
BRANCH  62  85
ATOM     85  C   UNL A   1      44.750  28.147  34.106  1.00  0.00     0.023 A 
ATOM     86  C   UNL A   1      45.885  28.969  34.246  1.00  0.00     0.012 A 
ATOM     87  C   UNL A   1      44.654  26.961  34.856  1.00  0.00     0.148 A 
ATOM     88  C   UNL A   1      46.919  28.607  35.107  1.00  0.00     0.002 A 
ATOM     89  C   UNL A   1      45.670  26.625  35.742  1.00  0.00     0.091 A 
ATOM     90  F   UNL A   1      43.575  26.182  34.688  1.00  0.00    -0.205 F 
ATOM     91  C   UNL A   1      46.805  27.443  35.864  1.00  0.00     0.022 A 
BRANCH  89  92
ATOM     92  S   UNL A   1      45.569  25.187  36.814  1.00  0.00     0.127 S 
ATOM     93  O   UNL A   1      46.795  25.315  37.600  1.00  0.00    -0.237 OA
ATOM     94  O   UNL A   1      44.336  25.439  37.561  1.00  0.00    -0.237 OA
ATOM     95  O   UNL A   1      45.509  24.033  35.927  1.00  0.00    -0.744 OA
ENDBRANCH  89  92
ENDBRANCH  62  85
ENDBRANCH  36  37
ENDBRANCH  29  31
ENDBRANCH  28  29
ENDBRANCH  27  28
ENDBRANCH   1  27
TORSDOF 20
ENDMDL
MODEL 3
REMARK VINA RESULT:     -11.4      1.757      3.278
REMARK SMILES C[NH+](C)[C@H]1CCN(C(=O)C(=O)c2ccccc2)C[C@H]1CCC(=O)OCCOC(=O)c1ccc(-c2c3nc(c(-c4cccc(S(=O)(=O)[O-])c4F)c4ccc([nH]4)c(-c4cccc(S(=O)(=O)[O-])c4F)c4nc(c(-c5cccc(S(=O)(=O)[O-])c5F)c5ccc2[nH]5)C=C4)C=C3)cc1
REMARK SMILES IDX 25 1 24 2 22 3 23 4 21 5 20 6 19 7 4 8 5 9 6 10 18 11 7 12
REMARK SMILES IDX 2 13 1 14 3 15 8 17 9 18 10 19 11 20 12 21 13 22 17 23 14 24
REMARK SMILES IDX 16 25 15 26 26 27 27 28 28 29 29 30 30 31 31 32 92 33 32 34
REMARK SMILES IDX 91 35 33 36 34 37 35 38 85 39 36 40 90 41 84 42 86 43 37 44
REMARK SMILES IDX 89 45 83 46 82 47 38 49 70 50 50 51 69 52 51 53 54 54 68 55
REMARK SMILES IDX 87 56 52 57 53 58 67 60 88 61 55 62 39 63 40 64 48 65 41 66
REMARK SMILES IDX 43 67 49 68 42 69 44 70 45 71 46 72 47 73 71 74 72 75 80 76
REMARK SMILES IDX 73 77 75 78 81 79 74 80 76 81 77 82 78 83 79 84 56 85 57 86
REMARK SMILES IDX 65 87 58 88 60 89 66 90 59 91 61 92 62 93 63 94 64 95
REMARK H PARENT 2 16 86 48 54 59
REMARK Flexibility Score: inf
ROOT
ATOM      1  C   UNL A   1      31.730  29.035  26.995  1.00  0.00     0.274 C 
ENDROOT
BRANCH   1   2
ATOM      2  O   UNL A   1      32.367  28.049  26.157  1.00  0.00    -0.462 OA
BRANCH   2   3
ATOM      3  C   UNL A   1      32.062  26.752  26.411  1.00  0.00     0.305 C 
ATOM      4  O   UNL A   1      30.997  26.361  26.875  1.00  0.00    -0.252 OA
BRANCH   3   5
ATOM      5  C   UNL A   1      33.134  25.795  25.945  1.00  0.00     0.123 C 
BRANCH   5   6
ATOM      6  C   UNL A   1      32.715  24.427  25.452  1.00  0.00     0.023 C 
BRANCH   6   7
ATOM      7  C   UNL A   1      31.602  24.289  24.395  1.00  0.00     0.067 C 
ATOM      8  C   UNL A   1      31.948  24.511  22.889  1.00  0.00     0.190 C 
ATOM      9  C   UNL A   1      32.937  23.439  22.390  1.00  0.00     0.087 C 
ATOM     10  C   UNL A   1      32.371  22.044  22.630  1.00  0.00     0.126 C 
ATOM     11  C   UNL A   1      31.056  22.840  24.556  1.00  0.00     0.129 C 
ATOM     12  N   UNL A   1      32.004  21.851  24.027  1.00  0.00    -0.335 N 
BRANCH   8  13
ATOM     13  N   UNL A   1      32.278  25.845  22.376  1.00  0.00    -0.337 N 
ATOM     14  C   UNL A   1      33.654  26.294  22.283  1.00  0.00     0.332 C 
ATOM     15  C   UNL A   1      31.358  26.908  22.748  1.00  0.00     0.332 C 
ATOM     16  H   UNL A   1      32.114  25.610  21.398  1.00  0.00     0.347 HD
ENDBRANCH   8  13
BRANCH  12  17
ATOM     17  C   UNL A   1      32.528  20.736  24.696  1.00  0.00     0.294 C 
ATOM     18  O   UNL A   1      31.813  19.958  25.326  1.00  0.00    -0.265 OA
BRANCH  17  19
ATOM     19  C   UNL A   1      34.039  20.464  24.708  1.00  0.00     0.250 C 
ATOM     20  O   UNL A   1      34.470  19.371  24.353  1.00  0.00    -0.283 OA
BRANCH  19  21
ATOM     21  C   UNL A   1      34.992  21.582  24.994  1.00  0.00     0.028 A 
ATOM     22  C   UNL A   1      35.699  22.134  23.914  1.00  0.00     0.012 A 
ATOM     23  C   UNL A   1      35.172  22.129  26.271  1.00  0.00     0.012 A 
ATOM     24  C   UNL A   1      36.528  23.244  24.098  1.00  0.00     0.001 A 
ATOM     25  C   UNL A   1      36.003  23.240  26.452  1.00  0.00     0.001 A 
ATOM     26  C   UNL A   1      36.671  23.802  25.365  1.00  0.00     0.000 A 
ENDBRANCH  19  21
ENDBRANCH  17  19
ENDBRANCH  12  17
ENDBRANCH   6   7
ENDBRANCH   5   6
ENDBRANCH   3   5
ENDBRANCH   2   3
ENDBRANCH   1   2
BRANCH   1  27
ATOM     27  C   UNL A   1      31.893  30.419  26.371  1.00  0.00     0.275 C 
BRANCH  27  28
ATOM     28  O   UNL A   1      33.285  30.768  26.332  1.00  0.00    -0.458 OA
BRANCH  28  29
ATOM     29  C   UNL A   1      33.650  31.751  27.186  1.00  0.00     0.338 C 
ATOM     30  O   UNL A   1      33.017  32.742  27.501  1.00  0.00    -0.246 OA
BRANCH  29  31
ATOM     31  C   UNL A   1      34.942  31.403  27.786  1.00  0.00     0.060 A 
ATOM     32  C   UNL A   1      35.152  30.097  28.225  1.00  0.00     0.016 A 
ATOM     33  C   UNL A   1      35.898  32.390  28.008  1.00  0.00     0.016 A 
ATOM     34  C   UNL A   1      36.276  29.786  28.976  1.00  0.00     0.010 A 
ATOM     35  C   UNL A   1      37.085  32.046  28.659  1.00  0.00     0.010 A 
ATOM     36  C   UNL A   1      37.275  30.747  29.167  1.00  0.00    -0.014 A 
BRANCH  36  37
ATOM     37  C   UNL A   1      38.538  30.387  29.856  1.00  0.00     0.031 A 
ATOM     38  C   UNL A   1      39.480  29.398  29.234  1.00  0.00     0.074 A 
ATOM     39  C   UNL A   1      38.800  30.913  31.068  1.00  0.00     0.049 A 
ATOM     40  N   UNL A   1      40.505  28.790  29.769  1.00  0.00    -0.248 NA
ATOM     41  C   UNL A   1      39.226  29.030  27.832  1.00  0.00     0.031 C 
ATOM     42  C   UNL A   1      37.959  31.889  31.767  1.00  0.00     0.029 A 
ATOM     43  N   UNL A   1      39.831  30.679  31.943  1.00  0.00    -0.354 N 
ATOM     44  C   UNL A   1      40.975  27.914  28.799  1.00  0.00     0.074 A 
ATOM     45  C   UNL A   1      40.132  28.082  27.634  1.00  0.00     0.031 C 
ATOM     46  C   UNL A   1      38.502  32.168  32.958  1.00  0.00     0.029 A 
ATOM     47  C   UNL A   1      39.679  31.330  33.146  1.00  0.00     0.049 A 
ATOM     48  H   UNL A   1      40.603  30.106  31.732  1.00  0.00     0.167 HD
ATOM     49  C   UNL A   1      42.017  27.055  28.875  1.00  0.00     0.034 A 
ATOM     50  C   UNL A   1      40.367  31.220  34.298  1.00  0.00     0.034 A 
ATOM     51  C   UNL A   1      42.882  26.945  30.019  1.00  0.00     0.049 A 
ATOM     52  C   UNL A   1      41.522  30.266  34.356  1.00  0.00     0.074 A 
ATOM     53  C   UNL A   1      43.998  26.144  30.183  1.00  0.00     0.029 A 
ATOM     54  N   UNL A   1      42.729  27.665  31.196  1.00  0.00    -0.354 N 
ATOM     55  N   UNL A   1      41.992  29.486  33.412  1.00  0.00    -0.248 NA
ATOM     56  C   UNL A   1      42.250  30.180  35.628  1.00  0.00     0.031 C 
ATOM     57  C   UNL A   1      44.515  26.375  31.464  1.00  0.00     0.029 A 
ATOM     58  C   UNL A   1      43.724  27.324  32.095  1.00  0.00     0.049 A 
ATOM     59  H   UNL A   1      42.015  28.322  31.367  1.00  0.00     0.167 HD
ATOM     60  C   UNL A   1      43.069  28.816  33.973  1.00  0.00     0.074 A 
ATOM     61  C   UNL A   1      43.206  29.310  35.330  1.00  0.00     0.031 C 
ATOM     62  C   UNL A   1      43.858  27.858  33.426  1.00  0.00     0.034 A 
BRANCH  49  63
ATOM     63  C   UNL A   1      42.290  26.187  27.677  1.00  0.00     0.023 A 
ATOM     64  C   UNL A   1      42.955  26.729  26.559  1.00  0.00     0.012 A 
ATOM     65  C   UNL A   1      41.913  24.830  27.664  1.00  0.00     0.148 A 
ATOM     66  C   UNL A   1      43.212  25.943  25.435  1.00  0.00     0.002 A 
ATOM     67  C   UNL A   1      42.202  24.044  26.553  1.00  0.00     0.091 A 
ATOM     68  F   UNL A   1      41.252  24.337  28.722  1.00  0.00    -0.205 F 
ATOM     69  C   UNL A   1      42.844  24.601  25.436  1.00  0.00     0.022 A 
BRANCH  67  70
ATOM     70  S   UNL A   1      41.816  22.290  26.498  1.00  0.00     0.127 S 
ATOM     71  O   UNL A   1      42.500  21.798  27.693  1.00  0.00    -0.237 OA
ATOM     72  O   UNL A   1      40.355  22.286  26.588  1.00  0.00    -0.237 OA
ATOM     73  O   UNL A   1      42.339  21.813  25.226  1.00  0.00    -0.744 OA
ENDBRANCH  67  70
ENDBRANCH  49  63
BRANCH  50  74
ATOM     74  C   UNL A   1      39.957  32.041  35.472  1.00  0.00     0.023 A 
ATOM     75  C   UNL A   1      40.386  33.378  35.565  1.00  0.00     0.012 A 
ATOM     76  C   UNL A   1      39.060  31.537  36.437  1.00  0.00     0.148 A 
ATOM     77  C   UNL A   1      39.932  34.197  36.600  1.00  0.00     0.002 A 
ATOM     78  C   UNL A   1      38.564  32.376  37.427  1.00  0.00     0.091 A 
ATOM     79  F   UNL A   1      38.681  30.255  36.345  1.00  0.00    -0.205 F 
ATOM     80  C   UNL A   1      39.009  33.704  37.519  1.00  0.00     0.022 A 
BRANCH  78  81
ATOM     81  S   UNL A   1      37.250  31.861  38.541  1.00  0.00     0.127 S 
ATOM     82  O   UNL A   1      36.177  32.783  38.185  1.00  0.00    -0.237 OA
ATOM     83  O   UNL A   1      37.031  30.472  38.137  1.00  0.00    -0.237 OA
ATOM     84  O   UNL A   1      37.801  32.009  39.882  1.00  0.00    -0.744 OA
ENDBRANCH  78  81
ENDBRANCH  50  74
BRANCH  62  85
ATOM     85  C   UNL A   1      44.933  27.275  34.301  1.00  0.00     0.023 A 
ATOM     86  C   UNL A   1      46.188  27.911  34.364  1.00  0.00     0.012 A 
ATOM     87  C   UNL A   1      44.682  26.151  35.110  1.00  0.00     0.148 A 
ATOM     88  C   UNL A   1      47.187  27.424  35.205  1.00  0.00     0.002 A 
ATOM     89  C   UNL A   1      45.668  25.694  35.974  1.00  0.00     0.091 A 
ATOM     90  F   UNL A   1      43.487  25.549  35.015  1.00  0.00    -0.205 F 
ATOM     91  C   UNL A   1      46.922  26.324  36.019  1.00  0.00     0.022 A 
BRANCH  89  92
ATOM     92  S   UNL A   1      45.386  24.335  37.116  1.00  0.00     0.127 S 
ATOM     93  O   UNL A   1      44.243  24.825  37.885  1.00  0.00    -0.237 OA
ATOM     94  O   UNL A   1      45.082  23.225  36.212  1.00  0.00    -0.237 OA
ATOM     95  O   UNL A   1      46.626  24.180  37.863  1.00  0.00    -0.744 OA
ENDBRANCH  89  92
ENDBRANCH  62  85
ENDBRANCH  36  37
ENDBRANCH  29  31
ENDBRANCH  28  29
ENDBRANCH  27  28
ENDBRANCH   1  27
TORSDOF 20
ENDMDL
