MODEL 1
REMARK VINA RESULT:     -10.9      0.000      0.000
REMARK SMILES CC1(C)CCN(C(=O)CC(C)(C)C(=O)OCCOC(=O)c2ccc(-c3c4nc(c(-c5cccc(S(=O)(=O)[O-])c5F)c5ccc([nH]5)c(-c5cccc(S(=O)(=O)[O-])c5F)c5nc(c(-c6cccc(S(=O)(=O)[O-])c6F)c6ccc3[nH]6)C=C5)C=C4)cc2)C1
REMARK SMILES IDX 16 1 15 2 13 3 14 4 10 5 11 6 12 7 9 8 7 9 8 10 6 11 1 12
REMARK SMILES IDX 2 13 3 14 4 15 84 16 5 17 17 18 18 19 19 20 20 21 21 22
REMARK SMILES IDX 22 23 83 24 23 25 82 26 24 27 25 28 26 29 76 30 27 31 81 32
REMARK SMILES IDX 75 33 77 34 28 35 80 36 74 37 73 38 29 40 61 41 41 42 60 43
REMARK SMILES IDX 42 44 45 45 59 46 78 47 43 48 44 49 58 51 79 52 46 53 30 54
REMARK SMILES IDX 31 55 39 56 32 57 34 58 40 59 33 60 35 61 36 62 37 63 38 64
REMARK SMILES IDX 62 65 63 66 71 67 64 68 66 69 72 70 65 71 67 72 68 73 69 74
REMARK SMILES IDX 70 75 47 76 48 77 56 78 49 79 51 80 57 81 50 82 52 83 53 84
REMARK SMILES IDX 54 85 55 86
REMARK H PARENT 77 39 45 50
REMARK Flexibility Score: inf
ROOT
ATOM      1  C   UNL A   1      35.211  20.452  24.981  1.00  0.00     0.274 C 
ENDROOT
BRANCH   1   2
ATOM      2  O   UNL A   1      34.407  21.599  24.640  1.00  0.00    -0.462 OA
BRANCH   2   3
ATOM      3  C   UNL A   1      33.725  22.197  25.659  1.00  0.00     0.312 C 
ATOM      4  O   UNL A   1      33.549  21.677  26.751  1.00  0.00    -0.252 OA
BRANCH   3   5
ATOM      5  C   UNL A   1      33.027  23.489  25.193  1.00  0.00     0.071 C 
ATOM      6  C   UNL A   1      32.490  24.122  26.489  1.00  0.00     0.024 C 
ATOM      7  C   UNL A   1      31.807  23.205  24.289  1.00  0.00     0.024 C 
BRANCH   5   8
ATOM      8  C   UNL A   1      33.954  24.481  24.427  1.00  0.00     0.118 C 
BRANCH   8   9
ATOM      9  C   UNL A   1      33.418  25.145  23.169  1.00  0.00     0.223 C 
ATOM     10  O   UNL A   1      33.706  24.679  22.066  1.00  0.00    -0.275 OA
BRANCH   9  11
ATOM     11  N   UNL A   1      32.614  26.246  23.299  1.00  0.00    -0.342 N 
ATOM     12  C   UNL A   1      29.797  26.356  24.392  1.00  0.00     0.013 C 
ATOM     13  C   UNL A   1      30.563  27.355  23.507  1.00  0.00    -0.016 C 
ATOM     14  C   UNL A   1      29.569  28.270  22.799  1.00  0.00     0.013 C 
ATOM     15  C   UNL A   1      31.611  28.127  24.333  1.00  0.00     0.030 C 
ATOM     16  C   UNL A   1      31.466  26.630  22.504  1.00  0.00     0.126 C 
ATOM     17  C   UNL A   1      32.794  27.160  24.420  1.00  0.00     0.120 C 
ENDBRANCH   9  11
ENDBRANCH   8   9
ENDBRANCH   5   8
ENDBRANCH   3   5
ENDBRANCH   2   3
ENDBRANCH   1   2
BRANCH   1  18
ATOM     18  C   UNL A   1      36.677  20.729  24.654  1.00  0.00     0.275 C 
BRANCH  18  19
ATOM     19  O   UNL A   1      37.282  21.473  25.726  1.00  0.00    -0.458 OA
BRANCH  19  20
ATOM     20  C   UNL A   1      38.568  21.162  25.992  1.00  0.00     0.338 C 
ATOM     21  O   UNL A   1      39.159  20.125  25.708  1.00  0.00    -0.246 OA
BRANCH  20  22
ATOM     22  C   UNL A   1      39.241  22.341  26.542  1.00  0.00     0.060 A 
ATOM     23  C   UNL A   1      38.788  23.590  26.125  1.00  0.00     0.016 A 
ATOM     24  C   UNL A   1      40.338  22.235  27.394  1.00  0.00     0.016 A 
ATOM     25  C   UNL A   1      39.436  24.749  26.534  1.00  0.00     0.010 A 
ATOM     26  C   UNL A   1      40.982  23.404  27.820  1.00  0.00     0.010 A 
ATOM     27  C   UNL A   1      40.545  24.668  27.379  1.00  0.00    -0.014 A 
BRANCH  27  28
ATOM     28  C   UNL A   1      41.286  25.902  27.729  1.00  0.00     0.031 A 
ATOM     29  C   UNL A   1      40.594  26.976  28.518  1.00  0.00     0.074 A 
ATOM     30  C   UNL A   1      42.577  26.050  27.375  1.00  0.00     0.049 A 
ATOM     31  N   UNL A   1      41.019  28.167  28.846  1.00  0.00    -0.248 NA
ATOM     32  C   UNL A   1      39.242  26.662  29.010  1.00  0.00     0.031 C 
ATOM     33  C   UNL A   1      43.382  25.050  26.674  1.00  0.00     0.029 A 
ATOM     34  N   UNL A   1      43.431  27.111  27.548  1.00  0.00    -0.354 N 
ATOM     35  C   UNL A   1      39.977  28.761  29.545  1.00  0.00     0.074 A 
ATOM     36  C   UNL A   1      38.898  27.799  29.598  1.00  0.00     0.031 C 
ATOM     37  C   UNL A   1      44.608  25.555  26.454  1.00  0.00     0.029 A 
ATOM     38  C   UNL A   1      44.662  26.923  26.962  1.00  0.00     0.049 A 
ATOM     39  H   UNL A   1      43.187  27.926  28.042  1.00  0.00     0.167 HD
ATOM     40  C   UNL A   1      39.927  29.995  30.100  1.00  0.00     0.034 A 
ATOM     41  C   UNL A   1      45.702  27.770  26.828  1.00  0.00     0.034 A 
ATOM     42  C   UNL A   1      41.011  30.937  30.077  1.00  0.00     0.049 A 
ATOM     43  C   UNL A   1      45.598  29.157  27.409  1.00  0.00     0.074 A 
ATOM     44  C   UNL A   1      41.054  32.213  30.612  1.00  0.00     0.029 A 
ATOM     45  N   UNL A   1      42.245  30.708  29.488  1.00  0.00    -0.354 N 
ATOM     46  N   UNL A   1      44.627  29.690  28.111  1.00  0.00    -0.248 NA
ATOM     47  C   UNL A   1      46.744  30.053  27.194  1.00  0.00     0.031 C 
ATOM     48  C   UNL A   1      42.313  32.761  30.335  1.00  0.00     0.029 A 
ATOM     49  C   UNL A   1      43.057  31.820  29.641  1.00  0.00     0.049 A 
ATOM     50  H   UNL A   1      42.506  29.878  29.028  1.00  0.00     0.167 HD
ATOM     51  C   UNL A   1      45.055  30.968  28.448  1.00  0.00     0.074 A 
ATOM     52  C   UNL A   1      46.385  31.123  27.892  1.00  0.00     0.031 C 
ATOM     53  C   UNL A   1      44.402  31.936  29.136  1.00  0.00     0.034 A 
BRANCH  40  54
ATOM     54  C   UNL A   1      38.653  30.388  30.794  1.00  0.00     0.023 A 
ATOM     55  C   UNL A   1      38.458  30.036  32.145  1.00  0.00     0.012 A 
ATOM     56  C   UNL A   1      37.665  31.132  30.121  1.00  0.00     0.148 A 
ATOM     57  C   UNL A   1      37.284  30.396  32.808  1.00  0.00     0.002 A 
ATOM     58  C   UNL A   1      36.515  31.519  30.800  1.00  0.00     0.091 A 
ATOM     59  F   UNL A   1      37.859  31.432  28.829  1.00  0.00    -0.205 F 
ATOM     60  C   UNL A   1      36.319  31.144  32.139  1.00  0.00     0.022 A 
BRANCH  58  61
ATOM     61  S   UNL A   1      35.246  32.538  30.040  1.00  0.00     0.127 S 
ATOM     62  O   UNL A   1      34.777  31.670  28.960  1.00  0.00    -0.237 OA
ATOM     63  O   UNL A   1      34.293  32.715  31.136  1.00  0.00    -0.237 OA
ATOM     64  O   UNL A   1      35.915  33.760  29.617  1.00  0.00    -0.744 OA
ENDBRANCH  58  61
ENDBRANCH  40  54
BRANCH  41  65
ATOM     65  C   UNL A   1      46.943  27.328  26.131  1.00  0.00     0.023 A 
ATOM     66  C   UNL A   1      47.107  27.618  24.763  1.00  0.00     0.012 A 
ATOM     67  C   UNL A   1      47.959  26.627  26.810  1.00  0.00     0.148 A 
ATOM     68  C   UNL A   1      48.246  27.194  24.077  1.00  0.00     0.002 A 
ATOM     69  C   UNL A   1      49.115  26.253  26.134  1.00  0.00     0.091 A 
ATOM     70  F   UNL A   1      47.774  26.334  28.106  1.00  0.00    -0.205 F 
ATOM     71  C   UNL A   1      49.254  26.521  24.763  1.00  0.00     0.022 A 
BRANCH  69  72
ATOM     72  S   UNL A   1      50.510  25.484  26.965  1.00  0.00     0.127 S 
ATOM     73  O   UNL A   1      51.435  25.265  25.856  1.00  0.00    -0.237 OA
ATOM     74  O   UNL A   1      50.916  26.530  27.906  1.00  0.00    -0.237 OA
ATOM     75  O   UNL A   1      49.979  24.285  27.596  1.00  0.00    -0.744 OA
ENDBRANCH  69  72
ENDBRANCH  41  65
BRANCH  53  76
ATOM     76  C   UNL A   1      45.116  33.244  29.357  1.00  0.00     0.023 A 
ATOM     77  C   UNL A   1      45.932  33.408  30.494  1.00  0.00     0.012 A 
ATOM     78  C   UNL A   1      45.046  34.277  28.401  1.00  0.00     0.148 A 
ATOM     79  C   UNL A   1      46.644  34.590  30.691  1.00  0.00     0.002 A 
ATOM     80  C   UNL A   1      45.794  35.435  28.582  1.00  0.00     0.091 A 
ATOM     81  F   UNL A   1      44.248  34.112  27.336  1.00  0.00    -0.205 F 
ATOM     82  C   UNL A   1      46.587  35.597  29.730  1.00  0.00     0.022 A 
BRANCH  80  83
ATOM     83  S   UNL A   1      45.849  36.742  27.350  1.00  0.00     0.127 S 
ATOM     84  O   UNL A   1      44.437  37.097  27.227  1.00  0.00    -0.237 OA
ATOM     85  O   UNL A   1      46.679  37.755  28.003  1.00  0.00    -0.237 OA
ATOM     86  O   UNL A   1      46.453  36.145  26.166  1.00  0.00    -0.744 OA
ENDBRANCH  80  83
ENDBRANCH  53  76
ENDBRANCH  27  28
ENDBRANCH  20  22
ENDBRANCH  19  20
ENDBRANCH  18  19
ENDBRANCH   1  18
TORSDOF 17
ENDMDL
MODEL 2
REMARK VINA RESULT:     -10.9      4.892      9.988
REMARK SMILES CC1(C)CCN(C(=O)CC(C)(C)C(=O)OCCOC(=O)c2ccc(-c3c4nc(c(-c5cccc(S(=O)(=O)[O-])c5F)c5ccc([nH]5)c(-c5cccc(S(=O)(=O)[O-])c5F)c5nc(c(-c6cccc(S(=O)(=O)[O-])c6F)c6ccc3[nH]6)C=C5)C=C4)cc2)C1
REMARK SMILES IDX 16 1 15 2 13 3 14 4 10 5 11 6 12 7 9 8 7 9 8 10 6 11 1 12
REMARK SMILES IDX 2 13 3 14 4 15 84 16 5 17 17 18 18 19 19 20 20 21 21 22
REMARK SMILES IDX 22 23 83 24 23 25 82 26 24 27 25 28 26 29 76 30 27 31 81 32
REMARK SMILES IDX 75 33 77 34 28 35 80 36 74 37 73 38 29 40 61 41 41 42 60 43
REMARK SMILES IDX 42 44 45 45 59 46 78 47 43 48 44 49 58 51 79 52 46 53 30 54
REMARK SMILES IDX 31 55 39 56 32 57 34 58 40 59 33 60 35 61 36 62 37 63 38 64
REMARK SMILES IDX 62 65 63 66 71 67 64 68 66 69 72 70 65 71 67 72 68 73 69 74
REMARK SMILES IDX 70 75 47 76 48 77 56 78 49 79 51 80 57 81 50 82 52 83 53 84
REMARK SMILES IDX 54 85 55 86
REMARK H PARENT 77 39 45 50
REMARK Flexibility Score: inf
ROOT
ATOM      1  C   UNL A   1      32.127  28.669  24.599  1.00  0.00     0.274 C 
ENDROOT
BRANCH   1   2
ATOM      2  O   UNL A   1      31.143  27.630  24.769  1.00  0.00    -0.462 OA
BRANCH   2   3
ATOM      3  C   UNL A   1      31.320  26.780  25.821  1.00  0.00     0.312 C 
ATOM      4  O   UNL A   1      30.966  27.037  26.963  1.00  0.00    -0.252 OA
BRANCH   3   5
ATOM      5  C   UNL A   1      32.204  25.578  25.438  1.00  0.00     0.071 C 
ATOM      6  C   UNL A   1      31.753  24.453  26.386  1.00  0.00     0.024 C 
ATOM      7  C   UNL A   1      33.701  25.835  25.722  1.00  0.00     0.024 C 
BRANCH   5   8
ATOM      8  C   UNL A   1      32.081  25.138  23.947  1.00  0.00     0.118 C 
BRANCH   8   9
ATOM      9  C   UNL A   1      33.308  24.558  23.262  1.00  0.00     0.223 C 
ATOM     10  O   UNL A   1      33.928  25.241  22.447  1.00  0.00    -0.275 OA
BRANCH   9  11
ATOM     11  N   UNL A   1      33.698  23.284  23.582  1.00  0.00    -0.342 N 
ATOM     12  C   UNL A   1      34.407  22.203  26.315  1.00  0.00     0.013 C 
ATOM     13  C   UNL A   1      34.734  21.661  24.912  1.00  0.00    -0.016 C 
ATOM     14  C   UNL A   1      35.915  20.699  25.004  1.00  0.00     0.013 C 
ATOM     15  C   UNL A   1      33.487  21.026  24.266  1.00  0.00     0.030 C 
ATOM     16  C   UNL A   1      35.018  22.800  23.929  1.00  0.00     0.126 C 
ATOM     17  C   UNL A   1      32.708  22.224  23.719  1.00  0.00     0.120 C 
ENDBRANCH   9  11
ENDBRANCH   8   9
ENDBRANCH   5   8
ENDBRANCH   3   5
ENDBRANCH   2   3
ENDBRANCH   1   2
BRANCH   1  18
ATOM     18  C   UNL A   1      31.713  29.911  25.387  1.00  0.00     0.275 C 
BRANCH  18  19
ATOM     19  O   UNL A   1      32.422  29.951  26.637  1.00  0.00    -0.458 OA
BRANCH  19  20
ATOM     20  C   UNL A   1      32.965  31.145  26.956  1.00  0.00     0.338 C 
ATOM     21  O   UNL A   1      32.430  32.247  26.899  1.00  0.00    -0.246 OA
BRANCH  20  22
ATOM     22  C   UNL A   1      34.282  30.925  27.560  1.00  0.00     0.060 A 
ATOM     23  C   UNL A   1      34.625  29.617  27.889  1.00  0.00     0.016 A 
ATOM     24  C   UNL A   1      35.139  31.979  27.868  1.00  0.00     0.016 A 
ATOM     25  C   UNL A   1      35.817  29.343  28.548  1.00  0.00     0.010 A 
ATOM     26  C   UNL A   1      36.349  31.703  28.517  1.00  0.00     0.010 A 
ATOM     27  C   UNL A   1      36.688  30.384  28.876  1.00  0.00    -0.014 A 
BRANCH  27  28
ATOM     28  C   UNL A   1      37.909  30.093  29.663  1.00  0.00     0.031 A 
ATOM     29  C   UNL A   1      38.956  29.184  29.087  1.00  0.00     0.074 A 
ATOM     30  C   UNL A   1      38.097  30.660  30.870  1.00  0.00     0.049 A 
ATOM     31  N   UNL A   1      40.046  28.721  29.639  1.00  0.00    -0.248 NA
ATOM     32  C   UNL A   1      38.751  28.745  27.696  1.00  0.00     0.031 C 
ATOM     33  C   UNL A   1      37.192  31.616  31.507  1.00  0.00     0.029 A 
ATOM     34  N   UNL A   1      39.112  30.498  31.781  1.00  0.00    -0.354 N 
ATOM     35  C   UNL A   1      40.636  27.904  28.684  1.00  0.00     0.074 A 
ATOM     36  C   UNL A   1      39.785  27.937  27.514  1.00  0.00     0.031 C 
ATOM     37  C   UNL A   1      37.679  31.939  32.718  1.00  0.00     0.029 A 
ATOM     38  C   UNL A   1      38.907  31.184  32.956  1.00  0.00     0.049 A 
ATOM     39  H   UNL A   1      39.908  29.946  31.610  1.00  0.00     0.167 HD
ATOM     40  C   UNL A   1      41.787  27.197  28.770  1.00  0.00     0.034 A 
ATOM     41  C   UNL A   1      39.616  31.180  34.103  1.00  0.00     0.034 A 
ATOM     42  C   UNL A   1      42.648  27.192  29.921  1.00  0.00     0.049 A 
ATOM     43  C   UNL A   1      40.864  30.341  34.190  1.00  0.00     0.074 A 
ATOM     44  C   UNL A   1      43.836  26.506  30.103  1.00  0.00     0.029 A 
ATOM     45  N   UNL A   1      42.417  27.908  31.085  1.00  0.00    -0.354 N 
ATOM     46  N   UNL A   1      41.439  29.612  33.264  1.00  0.00    -0.248 NA
ATOM     47  C   UNL A   1      41.573  30.339  35.479  1.00  0.00     0.031 C 
ATOM     48  C   UNL A   1      44.317  26.798  31.385  1.00  0.00     0.029 A 
ATOM     49  C   UNL A   1      43.436  27.677  31.993  1.00  0.00     0.049 A 
ATOM     50  H   UNL A   1      41.641  28.494  31.243  1.00  0.00     0.167 HD
ATOM     51  C   UNL A   1      42.590  29.092  33.845  1.00  0.00     0.074 A 
ATOM     52  C   UNL A   1      42.644  29.607  35.198  1.00  0.00     0.031 C 
ATOM     53  C   UNL A   1      43.508  28.247  33.315  1.00  0.00     0.034 A 
BRANCH  40  54
ATOM     54  C   UNL A   1      42.185  26.378  27.575  1.00  0.00     0.023 A 
ATOM     55  C   UNL A   1      42.914  26.979  26.530  1.00  0.00     0.012 A 
ATOM     56  C   UNL A   1      41.867  25.008  27.502  1.00  0.00     0.148 A 
ATOM     57  C   UNL A   1      43.298  26.234  25.414  1.00  0.00     0.002 A 
ATOM     58  C   UNL A   1      42.285  24.264  26.404  1.00  0.00     0.091 A 
ATOM     59  F   UNL A   1      41.149  24.464  28.494  1.00  0.00    -0.205 F 
ATOM     60  C   UNL A   1      42.992  24.877  25.356  1.00  0.00     0.022 A 
BRANCH  58  61
ATOM     61  S   UNL A   1      41.993  22.497  26.272  1.00  0.00     0.127 S 
ATOM     62  O   UNL A   1      40.532  22.441  26.231  1.00  0.00    -0.237 OA
ATOM     63  O   UNL A   1      42.650  22.168  25.007  1.00  0.00    -0.237 OA
ATOM     64  O   UNL A   1      42.611  21.900  27.447  1.00  0.00    -0.744 OA
ENDBRANCH  58  61
ENDBRANCH  40  54
BRANCH  41  65
ATOM     65  C   UNL A   1      39.176  32.013  35.258  1.00  0.00     0.023 A 
ATOM     66  C   UNL A   1      38.210  31.504  36.148  1.00  0.00     0.012 A 
ATOM     67  C   UNL A   1      39.706  33.299  35.483  1.00  0.00     0.148 A 
ATOM     68  C   UNL A   1      37.759  32.271  37.223  1.00  0.00     0.002 A 
ATOM     69  C   UNL A   1      39.291  34.037  36.586  1.00  0.00     0.091 A 
ATOM     70  F   UNL A   1      40.604  33.779  34.610  1.00  0.00    -0.205 F 
ATOM     71  C   UNL A   1      38.306  33.531  37.448  1.00  0.00     0.022 A 
BRANCH  69  72
ATOM     72  S   UNL A   1      40.024  35.620  37.016  1.00  0.00     0.127 S 
ATOM     73  O   UNL A   1      39.649  36.445  35.871  1.00  0.00    -0.237 OA
ATOM     74  O   UNL A   1      39.330  35.947  38.263  1.00  0.00    -0.237 OA
ATOM     75  O   UNL A   1      41.448  35.362  37.175  1.00  0.00    -0.744 OA
ENDBRANCH  69  72
ENDBRANCH  41  65
BRANCH  53  76
ATOM     76  C   UNL A   1      44.670  27.842  34.184  1.00  0.00     0.023 A 
ATOM     77  C   UNL A   1      45.824  28.651  34.226  1.00  0.00     0.012 A 
ATOM     78  C   UNL A   1      44.590  26.709  35.018  1.00  0.00     0.148 A 
ATOM     79  C   UNL A   1      46.889  28.323  35.063  1.00  0.00     0.002 A 
ATOM     80  C   UNL A   1      45.638  26.414  35.883  1.00  0.00     0.091 A 
ATOM     81  F   UNL A   1      43.494  25.939  34.950  1.00  0.00    -0.205 F 
ATOM     82  C   UNL A   1      46.792  27.215  35.900  1.00  0.00     0.022 A 
BRANCH  80  83
ATOM     83  S   UNL A   1      45.556  25.059  37.061  1.00  0.00     0.127 S 
ATOM     84  O   UNL A   1      46.694  25.350  37.930  1.00  0.00    -0.237 OA
ATOM     85  O   UNL A   1      44.246  25.261  37.682  1.00  0.00    -0.237 OA
ATOM     86  O   UNL A   1      45.663  23.840  36.271  1.00  0.00    -0.744 OA
ENDBRANCH  80  83
ENDBRANCH  53  76
ENDBRANCH  27  28
ENDBRANCH  20  22
ENDBRANCH  19  20
ENDBRANCH  18  19
ENDBRANCH   1  18
TORSDOF 17
ENDMDL
MODEL 3
REMARK VINA RESULT:     -10.5      5.254     10.165
REMARK SMILES CC1(C)CCN(C(=O)CC(C)(C)C(=O)OCCOC(=O)c2ccc(-c3c4nc(c(-c5cccc(S(=O)(=O)[O-])c5F)c5ccc([nH]5)c(-c5cccc(S(=O)(=O)[O-])c5F)c5nc(c(-c6cccc(S(=O)(=O)[O-])c6F)c6ccc3[nH]6)C=C5)C=C4)cc2)C1
REMARK SMILES IDX 16 1 15 2 13 3 14 4 10 5 11 6 12 7 9 8 7 9 8 10 6 11 1 12
REMARK SMILES IDX 2 13 3 14 4 15 84 16 5 17 17 18 18 19 19 20 20 21 21 22
REMARK SMILES IDX 22 23 83 24 23 25 82 26 24 27 25 28 26 29 76 30 27 31 81 32
REMARK SMILES IDX 75 33 77 34 28 35 80 36 74 37 73 38 29 40 61 41 41 42 60 43
REMARK SMILES IDX 42 44 45 45 59 46 78 47 43 48 44 49 58 51 79 52 46 53 30 54
REMARK SMILES IDX 31 55 39 56 32 57 34 58 40 59 33 60 35 61 36 62 37 63 38 64
REMARK SMILES IDX 62 65 63 66 71 67 64 68 66 69 72 70 65 71 67 72 68 73 69 74
REMARK SMILES IDX 70 75 47 76 48 77 56 78 49 79 51 80 57 81 50 82 52 83 53 84
REMARK SMILES IDX 54 85 55 86
REMARK H PARENT 77 39 45 50
REMARK Flexibility Score: inf
ROOT
ATOM      1  C   UNL A   1      31.577  29.789  24.726  1.00  0.00     0.274 C 
ENDROOT
BRANCH   1   2
ATOM      2  O   UNL A   1      31.738  28.368  24.908  1.00  0.00    -0.462 OA
BRANCH   2   3
ATOM      3  C   UNL A   1      30.798  27.564  24.333  1.00  0.00     0.312 C 
ATOM      4  O   UNL A   1      29.836  27.989  23.709  1.00  0.00    -0.252 OA
BRANCH   3   5
ATOM      5  C   UNL A   1      30.976  26.092  24.753  1.00  0.00     0.071 C 
ATOM      6  C   UNL A   1      30.592  25.287  23.499  1.00  0.00     0.024 C 
ATOM      7  C   UNL A   1      29.997  25.677  25.873  1.00  0.00     0.024 C 
BRANCH   5   8
ATOM      8  C   UNL A   1      32.415  25.729  25.232  1.00  0.00     0.118 C 
BRANCH   8   9
ATOM      9  C   UNL A   1      33.456  25.370  24.184  1.00  0.00     0.223 C 
ATOM     10  O   UNL A   1      33.682  26.151  23.259  1.00  0.00    -0.275 OA
BRANCH   9  11
ATOM     11  N   UNL A   1      34.127  24.182  24.306  1.00  0.00    -0.342 N 
ATOM     12  C   UNL A   1      34.578  22.566  26.820  1.00  0.00     0.013 C 
ATOM     13  C   UNL A   1      35.311  22.530  25.468  1.00  0.00    -0.016 C 
ATOM     14  C   UNL A   1      36.677  21.877  25.649  1.00  0.00     0.013 C 
ATOM     15  C   UNL A   1      34.448  21.837  24.395  1.00  0.00     0.030 C 
ATOM     16  C   UNL A   1      35.438  23.934  24.869  1.00  0.00     0.126 C 
ATOM     17  C   UNL A   1      33.477  22.929  23.942  1.00  0.00     0.120 C 
ENDBRANCH   9  11
ENDBRANCH   8   9
ENDBRANCH   5   8
ENDBRANCH   3   5
ENDBRANCH   2   3
ENDBRANCH   1   2
BRANCH   1  18
ATOM     18  C   UNL A   1      31.752  30.507  26.063  1.00  0.00     0.275 C 
BRANCH  18  19
ATOM     19  O   UNL A   1      33.134  30.471  26.457  1.00  0.00    -0.458 OA
BRANCH  19  20
ATOM     20  C   UNL A   1      33.558  31.532  27.175  1.00  0.00     0.338 C 
ATOM     21  O   UNL A   1      32.933  32.554  27.437  1.00  0.00    -0.246 OA
BRANCH  20  22
ATOM     22  C   UNL A   1      34.862  31.219  27.765  1.00  0.00     0.060 A 
ATOM     23  C   UNL A   1      35.076  29.911  28.190  1.00  0.00     0.016 A 
ATOM     24  C   UNL A   1      35.835  32.196  27.967  1.00  0.00     0.016 A 
ATOM     25  C   UNL A   1      36.253  29.562  28.841  1.00  0.00     0.010 A 
ATOM     26  C   UNL A   1      37.030  31.842  28.608  1.00  0.00     0.010 A 
ATOM     27  C   UNL A   1      37.239  30.526  29.063  1.00  0.00    -0.014 A 
BRANCH  27  28
ATOM     28  C   UNL A   1      38.446  30.167  29.843  1.00  0.00     0.031 A 
ATOM     29  C   UNL A   1      39.443  29.210  29.256  1.00  0.00     0.074 A 
ATOM     30  C   UNL A   1      38.668  30.715  31.053  1.00  0.00     0.049 A 
ATOM     31  N   UNL A   1      40.510  28.687  29.800  1.00  0.00    -0.248 NA
ATOM     32  C   UNL A   1      39.209  28.792  27.863  1.00  0.00     0.031 C 
ATOM     33  C   UNL A   1      37.816  31.712  31.701  1.00  0.00     0.029 A 
ATOM     34  N   UNL A   1      39.678  30.495  31.959  1.00  0.00    -0.354 N 
ATOM     35  C   UNL A   1      41.053  27.848  28.836  1.00  0.00     0.074 A 
ATOM     36  C   UNL A   1      40.200  27.933  27.670  1.00  0.00     0.031 C 
ATOM     37  C   UNL A   1      38.325  32.000  32.911  1.00  0.00     0.029 A 
ATOM     38  C   UNL A   1      39.513  31.182  33.139  1.00  0.00     0.049 A 
ATOM     39  H   UNL A   1      40.444  29.903  31.780  1.00  0.00     0.167 HD
ATOM     40  C   UNL A   1      42.166  27.082  28.913  1.00  0.00     0.034 A 
ATOM     41  C   UNL A   1      40.226  31.133  34.282  1.00  0.00     0.034 A 
ATOM     42  C   UNL A   1      43.031  27.025  30.059  1.00  0.00     0.049 A 
ATOM     43  C   UNL A   1      41.430  30.231  34.358  1.00  0.00     0.074 A 
ATOM     44  C   UNL A   1      44.183  26.277  30.231  1.00  0.00     0.029 A 
ATOM     45  N   UNL A   1      42.842  27.743  31.229  1.00  0.00    -0.354 N 
ATOM     46  N   UNL A   1      41.962  29.480  33.424  1.00  0.00    -0.248 NA
ATOM     47  C   UNL A   1      42.143  30.183  35.644  1.00  0.00     0.031 C 
ATOM     48  C   UNL A   1      44.684  26.535  31.513  1.00  0.00     0.029 A 
ATOM     49  C   UNL A   1      43.851  27.454  32.132  1.00  0.00     0.049 A 
ATOM     50  H   UNL A   1      42.098  28.367  31.395  1.00  0.00     0.167 HD
ATOM     51  C   UNL A   1      43.087  28.897  33.996  1.00  0.00     0.074 A 
ATOM     52  C   UNL A   1      43.174  29.400  35.353  1.00  0.00     0.031 C 
ATOM     53  C   UNL A   1      43.959  28.010  33.457  1.00  0.00     0.034 A 
BRANCH  40  54
ATOM     54  C   UNL A   1      42.517  26.252  27.710  1.00  0.00     0.023 A 
ATOM     55  C   UNL A   1      43.355  26.789  26.713  1.00  0.00     0.012 A 
ATOM     56  C   UNL A   1      42.045  24.932  27.583  1.00  0.00     0.148 A 
ATOM     57  C   UNL A   1      43.697  26.033  25.592  1.00  0.00     0.002 A 
ATOM     58  C   UNL A   1      42.420  24.171  26.481  1.00  0.00     0.091 A 
ATOM     59  F   UNL A   1      41.227  24.451  28.529  1.00  0.00    -0.205 F 
ATOM     60  C   UNL A   1      43.237  24.723  25.481  1.00  0.00     0.022 A 
BRANCH  58  61
ATOM     61  S   UNL A   1      41.929  22.455  26.284  1.00  0.00     0.127 S 
ATOM     62  O   UNL A   1      42.560  22.110  25.011  1.00  0.00    -0.237 OA
ATOM     63  O   UNL A   1      42.536  21.822  27.456  1.00  0.00    -0.237 OA
ATOM     64  O   UNL A   1      40.473  22.453  26.283  1.00  0.00    -0.744 OA
ENDBRANCH  58  61
ENDBRANCH  40  54
BRANCH  41  65
ATOM     65  C   UNL A   1      39.834  31.980  35.445  1.00  0.00     0.023 A 
ATOM     66  C   UNL A   1      40.385  33.269  35.578  1.00  0.00     0.012 A 
ATOM     67  C   UNL A   1      38.922  31.521  36.416  1.00  0.00     0.148 A 
ATOM     68  C   UNL A   1      40.058  34.074  36.670  1.00  0.00     0.002 A 
ATOM     69  C   UNL A   1      38.559  32.348  37.473  1.00  0.00     0.091 A 
ATOM     70  F   UNL A   1      38.428  30.280  36.289  1.00  0.00    -0.205 F 
ATOM     71  C   UNL A   1      39.138  33.619  37.611  1.00  0.00     0.022 A 
BRANCH  69  72
ATOM     72  S   UNL A   1      37.299  31.887  38.668  1.00  0.00     0.127 S 
ATOM     73  O   UNL A   1      37.085  30.478  38.349  1.00  0.00    -0.237 OA
ATOM     74  O   UNL A   1      37.981  32.133  39.939  1.00  0.00    -0.237 OA
ATOM     75  O   UNL A   1      36.173  32.774  38.412  1.00  0.00    -0.744 OA
ENDBRANCH  69  72
ENDBRANCH  41  65
BRANCH  53  76
ATOM     76  C   UNL A   1      45.102  27.540  34.317  1.00  0.00     0.023 A 
ATOM     77  C   UNL A   1      46.291  28.295  34.369  1.00  0.00     0.012 A 
ATOM     78  C   UNL A   1      44.972  26.399  35.135  1.00  0.00     0.148 A 
ATOM     79  C   UNL A   1      47.342  27.907  35.200  1.00  0.00     0.002 A 
ATOM     80  C   UNL A   1      46.006  26.044  35.993  1.00  0.00     0.091 A 
ATOM     81  F   UNL A   1      43.842  25.681  35.057  1.00  0.00    -0.205 F 
ATOM     82  C   UNL A   1      47.195  26.791  36.021  1.00  0.00     0.022 A 
BRANCH  80  83
ATOM     83  S   UNL A   1      45.864  24.677  37.151  1.00  0.00     0.127 S 
ATOM     84  O   UNL A   1      47.193  24.659  37.757  1.00  0.00    -0.237 OA
ATOM     85  O   UNL A   1      44.793  25.128  38.040  1.00  0.00    -0.237 OA
ATOM     86  O   UNL A   1      45.523  23.510  36.347  1.00  0.00    -0.744 OA
ENDBRANCH  80  83
ENDBRANCH  53  76
ENDBRANCH  27  28
ENDBRANCH  20  22
ENDBRANCH  19  20
ENDBRANCH  18  19
ENDBRANCH   1  18
TORSDOF 17
ENDMDL
