MODEL 1
REMARK VINA RESULT:     -12.3      0.000      0.000
REMARK SMILES CC(=O)NC(C)(C)C(=O)N1C[C@@H](C(=O)OCCOC(=O)c2ccc(-c3c4nc(c(-c5cccc(S(=O)(=O)[O-])c5F)c5ccc([nH]5)c(-c5cccc(S(=O)(=O)[O-])c5F)c5nc(c(-c6cccc(S(=O)(=O)[O-])c6F)c6ccc3[nH]6)C=C5)C=C4)cc2)[C@H](c2ccccc2C)C1
REMARK SMILES IDX 16 1 15 2 13 3 14 4 12 5 10 6 11 7 92 8 84 9 8 10 9 11 5 12
REMARK SMILES IDX 6 13 7 14 4 15 1 16 2 17 3 18 85 20 86 21 90 22 87 23 89 24
REMARK SMILES IDX 91 25 88 26 17 27 18 28 19 29 20 30 21 31 22 32 83 33 23 34
REMARK SMILES IDX 82 35 24 36 25 37 26 38 76 39 27 40 81 41 75 42 77 43 28 44
REMARK SMILES IDX 80 45 74 46 73 47 29 49 61 50 41 51 60 52 42 53 45 54 59 55
REMARK SMILES IDX 78 56 43 57 44 58 58 60 79 61 46 62 30 63 31 64 39 65 32 66
REMARK SMILES IDX 34 67 40 68 33 69 35 70 36 71 37 72 38 73 62 74 63 75 71 76
REMARK SMILES IDX 64 77 66 78 72 79 65 80 67 81 68 82 69 83 70 84 47 85 48 86
REMARK SMILES IDX 56 87 49 88 51 89 57 90 50 91 52 92 53 93 54 94 55 95
REMARK H PARENT 4 19 77 48 45 59
REMARK Flexibility Score: inf
ROOT
ATOM      1  C   UNL A   1      31.759  29.603  25.223  1.00  0.00     0.274 C 
ENDROOT
BRANCH   1   2
ATOM      2  O   UNL A   1      33.150  29.457  24.862  1.00  0.00    -0.462 OA
BRANCH   2   3
ATOM      3  C   UNL A   1      33.429  28.652  23.802  1.00  0.00     0.311 C 
ATOM      4  O   UNL A   1      34.195  28.935  22.889  1.00  0.00    -0.252 OA
BRANCH   3   5
ATOM      5  C   UNL A   1      32.649  27.361  23.870  1.00  0.00     0.128 C 
ATOM      6  N   UNL A   1      32.987  25.175  23.023  1.00  0.00    -0.339 N 
ATOM      7  C   UNL A   1      33.618  26.183  23.841  1.00  0.00     0.135 C 
ATOM      8  C   UNL A   1      32.186  25.848  22.012  1.00  0.00     0.128 C 
ATOM      9  C   UNL A   1      31.738  27.195  22.625  1.00  0.00     0.055 C 
BRANCH   6  10
ATOM     10  C   UNL A   1      33.386  23.862  22.806  1.00  0.00     0.247 C 
ATOM     11  O   UNL A   1      33.548  23.504  21.635  1.00  0.00    -0.272 OA
BRANCH  10  12
ATOM     12  C   UNL A   1      33.600  22.852  24.002  1.00  0.00     0.113 C 
ATOM     13  C   UNL A   1      35.128  22.673  24.180  1.00  0.00     0.045 C 
ATOM     14  C   UNL A   1      32.934  21.491  23.772  1.00  0.00     0.045 C 
BRANCH  12  15
ATOM     15  N   UNL A   1      33.163  23.366  25.343  1.00  0.00    -0.342 N 
ATOM     16  C   UNL A   1      30.663  23.451  25.339  1.00  0.00     0.114 C 
ATOM     17  C   UNL A   1      31.994  23.438  26.022  1.00  0.00     0.217 C 
ATOM     18  O   UNL A   1      32.074  23.584  27.246  1.00  0.00    -0.275 OA
ATOM     19  H   UNL A   1      33.914  23.745  25.856  1.00  0.00     0.164 HD
ENDBRANCH  12  15
ENDBRANCH  10  12
ENDBRANCH   6  10
BRANCH   9  20
ATOM     20  C   UNL A   1      30.256  27.380  22.979  1.00  0.00    -0.039 A 
ATOM     21  C   UNL A   1      29.542  26.386  23.673  1.00  0.00     0.004 A 
ATOM     22  C   UNL A   1      29.553  28.557  22.608  1.00  0.00    -0.048 A 
ATOM     23  C   UNL A   1      28.187  26.539  23.987  1.00  0.00     0.000 A 
ATOM     24  C   UNL A   1      28.202  28.713  22.977  1.00  0.00     0.004 A 
ATOM     25  C   UNL A   1      30.177  29.713  21.871  1.00  0.00     0.044 C 
ATOM     26  C   UNL A   1      27.520  27.707  23.648  1.00  0.00     0.000 A 
ENDBRANCH   9  20
ENDBRANCH   3   5
ENDBRANCH   2   3
ENDBRANCH   1   2
BRANCH   1  27
ATOM     27  C   UNL A   1      31.551  30.817  26.124  1.00  0.00     0.275 C 
BRANCH  27  28
ATOM     28  O   UNL A   1      32.484  30.782  27.215  1.00  0.00    -0.458 OA
BRANCH  28  29
ATOM     29  C   UNL A   1      33.194  31.917  27.390  1.00  0.00     0.338 C 
ATOM     30  O   UNL A   1      32.778  33.064  27.402  1.00  0.00    -0.246 OA
BRANCH  29  31
ATOM     31  C   UNL A   1      34.572  31.576  27.752  1.00  0.00     0.060 A 
ATOM     32  C   UNL A   1      34.840  30.242  28.043  1.00  0.00     0.016 A 
ATOM     33  C   UNL A   1      35.527  32.557  27.986  1.00  0.00     0.016 A 
ATOM     34  C   UNL A   1      36.003  29.896  28.718  1.00  0.00     0.010 A 
ATOM     35  C   UNL A   1      36.753  32.185  28.549  1.00  0.00     0.010 A 
ATOM     36  C   UNL A   1      36.983  30.862  28.979  1.00  0.00    -0.014 A 
BRANCH  36  37
ATOM     37  C   UNL A   1      38.215  30.512  29.741  1.00  0.00     0.031 A 
ATOM     38  C   UNL A   1      39.254  29.617  29.116  1.00  0.00     0.074 A 
ATOM     39  C   UNL A   1      38.410  30.978  30.993  1.00  0.00     0.049 A 
ATOM     40  N   UNL A   1      40.251  28.988  29.679  1.00  0.00    -0.248 NA
ATOM     41  C   UNL A   1      39.139  29.377  27.667  1.00  0.00     0.031 C 
ATOM     42  C   UNL A   1      37.512  31.879  31.716  1.00  0.00     0.029 A 
ATOM     43  N   UNL A   1      39.427  30.742  31.887  1.00  0.00    -0.354 N 
ATOM     44  C   UNL A   1      40.815  28.198  28.683  1.00  0.00     0.074 A 
ATOM     45  C   UNL A   1      40.065  28.448  27.471  1.00  0.00     0.031 C 
ATOM     46  C   UNL A   1      38.026  32.142  32.926  1.00  0.00     0.029 A 
ATOM     47  C   UNL A   1      39.238  31.352  33.106  1.00  0.00     0.049 A 
ATOM     48  H   UNL A   1      40.214  30.191  31.675  1.00  0.00     0.167 HD
ATOM     49  C   UNL A   1      41.863  27.345  28.771  1.00  0.00     0.034 A 
ATOM     50  C   UNL A   1      39.927  31.251  34.259  1.00  0.00     0.034 A 
ATOM     51  C   UNL A   1      42.672  27.185  29.949  1.00  0.00     0.049 A 
ATOM     52  C   UNL A   1      41.118  30.336  34.317  1.00  0.00     0.074 A 
ATOM     53  C   UNL A   1      43.778  26.373  30.131  1.00  0.00     0.029 A 
ATOM     54  N   UNL A   1      42.484  27.877  31.137  1.00  0.00    -0.354 N 
ATOM     55  N   UNL A   1      41.634  29.593  33.368  1.00  0.00    -0.248 NA
ATOM     56  C   UNL A   1      41.824  30.246  35.604  1.00  0.00     0.031 C 
ATOM     57  C   UNL A   1      44.261  26.578  31.429  1.00  0.00     0.029 A 
ATOM     58  C   UNL A   1      43.460  27.521  32.051  1.00  0.00     0.049 A 
ATOM     59  H   UNL A   1      41.763  28.527  31.304  1.00  0.00     0.167 HD
ATOM     60  C   UNL A   1      42.732  28.960  33.936  1.00  0.00     0.074 A 
ATOM     61  C   UNL A   1      42.825  29.430  35.303  1.00  0.00     0.031 C 
ATOM     62  C   UNL A   1      43.569  28.046  33.387  1.00  0.00     0.034 A 
BRANCH  49  63
ATOM     63  C   UNL A   1      42.212  26.531  27.554  1.00  0.00     0.023 A 
ATOM     64  C   UNL A   1      42.929  27.121  26.495  1.00  0.00     0.012 A 
ATOM     65  C   UNL A   1      41.875  25.164  27.483  1.00  0.00     0.148 A 
ATOM     66  C   UNL A   1      43.281  26.370  25.373  1.00  0.00     0.002 A 
ATOM     67  C   UNL A   1      42.264  24.413  26.380  1.00  0.00     0.091 A 
ATOM     68  F   UNL A   1      41.168  24.626  28.488  1.00  0.00    -0.205 F 
ATOM     69  C   UNL A   1      42.959  25.017  25.319  1.00  0.00     0.022 A 
BRANCH  67  70
ATOM     70  S   UNL A   1      41.954  22.647  26.260  1.00  0.00     0.127 S 
ATOM     71  O   UNL A   1      42.632  22.312  25.010  1.00  0.00    -0.237 OA
ATOM     72  O   UNL A   1      42.607  22.131  27.464  1.00  0.00    -0.237 OA
ATOM     73  O   UNL A   1      40.505  22.498  26.252  1.00  0.00    -0.744 OA
ENDBRANCH  67  70
ENDBRANCH  49  63
BRANCH  50  74
ATOM     74  C   UNL A   1      39.505  32.049  35.445  1.00  0.00     0.023 A 
ATOM     75  C   UNL A   1      38.616  31.482  36.377  1.00  0.00     0.012 A 
ATOM     76  C   UNL A   1      40.024  33.336  35.689  1.00  0.00     0.148 A 
ATOM     77  C   UNL A   1      38.242  32.187  37.523  1.00  0.00     0.002 A 
ATOM     78  C   UNL A   1      39.699  34.005  36.863  1.00  0.00     0.091 A 
ATOM     79  F   UNL A   1      40.848  33.875  34.778  1.00  0.00    -0.205 F 
ATOM     80  C   UNL A   1      38.796  33.440  37.775  1.00  0.00     0.022 A 
BRANCH  78  81
ATOM     81  S   UNL A   1      40.502  35.544  37.328  1.00  0.00     0.127 S 
ATOM     82  O   UNL A   1      39.847  36.505  36.447  1.00  0.00    -0.237 OA
ATOM     83  O   UNL A   1      40.147  35.665  38.744  1.00  0.00    -0.237 OA
ATOM     84  O   UNL A   1      41.923  35.320  37.093  1.00  0.00    -0.744 OA
ENDBRANCH  78  81
ENDBRANCH  50  74
BRANCH  62  85
ATOM     85  C   UNL A   1      44.673  27.508  34.256  1.00  0.00     0.023 A 
ATOM     86  C   UNL A   1      45.910  28.178  34.295  1.00  0.00     0.012 A 
ATOM     87  C   UNL A   1      44.461  26.389  35.085  1.00  0.00     0.148 A 
ATOM     88  C   UNL A   1      46.933  27.728  35.128  1.00  0.00     0.002 A 
ATOM     89  C   UNL A   1      45.473  25.970  35.942  1.00  0.00     0.091 A 
ATOM     90  F   UNL A   1      43.284  25.753  35.016  1.00  0.00    -0.205 F 
ATOM     91  C   UNL A   1      46.711  26.632  35.959  1.00  0.00     0.022 A 
BRANCH  89  92
ATOM     92  S   UNL A   1      45.239  24.620  37.106  1.00  0.00     0.127 S 
ATOM     93  O   UNL A   1      46.561  24.526  37.721  1.00  0.00    -0.237 OA
ATOM     94  O   UNL A   1      44.192  25.142  37.986  1.00  0.00    -0.237 OA
ATOM     95  O   UNL A   1      44.832  23.474  36.304  1.00  0.00    -0.744 OA
ENDBRANCH  89  92
ENDBRANCH  62  85
ENDBRANCH  36  37
ENDBRANCH  29  31
ENDBRANCH  28  29
ENDBRANCH  27  28
ENDBRANCH   1  27
TORSDOF 18
ENDMDL
MODEL 2
REMARK VINA RESULT:     -12.0      5.116      8.076
REMARK SMILES CC(=O)NC(C)(C)C(=O)N1C[C@@H](C(=O)OCCOC(=O)c2ccc(-c3c4nc(c(-c5cccc(S(=O)(=O)[O-])c5F)c5ccc([nH]5)c(-c5cccc(S(=O)(=O)[O-])c5F)c5nc(c(-c6cccc(S(=O)(=O)[O-])c6F)c6ccc3[nH]6)C=C5)C=C4)cc2)[C@H](c2ccccc2C)C1
REMARK SMILES IDX 16 1 15 2 13 3 14 4 12 5 10 6 11 7 92 8 84 9 8 10 9 11 5 12
REMARK SMILES IDX 6 13 7 14 4 15 1 16 2 17 3 18 85 20 86 21 90 22 87 23 89 24
REMARK SMILES IDX 91 25 88 26 17 27 18 28 19 29 20 30 21 31 22 32 83 33 23 34
REMARK SMILES IDX 82 35 24 36 25 37 26 38 76 39 27 40 81 41 75 42 77 43 28 44
REMARK SMILES IDX 80 45 74 46 73 47 29 49 61 50 41 51 60 52 42 53 45 54 59 55
REMARK SMILES IDX 78 56 43 57 44 58 58 60 79 61 46 62 30 63 31 64 39 65 32 66
REMARK SMILES IDX 34 67 40 68 33 69 35 70 36 71 37 72 38 73 62 74 63 75 71 76
REMARK SMILES IDX 64 77 66 78 72 79 65 80 67 81 68 82 69 83 70 84 47 85 48 86
REMARK SMILES IDX 56 87 49 88 51 89 57 90 50 91 52 92 53 93 54 94 55 95
REMARK H PARENT 4 19 77 48 45 59
REMARK Flexibility Score: inf
ROOT
ATOM      1  C   UNL A   1      35.944  20.828  25.076  1.00  0.00     0.274 C 
ENDROOT
BRANCH   1   2
ATOM      2  O   UNL A   1      35.822  21.461  26.369  1.00  0.00    -0.462 OA
BRANCH   2   3
ATOM      3  C   UNL A   1      34.567  21.790  26.775  1.00  0.00     0.311 C 
ATOM      4  O   UNL A   1      34.126  21.610  27.903  1.00  0.00    -0.252 OA
BRANCH   3   5
ATOM      5  C   UNL A   1      33.760  22.384  25.647  1.00  0.00     0.128 C 
ATOM      6  N   UNL A   1      32.097  24.065  25.506  1.00  0.00    -0.339 N 
ATOM      7  C   UNL A   1      33.448  23.844  25.962  1.00  0.00     0.135 C 
ATOM      8  C   UNL A   1      31.358  22.821  25.654  1.00  0.00     0.128 C 
ATOM      9  C   UNL A   1      32.386  21.675  25.510  1.00  0.00     0.055 C 
BRANCH   6  10
ATOM     10  C   UNL A   1      31.395  25.261  25.425  1.00  0.00     0.247 C 
ATOM     11  O   UNL A   1      30.218  25.257  25.801  1.00  0.00    -0.272 OA
BRANCH  10  12
ATOM     12  C   UNL A   1      32.060  26.576  24.851  1.00  0.00     0.113 C 
ATOM     13  C   UNL A   1      33.009  27.122  25.947  1.00  0.00     0.045 C 
ATOM     14  C   UNL A   1      31.039  27.648  24.456  1.00  0.00     0.045 C 
BRANCH  12  15
ATOM     15  N   UNL A   1      32.982  26.356  23.687  1.00  0.00    -0.342 N 
ATOM     16  C   UNL A   1      31.780  24.909  22.038  1.00  0.00     0.114 C 
ATOM     17  C   UNL A   1      32.860  25.866  22.431  1.00  0.00     0.217 C 
ATOM     18  O   UNL A   1      33.745  26.180  21.628  1.00  0.00    -0.275 OA
ATOM     19  H   UNL A   1      33.904  26.636  23.888  1.00  0.00     0.164 HD
ENDBRANCH  12  15
ENDBRANCH  10  12
ENDBRANCH   6  10
BRANCH   9  20
ATOM     20  C   UNL A   1      32.326  20.793  24.255  1.00  0.00    -0.039 A 
ATOM     21  C   UNL A   1      32.127  21.353  22.979  1.00  0.00     0.004 A 
ATOM     22  C   UNL A   1      32.458  19.382  24.341  1.00  0.00    -0.048 A 
ATOM     23  C   UNL A   1      32.056  20.556  21.832  1.00  0.00     0.000 A 
ATOM     24  C   UNL A   1      32.433  18.602  23.168  1.00  0.00     0.004 A 
ATOM     25  C   UNL A   1      32.683  18.634  25.629  1.00  0.00     0.044 C 
ATOM     26  C   UNL A   1      32.220  19.182  21.924  1.00  0.00     0.000 A 
ENDBRANCH   9  20
ENDBRANCH   3   5
ENDBRANCH   2   3
ENDBRANCH   1   2
BRANCH   1  27
ATOM     27  C   UNL A   1      37.266  20.075  24.957  1.00  0.00     0.275 C 
BRANCH  27  28
ATOM     28  O   UNL A   1      38.360  21.005  24.948  1.00  0.00    -0.458 OA
BRANCH  28  29
ATOM     29  C   UNL A   1      39.291  20.794  25.903  1.00  0.00     0.338 C 
ATOM     30  O   UNL A   1      39.875  19.754  26.160  1.00  0.00    -0.246 OA
BRANCH  29  31
ATOM     31  C   UNL A   1      39.658  22.074  26.514  1.00  0.00     0.060 A 
ATOM     32  C   UNL A   1      38.943  23.197  26.111  1.00  0.00     0.016 A 
ATOM     33  C   UNL A   1      40.789  22.203  27.311  1.00  0.00     0.016 A 
ATOM     34  C   UNL A   1      39.441  24.468  26.366  1.00  0.00     0.010 A 
ATOM     35  C   UNL A   1      41.215  23.485  27.676  1.00  0.00     0.010 A 
ATOM     36  C   UNL A   1      40.584  24.634  27.158  1.00  0.00    -0.014 A 
BRANCH  36  37
ATOM     37  C   UNL A   1      41.153  25.990  27.401  1.00  0.00     0.031 A 
ATOM     38  C   UNL A   1      42.532  26.325  26.894  1.00  0.00     0.074 A 
ATOM     39  C   UNL A   1      40.454  26.922  28.082  1.00  0.00     0.049 A 
ATOM     40  N   UNL A   1      43.309  27.328  27.209  1.00  0.00    -0.248 NA
ATOM     41  C   UNL A   1      43.128  25.392  25.921  1.00  0.00     0.031 C 
ATOM     42  C   UNL A   1      39.097  26.757  28.604  1.00  0.00     0.029 A 
ATOM     43  N   UNL A   1      40.799  28.196  28.466  1.00  0.00    -0.354 N 
ATOM     44  C   UNL A   1      44.517  27.092  26.562  1.00  0.00     0.074 A 
ATOM     45  C   UNL A   1      44.362  25.865  25.812  1.00  0.00     0.031 C 
ATOM     46  C   UNL A   1      38.714  27.888  29.214  1.00  0.00     0.029 A 
ATOM     47  C   UNL A   1      39.831  28.825  29.214  1.00  0.00     0.049 A 
ATOM     48  H   UNL A   1      41.656  28.618  28.227  1.00  0.00     0.167 HD
ATOM     49  C   UNL A   1      45.650  27.833  26.589  1.00  0.00     0.034 A 
ATOM     50  C   UNL A   1      39.851  29.999  29.875  1.00  0.00     0.034 A 
ATOM     51  C   UNL A   1      45.761  29.108  27.246  1.00  0.00     0.049 A 
ATOM     52  C   UNL A   1      41.103  30.829  29.847  1.00  0.00     0.074 A 
ATOM     53  C   UNL A   1      46.854  29.955  27.304  1.00  0.00     0.029 A 
ATOM     54  N   UNL A   1      44.732  29.736  27.932  1.00  0.00    -0.354 N 
ATOM     55  N   UNL A   1      42.237  30.589  29.234  1.00  0.00    -0.248 NA
ATOM     56  C   UNL A   1      41.080  32.091  30.600  1.00  0.00     0.031 C 
ATOM     57  C   UNL A   1      46.483  31.099  28.020  1.00  0.00     0.029 A 
ATOM     58  C   UNL A   1      45.159  30.964  28.404  1.00  0.00     0.049 A 
ATOM     59  H   UNL A   1      43.830  29.363  28.062  1.00  0.00     0.167 HD
ATOM     60  C   UNL A   1      43.057  31.675  29.514  1.00  0.00     0.074 A 
ATOM     61  C   UNL A   1      42.278  32.589  30.325  1.00  0.00     0.031 C 
ATOM     62  C   UNL A   1      44.348  31.884  29.159  1.00  0.00     0.034 A 
BRANCH  49  63
ATOM     63  C   UNL A   1      46.859  27.297  25.870  1.00  0.00     0.023 A 
ATOM     64  C   UNL A   1      47.698  26.361  26.505  1.00  0.00     0.012 A 
ATOM     65  C   UNL A   1      47.134  27.682  24.542  1.00  0.00     0.148 A 
ATOM     66  C   UNL A   1      48.807  25.838  25.839  1.00  0.00     0.002 A 
ATOM     67  C   UNL A   1      48.217  27.127  23.872  1.00  0.00     0.091 A 
ATOM     68  F   UNL A   1      46.340  28.596  23.962  1.00  0.00    -0.205 F 
ATOM     69  C   UNL A   1      49.060  26.211  24.522  1.00  0.00     0.022 A 
BRANCH  67  70
ATOM     70  S   UNL A   1      48.576  27.496  22.150  1.00  0.00     0.127 S 
ATOM     71  O   UNL A   1      47.390  28.253  21.756  1.00  0.00    -0.237 OA
ATOM     72  O   UNL A   1      49.801  28.290  22.247  1.00  0.00    -0.237 OA
ATOM     73  O   UNL A   1      48.746  26.205  21.495  1.00  0.00    -0.744 OA
ENDBRANCH  67  70
ENDBRANCH  49  63
BRANCH  50  74
ATOM     74  C   UNL A   1      38.635  30.455  30.607  1.00  0.00     0.023 A 
ATOM     75  C   UNL A   1      38.566  30.284  32.002  1.00  0.00     0.012 A 
ATOM     76  C   UNL A   1      37.579  31.111  29.945  1.00  0.00     0.148 A 
ATOM     77  C   UNL A   1      37.463  30.748  32.722  1.00  0.00     0.002 A 
ATOM     78  C   UNL A   1      36.515  31.627  30.675  1.00  0.00     0.091 A 
ATOM     79  F   UNL A   1      37.645  31.242  28.612  1.00  0.00    -0.205 F 
ATOM     80  C   UNL A   1      36.446  31.433  32.062  1.00  0.00     0.022 A 
BRANCH  78  81
ATOM     81  S   UNL A   1      35.257  32.661  29.913  1.00  0.00     0.127 S 
ATOM     82  O   UNL A   1      34.412  32.998  31.053  1.00  0.00    -0.237 OA
ATOM     83  O   UNL A   1      36.049  33.773  29.382  1.00  0.00    -0.237 OA
ATOM     84  O   UNL A   1      34.647  31.826  28.885  1.00  0.00    -0.744 OA
ENDBRANCH  78  81
ENDBRANCH  50  74
BRANCH  62  85
ATOM     85  C   UNL A   1      44.997  33.158  29.627  1.00  0.00     0.023 A 
ATOM     86  C   UNL A   1      45.709  33.165  30.842  1.00  0.00     0.012 A 
ATOM     87  C   UNL A   1      44.965  34.321  28.834  1.00  0.00     0.148 A 
ATOM     88  C   UNL A   1      46.359  34.319  31.275  1.00  0.00     0.002 A 
ATOM     89  C   UNL A   1      45.650  35.457  29.253  1.00  0.00     0.091 A 
ATOM     90  F   UNL A   1      44.264  34.299  27.692  1.00  0.00    -0.205 F 
ATOM     91  C   UNL A   1      46.340  35.460  30.476  1.00  0.00     0.022 A 
BRANCH  89  92
ATOM     92  S   UNL A   1      45.745  36.940  28.244  1.00  0.00     0.127 S 
ATOM     93  O   UNL A   1      44.345  37.137  27.871  1.00  0.00    -0.237 OA
ATOM     94  O   UNL A   1      46.269  37.929  29.188  1.00  0.00    -0.237 OA
ATOM     95  O   UNL A   1      46.651  36.616  27.150  1.00  0.00    -0.744 OA
ENDBRANCH  89  92
ENDBRANCH  62  85
ENDBRANCH  36  37
ENDBRANCH  29  31
ENDBRANCH  28  29
ENDBRANCH  27  28
ENDBRANCH   1  27
TORSDOF 18
ENDMDL
MODEL 3
REMARK VINA RESULT:     -11.9      5.092     10.136
REMARK SMILES CC(=O)NC(C)(C)C(=O)N1C[C@@H](C(=O)OCCOC(=O)c2ccc(-c3c4nc(c(-c5cccc(S(=O)(=O)[O-])c5F)c5ccc([nH]5)c(-c5cccc(S(=O)(=O)[O-])c5F)c5nc(c(-c6cccc(S(=O)(=O)[O-])c6F)c6ccc3[nH]6)C=C5)C=C4)cc2)[C@H](c2ccccc2C)C1
REMARK SMILES IDX 16 1 15 2 13 3 14 4 12 5 10 6 11 7 92 8 84 9 8 10 9 11 5 12
REMARK SMILES IDX 6 13 7 14 4 15 1 16 2 17 3 18 85 20 86 21 90 22 87 23 89 24
REMARK SMILES IDX 91 25 88 26 17 27 18 28 19 29 20 30 21 31 22 32 83 33 23 34
REMARK SMILES IDX 82 35 24 36 25 37 26 38 76 39 27 40 81 41 75 42 77 43 28 44
REMARK SMILES IDX 80 45 74 46 73 47 29 49 61 50 41 51 60 52 42 53 45 54 59 55
REMARK SMILES IDX 78 56 43 57 44 58 58 60 79 61 46 62 30 63 31 64 39 65 32 66
REMARK SMILES IDX 34 67 40 68 33 69 35 70 36 71 37 72 38 73 62 74 63 75 71 76
REMARK SMILES IDX 64 77 66 78 72 79 65 80 67 81 68 82 69 83 70 84 47 85 48 86
REMARK SMILES IDX 56 87 49 88 51 89 57 90 50 91 52 92 53 93 54 94 55 95
REMARK H PARENT 4 19 77 48 45 59
REMARK Flexibility Score: inf
ROOT
ATOM      1  C   UNL A   1      36.060  20.704  25.114  1.00  0.00     0.274 C 
ENDROOT
BRANCH   1   2
ATOM      2  O   UNL A   1      35.817  21.657  26.172  1.00  0.00    -0.462 OA
BRANCH   2   3
ATOM      3  C   UNL A   1      34.521  21.999  26.405  1.00  0.00     0.311 C 
ATOM      4  O   UNL A   1      33.986  22.003  27.506  1.00  0.00    -0.252 OA
BRANCH   3   5
ATOM      5  C   UNL A   1      33.803  22.348  25.124  1.00  0.00     0.128 C 
ATOM      6  N   UNL A   1      32.238  24.014  24.504  1.00  0.00    -0.339 N 
ATOM      7  C   UNL A   1      33.551  23.852  25.080  1.00  0.00     0.135 C 
ATOM      8  C   UNL A   1      31.430  22.866  24.887  1.00  0.00     0.128 C 
ATOM      9  C   UNL A   1      32.404  21.679  25.070  1.00  0.00     0.055 C 
BRANCH   6  10
ATOM     10  C   UNL A   1      31.603  25.185  24.111  1.00  0.00     0.247 C 
ATOM     11  O   UNL A   1      30.696  25.088  23.278  1.00  0.00    -0.272 OA
BRANCH  10  12
ATOM     12  C   UNL A   1      32.034  26.595  24.682  1.00  0.00     0.113 C 
ATOM     13  C   UNL A   1      31.069  27.645  24.080  1.00  0.00     0.045 C 
ATOM     14  C   UNL A   1      33.485  26.963  24.353  1.00  0.00     0.045 C 
BRANCH  12  15
ATOM     15  N   UNL A   1      31.832  26.761  26.160  1.00  0.00    -0.342 N 
ATOM     16  C   UNL A   1      32.928  28.907  26.832  1.00  0.00     0.114 C 
ATOM     17  C   UNL A   1      31.987  27.766  27.054  1.00  0.00     0.217 C 
ATOM     18  O   UNL A   1      31.373  27.656  28.120  1.00  0.00    -0.275 OA
ATOM     19  H   UNL A   1      31.508  25.934  26.584  1.00  0.00     0.164 HD
ENDBRANCH  12  15
ENDBRANCH  10  12
ENDBRANCH   6  10
BRANCH   9  20
ATOM     20  C   UNL A   1      32.362  20.536  24.048  1.00  0.00    -0.039 A 
ATOM     21  C   UNL A   1      32.115  20.784  22.684  1.00  0.00     0.004 A 
ATOM     22  C   UNL A   1      32.560  19.187  24.444  1.00  0.00    -0.048 A 
ATOM     23  C   UNL A   1      32.060  19.747  21.747  1.00  0.00     0.000 A 
ATOM     24  C   UNL A   1      32.549  18.162  23.477  1.00  0.00     0.004 A 
ATOM     25  C   UNL A   1      32.842  18.759  25.861  1.00  0.00     0.044 C 
ATOM     26  C   UNL A   1      32.288  18.437  22.141  1.00  0.00     0.000 A 
ENDBRANCH   9  20
ENDBRANCH   3   5
ENDBRANCH   2   3
ENDBRANCH   1   2
BRANCH   1  27
ATOM     27  C   UNL A   1      37.543  20.644  24.760  1.00  0.00     0.275 C 
BRANCH  27  28
ATOM     28  O   UNL A   1      38.232  21.756  25.351  1.00  0.00    -0.458 OA
BRANCH  28  29
ATOM     29  C   UNL A   1      39.284  21.422  26.129  1.00  0.00     0.338 C 
ATOM     30  O   UNL A   1      39.895  20.367  26.148  1.00  0.00    -0.246 OA
BRANCH  29  31
ATOM     31  C   UNL A   1      39.734  22.605  26.869  1.00  0.00     0.060 A 
ATOM     32  C   UNL A   1      39.162  23.824  26.525  1.00  0.00     0.016 A 
ATOM     33  C   UNL A   1      40.818  22.551  27.737  1.00  0.00     0.016 A 
ATOM     34  C   UNL A   1      39.764  25.013  26.917  1.00  0.00     0.010 A 
ATOM     35  C   UNL A   1      41.343  23.749  28.235  1.00  0.00     0.010 A 
ATOM     36  C   UNL A   1      40.863  24.995  27.784  1.00  0.00    -0.014 A 
BRANCH  36  37
ATOM     37  C   UNL A   1      41.546  26.261  28.176  1.00  0.00     0.031 A 
ATOM     38  C   UNL A   1      40.792  27.307  28.955  1.00  0.00     0.074 A 
ATOM     39  C   UNL A   1      42.830  26.489  27.833  1.00  0.00     0.049 A 
ATOM     40  N   UNL A   1      41.098  28.560  29.170  1.00  0.00    -0.248 NA
ATOM     41  C   UNL A   1      39.507  26.898  29.550  1.00  0.00     0.031 C 
ATOM     42  C   UNL A   1      43.698  25.558  27.110  1.00  0.00     0.029 A 
ATOM     43  N   UNL A   1      43.628  27.590  28.036  1.00  0.00    -0.354 N 
ATOM     44  C   UNL A   1      40.004  29.112  29.827  1.00  0.00     0.074 A 
ATOM     45  C   UNL A   1      39.036  28.052  30.002  1.00  0.00     0.031 C 
ATOM     46  C   UNL A   1      44.910  26.111  26.954  1.00  0.00     0.029 A 
ATOM     47  C   UNL A   1      44.880  27.471  27.474  1.00  0.00     0.049 A 
ATOM     48  H   UNL A   1      43.333  28.386  28.535  1.00  0.00     0.167 HD
ATOM     49  C   UNL A   1      39.826  30.387  30.249  1.00  0.00     0.034 A 
ATOM     50  C   UNL A   1      45.875  28.370  27.342  1.00  0.00     0.034 A 
ATOM     51  C   UNL A   1      40.836  31.408  30.172  1.00  0.00     0.049 A 
ATOM     52  C   UNL A   1      45.673  29.763  27.864  1.00  0.00     0.074 A 
ATOM     53  C   UNL A   1      40.768  32.721  30.603  1.00  0.00     0.029 A 
ATOM     54  N   UNL A   1      42.111  31.221  29.660  1.00  0.00    -0.354 N 
ATOM     55  N   UNL A   1      44.631  30.271  28.479  1.00  0.00    -0.248 NA
ATOM     56  C   UNL A   1      46.782  30.710  27.678  1.00  0.00     0.031 C 
ATOM     57  C   UNL A   1      42.005  33.327  30.355  1.00  0.00     0.029 A 
ATOM     58  C   UNL A   1      42.843  32.389  29.775  1.00  0.00     0.049 A 
ATOM     59  H   UNL A   1      42.446  30.379  29.272  1.00  0.00     0.167 HD
ATOM     60  C   UNL A   1      44.963  31.588  28.765  1.00  0.00     0.074 A 
ATOM     61  C   UNL A   1      46.315  31.793  28.286  1.00  0.00     0.031 C 
ATOM     62  C   UNL A   1      44.207  32.553  29.344  1.00  0.00     0.034 A 
BRANCH  49  63
ATOM     63  C   UNL A   1      38.495  30.748  30.853  1.00  0.00     0.023 A 
ATOM     64  C   UNL A   1      38.240  30.471  32.209  1.00  0.00     0.012 A 
ATOM     65  C   UNL A   1      37.515  31.413  30.087  1.00  0.00     0.148 A 
ATOM     66  C   UNL A   1      37.020  30.824  32.788  1.00  0.00     0.002 A 
ATOM     67  C   UNL A   1      36.319  31.797  30.680  1.00  0.00     0.091 A 
ATOM     68  F   UNL A   1      37.765  31.644  28.790  1.00  0.00    -0.205 F 
ATOM     69  C   UNL A   1      36.065  31.496  32.028  1.00  0.00     0.022 A 
BRANCH  67  70
ATOM     70  S   UNL A   1      35.062  32.730  29.796  1.00  0.00     0.127 S 
ATOM     71  O   UNL A   1      35.843  33.844  29.262  1.00  0.00    -0.237 OA
ATOM     72  O   UNL A   1      34.607  31.769  28.791  1.00  0.00    -0.237 OA
ATOM     73  O   UNL A   1      34.058  33.083  30.790  1.00  0.00    -0.744 OA
ENDBRANCH  67  70
ENDBRANCH  49  63
BRANCH  50  74
ATOM     74  C   UNL A   1      47.155  27.963  26.694  1.00  0.00     0.023 A 
ATOM     75  C   UNL A   1      48.223  27.518  27.494  1.00  0.00     0.012 A 
ATOM     76  C   UNL A   1      47.299  27.953  25.292  1.00  0.00     0.148 A 
ATOM     77  C   UNL A   1      49.414  27.083  26.912  1.00  0.00     0.002 A 
ATOM     78  C   UNL A   1      48.463  27.458  24.717  1.00  0.00     0.091 A 
ATOM     79  F   UNL A   1      46.283  28.407  24.543  1.00  0.00    -0.205 F 
ATOM     80  C   UNL A   1      49.530  27.037  25.525  1.00  0.00     0.022 A 
BRANCH  78  81
ATOM     81  S   UNL A   1      48.614  27.216  22.942  1.00  0.00     0.127 S 
ATOM     82  O   UNL A   1      48.234  25.815  22.795  1.00  0.00    -0.237 OA
ATOM     83  O   UNL A   1      47.644  28.177  22.415  1.00  0.00    -0.237 OA
ATOM     84  O   UNL A   1      50.000  27.543  22.629  1.00  0.00    -0.744 OA
ENDBRANCH  78  81
ENDBRANCH  50  74
BRANCH  62  85
ATOM     85  C   UNL A   1      44.829  33.913  29.511  1.00  0.00     0.023 A 
ATOM     86  C   UNL A   1      45.532  34.210  30.694  1.00  0.00     0.012 A 
ATOM     87  C   UNL A   1      44.779  34.863  28.473  1.00  0.00     0.148 A 
ATOM     88  C   UNL A   1      46.158  35.445  30.853  1.00  0.00     0.002 A 
ATOM     89  C   UNL A   1      45.439  36.078  28.624  1.00  0.00     0.091 A 
ATOM     90  F   UNL A   1      44.086  34.568  27.365  1.00  0.00    -0.205 F 
ATOM     91  C   UNL A   1      46.121  36.374  29.815  1.00  0.00     0.022 A 
BRANCH  89  92
ATOM     92  S   UNL A   1      45.513  37.295  27.303  1.00  0.00     0.127 S 
ATOM     93  O   UNL A   1      46.258  38.379  27.939  1.00  0.00    -0.237 OA
ATOM     94  O   UNL A   1      46.248  36.580  26.259  1.00  0.00    -0.237 OA
ATOM     95  O   UNL A   1      44.128  37.594  26.965  1.00  0.00    -0.744 OA
ENDBRANCH  89  92
ENDBRANCH  62  85
ENDBRANCH  36  37
ENDBRANCH  29  31
ENDBRANCH  28  29
ENDBRANCH  27  28
ENDBRANCH   1  27
TORSDOF 18
ENDMDL
