MODEL 1
REMARK VINA RESULT:     -13.3      0.000      0.000
REMARK SMILES O=C(OCCOC(=O)c1cccc(CN2C(=O)S/C(=C/c3ccc(Cl)cc3)C2=O)c1)c1ccc(-c2c3nc(c(-c4cccc(S(=O)(=O)[O-])c4F)c4ccc([nH]4)c(-c4cccc(S(=O)(=O)[O-])c4F)c4nc(c(-c5cccc(S(=O)(=O)[O-])c5F)c5ccc2[nH]5)C=C4)C=C3)cc1
REMARK SMILES IDX 4 1 3 2 2 3 1 4 31 5 32 6 93 7 33 8 92 9 34 10 35 11 36 12
REMARK SMILES IDX 86 13 37 14 91 15 85 16 87 17 38 18 90 19 84 20 83 21 39 23
REMARK SMILES IDX 71 24 51 25 70 26 52 27 55 28 69 29 88 30 53 31 54 32 68 34
REMARK SMILES IDX 89 35 56 36 40 37 41 38 49 39 42 40 44 41 50 42 43 43 45 44
REMARK SMILES IDX 46 45 47 46 48 47 72 48 73 49 81 50 74 51 76 52 82 53 75 54
REMARK SMILES IDX 77 55 78 56 79 57 80 58 57 59 58 60 66 61 59 62 61 63 67 64
REMARK SMILES IDX 60 65 62 66 63 67 64 68 65 69 5 70 6 71 7 72 8 73 9 74 10 75
REMARK SMILES IDX 30 76 11 77 13 78 12 79 14 80 15 81 16 82 28 83 17 84 18 85
REMARK SMILES IDX 19 86 29 87 20 88 21 89 22 90 27 91 23 92 26 93 24 94 25 95
REMARK H PARENT 87 22 55 33
REMARK Flexibility Score: inf
ROOT
ATOM      1  C   UNL A   1      43.141  21.173  25.804  1.00  0.00     0.275 C 
ENDROOT
BRANCH   1   2
ATOM      2  O   UNL A   1      42.683  22.353  25.128  1.00  0.00    -0.458 OA
BRANCH   2   3
ATOM      3  C   UNL A   1      43.225  23.595  25.113  1.00  0.00     0.338 C 
ATOM      4  O   UNL A   1      44.193  23.795  24.380  1.00  0.00    -0.246 OA
BRANCH   3   5
ATOM      5  C   UNL A   1      42.809  24.695  26.045  1.00  0.00     0.060 A 
ATOM      6  C   UNL A   1      43.262  26.020  26.030  1.00  0.00     0.016 A 
ATOM      7  C   UNL A   1      41.836  24.356  27.000  1.00  0.00     0.016 A 
ATOM      8  C   UNL A   1      42.714  26.995  26.868  1.00  0.00     0.010 A 
ATOM      9  C   UNL A   1      41.272  25.326  27.831  1.00  0.00     0.010 A 
ATOM     10  C   UNL A   1      41.717  26.655  27.773  1.00  0.00    -0.014 A 
BRANCH  10  11
ATOM     11  C   UNL A   1      41.311  27.602  28.831  1.00  0.00     0.031 A 
ATOM     12  C   UNL A   1      42.080  27.542  30.115  1.00  0.00     0.074 A 
ATOM     13  C   UNL A   1      40.314  28.491  28.677  1.00  0.00     0.049 A 
ATOM     14  N   UNL A   1      41.844  28.147  31.243  1.00  0.00    -0.248 NA
ATOM     15  C   UNL A   1      43.301  26.714  30.108  1.00  0.00     0.031 C 
ATOM     16  C   UNL A   1      39.613  28.791  27.432  1.00  0.00     0.029 A 
ATOM     17  N   UNL A   1      39.661  29.258  29.611  1.00  0.00    -0.354 N 
ATOM     18  C   UNL A   1      42.895  27.790  32.073  1.00  0.00     0.074 A 
ATOM     19  C   UNL A   1      43.722  26.851  31.352  1.00  0.00     0.031 C 
ATOM     20  C   UNL A   1      38.532  29.547  27.706  1.00  0.00     0.029 A 
ATOM     21  C   UNL A   1      38.470  29.768  29.141  1.00  0.00     0.049 A 
ATOM     22  H   UNL A   1      40.006  29.425  30.518  1.00  0.00     0.167 HD
ATOM     23  C   UNL A   1      43.176  28.254  33.309  1.00  0.00     0.034 A 
ATOM     24  C   UNL A   1      37.430  30.290  29.816  1.00  0.00     0.034 A 
ATOM     25  C   UNL A   1      42.331  29.174  34.008  1.00  0.00     0.049 A 
ATOM     26  C   UNL A   1      37.614  30.582  31.277  1.00  0.00     0.074 A 
ATOM     27  C   UNL A   1      42.520  29.751  35.247  1.00  0.00     0.029 A 
ATOM     28  N   UNL A   1      41.108  29.623  33.531  1.00  0.00    -0.354 N 
ATOM     29  N   UNL A   1      38.647  30.312  32.037  1.00  0.00    -0.248 NA
ATOM     30  C   UNL A   1      36.550  31.344  31.942  1.00  0.00     0.031 C 
ATOM     31  C   UNL A   1      41.380  30.505  35.545  1.00  0.00     0.029 A 
ATOM     32  C   UNL A   1      40.511  30.446  34.464  1.00  0.00     0.049 A 
ATOM     33  H   UNL A   1      40.723  29.388  32.656  1.00  0.00     0.167 HD
ATOM     34  C   UNL A   1      38.413  30.971  33.236  1.00  0.00     0.074 A 
ATOM     35  C   UNL A   1      37.108  31.593  33.122  1.00  0.00     0.031 C 
ATOM     36  C   UNL A   1      39.233  31.093  34.306  1.00  0.00     0.034 A 
BRANCH  23  37
ATOM     37  C   UNL A   1      44.439  27.750  33.946  1.00  0.00     0.023 A 
ATOM     38  C   UNL A   1      45.657  28.434  33.741  1.00  0.00     0.012 A 
ATOM     39  C   UNL A   1      44.429  26.562  34.696  1.00  0.00     0.148 A 
ATOM     40  C   UNL A   1      46.856  27.906  34.216  1.00  0.00     0.002 A 
ATOM     41  C   UNL A   1      45.620  26.070  35.212  1.00  0.00     0.091 A 
ATOM     42  F   UNL A   1      43.266  25.914  34.852  1.00  0.00    -0.205 F 
ATOM     43  C   UNL A   1      46.835  26.727  34.956  1.00  0.00     0.022 A 
BRANCH  41  44
ATOM     44  S   UNL A   1      45.687  24.597  36.234  1.00  0.00     0.127 S 
ATOM     45  O   UNL A   1      47.007  24.725  36.849  1.00  0.00    -0.237 OA
ATOM     46  O   UNL A   1      44.565  24.811  37.147  1.00  0.00    -0.237 OA
ATOM     47  O   UNL A   1      45.525  23.470  35.325  1.00  0.00    -0.744 OA
ENDBRANCH  41  44
ENDBRANCH  23  37
BRANCH  24  48
ATOM     48  C   UNL A   1      36.136  30.586  29.144  1.00  0.00     0.023 A 
ATOM     49  C   UNL A   1      35.459  29.585  28.428  1.00  0.00     0.012 A 
ATOM     50  C   UNL A   1      35.618  31.895  29.153  1.00  0.00     0.148 A 
ATOM     51  C   UNL A   1      34.293  29.885  27.719  1.00  0.00     0.002 A 
ATOM     52  C   UNL A   1      34.471  32.194  28.421  1.00  0.00     0.091 A 
ATOM     53  F   UNL A   1      36.275  32.831  29.853  1.00  0.00    -0.205 F 
ATOM     54  C   UNL A   1      33.800  31.188  27.711  1.00  0.00     0.022 A 
BRANCH  52  55
ATOM     55  S   UNL A   1      33.826  33.863  28.299  1.00  0.00     0.127 S 
ATOM     56  O   UNL A   1      32.572  33.650  27.584  1.00  0.00    -0.237 OA
ATOM     57  O   UNL A   1      33.673  34.246  29.702  1.00  0.00    -0.237 OA
ATOM     58  O   UNL A   1      34.854  34.605  27.586  1.00  0.00    -0.744 OA
ENDBRANCH  52  55
ENDBRANCH  24  48
BRANCH  36  59
ATOM     59  C   UNL A   1      38.815  32.025  35.406  1.00  0.00     0.023 A 
ATOM     60  C   UNL A   1      38.011  31.574  36.466  1.00  0.00     0.012 A 
ATOM     61  C   UNL A   1      39.356  33.327  35.439  1.00  0.00     0.148 A 
ATOM     62  C   UNL A   1      37.743  32.413  37.547  1.00  0.00     0.002 A 
ATOM     63  C   UNL A   1      39.137  34.132  36.546  1.00  0.00     0.091 A 
ATOM     64  F   UNL A   1      40.098  33.737  34.401  1.00  0.00    -0.205 F 
ATOM     65  C   UNL A   1      38.321  33.682  37.596  1.00  0.00     0.022 A 
BRANCH  63  66
ATOM     66  S   UNL A   1      39.944  35.723  36.749  1.00  0.00     0.127 S 
ATOM     67  O   UNL A   1      39.465  36.452  35.575  1.00  0.00    -0.237 OA
ATOM     68  O   UNL A   1      39.394  36.185  38.022  1.00  0.00    -0.237 OA
ATOM     69  O   UNL A   1      41.376  35.454  36.768  1.00  0.00    -0.744 OA
ENDBRANCH  63  66
ENDBRANCH  36  59
ENDBRANCH  10  11
ENDBRANCH   3   5
ENDBRANCH   2   3
ENDBRANCH   1   2
BRANCH   1  70
ATOM     70  C   UNL A   1      42.036  20.152  26.119  1.00  0.00     0.275 C 
BRANCH  70  71
ATOM     71  O   UNL A   1      40.788  20.751  26.516  1.00  0.00    -0.458 OA
BRANCH  71  72
ATOM     72  C   UNL A   1      39.697  20.341  25.816  1.00  0.00     0.338 C 
ATOM     73  O   UNL A   1      39.422  19.187  25.525  1.00  0.00    -0.246 OA
BRANCH  72  74
ATOM     74  C   UNL A   1      38.752  21.467  25.628  1.00  0.00     0.060 A 
ATOM     75  C   UNL A   1      38.958  22.595  26.433  1.00  0.00     0.016 A 
ATOM     76  C   UNL A   1      37.707  21.451  24.692  1.00  0.00     0.021 A 
ATOM     77  C   UNL A   1      38.179  23.734  26.256  1.00  0.00     0.001 A 
ATOM     78  C   UNL A   1      36.885  22.590  24.547  1.00  0.00    -0.027 A 
ATOM     79  C   UNL A   1      37.163  23.735  25.307  1.00  0.00     0.005 A 
BRANCH  78  80
ATOM     80  C   UNL A   1      35.683  22.616  23.621  1.00  0.00     0.165 C 
BRANCH  80  81
ATOM     81  N   UNL A   1      34.432  22.501  24.330  1.00  0.00    -0.264 N 
ATOM     82  C   UNL A   1      33.963  21.310  24.806  1.00  0.00     0.293 C 
ATOM     83  C   UNL A   1      33.671  23.619  24.570  1.00  0.00     0.268 C 
ATOM     84  O   UNL A   1      34.504  20.213  24.727  1.00  0.00    -0.261 OA
ATOM     85  S   UNL A   1      32.323  21.516  25.401  1.00  0.00    -0.022 SA
ATOM     86  C   UNL A   1      32.397  23.235  25.237  1.00  0.00     0.083 C 
ATOM     87  O   UNL A   1      33.979  24.755  24.227  1.00  0.00    -0.268 OA
ATOM     88  C   UNL A   1      31.419  24.052  25.651  1.00  0.00     0.029 C 
BRANCH  88  89
ATOM     89  C   UNL A   1      31.425  25.510  25.512  1.00  0.00    -0.024 A 
ATOM     90  C   UNL A   1      31.052  26.091  24.296  1.00  0.00     0.009 A 
ATOM     91  C   UNL A   1      31.781  26.333  26.588  1.00  0.00     0.009 A 
ATOM     92  C   UNL A   1      31.001  27.481  24.165  1.00  0.00     0.021 A 
ATOM     93  C   UNL A   1      31.719  27.723  26.462  1.00  0.00     0.021 A 
ATOM     94  C   UNL A   1      31.327  28.290  25.252  1.00  0.00     0.041 A 
ATOM     95  Cl  UNL A   1      31.242  30.003  25.102  1.00  0.00    -0.084 Cl
ENDBRANCH  88  89
ENDBRANCH  80  81
ENDBRANCH  78  80
ENDBRANCH  72  74
ENDBRANCH  71  72
ENDBRANCH  70  71
ENDBRANCH   1  70
TORSDOF 17
ENDMDL
MODEL 2
REMARK VINA RESULT:     -12.6      3.423      9.491
REMARK SMILES O=C(OCCOC(=O)c1cccc(CN2C(=O)S/C(=C/c3ccc(Cl)cc3)C2=O)c1)c1ccc(-c2c3nc(c(-c4cccc(S(=O)(=O)[O-])c4F)c4ccc([nH]4)c(-c4cccc(S(=O)(=O)[O-])c4F)c4nc(c(-c5cccc(S(=O)(=O)[O-])c5F)c5ccc2[nH]5)C=C4)C=C3)cc1
REMARK SMILES IDX 4 1 3 2 2 3 1 4 31 5 32 6 93 7 33 8 92 9 34 10 35 11 36 12
REMARK SMILES IDX 86 13 37 14 91 15 85 16 87 17 38 18 90 19 84 20 83 21 39 23
REMARK SMILES IDX 71 24 51 25 70 26 52 27 55 28 69 29 88 30 53 31 54 32 68 34
REMARK SMILES IDX 89 35 56 36 40 37 41 38 49 39 42 40 44 41 50 42 43 43 45 44
REMARK SMILES IDX 46 45 47 46 48 47 72 48 73 49 81 50 74 51 76 52 82 53 75 54
REMARK SMILES IDX 77 55 78 56 79 57 80 58 57 59 58 60 66 61 59 62 61 63 67 64
REMARK SMILES IDX 60 65 62 66 63 67 64 68 65 69 5 70 6 71 7 72 8 73 9 74 10 75
REMARK SMILES IDX 30 76 11 77 13 78 12 79 14 80 15 81 16 82 28 83 17 84 18 85
REMARK SMILES IDX 19 86 29 87 20 88 21 89 22 90 27 91 23 92 26 93 24 94 25 95
REMARK H PARENT 87 22 55 33
REMARK Flexibility Score: inf
ROOT
ATOM      1  C   UNL A   1      32.603  35.834  28.849  1.00  0.00     0.275 C 
ENDROOT
BRANCH   1   2
ATOM      2  O   UNL A   1      32.781  36.457  30.130  1.00  0.00    -0.458 OA
BRANCH   2   3
ATOM      3  C   UNL A   1      32.751  35.898  31.363  1.00  0.00     0.338 C 
ATOM      4  O   UNL A   1      31.901  36.296  32.160  1.00  0.00    -0.246 OA
BRANCH   3   5
ATOM      5  C   UNL A   1      33.784  34.930  31.863  1.00  0.00     0.060 A 
ATOM      6  C   UNL A   1      33.594  33.922  32.817  1.00  0.00     0.016 A 
ATOM      7  C   UNL A   1      35.055  35.032  31.276  1.00  0.00     0.016 A 
ATOM      8  C   UNL A   1      34.595  32.996  33.119  1.00  0.00     0.010 A 
ATOM      9  C   UNL A   1      36.057  34.101  31.559  1.00  0.00     0.010 A 
ATOM     10  C   UNL A   1      35.832  33.079  32.493  1.00  0.00    -0.014 A 
BRANCH  10  11
ATOM     11  C   UNL A   1      36.973  32.277  32.980  1.00  0.00     0.031 A 
ATOM     12  C   UNL A   1      37.732  32.831  34.145  1.00  0.00     0.074 A 
ATOM     13  C   UNL A   1      37.330  31.101  32.432  1.00  0.00     0.049 A 
ATOM     14  N   UNL A   1      38.847  32.415  34.673  1.00  0.00    -0.248 NA
ATOM     15  C   UNL A   1      37.128  33.991  34.828  1.00  0.00     0.031 C 
ATOM     16  C   UNL A   1      36.577  30.355  31.429  1.00  0.00     0.029 A 
ATOM     17  N   UNL A   1      38.477  30.363  32.595  1.00  0.00    -0.354 N 
ATOM     18  C   UNL A   1      39.067  33.246  35.759  1.00  0.00     0.074 A 
ATOM     19  C   UNL A   1      38.022  34.242  35.767  1.00  0.00     0.031 C 
ATOM     20  C   UNL A   1      37.348  29.359  30.950  1.00  0.00     0.029 A 
ATOM     21  C   UNL A   1      38.642  29.414  31.609  1.00  0.00     0.049 A 
ATOM     22  H   UNL A   1      39.112  30.497  33.335  1.00  0.00     0.167 HD
ATOM     23  C   UNL A   1      40.028  33.148  36.703  1.00  0.00     0.034 A 
ATOM     24  C   UNL A   1      39.741  28.727  31.249  1.00  0.00     0.034 A 
ATOM     25  C   UNL A   1      41.062  32.160  36.664  1.00  0.00     0.049 A 
ATOM     26  C   UNL A   1      40.943  28.801  32.148  1.00  0.00     0.074 A 
ATOM     27  C   UNL A   1      42.072  31.928  37.576  1.00  0.00     0.029 A 
ATOM     28  N   UNL A   1      41.237  31.256  35.625  1.00  0.00    -0.354 N 
ATOM     29  N   UNL A   1      41.112  29.533  33.222  1.00  0.00    -0.248 NA
ATOM     30  C   UNL A   1      42.049  27.882  31.856  1.00  0.00     0.031 C 
ATOM     31  C   UNL A   1      42.892  30.920  37.058  1.00  0.00     0.029 A 
ATOM     32  C   UNL A   1      42.356  30.484  35.854  1.00  0.00     0.049 A 
ATOM     33  H   UNL A   1      40.647  31.179  34.840  1.00  0.00     0.167 HD
ATOM     34  C   UNL A   1      42.289  29.081  33.802  1.00  0.00     0.074 A 
ATOM     35  C   UNL A   1      42.824  28.061  32.920  1.00  0.00     0.031 C 
ATOM     36  C   UNL A   1      42.840  29.441  34.985  1.00  0.00     0.034 A 
BRANCH  23  37
ATOM     37  C   UNL A   1      39.975  34.147  37.823  1.00  0.00     0.023 A 
ATOM     38  C   UNL A   1      40.655  35.379  37.705  1.00  0.00     0.012 A 
ATOM     39  C   UNL A   1      39.303  33.839  39.017  1.00  0.00     0.148 A 
ATOM     40  C   UNL A   1      40.723  36.258  38.784  1.00  0.00     0.002 A 
ATOM     41  C   UNL A   1      39.329  34.744  40.070  1.00  0.00     0.091 A 
ATOM     42  F   UNL A   1      38.689  32.651  39.118  1.00  0.00    -0.205 F 
ATOM     43  C   UNL A   1      40.055  35.942  39.964  1.00  0.00     0.022 A 
BRANCH  41  44
ATOM     44  S   UNL A   1      38.445  34.457  41.604  1.00  0.00     0.127 S 
ATOM     45  O   UNL A   1      37.185  33.897  41.117  1.00  0.00    -0.237 OA
ATOM     46  O   UNL A   1      39.317  33.500  42.283  1.00  0.00    -0.237 OA
ATOM     47  O   UNL A   1      38.343  35.756  42.257  1.00  0.00    -0.744 OA
ENDBRANCH  41  44
ENDBRANCH  23  37
BRANCH  24  48
ATOM     48  C   UNL A   1      39.775  27.905  30.011  1.00  0.00     0.023 A 
ATOM     49  C   UNL A   1      39.147  26.649  29.972  1.00  0.00     0.012 A 
ATOM     50  C   UNL A   1      40.506  28.343  28.891  1.00  0.00     0.148 A 
ATOM     51  C   UNL A   1      39.258  25.835  28.841  1.00  0.00     0.002 A 
ATOM     52  C   UNL A   1      40.636  27.515  27.778  1.00  0.00     0.091 A 
ATOM     53  F   UNL A   1      41.086  29.550  28.946  1.00  0.00    -0.205 F 
ATOM     54  C   UNL A   1      40.003  26.264  27.746  1.00  0.00     0.022 A 
BRANCH  52  55
ATOM     55  S   UNL A   1      41.646  27.966  26.366  1.00  0.00     0.127 S 
ATOM     56  O   UNL A   1      41.021  29.211  25.933  1.00  0.00    -0.237 OA
ATOM     57  O   UNL A   1      42.972  28.121  26.962  1.00  0.00    -0.237 OA
ATOM     58  O   UNL A   1      41.530  26.838  25.454  1.00  0.00    -0.744 OA
ENDBRANCH  52  55
ENDBRANCH  24  48
BRANCH  36  59
ATOM     59  C   UNL A   1      44.023  28.658  35.474  1.00  0.00     0.023 A 
ATOM     60  C   UNL A   1      45.332  29.054  35.153  1.00  0.00     0.012 A 
ATOM     61  C   UNL A   1      43.812  27.597  36.379  1.00  0.00     0.148 A 
ATOM     62  C   UNL A   1      46.421  28.398  35.724  1.00  0.00     0.002 A 
ATOM     63  C   UNL A   1      44.898  26.992  36.991  1.00  0.00     0.091 A 
ATOM     64  F   UNL A   1      42.551  27.226  36.646  1.00  0.00    -0.205 F 
ATOM     65  C   UNL A   1      46.204  27.382  36.656  1.00  0.00     0.022 A 
BRANCH  63  66
ATOM     66  S   UNL A   1      44.707  25.768  38.292  1.00  0.00     0.127 S 
ATOM     67  O   UNL A   1      43.953  26.519  39.296  1.00  0.00    -0.237 OA
ATOM     68  O   UNL A   1      43.947  24.719  37.615  1.00  0.00    -0.237 OA
ATOM     69  O   UNL A   1      46.054  25.383  38.690  1.00  0.00    -0.744 OA
ENDBRANCH  63  66
ENDBRANCH  36  59
ENDBRANCH  10  11
ENDBRANCH   3   5
ENDBRANCH   2   3
ENDBRANCH   1   2
BRANCH   1  70
ATOM     70  C   UNL A   1      33.868  35.169  28.285  1.00  0.00     0.275 C 
BRANCH  70  71
ATOM     71  O   UNL A   1      33.834  33.730  28.322  1.00  0.00    -0.458 OA
BRANCH  71  72
ATOM     72  C   UNL A   1      35.008  33.113  28.025  1.00  0.00     0.338 C 
ATOM     73  O   UNL A   1      36.122  33.606  28.116  1.00  0.00    -0.246 OA
BRANCH  72  74
ATOM     74  C   UNL A   1      34.784  31.670  27.774  1.00  0.00     0.060 A 
ATOM     75  C   UNL A   1      35.929  30.866  27.692  1.00  0.00     0.016 A 
ATOM     76  C   UNL A   1      33.511  31.097  27.638  1.00  0.00     0.021 A 
ATOM     77  C   UNL A   1      35.808  29.486  27.554  1.00  0.00     0.001 A 
ATOM     78  C   UNL A   1      33.390  29.703  27.449  1.00  0.00    -0.027 A 
ATOM     79  C   UNL A   1      34.547  28.911  27.453  1.00  0.00     0.005 A 
BRANCH  78  80
ATOM     80  C   UNL A   1      32.054  29.025  27.207  1.00  0.00     0.165 C 
BRANCH  80  81
ATOM     81  N   UNL A   1      31.804  28.773  25.809  1.00  0.00    -0.264 N 
ATOM     82  C   UNL A   1      31.297  29.723  24.969  1.00  0.00     0.293 C 
ATOM     83  C   UNL A   1      32.098  27.545  25.267  1.00  0.00     0.268 C 
ATOM     84  O   UNL A   1      31.004  30.881  25.247  1.00  0.00    -0.261 OA
ATOM     85  S   UNL A   1      30.913  28.997  23.417  1.00  0.00    -0.022 SA
ATOM     86  C   UNL A   1      31.675  27.504  23.840  1.00  0.00     0.083 C 
ATOM     87  O   UNL A   1      32.581  26.608  25.892  1.00  0.00    -0.268 OA
ATOM     88  C   UNL A   1      31.823  26.489  22.978  1.00  0.00     0.029 C 
BRANCH  88  89
ATOM     89  C   UNL A   1      32.439  25.198  23.296  1.00  0.00    -0.024 A 
ATOM     90  C   UNL A   1      33.812  25.019  23.103  1.00  0.00     0.009 A 
ATOM     91  C   UNL A   1      31.673  24.145  23.812  1.00  0.00     0.009 A 
ATOM     92  C   UNL A   1      34.423  23.813  23.454  1.00  0.00     0.021 A 
ATOM     93  C   UNL A   1      32.284  22.941  24.173  1.00  0.00     0.021 A 
ATOM     94  C   UNL A   1      33.656  22.783  23.995  1.00  0.00     0.041 A 
ATOM     95  Cl  UNL A   1      34.407  21.302  24.450  1.00  0.00    -0.084 Cl
ENDBRANCH  88  89
ENDBRANCH  80  81
ENDBRANCH  78  80
ENDBRANCH  72  74
ENDBRANCH  71  72
ENDBRANCH  70  71
ENDBRANCH   1  70
TORSDOF 17
ENDMDL
MODEL 3
REMARK VINA RESULT:     -12.2      5.381      9.330
REMARK SMILES O=C(OCCOC(=O)c1cccc(CN2C(=O)S/C(=C/c3ccc(Cl)cc3)C2=O)c1)c1ccc(-c2c3nc(c(-c4cccc(S(=O)(=O)[O-])c4F)c4ccc([nH]4)c(-c4cccc(S(=O)(=O)[O-])c4F)c4nc(c(-c5cccc(S(=O)(=O)[O-])c5F)c5ccc2[nH]5)C=C4)C=C3)cc1
REMARK SMILES IDX 4 1 3 2 2 3 1 4 31 5 32 6 93 7 33 8 92 9 34 10 35 11 36 12
REMARK SMILES IDX 86 13 37 14 91 15 85 16 87 17 38 18 90 19 84 20 83 21 39 23
REMARK SMILES IDX 71 24 51 25 70 26 52 27 55 28 69 29 88 30 53 31 54 32 68 34
REMARK SMILES IDX 89 35 56 36 40 37 41 38 49 39 42 40 44 41 50 42 43 43 45 44
REMARK SMILES IDX 46 45 47 46 48 47 72 48 73 49 81 50 74 51 76 52 82 53 75 54
REMARK SMILES IDX 77 55 78 56 79 57 80 58 57 59 58 60 66 61 59 62 61 63 67 64
REMARK SMILES IDX 60 65 62 66 63 67 64 68 65 69 5 70 6 71 7 72 8 73 9 74 10 75
REMARK SMILES IDX 30 76 11 77 13 78 12 79 14 80 15 81 16 82 28 83 17 84 18 85
REMARK SMILES IDX 19 86 29 87 20 88 21 89 22 90 27 91 23 92 26 93 24 94 25 95
REMARK H PARENT 87 22 55 33
REMARK Flexibility Score: inf
ROOT
ATOM      1  C   UNL A   1      38.597  20.741  25.711  1.00  0.00     0.275 C 
ENDROOT
BRANCH   1   2
ATOM      2  O   UNL A   1      39.582  19.701  25.808  1.00  0.00    -0.458 OA
BRANCH   2   3
ATOM      3  C   UNL A   1      40.919  19.806  25.998  1.00  0.00     0.338 C 
ATOM      4  O   UNL A   1      41.604  18.791  25.869  1.00  0.00    -0.246 OA
BRANCH   3   5
ATOM      5  C   UNL A   1      41.593  21.050  26.499  1.00  0.00     0.060 A 
ATOM      6  C   UNL A   1      41.785  21.416  27.837  1.00  0.00     0.016 A 
ATOM      7  C   UNL A   1      42.113  21.905  25.515  1.00  0.00     0.016 A 
ATOM      8  C   UNL A   1      42.536  22.539  28.192  1.00  0.00     0.010 A 
ATOM      9  C   UNL A   1      42.878  23.021  25.860  1.00  0.00     0.010 A 
ATOM     10  C   UNL A   1      43.087  23.348  27.208  1.00  0.00    -0.014 A 
BRANCH  10  11
ATOM     11  C   UNL A   1      43.660  24.665  27.554  1.00  0.00     0.031 A 
ATOM     12  C   UNL A   1      42.687  25.750  27.897  1.00  0.00     0.074 A 
ATOM     13  C   UNL A   1      44.983  24.906  27.578  1.00  0.00     0.049 A 
ATOM     14  N   UNL A   1      42.904  27.018  28.093  1.00  0.00    -0.248 NA
ATOM     15  C   UNL A   1      41.283  25.335  28.081  1.00  0.00     0.031 C 
ATOM     16  C   UNL A   1      46.042  23.909  27.454  1.00  0.00     0.029 A 
ATOM     17  N   UNL A   1      45.663  26.098  27.637  1.00  0.00    -0.354 N 
ATOM     18  C   UNL A   1      41.673  27.548  28.442  1.00  0.00     0.074 A 
ATOM     19  C   UNL A   1      40.697  26.488  28.348  1.00  0.00     0.031 C 
ATOM     20  C   UNL A   1      47.222  24.538  27.284  1.00  0.00     0.029 A 
ATOM     21  C   UNL A   1      46.988  25.972  27.279  1.00  0.00     0.049 A 
ATOM     22  H   UNL A   1      45.249  26.950  27.906  1.00  0.00     0.167 HD
ATOM     23  C   UNL A   1      41.393  28.801  28.862  1.00  0.00     0.034 A 
ATOM     24  C   UNL A   1      47.878  26.916  26.924  1.00  0.00     0.034 A 
ATOM     25  C   UNL A   1      42.376  29.838  28.931  1.00  0.00     0.049 A 
ATOM     26  C   UNL A   1      47.499  28.354  27.131  1.00  0.00     0.074 A 
ATOM     27  C   UNL A   1      42.232  31.137  29.374  1.00  0.00     0.029 A 
ATOM     28  N   UNL A   1      43.689  29.696  28.506  1.00  0.00    -0.354 N 
ATOM     29  N   UNL A   1      46.354  28.844  27.539  1.00  0.00    -0.248 NA
ATOM     30  C   UNL A   1      48.557  29.355  26.942  1.00  0.00     0.031 C 
ATOM     31  C   UNL A   1      43.447  31.797  29.162  1.00  0.00     0.029 A 
ATOM     32  C   UNL A   1      44.363  30.892  28.644  1.00  0.00     0.049 A 
ATOM     33  H   UNL A   1      44.082  28.863  28.156  1.00  0.00     0.167 HD
ATOM     34  C   UNL A   1      46.584  30.193  27.770  1.00  0.00     0.074 A 
ATOM     35  C   UNL A   1      47.958  30.453  27.388  1.00  0.00     0.031 C 
ATOM     36  C   UNL A   1      45.746  31.113  28.303  1.00  0.00     0.034 A 
BRANCH  23  37
ATOM     37  C   UNL A   1      39.971  29.075  29.256  1.00  0.00     0.023 A 
ATOM     38  C   UNL A   1      39.024  29.450  28.277  1.00  0.00     0.012 A 
ATOM     39  C   UNL A   1      39.586  29.023  30.606  1.00  0.00     0.148 A 
ATOM     40  C   UNL A   1      37.737  29.834  28.645  1.00  0.00     0.002 A 
ATOM     41  C   UNL A   1      38.286  29.355  30.960  1.00  0.00     0.091 A 
ATOM     42  F   UNL A   1      40.508  28.694  31.521  1.00  0.00    -0.205 F 
ATOM     43  C   UNL A   1      37.366  29.781  29.986  1.00  0.00     0.022 A 
BRANCH  41  44
ATOM     44  S   UNL A   1      37.695  29.252  32.651  1.00  0.00     0.127 S 
ATOM     45  O   UNL A   1      36.326  29.747  32.515  1.00  0.00    -0.237 OA
ATOM     46  O   UNL A   1      37.804  27.820  32.923  1.00  0.00    -0.237 OA
ATOM     47  O   UNL A   1      38.589  30.090  33.440  1.00  0.00    -0.744 OA
ENDBRANCH  41  44
ENDBRANCH  23  37
BRANCH  24  48
ATOM     48  C   UNL A   1      49.206  26.560  26.356  1.00  0.00     0.023 A 
ATOM     49  C   UNL A   1      50.156  25.881  27.137  1.00  0.00     0.012 A 
ATOM     50  C   UNL A   1      49.552  26.971  25.055  1.00  0.00     0.148 A 
ATOM     51  C   UNL A   1      51.437  25.629  26.636  1.00  0.00     0.002 A 
ATOM     52  C   UNL A   1      50.839  26.742  24.573  1.00  0.00     0.091 A 
ATOM     53  F   UNL A   1      48.625  27.607  24.325  1.00  0.00    -0.205 F 
ATOM     54  C   UNL A   1      51.780  26.061  25.357  1.00  0.00     0.022 A 
BRANCH  52  55
ATOM     55  S   UNL A   1      51.377  27.341  22.970  1.00  0.00     0.127 S 
ATOM     56  O   UNL A   1      52.752  26.856  22.913  1.00  0.00    -0.237 OA
ATOM     57  O   UNL A   1      50.453  26.671  22.056  1.00  0.00    -0.237 OA
ATOM     58  O   UNL A   1      51.207  28.784  23.039  1.00  0.00    -0.744 OA
ENDBRANCH  52  55
ENDBRANCH  24  48
BRANCH  36  59
ATOM     59  C   UNL A   1      46.306  32.467  28.626  1.00  0.00     0.023 A 
ATOM     60  C   UNL A   1      46.950  32.707  29.851  1.00  0.00     0.012 A 
ATOM     61  C   UNL A   1      46.304  33.462  27.626  1.00  0.00     0.148 A 
ATOM     62  C   UNL A   1      47.582  33.928  30.081  1.00  0.00     0.002 A 
ATOM     63  C   UNL A   1      46.988  34.649  27.839  1.00  0.00     0.091 A 
ATOM     64  F   UNL A   1      45.658  33.213  26.478  1.00  0.00    -0.205 F 
ATOM     65  C   UNL A   1      47.618  34.889  29.070  1.00  0.00     0.022 A 
BRANCH  63  66
ATOM     66  S   UNL A   1      47.192  35.882  26.550  1.00  0.00     0.127 S 
ATOM     67  O   UNL A   1      48.054  35.178  25.600  1.00  0.00    -0.237 OA
ATOM     68  O   UNL A   1      45.816  36.081  26.096  1.00  0.00    -0.237 OA
ATOM     69  O   UNL A   1      47.795  37.043  27.189  1.00  0.00    -0.744 OA
ENDBRANCH  63  66
ENDBRANCH  36  59
ENDBRANCH  10  11
ENDBRANCH   3   5
ENDBRANCH   2   3
ENDBRANCH   1   2
BRANCH   1  70
ATOM     70  C   UNL A   1      37.527  20.503  24.634  1.00  0.00     0.275 C 
BRANCH  70  71
ATOM     71  O   UNL A   1      36.180  20.705  25.100  1.00  0.00    -0.458 OA
BRANCH  71  72
ATOM     72  C   UNL A   1      35.617  21.894  24.754  1.00  0.00     0.338 C 
ATOM     73  O   UNL A   1      35.848  22.529  23.737  1.00  0.00    -0.246 OA
BRANCH  72  74
ATOM     74  C   UNL A   1      34.508  22.228  25.678  1.00  0.00     0.060 A 
ATOM     75  C   UNL A   1      34.670  21.835  27.014  1.00  0.00     0.016 A 
ATOM     76  C   UNL A   1      33.351  22.914  25.282  1.00  0.00     0.021 A 
ATOM     77  C   UNL A   1      33.723  22.193  27.969  1.00  0.00     0.001 A 
ATOM     78  C   UNL A   1      32.366  23.233  26.243  1.00  0.00    -0.027 A 
ATOM     79  C   UNL A   1      32.590  22.902  27.586  1.00  0.00     0.005 A 
BRANCH  78  80
ATOM     80  C   UNL A   1      31.051  23.894  25.874  1.00  0.00     0.165 C 
BRANCH  80  81
ATOM     81  N   UNL A   1      31.210  24.938  24.892  1.00  0.00    -0.264 N 
ATOM     82  C   UNL A   1      30.840  24.782  23.586  1.00  0.00     0.293 C 
ATOM     83  C   UNL A   1      31.730  26.155  25.258  1.00  0.00     0.268 C 
ATOM     84  O   UNL A   1      30.328  23.795  23.071  1.00  0.00    -0.261 OA
ATOM     85  S   UNL A   1      31.390  26.160  22.647  1.00  0.00    -0.022 SA
ATOM     86  C   UNL A   1      31.873  27.029  24.062  1.00  0.00     0.083 C 
ATOM     87  O   UNL A   1      32.079  26.447  26.396  1.00  0.00    -0.268 OA
ATOM     88  C   UNL A   1      32.317  28.294  24.027  1.00  0.00     0.029 C 
BRANCH  88  89
ATOM     89  C   UNL A   1      32.760  29.061  25.193  1.00  0.00    -0.024 A 
ATOM     90  C   UNL A   1      34.032  28.837  25.728  1.00  0.00     0.009 A 
ATOM     91  C   UNL A   1      31.932  30.034  25.770  1.00  0.00     0.009 A 
ATOM     92  C   UNL A   1      34.489  29.599  26.805  1.00  0.00     0.021 A 
ATOM     93  C   UNL A   1      32.392  30.805  26.840  1.00  0.00     0.021 A 
ATOM     94  C   UNL A   1      33.669  30.586  27.350  1.00  0.00     0.041 A 
ATOM     95  Cl  UNL A   1      34.237  31.544  28.663  1.00  0.00    -0.084 Cl
ENDBRANCH  88  89
ENDBRANCH  80  81
ENDBRANCH  78  80
ENDBRANCH  72  74
ENDBRANCH  71  72
ENDBRANCH  70  71
ENDBRANCH   1  70
TORSDOF 17
ENDMDL
