MODEL 1
REMARK VINA RESULT:     -11.9      0.000      0.000
REMARK SMILES Cc1cc(C[N@H+]2CC[C@@H](C(=O)OCCOC(=O)c3ccc(-c4c5nc(c(-c6cccc(S(=O)(=O)[O-])c6F)c6ccc([nH]6)c(-c6cccc(S(=O)(=O)[O-])c6F)c6nc(c(-c7cccc(S(=O)(=O)[O-])c7F)c7ccc4[nH]7)C=C6)C=C5)cc3)[C@@H]2C)ccc1Br
REMARK SMILES IDX 14 1 13 2 12 3 10 4 11 5 9 6 6 7 7 8 81 9 8 11 82 12 5 13
REMARK SMILES IDX 4 14 1 15 2 16 3 17 85 18 84 19 86 20 83 21 15 22 16 23
REMARK SMILES IDX 17 24 18 25 19 26 80 27 20 28 79 29 21 30 22 31 23 32 73 33
REMARK SMILES IDX 24 34 78 35 72 36 74 37 25 38 77 39 71 40 70 41 26 43 58 44
REMARK SMILES IDX 38 45 57 46 39 47 42 48 56 49 75 50 40 51 41 52 55 54 76 55
REMARK SMILES IDX 43 56 27 57 28 58 36 59 29 60 31 61 37 62 30 63 32 64 33 65
REMARK SMILES IDX 34 66 35 67 59 68 60 69 68 70 61 71 63 72 69 73 62 74 64 75
REMARK SMILES IDX 65 76 66 77 67 78 44 79 45 80 53 81 46 82 48 83 54 84 47 85
REMARK SMILES IDX 49 86 50 87 51 88 52 89
REMARK H PARENT 6 10 74 42 42 53
REMARK Flexibility Score: inf
ROOT
ATOM      1  C   UNL A   1      31.779  29.503  25.994  1.00  0.00     0.275 C 
ENDROOT
BRANCH   1   2
ATOM      2  C   UNL A   1      31.052  29.753  24.670  1.00  0.00     0.274 C 
BRANCH   2   3
ATOM      3  O   UNL A   1      31.663  28.975  23.620  1.00  0.00    -0.462 OA
BRANCH   3   4
ATOM      4  C   UNL A   1      30.855  28.490  22.649  1.00  0.00     0.315 C 
ATOM      5  O   UNL A   1      30.118  29.179  21.953  1.00  0.00    -0.252 OA
BRANCH   4   6
ATOM      6  C   UNL A   1      30.886  26.978  22.516  1.00  0.00     0.162 C 
ATOM      7  N   UNL A   1      32.116  25.158  23.520  1.00  0.00    -0.328 N 
ATOM      8  C   UNL A   1      30.695  24.984  23.801  1.00  0.00     0.263 C 
ATOM      9  C   UNL A   1      32.256  26.279  22.565  1.00  0.00     0.195 C 
ATOM     10  H   UNL A   1      32.464  24.303  23.085  1.00  0.00     0.348 HD
ATOM     11  C   UNL A   1      30.068  26.350  23.629  1.00  0.00     0.083 C 
ATOM     12  C   UNL A   1      32.640  25.667  21.211  1.00  0.00     0.076 C 
BRANCH   7  13
ATOM     13  C   UNL A   1      32.998  25.216  24.690  1.00  0.00     0.299 C 
BRANCH  13  14
ATOM     14  C   UNL A   1      34.057  24.142  24.828  1.00  0.00     0.007 A 
ATOM     15  C   UNL A   1      37.627  23.805  26.119  1.00  0.00     0.045 C 
ATOM     16  C   UNL A   1      36.309  23.439  25.498  1.00  0.00    -0.036 A 
ATOM     17  C   UNL A   1      35.296  24.414  25.426  1.00  0.00     0.014 A 
ATOM     18  C   UNL A   1      36.063  22.177  24.939  1.00  0.00     0.020 A 
ATOM     19  C   UNL A   1      34.816  21.877  24.388  1.00  0.00     0.016 A 
ATOM     20  Br  UNL A   1      37.398  20.829  24.858  1.00  0.00    -0.051 Br
ATOM     21  C   UNL A   1      33.818  22.849  24.344  1.00  0.00     0.011 A 
ENDBRANCH  13  14
ENDBRANCH   7  13
ENDBRANCH   4   6
ENDBRANCH   3   4
ENDBRANCH   2   3
ENDBRANCH   1   2
BRANCH   1  22
ATOM     22  O   UNL A   1      33.046  30.177  25.987  1.00  0.00    -0.458 OA
BRANCH  22  23
ATOM     23  C   UNL A   1      33.181  31.165  26.901  1.00  0.00     0.338 C 
ATOM     24  O   UNL A   1      32.341  31.975  27.254  1.00  0.00    -0.246 OA
BRANCH  23  25
ATOM     25  C   UNL A   1      34.477  30.982  27.561  1.00  0.00     0.060 A 
ATOM     26  C   UNL A   1      34.840  29.698  27.980  1.00  0.00     0.016 A 
ATOM     27  C   UNL A   1      35.330  32.065  27.750  1.00  0.00     0.016 A 
ATOM     28  C   UNL A   1      36.062  29.481  28.598  1.00  0.00     0.010 A 
ATOM     29  C   UNL A   1      36.560  31.848  28.360  1.00  0.00     0.010 A 
ATOM     30  C   UNL A   1      36.925  30.559  28.792  1.00  0.00    -0.014 A 
BRANCH  30  31
ATOM     31  C   UNL A   1      38.202  30.380  29.505  1.00  0.00     0.031 A 
ATOM     32  C   UNL A   1      39.222  29.461  28.914  1.00  0.00     0.074 A 
ATOM     33  C   UNL A   1      38.383  30.958  30.705  1.00  0.00     0.049 A 
ATOM     34  N   UNL A   1      40.288  28.950  29.462  1.00  0.00    -0.248 NA
ATOM     35  C   UNL A   1      38.993  29.041  27.520  1.00  0.00     0.031 C 
ATOM     36  C   UNL A   1      37.451  31.891  31.342  1.00  0.00     0.029 A 
ATOM     37  N   UNL A   1      39.385  30.799  31.625  1.00  0.00    -0.354 N 
ATOM     38  C   UNL A   1      40.821  28.092  28.509  1.00  0.00     0.074 A 
ATOM     39  C   UNL A   1      39.969  28.163  27.343  1.00  0.00     0.031 C 
ATOM     40  C   UNL A   1      37.899  32.179  32.574  1.00  0.00     0.029 A 
ATOM     41  C   UNL A   1      39.113  31.410  32.827  1.00  0.00     0.049 A 
ATOM     42  H   UNL A   1      40.214  30.298  31.446  1.00  0.00     0.167 HD
ATOM     43  C   UNL A   1      41.921  27.311  28.613  1.00  0.00     0.034 A 
ATOM     44  C   UNL A   1      39.743  31.308  34.013  1.00  0.00     0.034 A 
ATOM     45  C   UNL A   1      42.756  27.278  29.780  1.00  0.00     0.049 A 
ATOM     46  C   UNL A   1      40.959  30.426  34.107  1.00  0.00     0.074 A 
ATOM     47  C   UNL A   1      43.925  26.569  29.983  1.00  0.00     0.029 A 
ATOM     48  N   UNL A   1      42.500  27.978  30.952  1.00  0.00    -0.354 N 
ATOM     49  N   UNL A   1      41.507  29.678  33.178  1.00  0.00    -0.248 NA
ATOM     50  C   UNL A   1      41.658  30.389  35.397  1.00  0.00     0.031 C 
ATOM     51  C   UNL A   1      44.357  26.813  31.290  1.00  0.00     0.029 A 
ATOM     52  C   UNL A   1      43.483  27.711  31.886  1.00  0.00     0.049 A 
ATOM     53  H   UNL A   1      41.732  28.577  31.095  1.00  0.00     0.167 HD
ATOM     54  C   UNL A   1      42.640  29.118  33.756  1.00  0.00     0.074 A 
ATOM     55  C   UNL A   1      42.699  29.615  35.116  1.00  0.00     0.031 C 
ATOM     56  C   UNL A   1      43.546  28.268  33.213  1.00  0.00     0.034 A 
BRANCH  43  57
ATOM     57  C   UNL A   1      42.266  26.430  27.443  1.00  0.00     0.023 A 
ATOM     58  C   UNL A   1      42.902  26.975  26.309  1.00  0.00     0.012 A 
ATOM     59  C   UNL A   1      41.980  25.051  27.479  1.00  0.00     0.148 A 
ATOM     60  C   UNL A   1      43.212  26.169  25.214  1.00  0.00     0.002 A 
ATOM     61  C   UNL A   1      42.338  24.246  26.405  1.00  0.00     0.091 A 
ATOM     62  F   UNL A   1      41.350  24.555  28.553  1.00  0.00    -0.205 F 
ATOM     63  C   UNL A   1      42.939  24.805  25.266  1.00  0.00     0.022 A 
BRANCH  61  64
ATOM     64  S   UNL A   1      42.100  22.466  26.411  1.00  0.00     0.127 S 
ATOM     65  O   UNL A   1      40.641  22.362  26.429  1.00  0.00    -0.237 OA
ATOM     66  O   UNL A   1      42.723  22.069  25.148  1.00  0.00    -0.237 OA
ATOM     67  O   UNL A   1      42.777  21.973  27.602  1.00  0.00    -0.744 OA
ENDBRANCH  61  64
ENDBRANCH  43  57
BRANCH  44  68
ATOM     68  C   UNL A   1      39.239  32.071  35.188  1.00  0.00     0.023 A 
ATOM     69  C   UNL A   1      38.309  31.467  36.056  1.00  0.00     0.012 A 
ATOM     70  C   UNL A   1      39.713  33.366  35.481  1.00  0.00     0.148 A 
ATOM     71  C   UNL A   1      37.842  32.148  37.181  1.00  0.00     0.002 A 
ATOM     72  C   UNL A   1      39.285  34.016  36.631  1.00  0.00     0.091 A 
ATOM     73  F   UNL A   1      40.593  33.925  34.637  1.00  0.00    -0.205 F 
ATOM     74  C   UNL A   1      38.336  33.416  37.474  1.00  0.00     0.022 A 
BRANCH  72  75
ATOM     75  S   UNL A   1      39.957  35.596  37.159  1.00  0.00     0.127 S 
ATOM     76  O   UNL A   1      39.586  36.466  36.046  1.00  0.00    -0.237 OA
ATOM     77  O   UNL A   1      39.220  35.837  38.400  1.00  0.00    -0.237 OA
ATOM     78  O   UNL A   1      41.386  35.379  37.339  1.00  0.00    -0.744 OA
ENDBRANCH  72  75
ENDBRANCH  44  68
BRANCH  56  79
ATOM     79  C   UNL A   1      44.727  27.870  34.057  1.00  0.00     0.023 A 
ATOM     80  C   UNL A   1      45.872  28.686  34.103  1.00  0.00     0.012 A 
ATOM     81  C   UNL A   1      44.638  26.743  34.898  1.00  0.00     0.148 A 
ATOM     82  C   UNL A   1      46.922  28.376  34.967  1.00  0.00     0.002 A 
ATOM     83  C   UNL A   1      45.663  26.472  35.794  1.00  0.00     0.091 A 
ATOM     84  F   UNL A   1      43.542  25.974  34.821  1.00  0.00    -0.205 F 
ATOM     85  C   UNL A   1      46.811  27.281  35.822  1.00  0.00     0.022 A 
BRANCH  83  86
ATOM     86  S   UNL A   1      45.557  25.152  37.006  1.00  0.00     0.127 S 
ATOM     87  O   UNL A   1      45.704  23.963  36.166  1.00  0.00    -0.237 OA
ATOM     88  O   UNL A   1      46.704  25.434  37.869  1.00  0.00    -0.237 OA
ATOM     89  O   UNL A   1      44.260  25.296  37.652  1.00  0.00    -0.744 OA
ENDBRANCH  83  86
ENDBRANCH  56  79
ENDBRANCH  30  31
ENDBRANCH  23  25
ENDBRANCH  22  23
ENDBRANCH   1  22
TORSDOF 16
ENDMDL
MODEL 2
REMARK VINA RESULT:     -11.7      5.155     10.096
REMARK SMILES Cc1cc(C[N@H+]2CC[C@@H](C(=O)OCCOC(=O)c3ccc(-c4c5nc(c(-c6cccc(S(=O)(=O)[O-])c6F)c6ccc([nH]6)c(-c6cccc(S(=O)(=O)[O-])c6F)c6nc(c(-c7cccc(S(=O)(=O)[O-])c7F)c7ccc4[nH]7)C=C6)C=C5)cc3)[C@@H]2C)ccc1Br
REMARK SMILES IDX 14 1 13 2 12 3 10 4 11 5 9 6 6 7 7 8 81 9 8 11 82 12 5 13
REMARK SMILES IDX 4 14 1 15 2 16 3 17 85 18 84 19 86 20 83 21 15 22 16 23
REMARK SMILES IDX 17 24 18 25 19 26 80 27 20 28 79 29 21 30 22 31 23 32 73 33
REMARK SMILES IDX 24 34 78 35 72 36 74 37 25 38 77 39 71 40 70 41 26 43 58 44
REMARK SMILES IDX 38 45 57 46 39 47 42 48 56 49 75 50 40 51 41 52 55 54 76 55
REMARK SMILES IDX 43 56 27 57 28 58 36 59 29 60 31 61 37 62 30 63 32 64 33 65
REMARK SMILES IDX 34 66 35 67 59 68 60 69 68 70 61 71 63 72 69 73 62 74 64 75
REMARK SMILES IDX 65 76 66 77 67 78 44 79 45 80 53 81 46 82 48 83 54 84 47 85
REMARK SMILES IDX 49 86 50 87 51 88 52 89
REMARK H PARENT 6 10 74 42 42 53
REMARK Flexibility Score: inf
ROOT
ATOM      1  C   UNL A   1      36.554  20.894  25.032  1.00  0.00     0.275 C 
ENDROOT
BRANCH   1   2
ATOM      2  C   UNL A   1      35.103  20.999  25.508  1.00  0.00     0.274 C 
BRANCH   2   3
ATOM      3  O   UNL A   1      34.242  20.243  24.630  1.00  0.00    -0.462 OA
BRANCH   3   4
ATOM      4  C   UNL A   1      32.949  20.094  24.996  1.00  0.00     0.315 C 
ATOM      5  O   UNL A   1      32.506  19.120  25.593  1.00  0.00    -0.252 OA
BRANCH   4   6
ATOM      6  C   UNL A   1      32.045  21.230  24.553  1.00  0.00     0.162 C 
ATOM      7  N   UNL A   1      32.189  23.639  24.442  1.00  0.00    -0.328 N 
ATOM      8  C   UNL A   1      31.986  23.112  23.097  1.00  0.00     0.263 C 
ATOM      9  C   UNL A   1      32.042  22.519  25.395  1.00  0.00     0.195 C 
ATOM     10  H   UNL A   1      31.465  24.333  24.627  1.00  0.00     0.348 HD
ATOM     11  C   UNL A   1      32.421  21.664  23.148  1.00  0.00     0.083 C 
ATOM     12  C   UNL A   1      30.708  22.727  26.126  1.00  0.00     0.076 C 
BRANCH   7  13
ATOM     13  C   UNL A   1      33.383  24.470  24.630  1.00  0.00     0.299 C 
BRANCH  13  14
ATOM     14  C   UNL A   1      33.178  25.912  25.050  1.00  0.00     0.007 A 
ATOM     15  C   UNL A   1      31.395  27.855  27.801  1.00  0.00     0.045 C 
ATOM     16  C   UNL A   1      32.206  27.574  26.568  1.00  0.00    -0.036 A 
ATOM     17  C   UNL A   1      32.456  26.237  26.208  1.00  0.00     0.014 A 
ATOM     18  C   UNL A   1      32.680  28.593  25.730  1.00  0.00     0.020 A 
ATOM     19  C   UNL A   1      33.444  28.284  24.603  1.00  0.00     0.016 A 
ATOM     20  Br  UNL A   1      32.288  30.424  26.042  1.00  0.00    -0.051 Br
ATOM     21  C   UNL A   1      33.700  26.954  24.274  1.00  0.00     0.011 A 
ENDBRANCH  13  14
ENDBRANCH   7  13
ENDBRANCH   4   6
ENDBRANCH   3   4
ENDBRANCH   2   3
ENDBRANCH   1   2
BRANCH   1  22
ATOM     22  O   UNL A   1      37.365  21.850  25.731  1.00  0.00    -0.458 OA
BRANCH  22  23
ATOM     23  C   UNL A   1      38.624  21.445  26.012  1.00  0.00     0.338 C 
ATOM     24  O   UNL A   1      39.136  20.369  25.759  1.00  0.00    -0.246 OA
BRANCH  23  25
ATOM     25  C   UNL A   1      39.360  22.609  26.514  1.00  0.00     0.060 A 
ATOM     26  C   UNL A   1      38.992  23.880  26.062  1.00  0.00     0.016 A 
ATOM     27  C   UNL A   1      40.392  22.447  27.433  1.00  0.00     0.016 A 
ATOM     28  C   UNL A   1      39.656  25.008  26.522  1.00  0.00     0.010 A 
ATOM     29  C   UNL A   1      41.053  23.576  27.903  1.00  0.00     0.010 A 
ATOM     30  C   UNL A   1      40.692  24.857  27.443  1.00  0.00    -0.014 A 
BRANCH  30  31
ATOM     31  C   UNL A   1      41.465  26.024  27.903  1.00  0.00     0.031 A 
ATOM     32  C   UNL A   1      40.759  27.073  28.702  1.00  0.00     0.074 A 
ATOM     33  C   UNL A   1      42.743  26.172  27.515  1.00  0.00     0.049 A 
ATOM     34  N   UNL A   1      41.141  28.283  28.995  1.00  0.00    -0.248 NA
ATOM     35  C   UNL A   1      39.427  26.712  29.220  1.00  0.00     0.031 C 
ATOM     36  C   UNL A   1      43.515  25.186  26.758  1.00  0.00     0.029 A 
ATOM     37  N   UNL A   1      43.596  27.235  27.656  1.00  0.00    -0.354 N 
ATOM     38  C   UNL A   1      40.072  28.858  29.669  1.00  0.00     0.074 A 
ATOM     39  C   UNL A   1      39.032  27.857  29.756  1.00  0.00     0.031 C 
ATOM     40  C   UNL A   1      44.713  25.712  26.454  1.00  0.00     0.029 A 
ATOM     41  C   UNL A   1      44.764  27.085  26.946  1.00  0.00     0.049 A 
ATOM     42  H   UNL A   1      43.394  28.025  28.209  1.00  0.00     0.167 HD
ATOM     43  C   UNL A   1      39.975  30.114  30.162  1.00  0.00     0.034 A 
ATOM     44  C   UNL A   1      45.734  27.978  26.674  1.00  0.00     0.034 A 
ATOM     45  C   UNL A   1      41.036  31.077  30.075  1.00  0.00     0.049 A 
ATOM     46  C   UNL A   1      45.600  29.373  27.224  1.00  0.00     0.074 A 
ATOM     47  C   UNL A   1      41.076  32.362  30.584  1.00  0.00     0.029 A 
ATOM     48  N   UNL A   1      42.243  30.864  29.423  1.00  0.00    -0.354 N 
ATOM     49  N   UNL A   1      44.622  29.888  27.932  1.00  0.00    -0.248 NA
ATOM     50  C   UNL A   1      46.707  30.302  26.963  1.00  0.00     0.031 C 
ATOM     51  C   UNL A   1      42.293  32.937  30.207  1.00  0.00     0.029 A 
ATOM     52  C   UNL A   1      43.032  31.995  29.506  1.00  0.00     0.049 A 
ATOM     53  H   UNL A   1      42.499  30.029  28.969  1.00  0.00     0.167 HD
ATOM     54  C   UNL A   1      45.015  31.185  28.240  1.00  0.00     0.074 A 
ATOM     55  C   UNL A   1      46.321  31.376  27.642  1.00  0.00     0.031 C 
ATOM     56  C   UNL A   1      44.354  32.133  28.950  1.00  0.00     0.034 A 
BRANCH  43  57
ATOM     57  C   UNL A   1      38.681  30.510  30.819  1.00  0.00     0.023 A 
ATOM     58  C   UNL A   1      38.475  30.253  32.189  1.00  0.00     0.012 A 
ATOM     59  C   UNL A   1      37.675  31.162  30.079  1.00  0.00     0.148 A 
ATOM     60  C   UNL A   1      37.273  30.602  32.804  1.00  0.00     0.002 A 
ATOM     61  C   UNL A   1      36.500  31.552  30.711  1.00  0.00     0.091 A 
ATOM     62  F   UNL A   1      37.877  31.372  28.771  1.00  0.00    -0.205 F 
ATOM     63  C   UNL A   1      36.291  31.260  32.068  1.00  0.00     0.022 A 
BRANCH  61  64
ATOM     64  S   UNL A   1      35.211  32.474  29.866  1.00  0.00     0.127 S 
ATOM     65  O   UNL A   1      34.269  32.730  30.956  1.00  0.00    -0.237 OA
ATOM     66  O   UNL A   1      35.936  33.656  29.398  1.00  0.00    -0.237 OA
ATOM     67  O   UNL A   1      34.720  31.604  28.807  1.00  0.00    -0.744 OA
ENDBRANCH  61  64
ENDBRANCH  43  57
BRANCH  44  68
ATOM     68  C   UNL A   1      46.910  27.570  25.858  1.00  0.00     0.023 A 
ATOM     69  C   UNL A   1      46.892  27.783  24.466  1.00  0.00     0.012 A 
ATOM     70  C   UNL A   1      48.064  27.025  26.455  1.00  0.00     0.148 A 
ATOM     71  C   UNL A   1      47.992  27.437  23.681  1.00  0.00     0.002 A 
ATOM     72  C   UNL A   1      49.176  26.733  25.675  1.00  0.00     0.091 A 
ATOM     73  F   UNL A   1      48.057  26.824  27.781  1.00  0.00    -0.205 F 
ATOM     74  C   UNL A   1      49.136  26.923  24.284  1.00  0.00     0.022 A 
BRANCH  72  75
ATOM     75  S   UNL A   1      50.736  26.185  26.377  1.00  0.00     0.127 S 
ATOM     76  O   UNL A   1      50.405  24.834  26.825  1.00  0.00    -0.237 OA
ATOM     77  O   UNL A   1      51.626  26.246  25.216  1.00  0.00    -0.237 OA
ATOM     78  O   UNL A   1      51.053  27.138  27.431  1.00  0.00    -0.744 OA
ENDBRANCH  72  75
ENDBRANCH  44  68
BRANCH  56  79
ATOM     79  C   UNL A   1      45.054  33.444  29.189  1.00  0.00     0.023 A 
ATOM     80  C   UNL A   1      45.910  33.599  30.295  1.00  0.00     0.012 A 
ATOM     81  C   UNL A   1      44.949  34.478  28.237  1.00  0.00     0.148 A 
ATOM     82  C   UNL A   1      46.642  34.775  30.458  1.00  0.00     0.002 A 
ATOM     83  C   UNL A   1      45.722  35.621  28.377  1.00  0.00     0.091 A 
ATOM     84  F   UNL A   1      44.112  34.310  27.202  1.00  0.00    -0.205 F 
ATOM     85  C   UNL A   1      46.561  35.777  29.493  1.00  0.00     0.022 A 
BRANCH  83  86
ATOM     86  S   UNL A   1      45.765  36.913  27.130  1.00  0.00     0.127 S 
ATOM     87  O   UNL A   1      46.658  37.894  27.747  1.00  0.00    -0.237 OA
ATOM     88  O   UNL A   1      46.332  36.210  25.979  1.00  0.00    -0.237 OA
ATOM     89  O   UNL A   1      44.388  37.354  26.955  1.00  0.00    -0.744 OA
ENDBRANCH  83  86
ENDBRANCH  56  79
ENDBRANCH  30  31
ENDBRANCH  23  25
ENDBRANCH  22  23
ENDBRANCH   1  22
TORSDOF 16
ENDMDL
MODEL 3
REMARK VINA RESULT:     -11.7      5.371     10.132
REMARK SMILES Cc1cc(C[N@H+]2CC[C@@H](C(=O)OCCOC(=O)c3ccc(-c4c5nc(c(-c6cccc(S(=O)(=O)[O-])c6F)c6ccc([nH]6)c(-c6cccc(S(=O)(=O)[O-])c6F)c6nc(c(-c7cccc(S(=O)(=O)[O-])c7F)c7ccc4[nH]7)C=C6)C=C5)cc3)[C@@H]2C)ccc1Br
REMARK SMILES IDX 14 1 13 2 12 3 10 4 11 5 9 6 6 7 7 8 81 9 8 11 82 12 5 13
REMARK SMILES IDX 4 14 1 15 2 16 3 17 85 18 84 19 86 20 83 21 15 22 16 23
REMARK SMILES IDX 17 24 18 25 19 26 80 27 20 28 79 29 21 30 22 31 23 32 73 33
REMARK SMILES IDX 24 34 78 35 72 36 74 37 25 38 77 39 71 40 70 41 26 43 58 44
REMARK SMILES IDX 38 45 57 46 39 47 42 48 56 49 75 50 40 51 41 52 55 54 76 55
REMARK SMILES IDX 43 56 27 57 28 58 36 59 29 60 31 61 37 62 30 63 32 64 33 65
REMARK SMILES IDX 34 66 35 67 59 68 60 69 68 70 61 71 63 72 69 73 62 74 64 75
REMARK SMILES IDX 65 76 66 77 67 78 44 79 45 80 53 81 46 82 48 83 54 84 47 85
REMARK SMILES IDX 49 86 50 87 51 88 52 89
REMARK H PARENT 6 10 74 42 42 53
REMARK Flexibility Score: inf
ROOT
ATOM      1  C   UNL A   1      37.209  20.930  24.681  1.00  0.00     0.275 C 
ENDROOT
BRANCH   1   2
ATOM      2  C   UNL A   1      35.747  20.601  24.995  1.00  0.00     0.274 C 
BRANCH   2   3
ATOM      3  O   UNL A   1      35.139  21.699  25.707  1.00  0.00    -0.462 OA
BRANCH   3   4
ATOM      4  C   UNL A   1      33.843  21.978  25.439  1.00  0.00     0.315 C 
ATOM      5  O   UNL A   1      32.935  21.902  26.259  1.00  0.00    -0.252 OA
BRANCH   4   6
ATOM      6  C   UNL A   1      33.576  22.351  23.993  1.00  0.00     0.162 C 
ATOM      7  N   UNL A   1      31.768  23.363  22.751  1.00  0.00    -0.328 N 
ATOM      8  C   UNL A   1      32.959  24.195  22.621  1.00  0.00     0.263 C 
ATOM      9  C   UNL A   1      32.161  22.113  23.436  1.00  0.00     0.195 C 
ATOM     10  H   UNL A   1      31.430  23.139  21.815  1.00  0.00     0.348 HD
ATOM     11  C   UNL A   1      33.851  23.830  23.787  1.00  0.00     0.083 C 
ATOM     12  C   UNL A   1      32.136  20.998  22.381  1.00  0.00     0.076 C 
BRANCH   7  13
ATOM     13  C   UNL A   1      30.578  24.027  23.292  1.00  0.00     0.299 C 
BRANCH  13  14
ATOM     14  C   UNL A   1      30.789  25.173  24.261  1.00  0.00     0.007 A 
ATOM     15  C   UNL A   1      30.948  28.979  24.185  1.00  0.00     0.045 C 
ATOM     16  C   UNL A   1      30.991  27.574  24.713  1.00  0.00    -0.036 A 
ATOM     17  C   UNL A   1      30.731  26.508  23.833  1.00  0.00     0.014 A 
ATOM     18  C   UNL A   1      31.334  27.278  26.041  1.00  0.00     0.020 A 
ATOM     19  C   UNL A   1      31.345  25.957  26.491  1.00  0.00     0.016 A 
ATOM     20  Br  UNL A   1      31.836  28.626  27.280  1.00  0.00    -0.051 Br
ATOM     21  C   UNL A   1      31.063  24.915  25.610  1.00  0.00     0.011 A 
ENDBRANCH  13  14
ENDBRANCH   7  13
ENDBRANCH   4   6
ENDBRANCH   3   4
ENDBRANCH   2   3
ENDBRANCH   1   2
BRANCH   1  22
ATOM     22  O   UNL A   1      37.779  21.688  25.758  1.00  0.00    -0.458 OA
BRANCH  22  23
ATOM     23  C   UNL A   1      39.022  21.313  26.137  1.00  0.00     0.338 C 
ATOM     24  O   UNL A   1      39.564  20.237  25.954  1.00  0.00    -0.246 OA
BRANCH  23  25
ATOM     25  C   UNL A   1      39.706  22.503  26.648  1.00  0.00     0.060 A 
ATOM     26  C   UNL A   1      39.333  23.756  26.151  1.00  0.00     0.016 A 
ATOM     27  C   UNL A   1      40.696  22.384  27.619  1.00  0.00     0.016 A 
ATOM     28  C   UNL A   1      39.949  24.908  26.618  1.00  0.00     0.010 A 
ATOM     29  C   UNL A   1      41.307  23.538  28.096  1.00  0.00     0.010 A 
ATOM     30  C   UNL A   1      40.941  24.800  27.591  1.00  0.00    -0.014 A 
BRANCH  30  31
ATOM     31  C   UNL A   1      41.665  25.994  28.062  1.00  0.00     0.031 A 
ATOM     32  C   UNL A   1      40.898  27.040  28.807  1.00  0.00     0.074 A 
ATOM     33  C   UNL A   1      42.955  26.166  27.730  1.00  0.00     0.049 A 
ATOM     34  N   UNL A   1      41.239  28.265  29.092  1.00  0.00    -0.248 NA
ATOM     35  C   UNL A   1      39.553  26.658  29.271  1.00  0.00     0.031 C 
ATOM     36  C   UNL A   1      43.785  25.184  27.029  1.00  0.00     0.029 A 
ATOM     37  N   UNL A   1      43.776  27.251  27.888  1.00  0.00    -0.354 N 
ATOM     38  C   UNL A   1      40.127  28.826  29.706  1.00  0.00     0.074 A 
ATOM     39  C   UNL A   1      39.107  27.803  29.765  1.00  0.00     0.031 C 
ATOM     40  C   UNL A   1      44.982  25.733  26.770  1.00  0.00     0.029 A 
ATOM     41  C   UNL A   1      44.978  27.116  27.236  1.00  0.00     0.049 A 
ATOM     42  H   UNL A   1      43.530  28.046  28.415  1.00  0.00     0.167 HD
ATOM     43  C   UNL A   1      39.978  30.088  30.168  1.00  0.00     0.034 A 
ATOM     44  C   UNL A   1      45.939  28.027  26.990  1.00  0.00     0.034 A 
ATOM     45  C   UNL A   1      41.019  31.076  30.111  1.00  0.00     0.049 A 
ATOM     46  C   UNL A   1      45.748  29.429  27.505  1.00  0.00     0.074 A 
ATOM     47  C   UNL A   1      41.006  32.371  30.594  1.00  0.00     0.029 A 
ATOM     48  N   UNL A   1      42.260  30.879  29.519  1.00  0.00    -0.354 N 
ATOM     49  N   UNL A   1      44.727  29.933  28.158  1.00  0.00    -0.248 NA
ATOM     50  C   UNL A   1      46.843  30.378  27.277  1.00  0.00     0.031 C 
ATOM     51  C   UNL A   1      42.225  32.968  30.263  1.00  0.00     0.029 A 
ATOM     52  C   UNL A   1      43.017  32.031  29.615  1.00  0.00     0.049 A 
ATOM     53  H   UNL A   1      42.555  30.042  29.094  1.00  0.00     0.167 HD
ATOM     54  C   UNL A   1      45.074  31.245  28.457  1.00  0.00     0.074 A 
ATOM     55  C   UNL A   1      46.402  31.456  27.916  1.00  0.00     0.031 C 
ATOM     56  C   UNL A   1      44.360  32.190  29.117  1.00  0.00     0.034 A 
BRANCH  43  57
ATOM     57  C   UNL A   1      38.646  30.465  30.758  1.00  0.00     0.023 A 
ATOM     58  C   UNL A   1      38.371  30.200  32.114  1.00  0.00     0.012 A 
ATOM     59  C   UNL A   1      37.673  31.109  29.968  1.00  0.00     0.148 A 
ATOM     60  C   UNL A   1      37.134  30.531  32.666  1.00  0.00     0.002 A 
ATOM     61  C   UNL A   1      36.461  31.482  30.538  1.00  0.00     0.091 A 
ATOM     62  F   UNL A   1      37.940  31.328  28.673  1.00  0.00    -0.205 F 
ATOM     63  C   UNL A   1      36.184  31.181  31.881  1.00  0.00     0.022 A 
BRANCH  61  64
ATOM     64  S   UNL A   1      35.207  32.392  29.631  1.00  0.00     0.127 S 
ATOM     65  O   UNL A   1      34.221  32.661  30.678  1.00  0.00    -0.237 OA
ATOM     66  O   UNL A   1      35.950  33.568  29.178  1.00  0.00    -0.237 OA
ATOM     67  O   UNL A   1      34.760  31.508  28.563  1.00  0.00    -0.744 OA
ENDBRANCH  61  64
ENDBRANCH  43  57
BRANCH  44  68
ATOM     68  C   UNL A   1      47.161  27.632  26.237  1.00  0.00     0.023 A 
ATOM     69  C   UNL A   1      48.192  26.944  26.905  1.00  0.00     0.012 A 
ATOM     70  C   UNL A   1      47.285  27.883  24.855  1.00  0.00     0.148 A 
ATOM     71  C   UNL A   1      49.335  26.536  26.217  1.00  0.00     0.002 A 
ATOM     72  C   UNL A   1      48.401  27.427  24.166  1.00  0.00     0.091 A 
ATOM     73  F   UNL A   1      46.295  28.546  24.240  1.00  0.00    -0.205 F 
ATOM     74  C   UNL A   1      49.435  26.767  24.848  1.00  0.00     0.022 A 
BRANCH  72  75
ATOM     75  S   UNL A   1      48.563  27.567  22.382  1.00  0.00     0.127 S 
ATOM     76  O   UNL A   1      47.338  28.279  22.025  1.00  0.00    -0.237 OA
ATOM     77  O   UNL A   1      49.790  28.353  22.252  1.00  0.00    -0.237 OA
ATOM     78  O   UNL A   1      48.665  26.202  21.885  1.00  0.00    -0.744 OA
ENDBRANCH  72  75
ENDBRANCH  44  68
BRANCH  56  79
ATOM     79  C   UNL A   1      45.017  33.521  29.362  1.00  0.00     0.023 A 
ATOM     80  C   UNL A   1      45.806  33.723  30.509  1.00  0.00     0.012 A 
ATOM     81  C   UNL A   1      44.944  34.529  28.379  1.00  0.00     0.148 A 
ATOM     82  C   UNL A   1      46.503  34.918  30.683  1.00  0.00     0.002 A 
ATOM     83  C   UNL A   1      45.684  35.693  28.533  1.00  0.00     0.091 A 
ATOM     84  F   UNL A   1      44.171  34.318  27.304  1.00  0.00    -0.205 F 
ATOM     85  C   UNL A   1      46.455  35.895  29.690  1.00  0.00     0.022 A 
BRANCH  83  86
ATOM     86  S   UNL A   1      45.770  36.954  27.258  1.00  0.00     0.127 S 
ATOM     87  O   UNL A   1      46.672  37.933  27.867  1.00  0.00    -0.237 OA
ATOM     88  O   UNL A   1      46.342  36.215  26.132  1.00  0.00    -0.237 OA
ATOM     89  O   UNL A   1      44.405  37.416  27.051  1.00  0.00    -0.744 OA
ENDBRANCH  83  86
ENDBRANCH  56  79
ENDBRANCH  30  31
ENDBRANCH  23  25
ENDBRANCH  22  23
ENDBRANCH   1  22
TORSDOF 16
ENDMDL
