MODEL 1
REMARK VINA RESULT:     -13.1      0.000      0.000
REMARK SMILES O=C(OCCOC(=O)c1ccc(-c2c3nc(c(-c4cccc(S(=O)(=O)[O-])c4F)c4ccc([nH]4)c(-c4cccc(S(=O)(=O)[O-])c4F)c4nc(c(-c5cccc(S(=O)(=O)[O-])c5F)c5ccc2[nH]5)C=C4)C=C3)cc1)C1=Cc2cc(S(F)(F)(F)(F)F)cc(Br)c2O[C@@H]1C(F)(F)F
REMARK SMILES IDX 5 1 4 2 3 3 2 4 1 5 72 6 73 7 88 8 74 9 87 10 75 11 86 12
REMARK SMILES IDX 76 13 84 14 83 15 85 16 89 17 90 18 91 19 92 20 77 21 78 22
REMARK SMILES IDX 79 23 80 24 81 25 82 26 6 27 7 28 8 29 9 30 10 31 71 32
REMARK SMILES IDX 11 33 70 34 12 35 13 36 14 37 64 38 15 39 69 40 63 41 65 42
REMARK SMILES IDX 16 43 68 44 62 45 61 46 17 48 49 49 29 50 48 51 30 52 33 53
REMARK SMILES IDX 47 54 66 55 31 56 32 57 46 59 67 60 34 61 18 62 19 63 27 64
REMARK SMILES IDX 20 65 22 66 28 67 21 68 23 69 24 70 25 71 26 72 50 73 51 74
REMARK SMILES IDX 59 75 52 76 54 77 60 78 53 79 55 80 56 81 57 82 58 83 35 84
REMARK SMILES IDX 36 85 44 86 37 87 39 88 45 89 38 90 40 91 41 92 42 93 43 94
REMARK H PARENT 65 47 33 58
REMARK Flexibility Score: inf
ROOT
ATOM      1  C   UNL A   1      32.712  28.687  24.940  1.00  0.00     0.275 C 
ENDROOT
BRANCH   1   2
ATOM      2  C   UNL A   1      33.167  28.266  23.551  1.00  0.00     0.275 C 
BRANCH   2   3
ATOM      3  O   UNL A   1      33.620  26.920  23.591  1.00  0.00    -0.459 OA
BRANCH   3   4
ATOM      4  C   UNL A   1      32.989  25.935  22.787  1.00  0.00     0.338 C 
ATOM      5  O   UNL A   1      33.652  25.325  21.890  1.00  0.00    -0.246 OA
BRANCH   4   6
ATOM      6  C   UNL A   1      31.519  25.608  23.000  1.00  0.00     0.087 C 
ATOM      7  C   UNL A   1      31.158  24.404  23.519  1.00  0.00     0.027 C 
ATOM      8  C   UNL A   1      30.453  26.627  22.632  1.00  0.00     0.316 C 
ATOM      9  C   UNL A   1      32.225  23.385  23.887  1.00  0.00     0.020 A 
ATOM     10  O   UNL A   1      33.524  25.168  24.772  1.00  0.00    -0.474 OA
ATOM     11  C   UNL A   1      32.053  22.061  23.521  1.00  0.00     0.036 A 
ATOM     12  C   UNL A   1      33.302  23.782  24.553  1.00  0.00     0.142 A 
ATOM     13  C   UNL A   1      32.947  21.168  24.160  1.00  0.00     0.109 A 
ATOM     14  C   UNL A   1      34.206  22.864  25.032  1.00  0.00     0.062 A 
ATOM     15  C   UNL A   1      34.067  21.532  24.759  1.00  0.00     0.044 A 
ATOM     16  Br  UNL A   1      35.714  23.473  26.125  1.00  0.00    -0.047 Br
BRANCH   8  17
ATOM     17  C   UNL A   1      29.648  26.988  23.869  1.00  0.00     0.430 C 
ATOM     18  F   UNL A   1      29.409  28.296  23.877  1.00  0.00    -0.167 F 
ATOM     19  F   UNL A   1      28.494  26.326  23.856  1.00  0.00    -0.167 F 
ATOM     20  F   UNL A   1      30.335  26.656  24.958  1.00  0.00    -0.167 F 
ENDBRANCH   8  17
BRANCH  13  21
ATOM     21  S   UNL A   1      32.526  19.408  24.158  1.00  0.00     0.310 S 
ATOM     22  F   UNL A   1      34.052  18.980  24.086  1.00  0.00    -0.094 F 
ATOM     23  F   UNL A   1      32.532  19.438  22.583  1.00  0.00    -0.094 F 
ATOM     24  F   UNL A   1      32.165  17.896  24.156  1.00  0.00    -0.094 F 
ATOM     25  F   UNL A   1      32.663  19.365  25.731  1.00  0.00    -0.094 F 
ATOM     26  F   UNL A   1      33.004  20.915  24.173  1.00  0.00    -0.094 F 
ENDBRANCH  13  21
ENDBRANCH   4   6
ENDBRANCH   3   4
ENDBRANCH   2   3
ENDBRANCH   1   2
BRANCH   1  27
ATOM     27  O   UNL A   1      32.929  30.080  25.106  1.00  0.00    -0.458 OA
BRANCH  27  28
ATOM     28  C   UNL A   1      32.999  30.636  26.411  1.00  0.00     0.338 C 
ATOM     29  O   UNL A   1      32.022  31.306  26.870  1.00  0.00    -0.246 OA
BRANCH  28  30
ATOM     30  C   UNL A   1      34.245  30.432  27.258  1.00  0.00     0.060 A 
ATOM     31  C   UNL A   1      35.003  31.530  27.626  1.00  0.00     0.016 A 
ATOM     32  C   UNL A   1      34.584  29.203  27.631  1.00  0.00     0.016 A 
ATOM     33  C   UNL A   1      36.275  31.198  28.151  1.00  0.00     0.010 A 
ATOM     34  C   UNL A   1      35.783  28.970  28.262  1.00  0.00     0.010 A 
ATOM     35  C   UNL A   1      36.610  30.004  28.603  1.00  0.00    -0.014 A 
BRANCH  35  36
ATOM     36  C   UNL A   1      37.850  29.788  29.456  1.00  0.00     0.031 A 
ATOM     37  C   UNL A   1      37.929  30.454  30.679  1.00  0.00     0.074 A 
ATOM     38  C   UNL A   1      38.831  28.940  28.972  1.00  0.00     0.049 A 
ATOM     39  N   UNL A   1      38.903  30.378  31.587  1.00  0.00    -0.248 NA
ATOM     40  C   UNL A   1      36.903  31.383  31.179  1.00  0.00     0.031 C 
ATOM     41  C   UNL A   1      38.756  28.256  27.742  1.00  0.00     0.029 A 
ATOM     42  N   UNL A   1      40.029  28.606  29.566  1.00  0.00    -0.354 N 
ATOM     43  C   UNL A   1      38.615  31.146  32.638  1.00  0.00     0.074 A 
ATOM     44  C   UNL A   1      37.328  31.809  32.389  1.00  0.00     0.031 C 
ATOM     45  C   UNL A   1      39.895  27.532  27.592  1.00  0.00     0.029 A 
ATOM     46  C   UNL A   1      40.703  27.748  28.725  1.00  0.00     0.049 A 
ATOM     47  H   UNL A   1      40.347  28.927  30.440  1.00  0.00     0.167 HD
ATOM     48  C   UNL A   1      39.375  31.319  33.797  1.00  0.00     0.034 A 
ATOM     49  C   UNL A   1      41.950  27.178  28.916  1.00  0.00     0.034 A 
ATOM     50  C   UNL A   1      40.605  30.715  34.007  1.00  0.00     0.049 A 
ATOM     51  C   UNL A   1      42.738  27.397  30.050  1.00  0.00     0.074 A 
ATOM     52  C   UNL A   1      41.379  30.874  35.172  1.00  0.00     0.029 A 
ATOM     53  N   UNL A   1      41.289  29.876  33.156  1.00  0.00    -0.354 N 
ATOM     54  N   UNL A   1      42.432  28.135  31.118  1.00  0.00    -0.248 NA
ATOM     55  C   UNL A   1      44.075  26.824  30.249  1.00  0.00     0.031 C 
ATOM     56  C   UNL A   1      42.520  30.148  35.022  1.00  0.00     0.029 A 
ATOM     57  C   UNL A   1      42.476  29.525  33.760  1.00  0.00     0.049 A 
ATOM     58  H   UNL A   1      40.982  29.580  32.268  1.00  0.00     0.167 HD
ATOM     59  C   UNL A   1      43.426  28.090  32.007  1.00  0.00     0.074 A 
ATOM     60  C   UNL A   1      44.501  27.252  31.458  1.00  0.00     0.031 C 
ATOM     61  C   UNL A   1      43.479  28.710  33.256  1.00  0.00     0.034 A 
BRANCH  48  62
ATOM     62  C   UNL A   1      38.823  32.222  34.888  1.00  0.00     0.023 A 
ATOM     63  C   UNL A   1      38.927  33.598  34.763  1.00  0.00     0.012 A 
ATOM     64  C   UNL A   1      38.244  31.669  35.947  1.00  0.00     0.148 A 
ATOM     65  C   UNL A   1      38.645  34.304  35.956  1.00  0.00     0.002 A 
ATOM     66  C   UNL A   1      37.871  32.438  37.022  1.00  0.00     0.091 A 
ATOM     67  F   UNL A   1      38.026  30.357  35.968  1.00  0.00    -0.205 F 
ATOM     68  C   UNL A   1      38.000  33.798  36.992  1.00  0.00     0.022 A 
BRANCH  66  69
ATOM     69  S   UNL A   1      37.198  31.639  38.500  1.00  0.00     0.127 S 
ATOM     70  O   UNL A   1      37.029  30.140  38.237  1.00  0.00    -0.237 OA
ATOM     71  O   UNL A   1      38.156  31.845  39.675  1.00  0.00    -0.237 OA
ATOM     72  O   UNL A   1      35.678  32.325  38.877  1.00  0.00    -0.744 OA
ENDBRANCH  66  69
ENDBRANCH  48  62
BRANCH  49  73
ATOM     73  C   UNL A   1      42.495  26.262  27.832  1.00  0.00     0.023 A 
ATOM     74  C   UNL A   1      43.404  26.753  26.910  1.00  0.00     0.012 A 
ATOM     75  C   UNL A   1      42.091  24.998  27.795  1.00  0.00     0.148 A 
ATOM     76  C   UNL A   1      43.615  25.899  25.802  1.00  0.00     0.002 A 
ATOM     77  C   UNL A   1      42.448  24.179  26.750  1.00  0.00     0.091 A 
ATOM     78  F   UNL A   1      41.336  24.518  28.780  1.00  0.00    -0.205 F 
ATOM     79  C   UNL A   1      43.297  24.618  25.772  1.00  0.00     0.022 A 
BRANCH  77  80
ATOM     80  S   UNL A   1      41.784  22.498  26.667  1.00  0.00     0.127 S 
ATOM     81  O   UNL A   1      42.257  21.826  25.376  1.00  0.00    -0.237 OA
ATOM     82  O   UNL A   1      42.277  21.694  27.871  1.00  0.00    -0.237 OA
ATOM     83  O   UNL A   1      40.075  22.559  26.684  1.00  0.00    -0.744 OA
ENDBRANCH  77  80
ENDBRANCH  49  73
BRANCH  61  84
ATOM     84  C   UNL A   1      44.710  28.479  34.117  1.00  0.00     0.023 A 
ATOM     85  C   UNL A   1      45.789  29.340  34.004  1.00  0.00     0.012 A 
ATOM     86  C   UNL A   1      44.730  27.455  34.963  1.00  0.00     0.148 A 
ATOM     87  C   UNL A   1      46.969  28.864  34.623  1.00  0.00     0.002 A 
ATOM     88  C   UNL A   1      45.882  27.129  35.637  1.00  0.00     0.091 A 
ATOM     89  F   UNL A   1      43.626  26.740  35.158  1.00  0.00    -0.205 F 
ATOM     90  C   UNL A   1      47.004  27.902  35.527  1.00  0.00     0.022 A 
BRANCH  88  91
ATOM     91  S   UNL A   1      45.912  25.656  36.689  1.00  0.00     0.127 S 
ATOM     92  O   UNL A   1      47.241  25.598  37.447  1.00  0.00    -0.237 OA
ATOM     93  O   UNL A   1      44.756  25.720  37.690  1.00  0.00    -0.237 OA
ATOM     94  O   UNL A   1      45.749  24.258  35.717  1.00  0.00    -0.744 OA
ENDBRANCH  88  91
ENDBRANCH  61  84
ENDBRANCH  35  36
ENDBRANCH  28  30
ENDBRANCH  27  28
ENDBRANCH   1  27
TORSDOF 16
ENDMDL
MODEL 2
REMARK VINA RESULT:     -13.0      5.155      9.488
REMARK SMILES O=C(OCCOC(=O)c1ccc(-c2c3nc(c(-c4cccc(S(=O)(=O)[O-])c4F)c4ccc([nH]4)c(-c4cccc(S(=O)(=O)[O-])c4F)c4nc(c(-c5cccc(S(=O)(=O)[O-])c5F)c5ccc2[nH]5)C=C4)C=C3)cc1)C1=Cc2cc(S(F)(F)(F)(F)F)cc(Br)c2O[C@@H]1C(F)(F)F
REMARK SMILES IDX 5 1 4 2 3 3 2 4 1 5 72 6 73 7 88 8 74 9 87 10 75 11 86 12
REMARK SMILES IDX 76 13 84 14 83 15 85 16 89 17 90 18 91 19 92 20 77 21 78 22
REMARK SMILES IDX 79 23 80 24 81 25 82 26 6 27 7 28 8 29 9 30 10 31 71 32
REMARK SMILES IDX 11 33 70 34 12 35 13 36 14 37 64 38 15 39 69 40 63 41 65 42
REMARK SMILES IDX 16 43 68 44 62 45 61 46 17 48 49 49 29 50 48 51 30 52 33 53
REMARK SMILES IDX 47 54 66 55 31 56 32 57 46 59 67 60 34 61 18 62 19 63 27 64
REMARK SMILES IDX 20 65 22 66 28 67 21 68 23 69 24 70 25 71 26 72 50 73 51 74
REMARK SMILES IDX 59 75 52 76 54 77 60 78 53 79 55 80 56 81 57 82 58 83 35 84
REMARK SMILES IDX 36 85 44 86 37 87 39 88 45 89 38 90 40 91 41 92 42 93 43 94
REMARK H PARENT 65 47 33 58
REMARK Flexibility Score: inf
ROOT
ATOM      1  C   UNL A   1      37.411  21.943  25.683  1.00  0.00     0.275 C 
ENDROOT
BRANCH   1   2
ATOM      2  C   UNL A   1      36.621  23.235  25.806  1.00  0.00     0.275 C 
BRANCH   2   3
ATOM      3  O   UNL A   1      36.251  23.689  24.512  1.00  0.00    -0.459 OA
BRANCH   3   4
ATOM      4  C   UNL A   1      35.247  23.002  23.780  1.00  0.00     0.338 C 
ATOM      5  O   UNL A   1      35.300  22.964  22.510  1.00  0.00    -0.246 OA
BRANCH   4   6
ATOM      6  C   UNL A   1      34.108  22.312  24.513  1.00  0.00     0.087 C 
ATOM      7  C   UNL A   1      33.135  23.052  25.109  1.00  0.00     0.027 C 
ATOM      8  C   UNL A   1      34.057  20.794  24.582  1.00  0.00     0.316 C 
ATOM      9  C   UNL A   1      33.187  24.570  25.040  1.00  0.00     0.020 A 
ATOM     10  O   UNL A   1      33.865  24.375  22.771  1.00  0.00    -0.474 OA
ATOM     11  C   UNL A   1      32.943  25.310  26.185  1.00  0.00     0.036 A 
ATOM     12  C   UNL A   1      33.464  25.160  23.884  1.00  0.00     0.142 A 
ATOM     13  C   UNL A   1      32.731  26.688  25.943  1.00  0.00     0.109 A 
ATOM     14  C   UNL A   1      33.367  26.526  23.755  1.00  0.00     0.062 A 
ATOM     15  C   UNL A   1      33.072  27.314  24.831  1.00  0.00     0.044 A 
ATOM     16  Br  UNL A   1      33.654  27.352  22.002  1.00  0.00    -0.047 Br
BRANCH   8  17
ATOM     17  C   UNL A   1      32.773  20.300  23.935  1.00  0.00     0.430 C 
ATOM     18  F   UNL A   1      32.484  21.063  22.884  1.00  0.00    -0.167 F 
ATOM     19  F   UNL A   1      32.931  19.041  23.540  1.00  0.00    -0.167 F 
ATOM     20  F   UNL A   1      31.779  20.367  24.816  1.00  0.00    -0.167 F 
ENDBRANCH   8  17
BRANCH  13  21
ATOM     21  S   UNL A   1      31.934  27.659  27.246  1.00  0.00     0.310 S 
ATOM     22  F   UNL A   1      31.648  28.866  26.258  1.00  0.00    -0.094 F 
ATOM     23  F   UNL A   1      33.325  28.332  27.556  1.00  0.00    -0.094 F 
ATOM     24  F   UNL A   1      31.250  28.493  28.366  1.00  0.00    -0.094 F 
ATOM     25  F   UNL A   1      30.525  27.079  26.829  1.00  0.00    -0.094 F 
ATOM     26  F   UNL A   1      32.594  26.890  26.033  1.00  0.00    -0.094 F 
ENDBRANCH  13  21
ENDBRANCH   4   6
ENDBRANCH   3   4
ENDBRANCH   2   3
ENDBRANCH   1   2
BRANCH   1  27
ATOM     27  O   UNL A   1      38.785  22.244  25.490  1.00  0.00    -0.458 OA
BRANCH  27  28
ATOM     28  C   UNL A   1      39.645  22.385  26.611  1.00  0.00     0.338 C 
ATOM     29  O   UNL A   1      40.034  21.356  27.247  1.00  0.00    -0.246 OA
BRANCH  28  30
ATOM     30  C   UNL A   1      40.100  23.767  27.052  1.00  0.00     0.060 A 
ATOM     31  C   UNL A   1      40.750  23.912  28.266  1.00  0.00     0.016 A 
ATOM     32  C   UNL A   1      39.864  24.811  26.266  1.00  0.00     0.016 A 
ATOM     33  C   UNL A   1      40.859  25.255  28.700  1.00  0.00     0.010 A 
ATOM     34  C   UNL A   1      40.122  26.088  26.705  1.00  0.00     0.010 A 
ATOM     35  C   UNL A   1      40.709  26.309  27.919  1.00  0.00    -0.014 A 
BRANCH  35  36
ATOM     36  C   UNL A   1      41.165  27.695  28.348  1.00  0.00     0.031 A 
ATOM     37  C   UNL A   1      42.523  27.998  28.250  1.00  0.00     0.074 A 
ATOM     38  C   UNL A   1      40.205  28.580  28.808  1.00  0.00     0.049 A 
ATOM     39  N   UNL A   1      43.122  29.155  28.537  1.00  0.00    -0.248 NA
ATOM     40  C   UNL A   1      43.549  27.047  27.794  1.00  0.00     0.031 C 
ATOM     41  C   UNL A   1      38.830  28.285  28.901  1.00  0.00     0.029 A 
ATOM     42  N   UNL A   1      40.389  29.872  29.250  1.00  0.00    -0.354 N 
ATOM     43  C   UNL A   1      44.432  29.068  28.300  1.00  0.00     0.074 A 
ATOM     44  C   UNL A   1      44.727  27.709  27.825  1.00  0.00     0.031 C 
ATOM     45  C   UNL A   1      38.198  29.377  29.403  1.00  0.00     0.029 A 
ATOM     46  C   UNL A   1      39.165  30.375  29.631  1.00  0.00     0.049 A 
ATOM     47  H   UNL A   1      41.248  30.352  29.288  1.00  0.00     0.167 HD
ATOM     48  C   UNL A   1      45.392  30.069  28.460  1.00  0.00     0.034 A 
ATOM     49  C   UNL A   1      38.888  31.629  30.152  1.00  0.00     0.034 A 
ATOM     50  C   UNL A   1      45.108  31.337  28.941  1.00  0.00     0.049 A 
ATOM     51  C   UNL A   1      39.858  32.611  30.367  1.00  0.00     0.074 A 
ATOM     52  C   UNL A   1      46.063  32.359  29.101  1.00  0.00     0.029 A 
ATOM     53  N   UNL A   1      43.888  31.833  29.344  1.00  0.00    -0.354 N 
ATOM     54  N   UNL A   1      41.161  32.536  30.093  1.00  0.00    -0.248 NA
ATOM     55  C   UNL A   1      39.581  33.931  30.948  1.00  0.00     0.031 C 
ATOM     56  C   UNL A   1      45.429  33.453  29.603  1.00  0.00     0.029 A 
ATOM     57  C   UNL A   1      44.069  33.131  29.766  1.00  0.00     0.049 A 
ATOM     58  H   UNL A   1      43.034  31.342  29.334  1.00  0.00     0.167 HD
ATOM     59  C   UNL A   1      41.765  33.681  30.420  1.00  0.00     0.074 A 
ATOM     60  C   UNL A   1      40.759  34.592  30.981  1.00  0.00     0.031 C 
ATOM     61  C   UNL A   1      43.115  34.004  30.268  1.00  0.00     0.034 A 
BRANCH  48  62
ATOM     62  C   UNL A   1      46.830  29.748  28.087  1.00  0.00     0.023 A 
ATOM     63  C   UNL A   1      47.273  29.969  26.793  1.00  0.00     0.012 A 
ATOM     64  C   UNL A   1      47.642  29.261  29.018  1.00  0.00     0.148 A 
ATOM     65  C   UNL A   1      48.520  29.368  26.503  1.00  0.00     0.002 A 
ATOM     66  C   UNL A   1      48.899  28.816  28.687  1.00  0.00     0.091 A 
ATOM     67  F   UNL A   1      47.233  29.202  30.282  1.00  0.00    -0.205 F 
ATOM     68  C   UNL A   1      49.379  28.948  27.415  1.00  0.00     0.022 A 
BRANCH  66  69
ATOM     69  S   UNL A   1      49.934  28.045  29.956  1.00  0.00     0.127 S 
ATOM     70  O   UNL A   1      51.229  27.535  29.317  1.00  0.00    -0.237 OA
ATOM     71  O   UNL A   1      50.271  29.075  31.036  1.00  0.00    -0.237 OA
ATOM     72  O   UNL A   1      49.092  26.734  30.661  1.00  0.00    -0.744 OA
ENDBRANCH  66  69
ENDBRANCH  48  62
BRANCH  49  73
ATOM     73  C   UNL A   1      37.447  31.954  30.510  1.00  0.00     0.023 A 
ATOM     74  C   UNL A   1      36.992  31.732  31.799  1.00  0.00     0.012 A 
ATOM     75  C   UNL A   1      36.650  32.457  29.575  1.00  0.00     0.148 A 
ATOM     76  C   UNL A   1      35.585  31.806  31.931  1.00  0.00     0.002 A 
ATOM     77  C   UNL A   1      35.308  32.630  29.818  1.00  0.00     0.091 A 
ATOM     78  F   UNL A   1      37.154  32.798  28.392  1.00  0.00    -0.205 F 
ATOM     79  C   UNL A   1      34.778  32.374  31.053  1.00  0.00     0.022 A 
BRANCH  77  80
ATOM     80  S   UNL A   1      34.226  33.203  28.485  1.00  0.00     0.127 S 
ATOM     81  O   UNL A   1      33.060  33.996  29.081  1.00  0.00    -0.237 OA
ATOM     82  O   UNL A   1      35.020  34.101  27.534  1.00  0.00    -0.237 OA
ATOM     83  O   UNL A   1      33.619  31.856  27.625  1.00  0.00    -0.744 OA
ENDBRANCH  77  80
ENDBRANCH  49  73
BRANCH  61  84
ATOM     84  C   UNL A   1      43.567  35.396  30.677  1.00  0.00     0.023 A 
ATOM     85  C   UNL A   1      44.011  35.612  31.971  1.00  0.00     0.012 A 
ATOM     86  C   UNL A   1      43.528  36.381  29.788  1.00  0.00     0.148 A 
ATOM     87  C   UNL A   1      44.121  36.979  32.318  1.00  0.00     0.002 A 
ATOM     88  C   UNL A   1      43.780  37.677  30.170  1.00  0.00     0.091 A 
ATOM     89  F   UNL A   1      43.242  36.112  28.518  1.00  0.00    -0.205 F 
ATOM     90  C   UNL A   1      44.166  37.971  31.448  1.00  0.00     0.022 A 
BRANCH  88  91
ATOM     91  S   UNL A   1      43.599  39.013  28.962  1.00  0.00     0.127 S 
ATOM     92  O   UNL A   1      42.165  39.025  28.425  1.00  0.00    -0.237 OA
ATOM     93  O   UNL A   1      43.903  40.354  29.635  1.00  0.00    -0.237 OA
ATOM     94  O   UNL A   1      44.689  38.764  27.668  1.00  0.00    -0.744 OA
ENDBRANCH  88  91
ENDBRANCH  61  84
ENDBRANCH  35  36
ENDBRANCH  28  30
ENDBRANCH  27  28
ENDBRANCH   1  27
TORSDOF 16
ENDMDL
MODEL 3
REMARK VINA RESULT:     -12.9      2.849      8.040
REMARK SMILES O=C(OCCOC(=O)c1ccc(-c2c3nc(c(-c4cccc(S(=O)(=O)[O-])c4F)c4ccc([nH]4)c(-c4cccc(S(=O)(=O)[O-])c4F)c4nc(c(-c5cccc(S(=O)(=O)[O-])c5F)c5ccc2[nH]5)C=C4)C=C3)cc1)C1=Cc2cc(S(F)(F)(F)(F)F)cc(Br)c2O[C@@H]1C(F)(F)F
REMARK SMILES IDX 5 1 4 2 3 3 2 4 1 5 72 6 73 7 88 8 74 9 87 10 75 11 86 12
REMARK SMILES IDX 76 13 84 14 83 15 85 16 89 17 90 18 91 19 92 20 77 21 78 22
REMARK SMILES IDX 79 23 80 24 81 25 82 26 6 27 7 28 8 29 9 30 10 31 71 32
REMARK SMILES IDX 11 33 70 34 12 35 13 36 14 37 64 38 15 39 69 40 63 41 65 42
REMARK SMILES IDX 16 43 68 44 62 45 61 46 17 48 49 49 29 50 48 51 30 52 33 53
REMARK SMILES IDX 47 54 66 55 31 56 32 57 46 59 67 60 34 61 18 62 19 63 27 64
REMARK SMILES IDX 20 65 22 66 28 67 21 68 23 69 24 70 25 71 26 72 50 73 51 74
REMARK SMILES IDX 59 75 52 76 54 77 60 78 53 79 55 80 56 81 57 82 58 83 35 84
REMARK SMILES IDX 36 85 44 86 37 87 39 88 45 89 38 90 40 91 41 92 42 93 43 94
REMARK H PARENT 65 47 33 58
REMARK Flexibility Score: inf
ROOT
ATOM      1  C   UNL A   1      32.462  29.685  27.249  1.00  0.00     0.275 C 
ENDROOT
BRANCH   1   2
ATOM      2  C   UNL A   1      32.288  28.304  27.861  1.00  0.00     0.275 C 
BRANCH   2   3
ATOM      3  O   UNL A   1      32.760  27.321  26.952  1.00  0.00    -0.459 OA
BRANCH   3   4
ATOM      4  C   UNL A   1      31.899  26.812  25.944  1.00  0.00     0.338 C 
ATOM      5  O   UNL A   1      30.742  26.387  26.253  1.00  0.00    -0.246 OA
BRANCH   4   6
ATOM      6  C   UNL A   1      32.360  26.778  24.496  1.00  0.00     0.087 C 
ATOM      7  C   UNL A   1      33.284  25.862  24.098  1.00  0.00     0.027 C 
ATOM      8  C   UNL A   1      31.789  27.766  23.492  1.00  0.00     0.316 C 
ATOM      9  C   UNL A   1      33.854  24.873  25.102  1.00  0.00     0.020 A 
ATOM     10  O   UNL A   1      31.668  24.631  26.002  1.00  0.00    -0.474 OA
ATOM     11  C   UNL A   1      35.218  24.639  25.123  1.00  0.00     0.036 A 
ATOM     12  C   UNL A   1      33.035  24.251  25.941  1.00  0.00     0.142 A 
ATOM     13  C   UNL A   1      35.594  23.504  25.883  1.00  0.00     0.109 A 
ATOM     14  C   UNL A   1      33.498  23.243  26.753  1.00  0.00     0.062 A 
ATOM     15  C   UNL A   1      34.825  22.918  26.782  1.00  0.00     0.044 A 
ATOM     16  Br  UNL A   1      32.237  22.257  27.883  1.00  0.00    -0.047 Br
BRANCH   8  17
ATOM     17  C   UNL A   1      31.096  27.008  22.372  1.00  0.00     0.430 C 
ATOM     18  F   UNL A   1      30.212  27.805  21.778  1.00  0.00    -0.167 F 
ATOM     19  F   UNL A   1      31.999  26.606  21.483  1.00  0.00    -0.167 F 
ATOM     20  F   UNL A   1      30.468  25.949  22.876  1.00  0.00    -0.167 F 
ENDBRANCH   8  17
BRANCH  13  21
ATOM     21  S   UNL A   1      37.241  22.809  25.600  1.00  0.00     0.310 S 
ATOM     22  F   UNL A   1      37.496  23.759  24.356  1.00  0.00    -0.094 F 
ATOM     23  F   UNL A   1      36.603  21.778  24.595  1.00  0.00    -0.094 F 
ATOM     24  F   UNL A   1      38.656  22.212  25.358  1.00  0.00    -0.094 F 
ATOM     25  F   UNL A   1      37.881  23.939  26.502  1.00  0.00    -0.094 F 
ATOM     26  F   UNL A   1      35.827  23.497  25.769  1.00  0.00    -0.094 F 
ENDBRANCH  13  21
ENDBRANCH   4   6
ENDBRANCH   3   4
ENDBRANCH   2   3
ENDBRANCH   1   2
BRANCH   1  27
ATOM     27  O   UNL A   1      33.811  29.854  26.839  1.00  0.00    -0.458 OA
BRANCH  27  28
ATOM     28  C   UNL A   1      34.665  30.734  27.555  1.00  0.00     0.338 C 
ATOM     29  O   UNL A   1      34.314  31.939  27.753  1.00  0.00    -0.246 OA
BRANCH  28  30
ATOM     30  C   UNL A   1      36.000  30.234  28.085  1.00  0.00     0.060 A 
ATOM     31  C   UNL A   1      37.142  30.412  27.323  1.00  0.00     0.016 A 
ATOM     32  C   UNL A   1      36.047  29.635  29.270  1.00  0.00     0.016 A 
ATOM     33  C   UNL A   1      38.253  29.658  27.772  1.00  0.00     0.010 A 
ATOM     34  C   UNL A   1      37.205  29.037  29.704  1.00  0.00     0.010 A 
ATOM     35  C   UNL A   1      38.357  29.122  28.973  1.00  0.00    -0.014 A 
BRANCH  35  36
ATOM     36  C   UNL A   1      39.688  28.624  29.516  1.00  0.00     0.031 A 
ATOM     37  C   UNL A   1      40.181  27.412  29.031  1.00  0.00     0.074 A 
ATOM     38  C   UNL A   1      40.336  29.402  30.459  1.00  0.00     0.049 A 
ATOM     39  N   UNL A   1      41.334  26.819  29.345  1.00  0.00    -0.248 NA
ATOM     40  C   UNL A   1      39.477  26.566  28.054  1.00  0.00     0.031 C 
ATOM     41  C   UNL A   1      39.849  30.631  30.947  1.00  0.00     0.029 A 
ATOM     42  N   UNL A   1      41.536  29.146  31.086  1.00  0.00    -0.354 N 
ATOM     43  C   UNL A   1      41.467  25.680  28.663  1.00  0.00     0.074 A 
ATOM     44  C   UNL A   1      40.272  25.498  27.827  1.00  0.00     0.031 C 
ATOM     45  C   UNL A   1      40.735  31.102  31.862  1.00  0.00     0.029 A 
ATOM     46  C   UNL A   1      41.793  30.177  31.962  1.00  0.00     0.049 A 
ATOM     47  H   UNL A   1      42.110  28.361  30.933  1.00  0.00     0.167 HD
ATOM     48  C   UNL A   1      42.540  24.787  28.703  1.00  0.00     0.034 A 
ATOM     49  C   UNL A   1      42.879  30.320  32.809  1.00  0.00     0.034 A 
ATOM     50  C   UNL A   1      43.647  24.951  29.519  1.00  0.00     0.049 A 
ATOM     51  C   UNL A   1      43.925  29.397  32.892  1.00  0.00     0.074 A 
ATOM     52  C   UNL A   1      44.739  24.064  29.565  1.00  0.00     0.029 A 
ATOM     53  N   UNL A   1      43.892  25.970  30.413  1.00  0.00    -0.354 N 
ATOM     54  N   UNL A   1      44.076  28.278  32.182  1.00  0.00    -0.248 NA
ATOM     55  C   UNL A   1      45.065  29.522  33.809  1.00  0.00     0.031 C 
ATOM     56  C   UNL A   1      45.627  24.536  30.482  1.00  0.00     0.029 A 
ATOM     57  C   UNL A   1      45.102  25.725  31.023  1.00  0.00     0.049 A 
ATOM     58  H   UNL A   1      43.303  26.740  30.586  1.00  0.00     0.167 HD
ATOM     59  C   UNL A   1      45.210  27.665  32.527  1.00  0.00     0.074 A 
ATOM     60  C   UNL A   1      45.859  28.452  33.584  1.00  0.00     0.031 C 
ATOM     61  C   UNL A   1      45.732  26.483  32.000  1.00  0.00     0.034 A 
BRANCH  48  62
ATOM     62  C   UNL A   1      42.488  23.564  27.800  1.00  0.00     0.023 A 
ATOM     63  C   UNL A   1      41.554  22.570  28.039  1.00  0.00     0.012 A 
ATOM     64  C   UNL A   1      43.346  23.476  26.791  1.00  0.00     0.148 A 
ATOM     65  C   UNL A   1      41.796  21.373  27.324  1.00  0.00     0.002 A 
ATOM     66  C   UNL A   1      43.435  22.324  26.048  1.00  0.00     0.091 A 
ATOM     67  F   UNL A   1      44.126  24.511  26.496  1.00  0.00    -0.205 F 
ATOM     68  C   UNL A   1      42.584  21.277  26.268  1.00  0.00     0.022 A 
BRANCH  66  69
ATOM     69  S   UNL A   1      44.698  22.189  24.758  1.00  0.00     0.127 S 
ATOM     70  O   UNL A   1      44.427  20.946  23.907  1.00  0.00    -0.237 OA
ATOM     71  O   UNL A   1      44.655  23.434  23.869  1.00  0.00    -0.237 OA
ATOM     72  O   UNL A   1      46.241  22.058  25.482  1.00  0.00    -0.744 OA
ENDBRANCH  66  69
ENDBRANCH  48  62
BRANCH  49  73
ATOM     73  C   UNL A   1      42.938  31.551  33.699  1.00  0.00     0.023 A 
ATOM     74  C   UNL A   1      43.592  32.689  33.256  1.00  0.00     0.012 A 
ATOM     75  C   UNL A   1      42.349  31.514  34.888  1.00  0.00     0.148 A 
ATOM     76  C   UNL A   1      43.818  33.651  34.269  1.00  0.00     0.002 A 
ATOM     77  C   UNL A   1      42.501  32.551  35.777  1.00  0.00     0.091 A 
ATOM     78  F   UNL A   1      41.604  30.464  35.223  1.00  0.00    -0.205 F 
ATOM     79  C   UNL A   1      43.185  33.682  35.428  1.00  0.00     0.022 A 
BRANCH  77  80
ATOM     80  S   UNL A   1      41.787  32.418  37.435  1.00  0.00     0.127 S 
ATOM     81  O   UNL A   1      41.964  33.746  38.175  1.00  0.00    -0.237 OA
ATOM     82  O   UNL A   1      40.297  32.091  37.324  1.00  0.00    -0.237 OA
ATOM     83  O   UNL A   1      42.581  31.174  38.299  1.00  0.00    -0.744 OA
ENDBRANCH  77  80
ENDBRANCH  49  73
BRANCH  61  84
ATOM     84  C   UNL A   1      47.071  25.995  32.528  1.00  0.00     0.023 A 
ATOM     85  C   UNL A   1      48.239  26.455  31.943  1.00  0.00     0.012 A 
ATOM     86  C   UNL A   1      47.099  25.136  33.540  1.00  0.00     0.148 A 
ATOM     87  C   UNL A   1      49.392  25.722  32.311  1.00  0.00     0.002 A 
ATOM     88  C   UNL A   1      48.281  24.560  33.935  1.00  0.00     0.091 A 
ATOM     89  F   UNL A   1      45.971  24.831  34.176  1.00  0.00    -0.205 F 
ATOM     90  C   UNL A   1      49.468  24.923  33.361  1.00  0.00     0.022 A 
BRANCH  88  91
ATOM     91  S   UNL A   1      48.269  23.301  35.236  1.00  0.00     0.127 S 
ATOM     92  O   UNL A   1      49.705  22.864  35.537  1.00  0.00    -0.237 OA
ATOM     93  O   UNL A   1      47.637  23.883  36.503  1.00  0.00    -0.237 OA
ATOM     94  O   UNL A   1      47.360  21.950  34.714  1.00  0.00    -0.744 OA
ENDBRANCH  88  91
ENDBRANCH  61  84
ENDBRANCH  35  36
ENDBRANCH  28  30
ENDBRANCH  27  28
ENDBRANCH   1  27
TORSDOF 16
ENDMDL
