MODEL 1
REMARK VINA RESULT:     -15.3      0.000      0.000
REMARK SMILES Cc1ccc(NC(=O)[C@H]2CC(Cl)=CC[C@@H]2C(=O)OCCOC(=O)c2ccc(-c3c4nc(c(-c5cccc(S(=O)(=O)[O-])c5F)c5ccc([nH]5)c(-c5cccc(S(=O)(=O)[O-])c5F)c5nc(c(-c6cccc(S(=O)(=O)[O-])c6F)c6ccc3[nH]6)C=C5)C=C4)cc2)cc1[N+](=O)[O-]
REMARK SMILES IDX 19 1 18 2 16 3 17 4 15 5 9 6 10 7 11 8 14 9 12 10 13 11 7 12
REMARK SMILES IDX 6 13 8 15 5 16 1 17 2 18 3 19 88 20 4 21 87 22 89 23 90 24
REMARK SMILES IDX 91 25 20 26 21 27 22 28 23 29 24 30 25 31 86 32 26 33 85 34
REMARK SMILES IDX 27 35 28 36 29 37 79 38 30 39 84 40 78 41 80 42 31 43 83 44
REMARK SMILES IDX 77 45 76 46 32 48 64 49 44 50 63 51 45 52 48 53 62 54 81 55
REMARK SMILES IDX 46 56 47 57 61 59 82 60 49 61 33 62 34 63 42 64 35 65 37 66
REMARK SMILES IDX 43 67 36 68 38 69 39 70 40 71 41 72 65 73 66 74 74 75 67 76
REMARK SMILES IDX 69 77 75 78 68 79 70 80 71 81 72 82 73 83 50 84 51 85 59 86
REMARK SMILES IDX 52 87 54 88 60 89 53 90 55 91 56 92 57 93 58 94
REMARK H PARENT 6 14 80 47 48 58
REMARK Flexibility Score: inf
ROOT
ATOM      1  C   UNL A   1      31.816  26.886  26.529  1.00  0.00     0.274 C 
ENDROOT
BRANCH   1   2
ATOM      2  O   UNL A   1      32.871  25.465  26.454  1.00  0.00    -0.462 OA
BRANCH   2   3
ATOM      3  C   UNL A   1      33.948  25.220  25.619  1.00  0.00     0.310 C 
ATOM      4  O   UNL A   1      34.460  26.123  24.979  1.00  0.00    -0.252 OA
BRANCH   3   5
ATOM      5  C   UNL A   1      34.453  23.723  25.462  1.00  0.00     0.116 C 
ATOM      6  C   UNL A   1      33.901  22.862  24.290  1.00  0.00     0.098 C 
ATOM      7  C   UNL A   1      34.177  21.356  24.385  1.00  0.00     0.062 C 
ATOM      8  C   UNL A   1      33.638  20.828  25.670  1.00  0.00     0.015 C 
ATOM      9  C   UNL A   1      34.298  22.941  26.825  1.00  0.00     0.044 C 
ATOM     10  Cl  UNL A   1      32.896  19.274  25.636  1.00  0.00    -0.089 Cl
ATOM     11  C   UNL A   1      33.687  21.560  26.785  1.00  0.00    -0.010 C 
BRANCH   6  12
ATOM     12  C   UNL A   1      34.438  23.384  22.995  1.00  0.00     0.228 C 
ATOM     13  N   UNL A   1      33.638  24.180  22.240  1.00  0.00    -0.326 N 
ATOM     14  H   UNL A   1      33.994  24.403  21.350  1.00  0.00     0.169 HD
ATOM     15  O   UNL A   1      35.579  23.140  22.604  1.00  0.00    -0.274 OA
BRANCH  13  16
ATOM     16  C   UNL A   1      32.385  24.731  22.532  1.00  0.00     0.048 A 
ATOM     17  C   UNL A   1      28.174  27.339  23.637  1.00  0.00     0.052 C 
ATOM     18  C   UNL A   1      29.586  26.759  23.678  1.00  0.00     0.027 A 
ATOM     19  C   UNL A   1      29.610  25.034  23.979  1.00  0.00     0.012 A 
ATOM     20  C   UNL A   1      30.911  27.443  22.825  1.00  0.00     0.274 A 
ATOM     21  C   UNL A   1      31.014  23.940  23.445  1.00  0.00     0.027 A 
ATOM     22  C   UNL A   1      32.282  26.489  22.259  1.00  0.00     0.112 A 
BRANCH  20  23
ATOM     23  N   UNL A   1      31.005  28.895  22.796  1.00  0.00     0.063 N 
ATOM     24  O   UNL A   1      30.509  29.461  21.817  1.00  0.00    -0.258 OA
ATOM     25  O   UNL A   1      31.583  29.455  23.732  1.00  0.00    -0.258 OA
ENDBRANCH  20  23
ENDBRANCH  13  16
ENDBRANCH   6  12
ENDBRANCH   3   5
ENDBRANCH   2   3
ENDBRANCH   1   2
BRANCH   1  26
ATOM     26  C   UNL A   1      32.485  28.795  27.372  1.00  0.00     0.275 C 
BRANCH  26  27
ATOM     27  O   UNL A   1      34.272  29.232  27.526  1.00  0.00    -0.458 OA
BRANCH  27  28
ATOM     28  C   UNL A   1      35.254  30.245  27.882  1.00  0.00     0.338 C 
ATOM     29  O   UNL A   1      35.016  31.417  27.595  1.00  0.00    -0.246 OA
BRANCH  28  30
ATOM     30  C   UNL A   1      36.669  29.949  28.507  1.00  0.00     0.060 A 
ATOM     31  C   UNL A   1      36.988  29.119  29.605  1.00  0.00     0.016 A 
ATOM     32  C   UNL A   1      37.732  30.255  27.706  1.00  0.00     0.016 A 
ATOM     33  C   UNL A   1      38.195  28.315  29.630  1.00  0.00     0.010 A 
ATOM     34  C   UNL A   1      38.654  29.216  27.561  1.00  0.00     0.010 A 
ATOM     35  C   UNL A   1      38.984  28.228  28.497  1.00  0.00    -0.014 A 
BRANCH  35  36
ATOM     36  C   UNL A   1      40.193  27.385  28.141  1.00  0.00     0.031 A 
ATOM     37  C   UNL A   1      40.249  25.879  27.969  1.00  0.00     0.074 A 
ATOM     38  C   UNL A   1      41.342  28.121  28.060  1.00  0.00     0.049 A 
ATOM     39  N   UNL A   1      41.017  25.080  28.647  1.00  0.00    -0.248 NA
ATOM     40  C   UNL A   1      39.506  25.135  26.936  1.00  0.00     0.031 C 
ATOM     41  C   UNL A   1      42.744  27.812  27.832  1.00  0.00     0.029 A 
ATOM     42  N   UNL A   1      41.433  29.503  28.383  1.00  0.00    -0.354 N 
ATOM     43  C   UNL A   1      41.020  23.837  27.998  1.00  0.00     0.074 A 
ATOM     44  C   UNL A   1      39.898  23.860  27.106  1.00  0.00     0.031 C 
ATOM     45  C   UNL A   1      43.474  28.791  28.433  1.00  0.00     0.029 A 
ATOM     46  C   UNL A   1      42.542  29.659  29.165  1.00  0.00     0.049 A 
ATOM     47  H   UNL A   1      40.814  30.213  28.096  1.00  0.00     0.167 HD
ATOM     48  C   UNL A   1      42.133  23.037  27.983  1.00  0.00     0.034 A 
ATOM     49  C   UNL A   1      42.341  29.810  30.508  1.00  0.00     0.034 A 
ATOM     50  C   UNL A   1      43.242  23.806  28.542  1.00  0.00     0.049 A 
ATOM     51  C   UNL A   1      43.076  28.768  31.288  1.00  0.00     0.074 A 
ATOM     52  C   UNL A   1      44.215  24.590  27.944  1.00  0.00     0.029 A 
ATOM     53  N   UNL A   1      43.242  24.126  29.878  1.00  0.00    -0.354 N 
ATOM     54  N   UNL A   1      43.551  27.677  30.768  1.00  0.00    -0.248 NA
ATOM     55  C   UNL A   1      43.194  28.826  32.736  1.00  0.00     0.031 C 
ATOM     56  C   UNL A   1      44.799  25.399  28.956  1.00  0.00     0.029 A 
ATOM     57  C   UNL A   1      44.200  25.083  30.162  1.00  0.00     0.049 A 
ATOM     58  H   UNL A   1      42.640  23.726  30.546  1.00  0.00     0.167 HD
ATOM     59  C   UNL A   1      43.893  26.826  31.774  1.00  0.00     0.074 A 
ATOM     60  C   UNL A   1      43.642  27.588  32.989  1.00  0.00     0.031 C 
ATOM     61  C   UNL A   1      44.299  25.546  31.535  1.00  0.00     0.034 A 
BRANCH  48  62
ATOM     62  C   UNL A   1      42.411  21.751  27.178  1.00  0.00     0.023 A 
ATOM     63  C   UNL A   1      41.498  20.678  27.375  1.00  0.00     0.012 A 
ATOM     64  C   UNL A   1      43.434  21.506  26.226  1.00  0.00     0.148 A 
ATOM     65  C   UNL A   1      41.616  19.429  26.760  1.00  0.00     0.002 A 
ATOM     66  C   UNL A   1      43.559  20.240  25.606  1.00  0.00     0.091 A 
ATOM     67  F   UNL A   1      44.267  22.499  25.890  1.00  0.00    -0.205 F 
ATOM     68  C   UNL A   1      42.658  19.203  25.885  1.00  0.00     0.022 A 
BRANCH  66  69
ATOM     69  S   UNL A   1      44.873  19.792  24.448  1.00  0.00     0.127 S 
ATOM     70  O   UNL A   1      44.610  18.368  24.224  1.00  0.00    -0.237 OA
ATOM     71  O   UNL A   1      44.585  20.640  23.291  1.00  0.00    -0.237 OA
ATOM     72  O   UNL A   1      46.129  20.072  25.128  1.00  0.00    -0.744 OA
ENDBRANCH  66  69
ENDBRANCH  48  62
BRANCH  49  73
ATOM     73  C   UNL A   1      40.993  30.346  30.993  1.00  0.00     0.023 A 
ATOM     74  C   UNL A   1      40.244  29.645  31.969  1.00  0.00     0.012 A 
ATOM     75  C   UNL A   1      40.510  31.623  30.613  1.00  0.00     0.148 A 
ATOM     76  C   UNL A   1      39.095  30.205  32.558  1.00  0.00     0.002 A 
ATOM     77  C   UNL A   1      39.350  32.162  31.179  1.00  0.00     0.091 A 
ATOM     78  F   UNL A   1      41.214  32.355  29.739  1.00  0.00    -0.205 F 
ATOM     79  C   UNL A   1      38.651  31.467  32.169  1.00  0.00     0.022 A 
BRANCH  77  80
ATOM     80  S   UNL A   1      38.685  33.731  30.588  1.00  0.00     0.127 S 
ATOM     81  O   UNL A   1      39.875  34.580  30.515  1.00  0.00    -0.237 OA
ATOM     82  O   UNL A   1      38.114  33.397  29.287  1.00  0.00    -0.237 OA
ATOM     83  O   UNL A   1      37.750  34.115  31.640  1.00  0.00    -0.744 OA
ENDBRANCH  77  80
ENDBRANCH  49  73
BRANCH  61  84
ATOM     84  C   UNL A   1      44.773  24.615  32.622  1.00  0.00     0.023 A 
ATOM     85  C   UNL A   1      43.899  23.661  33.171  1.00  0.00     0.012 A 
ATOM     86  C   UNL A   1      46.055  24.718  33.215  1.00  0.00     0.148 A 
ATOM     87  C   UNL A   1      44.316  22.744  34.133  1.00  0.00     0.002 A 
ATOM     88  C   UNL A   1      46.446  23.857  34.227  1.00  0.00     0.091 A 
ATOM     89  F   UNL A   1      46.904  25.674  32.834  1.00  0.00    -0.205 F 
ATOM     90  C   UNL A   1      45.597  22.836  34.655  1.00  0.00     0.022 A 
BRANCH  88  91
ATOM     91  S   UNL A   1      48.003  24.052  35.100  1.00  0.00     0.127 S 
ATOM     92  O   UNL A   1      47.954  22.920  36.026  1.00  0.00    -0.237 OA
ATOM     93  O   UNL A   1      48.973  23.915  34.016  1.00  0.00    -0.237 OA
ATOM     94  O   UNL A   1      47.965  25.362  35.732  1.00  0.00    -0.744 OA
ENDBRANCH  88  91
ENDBRANCH  61  84
ENDBRANCH  35  36
ENDBRANCH  28  30
ENDBRANCH  27  28
ENDBRANCH  26  27
ENDBRANCH   1  26
TORSDOF 17
ENDMDL
MODEL 2
REMARK VINA RESULT:     -14.4      3.878     10.154
REMARK SMILES Cc1ccc(NC(=O)[C@H]2CC(Cl)=CC[C@@H]2C(=O)OCCOC(=O)c2ccc(-c3c4nc(c(-c5cccc(S(=O)(=O)[O-])c5F)c5ccc([nH]5)c(-c5cccc(S(=O)(=O)[O-])c5F)c5nc(c(-c6cccc(S(=O)(=O)[O-])c6F)c6ccc3[nH]6)C=C5)C=C4)cc2)cc1[N+](=O)[O-]
REMARK SMILES IDX 19 1 18 2 16 3 17 4 15 5 9 6 10 7 11 8 14 9 12 10 13 11 7 12
REMARK SMILES IDX 6 13 8 15 5 16 1 17 2 18 3 19 88 20 4 21 87 22 89 23 90 24
REMARK SMILES IDX 91 25 20 26 21 27 22 28 23 29 24 30 25 31 86 32 26 33 85 34
REMARK SMILES IDX 27 35 28 36 29 37 79 38 30 39 84 40 78 41 80 42 31 43 83 44
REMARK SMILES IDX 77 45 76 46 32 48 64 49 44 50 63 51 45 52 48 53 62 54 81 55
REMARK SMILES IDX 46 56 47 57 61 59 82 60 49 61 33 62 34 63 42 64 35 65 37 66
REMARK SMILES IDX 43 67 36 68 38 69 39 70 40 71 41 72 65 73 66 74 74 75 67 76
REMARK SMILES IDX 69 77 75 78 68 79 70 80 71 81 72 82 73 83 50 84 51 85 59 86
REMARK SMILES IDX 52 87 54 88 60 89 53 90 55 91 56 92 57 93 58 94
REMARK H PARENT 6 14 80 47 48 58
REMARK Flexibility Score: inf
ROOT
ATOM      1  C   UNL A   1      34.362  23.372  26.394  1.00  0.00     0.274 C 
ENDROOT
BRANCH   1   2
ATOM      2  O   UNL A   1      33.482  24.885  26.117  1.00  0.00    -0.462 OA
BRANCH   2   3
ATOM      3  C   UNL A   1      33.564  25.758  25.045  1.00  0.00     0.310 C 
ATOM      4  O   UNL A   1      34.398  25.597  24.170  1.00  0.00    -0.252 OA
BRANCH   3   5
ATOM      5  C   UNL A   1      32.591  27.013  25.023  1.00  0.00     0.116 C 
ATOM      6  C   UNL A   1      33.145  28.385  24.544  1.00  0.00     0.098 C 
ATOM      7  C   UNL A   1      32.262  29.601  24.847  1.00  0.00     0.062 C 
ATOM      8  C   UNL A   1      31.992  29.672  26.312  1.00  0.00     0.015 C 
ATOM      9  C   UNL A   1      31.871  27.180  26.418  1.00  0.00     0.044 C 
ATOM     10  Cl  UNL A   1      31.978  31.233  27.038  1.00  0.00    -0.089 Cl
ATOM     11  C   UNL A   1      31.822  28.560  27.031  1.00  0.00    -0.010 C 
BRANCH   6  12
ATOM     12  C   UNL A   1      33.417  28.325  23.074  1.00  0.00     0.228 C 
ATOM     13  N   UNL A   1      32.392  28.007  22.242  1.00  0.00    -0.326 N 
ATOM     14  H   UNL A   1      32.646  27.871  21.301  1.00  0.00     0.169 HD
ATOM     15  O   UNL A   1      34.521  28.575  22.593  1.00  0.00    -0.274 OA
BRANCH  13  16
ATOM     16  C   UNL A   1      31.030  27.843  22.516  1.00  0.00     0.048 A 
ATOM     17  C   UNL A   1      26.065  27.940  23.565  1.00  0.00     0.052 C 
ATOM     18  C   UNL A   1      27.575  28.156  23.626  1.00  0.00     0.027 A 
ATOM     19  C   UNL A   1      28.467  26.678  23.919  1.00  0.00     0.012 A 
ATOM     20  C   UNL A   1      28.380  29.428  22.798  1.00  0.00     0.274 A 
ATOM     21  C   UNL A   1      30.238  26.454  23.403  1.00  0.00     0.027 A 
ATOM     22  C   UNL A   1      30.052  29.309  22.250  1.00  0.00     0.112 A 
BRANCH  20  23
ATOM     23  N   UNL A   1      27.725  30.728  22.778  1.00  0.00     0.063 N 
ATOM     24  O   UNL A   1      27.661  31.297  21.684  1.00  0.00    -0.258 OA
ATOM     25  O   UNL A   1      27.297  31.176  23.846  1.00  0.00    -0.258 OA
ENDBRANCH  20  23
ENDBRANCH  13  16
ENDBRANCH   6  12
ENDBRANCH   3   5
ENDBRANCH   2   3
ENDBRANCH   1   2
BRANCH   1  26
ATOM     26  C   UNL A   1      36.361  23.014  25.572  1.00  0.00     0.275 C 
BRANCH  26  27
ATOM     27  O   UNL A   1      37.834  23.995  26.099  1.00  0.00    -0.458 OA
BRANCH  27  28
ATOM     28  C   UNL A   1      39.112  24.000  26.794  1.00  0.00     0.338 C 
ATOM     29  O   UNL A   1      39.650  22.921  27.035  1.00  0.00    -0.246 OA
BRANCH  28  30
ATOM     30  C   UNL A   1      39.817  25.282  27.376  1.00  0.00     0.060 A 
ATOM     31  C   UNL A   1      40.212  26.454  26.692  1.00  0.00     0.016 A 
ATOM     32  C   UNL A   1      39.738  25.422  28.733  1.00  0.00     0.016 A 
ATOM     33  C   UNL A   1      40.105  27.766  27.301  1.00  0.00     0.010 A 
ATOM     34  C   UNL A   1      39.277  26.672  29.150  1.00  0.00     0.010 A 
ATOM     35  C   UNL A   1      39.461  27.908  28.517  1.00  0.00    -0.014 A 
BRANCH  35  36
ATOM     36  C   UNL A   1      39.052  29.116  29.336  1.00  0.00     0.031 A 
ATOM     37  C   UNL A   1      38.029  30.175  28.970  1.00  0.00     0.074 A 
ATOM     38  C   UNL A   1      39.783  29.246  30.484  1.00  0.00     0.049 A 
ATOM     39  N   UNL A   1      38.276  31.447  28.878  1.00  0.00    -0.248 NA
ATOM     40  C   UNL A   1      36.595  29.907  28.767  1.00  0.00     0.031 C 
ATOM     41  C   UNL A   1      39.849  30.228  31.552  1.00  0.00     0.029 A 
ATOM     42  N   UNL A   1      40.885  28.415  30.830  1.00  0.00    -0.354 N 
ATOM     43  C   UNL A   1      37.047  32.120  28.838  1.00  0.00     0.074 A 
ATOM     44  C   UNL A   1      36.066  31.120  28.530  1.00  0.00     0.031 C 
ATOM     45  C   UNL A   1      41.105  30.169  32.076  1.00  0.00     0.029 A 
ATOM     46  C   UNL A   1      41.889  29.240  31.252  1.00  0.00     0.049 A 
ATOM     47  H   UNL A   1      40.917  27.433  30.776  1.00  0.00     0.167 HD
ATOM     48  C   UNL A   1      36.886  33.358  29.403  1.00  0.00     0.034 A 
ATOM     49  C   UNL A   1      42.910  29.478  30.376  1.00  0.00     0.034 A 
ATOM     50  C   UNL A   1      38.096  33.662  30.161  1.00  0.00     0.049 A 
ATOM     51  C   UNL A   1      43.075  30.941  30.117  1.00  0.00     0.074 A 
ATOM     52  C   UNL A   1      38.423  33.472  31.493  1.00  0.00     0.029 A 
ATOM     53  N   UNL A   1      39.275  33.897  29.495  1.00  0.00    -0.354 N 
ATOM     54  N   UNL A   1      42.174  31.832  30.404  1.00  0.00    -0.248 NA
ATOM     55  C   UNL A   1      44.212  31.474  29.386  1.00  0.00     0.031 C 
ATOM     56  C   UNL A   1      39.834  33.591  31.613  1.00  0.00     0.029 A 
ATOM     57  C   UNL A   1      40.351  33.880  30.363  1.00  0.00     0.049 A 
ATOM     58  H   UNL A   1      39.343  34.057  28.526  1.00  0.00     0.167 HD
ATOM     59  C   UNL A   1      42.503  33.000  29.788  1.00  0.00     0.074 A 
ATOM     60  C   UNL A   1      43.783  32.723  29.154  1.00  0.00     0.031 C 
ATOM     61  C   UNL A   1      41.673  34.083  29.797  1.00  0.00     0.034 A 
BRANCH  48  62
ATOM     62  C   UNL A   1      35.597  34.172  29.642  1.00  0.00     0.023 A 
ATOM     63  C   UNL A   1      34.895  34.590  28.479  1.00  0.00     0.012 A 
ATOM     64  C   UNL A   1      34.988  34.523  30.875  1.00  0.00     0.148 A 
ATOM     65  C   UNL A   1      33.732  35.366  28.505  1.00  0.00     0.002 A 
ATOM     66  C   UNL A   1      33.815  35.313  30.904  1.00  0.00     0.091 A 
ATOM     67  F   UNL A   1      35.517  34.070  32.019  1.00  0.00    -0.205 F 
ATOM     68  C   UNL A   1      33.199  35.742  29.720  1.00  0.00     0.022 A 
BRANCH  66  69
ATOM     69  S   UNL A   1      33.006  35.891  32.414  1.00  0.00     0.127 S 
ATOM     70  O   UNL A   1      31.928  34.911  32.577  1.00  0.00    -0.237 OA
ATOM     71  O   UNL A   1      34.069  35.779  33.412  1.00  0.00    -0.237 OA
ATOM     72  O   UNL A   1      32.549  37.246  32.139  1.00  0.00    -0.744 OA
ENDBRANCH  66  69
ENDBRANCH  48  62
BRANCH  49  73
ATOM     73  C   UNL A   1      43.186  28.452  29.275  1.00  0.00     0.023 A 
ATOM     74  C   UNL A   1      43.250  28.848  27.917  1.00  0.00     0.012 A 
ATOM     75  C   UNL A   1      43.540  27.111  29.567  1.00  0.00     0.148 A 
ATOM     76  C   UNL A   1      43.678  27.961  26.910  1.00  0.00     0.002 A 
ATOM     77  C   UNL A   1      43.934  26.225  28.559  1.00  0.00     0.091 A 
ATOM     78  F   UNL A   1      43.556  26.702  30.842  1.00  0.00    -0.205 F 
ATOM     79  C   UNL A   1      44.027  26.651  27.232  1.00  0.00     0.022 A 
BRANCH  77  80
ATOM     80  S   UNL A   1      44.255  24.491  28.937  1.00  0.00     0.127 S 
ATOM     81  O   UNL A   1      45.036  24.569  30.173  1.00  0.00    -0.237 OA
ATOM     82  O   UNL A   1      42.923  23.922  29.112  1.00  0.00    -0.237 OA
ATOM     83  O   UNL A   1      45.022  24.034  27.783  1.00  0.00    -0.744 OA
ENDBRANCH  77  80
ENDBRANCH  49  73
BRANCH  61  84
ATOM     84  C   UNL A   1      42.053  35.416  29.205  1.00  0.00     0.023 A 
ATOM     85  C   UNL A   1      41.647  35.757  27.903  1.00  0.00     0.012 A 
ATOM     86  C   UNL A   1      42.911  36.331  29.863  1.00  0.00     0.148 A 
ATOM     87  C   UNL A   1      41.926  37.003  27.344  1.00  0.00     0.002 A 
ATOM     88  C   UNL A   1      43.254  37.539  29.276  1.00  0.00     0.091 A 
ATOM     89  F   UNL A   1      43.437  36.033  31.053  1.00  0.00    -0.205 F 
ATOM     90  C   UNL A   1      42.723  37.899  28.038  1.00  0.00     0.022 A 
BRANCH  88  91
ATOM     91  S   UNL A   1      44.452  38.654  30.015  1.00  0.00     0.127 S 
ATOM     92  O   UNL A   1      44.417  39.773  29.073  1.00  0.00    -0.237 OA
ATOM     93  O   UNL A   1      43.844  38.928  31.315  1.00  0.00    -0.237 OA
ATOM     94  O   UNL A   1      45.716  37.934  30.064  1.00  0.00    -0.744 OA
ENDBRANCH  88  91
ENDBRANCH  61  84
ENDBRANCH  35  36
ENDBRANCH  28  30
ENDBRANCH  27  28
ENDBRANCH  26  27
ENDBRANCH   1  26
TORSDOF 17
ENDMDL
MODEL 3
REMARK VINA RESULT:     -13.6      3.835     10.260
REMARK SMILES Cc1ccc(NC(=O)[C@H]2CC(Cl)=CC[C@@H]2C(=O)OCCOC(=O)c2ccc(-c3c4nc(c(-c5cccc(S(=O)(=O)[O-])c5F)c5ccc([nH]5)c(-c5cccc(S(=O)(=O)[O-])c5F)c5nc(c(-c6cccc(S(=O)(=O)[O-])c6F)c6ccc3[nH]6)C=C5)C=C4)cc2)cc1[N+](=O)[O-]
REMARK SMILES IDX 19 1 18 2 16 3 17 4 15 5 9 6 10 7 11 8 14 9 12 10 13 11 7 12
REMARK SMILES IDX 6 13 8 15 5 16 1 17 2 18 3 19 88 20 4 21 87 22 89 23 90 24
REMARK SMILES IDX 91 25 20 26 21 27 22 28 23 29 24 30 25 31 86 32 26 33 85 34
REMARK SMILES IDX 27 35 28 36 29 37 79 38 30 39 84 40 78 41 80 42 31 43 83 44
REMARK SMILES IDX 77 45 76 46 32 48 64 49 44 50 63 51 45 52 48 53 62 54 81 55
REMARK SMILES IDX 46 56 47 57 61 59 82 60 49 61 33 62 34 63 42 64 35 65 37 66
REMARK SMILES IDX 43 67 36 68 38 69 39 70 40 71 41 72 65 73 66 74 74 75 67 76
REMARK SMILES IDX 69 77 75 78 68 79 70 80 71 81 72 82 73 83 50 84 51 85 59 86
REMARK SMILES IDX 52 87 54 88 60 89 53 90 55 91 56 92 57 93 58 94
REMARK H PARENT 6 14 80 47 48 58
REMARK Flexibility Score: inf
ROOT
ATOM      1  C   UNL A   1      36.259  21.849  25.306  1.00  0.00     0.274 C 
ENDROOT
BRANCH   1   2
ATOM      2  O   UNL A   1      35.501  23.450  25.347  1.00  0.00    -0.462 OA
BRANCH   2   3
ATOM      3  C   UNL A   1      34.665  24.044  24.416  1.00  0.00     0.310 C 
ATOM      4  O   UNL A   1      34.771  23.789  23.228  1.00  0.00    -0.252 OA
BRANCH   3   5
ATOM      5  C   UNL A   1      33.614  25.119  24.928  1.00  0.00     0.116 C 
ATOM      6  C   UNL A   1      32.168  24.657  25.261  1.00  0.00     0.098 C 
ATOM      7  C   UNL A   1      31.136  25.778  25.436  1.00  0.00     0.062 C 
ATOM      8  C   UNL A   1      31.104  26.626  24.210  1.00  0.00     0.015 C 
ATOM      9  C   UNL A   1      33.573  26.360  23.953  1.00  0.00     0.044 C 
ATOM     10  Cl  UNL A   1      29.566  27.195  23.683  1.00  0.00    -0.089 Cl
ATOM     11  C   UNL A   1      32.222  26.884  23.528  1.00  0.00    -0.010 C 
BRANCH   6  12
ATOM     12  C   UNL A   1      32.188  23.806  26.491  1.00  0.00     0.228 C 
ATOM     13  N   UNL A   1      32.013  22.467  26.351  1.00  0.00    -0.326 N 
ATOM     14  H   UNL A   1      31.922  21.968  27.195  1.00  0.00     0.169 HD
ATOM     15  O   UNL A   1      32.383  24.269  27.614  1.00  0.00    -0.274 OA
BRANCH  13  16
ATOM     16  C   UNL A   1      31.939  21.686  25.192  1.00  0.00     0.048 A 
ATOM     17  C   UNL A   1      32.148  18.445  21.292  1.00  0.00     0.052 C 
ATOM     18  C   UNL A   1      32.530  19.423  22.401  1.00  0.00     0.027 A 
ATOM     19  C   UNL A   1      31.948  21.048  22.112  1.00  0.00     0.012 A 
ATOM     20  C   UNL A   1      32.798  18.943  24.028  1.00  0.00     0.274 A 
ATOM     21  C   UNL A   1      31.646  22.266  23.483  1.00  0.00     0.027 A 
ATOM     22  C   UNL A   1      32.524  20.016  25.402  1.00  0.00     0.112 A 
BRANCH  20  23
ATOM     23  N   UNL A   1      33.510  17.692  24.245  1.00  0.00     0.063 N 
ATOM     24  O   UNL A   1      32.817  16.685  24.417  1.00  0.00    -0.258 OA
ATOM     25  O   UNL A   1      34.744  17.724  24.260  1.00  0.00    -0.258 OA
ENDBRANCH  20  23
ENDBRANCH  13  16
ENDBRANCH   6  12
ENDBRANCH   3   5
ENDBRANCH   2   3
ENDBRANCH   1   2
BRANCH   1  26
ATOM     26  C   UNL A   1      38.386  21.551  25.741  1.00  0.00     0.275 C 
BRANCH  26  27
ATOM     27  O   UNL A   1      39.411  22.840  26.574  1.00  0.00    -0.458 OA
BRANCH  27  28
ATOM     28  C   UNL A   1      40.748  23.340  26.861  1.00  0.00     0.338 C 
ATOM     29  O   UNL A   1      41.640  22.525  27.086  1.00  0.00    -0.246 OA
BRANCH  28  30
ATOM     30  C   UNL A   1      41.127  24.860  27.026  1.00  0.00     0.060 A 
ATOM     31  C   UNL A   1      40.679  25.963  26.266  1.00  0.00     0.016 A 
ATOM     32  C   UNL A   1      41.678  25.192  28.230  1.00  0.00     0.016 A 
ATOM     33  C   UNL A   1      40.415  27.254  26.874  1.00  0.00     0.010 A 
ATOM     34  C   UNL A   1      41.064  26.278  28.857  1.00  0.00     0.010 A 
ATOM     35  C   UNL A   1      40.450  27.382  28.251  1.00  0.00    -0.014 A 
BRANCH  35  36
ATOM     36  C   UNL A   1      40.089  28.513  29.194  1.00  0.00     0.031 A 
ATOM     37  C   UNL A   1      38.948  29.502  29.053  1.00  0.00     0.074 A 
ATOM     38  C   UNL A   1      40.982  28.648  30.221  1.00  0.00     0.049 A 
ATOM     39  N   UNL A   1      39.084  30.793  28.999  1.00  0.00    -0.248 NA
ATOM     40  C   UNL A   1      37.522  29.129  29.059  1.00  0.00     0.031 C 
ATOM     41  C   UNL A   1      41.145  29.581  31.322  1.00  0.00     0.029 A 
ATOM     42  N   UNL A   1      42.182  27.894  30.343  1.00  0.00    -0.354 N 
ATOM     43  C   UNL A   1      37.818  31.365  29.190  1.00  0.00     0.074 A 
ATOM     44  C   UNL A   1      36.876  30.304  28.978  1.00  0.00     0.031 C 
ATOM     45  C   UNL A   1      42.469  29.599  31.641  1.00  0.00     0.029 A 
ATOM     46  C   UNL A   1      43.178  28.776  30.653  1.00  0.00     0.049 A 
ATOM     47  H   UNL A   1      42.277  26.921  30.226  1.00  0.00     0.167 HD
ATOM     48  C   UNL A   1      37.659  32.558  29.845  1.00  0.00     0.034 A 
ATOM     49  C   UNL A   1      44.027  29.138  29.645  1.00  0.00     0.034 A 
ATOM     50  C   UNL A   1      38.949  32.924  30.424  1.00  0.00     0.049 A 
ATOM     51  C   UNL A   1      44.042  30.620  29.452  1.00  0.00     0.074 A 
ATOM     52  C   UNL A   1      39.496  32.698  31.676  1.00  0.00     0.029 A 
ATOM     53  N   UNL A   1      39.987  33.284  29.599  1.00  0.00    -0.354 N 
ATOM     54  N   UNL A   1      43.136  31.420  29.926  1.00  0.00    -0.248 NA
ATOM     55  C   UNL A   1      45.008  31.277  28.586  1.00  0.00     0.031 C 
ATOM     56  C   UNL A   1      40.896  32.925  31.583  1.00  0.00     0.029 A 
ATOM     57  C   UNL A   1      41.186  33.313  30.288  1.00  0.00     0.049 A 
ATOM     58  H   UNL A   1      39.889  33.494  28.642  1.00  0.00     0.167 HD
ATOM     59  C   UNL A   1      43.277  32.638  29.337  1.00  0.00     0.074 A 
ATOM     60  C   UNL A   1      44.458  32.496  28.498  1.00  0.00     0.031 C 
ATOM     61  C   UNL A   1      42.383  33.649  29.538  1.00  0.00     0.034 A 
BRANCH  48  62
ATOM     62  C   UNL A   1      36.369  33.253  30.328  1.00  0.00     0.023 A 
ATOM     63  C   UNL A   1      36.043  33.083  31.702  1.00  0.00     0.012 A 
ATOM     64  C   UNL A   1      35.482  34.083  29.594  1.00  0.00     0.148 A 
ATOM     65  C   UNL A   1      34.895  33.608  32.303  1.00  0.00     0.002 A 
ATOM     66  C   UNL A   1      34.317  34.610  30.198  1.00  0.00     0.091 A 
ATOM     67  F   UNL A   1      35.775  34.393  28.325  1.00  0.00    -0.205 F 
ATOM     68  C   UNL A   1      34.021  34.360  31.546  1.00  0.00     0.022 A 
BRANCH  66  69
ATOM     69  S   UNL A   1      33.076  35.604  29.337  1.00  0.00     0.127 S 
ATOM     70  O   UNL A   1      33.894  36.660  28.736  1.00  0.00    -0.237 OA
ATOM     71  O   UNL A   1      32.520  34.657  28.371  1.00  0.00    -0.237 OA
ATOM     72  O   UNL A   1      32.148  36.070  30.358  1.00  0.00    -0.744 OA
ENDBRANCH  66  69
ENDBRANCH  48  62
BRANCH  49  73
ATOM     73  C   UNL A   1      44.199  28.191  28.456  1.00  0.00     0.023 A 
ATOM     74  C   UNL A   1      43.755  28.563  27.164  1.00  0.00     0.012 A 
ATOM     75  C   UNL A   1      44.937  26.985  28.555  1.00  0.00     0.148 A 
ATOM     76  C   UNL A   1      44.062  27.790  26.028  1.00  0.00     0.002 A 
ATOM     77  C   UNL A   1      45.212  26.204  27.427  1.00  0.00     0.091 A 
ATOM     78  F   UNL A   1      45.433  26.617  29.744  1.00  0.00    -0.205 F 
ATOM     79  C   UNL A   1      44.796  26.614  26.159  1.00  0.00     0.022 A 
BRANCH  77  80
ATOM     80  S   UNL A   1      46.041  24.610  27.596  1.00  0.00     0.127 S 
ATOM     81  O   UNL A   1      45.304  23.977  28.691  1.00  0.00    -0.237 OA
ATOM     82  O   UNL A   1      45.837  23.975  26.298  1.00  0.00    -0.237 OA
ATOM     83  O   UNL A   1      47.409  24.981  27.942  1.00  0.00    -0.744 OA
ENDBRANCH  77  80
ENDBRANCH  49  73
BRANCH  61  84
ATOM     84  C   UNL A   1      42.566  35.035  28.974  1.00  0.00     0.023 A 
ATOM     85  C   UNL A   1      42.185  35.321  27.652  1.00  0.00     0.012 A 
ATOM     86  C   UNL A   1      43.218  36.072  29.685  1.00  0.00     0.148 A 
ATOM     87  C   UNL A   1      42.282  36.603  27.115  1.00  0.00     0.002 A 
ATOM     88  C   UNL A   1      43.386  37.328  29.125  1.00  0.00     0.091 A 
ATOM     89  F   UNL A   1      43.716  35.851  30.903  1.00  0.00    -0.205 F 
ATOM     90  C   UNL A   1      42.875  37.611  27.858  1.00  0.00     0.022 A 
BRANCH  88  91
ATOM     91  S   UNL A   1      44.334  38.619  29.938  1.00  0.00     0.127 S 
ATOM     92  O   UNL A   1      43.749  38.598  31.280  1.00  0.00    -0.237 OA
ATOM     93  O   UNL A   1      45.693  38.090  29.854  1.00  0.00    -0.237 OA
ATOM     94  O   UNL A   1      44.099  39.843  29.187  1.00  0.00    -0.744 OA
ENDBRANCH  88  91
ENDBRANCH  61  84
ENDBRANCH  35  36
ENDBRANCH  28  30
ENDBRANCH  27  28
ENDBRANCH  26  27
ENDBRANCH   1  26
TORSDOF 17
ENDMDL
