MODEL 1
REMARK VINA RESULT:     -11.7      0.000      0.000
REMARK SMILES COC(=O)c1sc(SCC(=O)OCCOC(=O)c2ccc(-c3c4nc(c(-c5cccc(S(=O)(=O)[O-])c5F)c5ccc([nH]5)c(-c5cccc(S(=O)(=O)[O-])c5F)c5nc(c(-c6cccc(S(=O)(=O)[O-])c6F)c6ccc3[nH]6)C=C5)C=C4)cc2)c(NC(=O)c2ccccc2)c1O
REMARK SMILES IDX 13 1 12 2 10 3 11 4 9 5 8 6 7 7 5 8 6 9 91 10 81 11 3 12
REMARK SMILES IDX 4 13 2 14 1 15 92 16 82 18 83 19 84 21 85 22 86 23 90 24
REMARK SMILES IDX 87 25 89 26 88 27 14 28 15 29 16 30 17 31 18 32 19 33 80 34
REMARK SMILES IDX 20 35 79 36 21 37 22 38 23 39 73 40 24 41 78 42 72 43 74 44
REMARK SMILES IDX 25 45 77 46 71 47 70 48 26 50 58 51 38 52 57 53 39 54 42 55
REMARK SMILES IDX 56 56 75 57 40 58 41 59 55 61 76 62 43 63 27 64 28 65 36 66
REMARK SMILES IDX 29 67 31 68 37 69 30 70 32 71 33 72 34 73 35 74 59 75 60 76
REMARK SMILES IDX 68 77 61 78 63 79 69 80 62 81 64 82 65 83 66 84 67 85 44 86
REMARK SMILES IDX 45 87 53 88 46 89 48 90 54 91 47 92 49 93 50 94 51 95 52 96
REMARK H PARENT 92 17 82 20 74 49 42 60
REMARK Flexibility Score: inf
ROOT
ATOM      1  C   UNL A   1      36.506  32.281  28.881  1.00  0.00     0.274 C 
ENDROOT
BRANCH   1   2
ATOM      2  O   UNL A   1      35.595  31.174  28.685  1.00  0.00    -0.461 OA
BRANCH   2   3
ATOM      3  C   UNL A   1      34.526  31.333  27.829  1.00  0.00     0.316 C 
ATOM      4  O   UNL A   1      33.682  32.218  27.927  1.00  0.00    -0.251 OA
BRANCH   3   5
ATOM      5  C   UNL A   1      34.342  29.961  26.859  1.00  0.00     0.198 C 
BRANCH   5   6
ATOM      6  S   UNL A   1      32.761  27.922  27.057  1.00  0.00    -0.101 SA
BRANCH   6   7
ATOM      7  C   UNL A   1      31.504  27.633  25.785  1.00  0.00     0.089 A 
ATOM      8  C   UNL A   1      30.083  27.914  23.761  1.00  0.00     0.157 A 
ATOM      9  S   UNL A   1      31.435  28.714  24.450  1.00  0.00    -0.116 S 
ATOM     10  C   UNL A   1      29.800  26.758  24.460  1.00  0.00     0.166 A 
ATOM     11  C   UNL A   1      30.572  26.609  25.654  1.00  0.00     0.109 A 
BRANCH   8  12
ATOM     12  C   UNL A   1      29.426  28.531  22.626  1.00  0.00     0.352 C 
ATOM     13  O   UNL A   1      29.977  29.028  21.650  1.00  0.00    -0.245 OA
BRANCH  12  14
ATOM     14  O   UNL A   1      28.080  28.560  22.841  1.00  0.00    -0.465 OA
ATOM     15  C   UNL A   1      27.521  29.864  23.036  1.00  0.00     0.282 C 
ENDBRANCH  12  14
ENDBRANCH   8  12
BRANCH  10  16
ATOM     16  O   UNL A   1      28.820  25.887  24.132  1.00  0.00    -0.504 OA
ATOM     17  H   UNL A   1      28.393  25.389  24.800  1.00  0.00     0.293 HD
ENDBRANCH  10  16
BRANCH  11  18
ATOM     18  N   UNL A   1      30.312  25.571  26.547  1.00  0.00    -0.317 N 
ATOM     19  C   UNL A   1      30.837  24.304  26.505  1.00  0.00     0.255 C 
ATOM     20  H   UNL A   1      29.688  25.768  27.284  1.00  0.00     0.170 HD
ATOM     21  O   UNL A   1      30.417  23.380  27.190  1.00  0.00    -0.269 OA
BRANCH  19  22
ATOM     22  C   UNL A   1      31.919  24.090  25.531  1.00  0.00     0.040 A 
ATOM     23  C   UNL A   1      33.589  24.217  26.178  1.00  0.00     0.014 A 
ATOM     24  C   UNL A   1      31.601  23.148  23.991  1.00  0.00     0.014 A 
ATOM     25  C   UNL A   1      34.937  23.353  25.345  1.00  0.00     0.001 A 
ATOM     26  C   UNL A   1      32.954  22.281  23.178  1.00  0.00     0.001 A 
ATOM     27  C   UNL A   1      34.621  22.389  23.864  1.00  0.00     0.000 A 
ENDBRANCH  19  22
ENDBRANCH  11  18
ENDBRANCH   6   7
ENDBRANCH   5   6
ENDBRANCH   3   5
ENDBRANCH   2   3
ENDBRANCH   1   2
BRANCH   1  28
ATOM     28  C   UNL A   1      36.442  32.757  30.344  1.00  0.00     0.275 C 
BRANCH  28  29
ATOM     29  O   UNL A   1      35.764  31.916  31.316  1.00  0.00    -0.458 OA
BRANCH  29  30
ATOM     30  C   UNL A   1      36.271  31.836  32.566  1.00  0.00     0.338 C 
ATOM     31  O   UNL A   1      35.965  32.568  33.489  1.00  0.00    -0.246 OA
BRANCH  30  32
ATOM     32  C   UNL A   1      37.406  30.889  32.685  1.00  0.00     0.060 A 
ATOM     33  C   UNL A   1      38.672  31.440  32.923  1.00  0.00     0.016 A 
ATOM     34  C   UNL A   1      37.295  29.523  32.423  1.00  0.00     0.016 A 
ATOM     35  C   UNL A   1      39.821  30.683  32.718  1.00  0.00     0.010 A 
ATOM     36  C   UNL A   1      38.454  28.748  32.291  1.00  0.00     0.010 A 
ATOM     37  C   UNL A   1      39.724  29.342  32.342  1.00  0.00    -0.014 A 
BRANCH  37  38
ATOM     38  C   UNL A   1      40.978  28.650  31.989  1.00  0.00     0.031 A 
ATOM     39  C   UNL A   1      41.979  28.362  33.057  1.00  0.00     0.074 A 
ATOM     40  C   UNL A   1      41.262  28.141  30.771  1.00  0.00     0.049 A 
ATOM     41  N   UNL A   1      43.260  28.580  33.027  1.00  0.00    -0.248 NA
ATOM     42  C   UNL A   1      41.495  27.731  34.290  1.00  0.00     0.031 C 
ATOM     43  C   UNL A   1      40.355  28.028  29.632  1.00  0.00     0.029 A 
ATOM     44  N   UNL A   1      42.383  27.453  30.366  1.00  0.00    -0.354 N 
ATOM     45  C   UNL A   1      43.767  27.975  34.172  1.00  0.00     0.074 A 
ATOM     46  C   UNL A   1      42.634  27.529  34.949  1.00  0.00     0.031 C 
ATOM     47  C   UNL A   1      40.825  27.078  28.803  1.00  0.00     0.029 A 
ATOM     48  C   UNL A   1      42.125  26.635  29.283  1.00  0.00     0.049 A 
ATOM     49  H   UNL A   1      43.264  27.533  30.796  1.00  0.00     0.167 HD
ATOM     50  C   UNL A   1      45.083  27.739  34.400  1.00  0.00     0.034 A 
ATOM     51  C   UNL A   1      42.855  25.599  28.824  1.00  0.00     0.034 A 
ATOM     52  C   UNL A   1      45.992  28.359  33.485  1.00  0.00     0.049 A 
ATOM     53  C   UNL A   1      44.257  25.695  29.276  1.00  0.00     0.074 A 
ATOM     54  C   UNL A   1      46.419  29.640  33.213  1.00  0.00     0.029 A 
ATOM     55  N   UNL A   1      46.563  27.544  32.541  1.00  0.00    -0.354 N 
ATOM     56  N   UNL A   1      45.135  26.534  28.802  1.00  0.00    -0.248 NA
ATOM     57  C   UNL A   1      44.706  24.886  30.401  1.00  0.00     0.031 C 
ATOM     58  C   UNL A   1      47.009  29.597  31.919  1.00  0.00     0.029 A 
ATOM     59  C   UNL A   1      46.854  28.300  31.430  1.00  0.00     0.049 A 
ATOM     60  H   UNL A   1      46.736  26.580  32.642  1.00  0.00     0.167 HD
ATOM     61  C   UNL A   1      46.096  26.627  29.796  1.00  0.00     0.074 A 
ATOM     62  C   UNL A   1      45.890  25.455  30.633  1.00  0.00     0.031 C 
ATOM     63  C   UNL A   1      46.718  27.813  30.066  1.00  0.00     0.034 A 
BRANCH  50  64
ATOM     64  C   UNL A   1      45.558  26.745  35.412  1.00  0.00     0.023 A 
ATOM     65  C   UNL A   1      46.266  27.213  36.534  1.00  0.00     0.012 A 
ATOM     66  C   UNL A   1      45.450  25.348  35.221  1.00  0.00     0.148 A 
ATOM     67  C   UNL A   1      46.812  26.312  37.456  1.00  0.00     0.002 A 
ATOM     68  C   UNL A   1      45.950  24.462  36.173  1.00  0.00     0.091 A 
ATOM     69  F   UNL A   1      44.903  24.874  34.089  1.00  0.00    -0.205 F 
ATOM     70  C   UNL A   1      46.645  24.935  37.288  1.00  0.00     0.022 A 
BRANCH  68  71
ATOM     71  S   UNL A   1      45.647  22.704  35.962  1.00  0.00     0.127 S 
ATOM     72  O   UNL A   1      46.656  22.328  34.979  1.00  0.00    -0.237 OA
ATOM     73  O   UNL A   1      45.866  22.150  37.300  1.00  0.00    -0.237 OA
ATOM     74  O   UNL A   1      44.254  22.677  35.527  1.00  0.00    -0.744 OA
ENDBRANCH  68  71
ENDBRANCH  50  64
BRANCH  51  75
ATOM     75  C   UNL A   1      42.375  24.470  28.004  1.00  0.00     0.023 A 
ATOM     76  C   UNL A   1      41.022  24.099  28.052  1.00  0.00     0.012 A 
ATOM     77  C   UNL A   1      43.212  23.835  27.061  1.00  0.00     0.148 A 
ATOM     78  C   UNL A   1      40.525  23.105  27.203  1.00  0.00     0.002 A 
ATOM     79  C   UNL A   1      42.720  22.821  26.247  1.00  0.00     0.091 A 
ATOM     80  F   UNL A   1      44.482  24.249  26.914  1.00  0.00    -0.205 F 
ATOM     81  C   UNL A   1      41.373  22.457  26.306  1.00  0.00     0.022 A 
BRANCH  79  82
ATOM     82  S   UNL A   1      43.853  21.943  25.168  1.00  0.00     0.127 S 
ATOM     83  O   UNL A   1      43.771  22.691  23.912  1.00  0.00    -0.237 OA
ATOM     84  O   UNL A   1      45.126  22.067  25.868  1.00  0.00    -0.237 OA
ATOM     85  O   UNL A   1      43.273  20.604  25.097  1.00  0.00    -0.744 OA
ENDBRANCH  79  82
ENDBRANCH  51  75
BRANCH  63  86
ATOM     86  C   UNL A   1      46.837  28.841  28.963  1.00  0.00     0.023 A 
ATOM     87  C   UNL A   1      48.017  28.964  28.202  1.00  0.00     0.012 A 
ATOM     88  C   UNL A   1      45.707  29.590  28.575  1.00  0.00     0.148 A 
ATOM     89  C   UNL A   1      48.088  29.844  27.120  1.00  0.00     0.002 A 
ATOM     90  C   UNL A   1      45.769  30.432  27.463  1.00  0.00     0.091 A 
ATOM     91  F   UNL A   1      44.575  29.464  29.285  1.00  0.00    -0.205 F 
ATOM     92  C   UNL A   1      46.963  30.570  26.743  1.00  0.00     0.022 A 
BRANCH  90  93
ATOM     93  S   UNL A   1      44.299  31.275  26.864  1.00  0.00     0.127 S 
ATOM     94  O   UNL A   1      43.945  32.134  27.991  1.00  0.00    -0.237 OA
ATOM     95  O   UNL A   1      44.784  31.993  25.683  1.00  0.00    -0.237 OA
ATOM     96  O   UNL A   1      43.364  30.198  26.553  1.00  0.00    -0.744 OA
ENDBRANCH  90  93
ENDBRANCH  63  86
ENDBRANCH  37  38
ENDBRANCH  30  32
ENDBRANCH  29  30
ENDBRANCH  28  29
ENDBRANCH   1  28
TORSDOF 21
ENDMDL
MODEL 2
REMARK VINA RESULT:     -11.6      3.682      4.778
REMARK SMILES COC(=O)c1sc(SCC(=O)OCCOC(=O)c2ccc(-c3c4nc(c(-c5cccc(S(=O)(=O)[O-])c5F)c5ccc([nH]5)c(-c5cccc(S(=O)(=O)[O-])c5F)c5nc(c(-c6cccc(S(=O)(=O)[O-])c6F)c6ccc3[nH]6)C=C5)C=C4)cc2)c(NC(=O)c2ccccc2)c1O
REMARK SMILES IDX 13 1 12 2 10 3 11 4 9 5 8 6 7 7 5 8 6 9 91 10 81 11 3 12
REMARK SMILES IDX 4 13 2 14 1 15 92 16 82 18 83 19 84 21 85 22 86 23 90 24
REMARK SMILES IDX 87 25 89 26 88 27 14 28 15 29 16 30 17 31 18 32 19 33 80 34
REMARK SMILES IDX 20 35 79 36 21 37 22 38 23 39 73 40 24 41 78 42 72 43 74 44
REMARK SMILES IDX 25 45 77 46 71 47 70 48 26 50 58 51 38 52 57 53 39 54 42 55
REMARK SMILES IDX 56 56 75 57 40 58 41 59 55 61 76 62 43 63 27 64 28 65 36 66
REMARK SMILES IDX 29 67 31 68 37 69 30 70 32 71 33 72 34 73 35 74 59 75 60 76
REMARK SMILES IDX 68 77 61 78 63 79 69 80 62 81 64 82 65 83 66 84 67 85 44 86
REMARK SMILES IDX 45 87 53 88 46 89 48 90 54 91 47 92 49 93 50 94 51 95 52 96
REMARK H PARENT 92 17 82 20 74 49 42 60
REMARK Flexibility Score: inf
ROOT
ATOM      1  C   UNL A   1      33.343  34.835  28.299  1.00  0.00     0.274 C 
ENDROOT
BRANCH   1   2
ATOM      2  O   UNL A   1      33.412  33.407  28.527  1.00  0.00    -0.461 OA
BRANCH   2   3
ATOM      3  C   UNL A   1      32.857  32.555  27.596  1.00  0.00     0.316 C 
ATOM      4  O   UNL A   1      31.723  32.667  27.141  1.00  0.00    -0.251 OA
BRANCH   3   5
ATOM      5  C   UNL A   1      33.800  31.161  27.438  1.00  0.00     0.198 C 
BRANCH   5   6
ATOM      6  S   UNL A   1      33.149  28.680  27.102  1.00  0.00    -0.101 SA
BRANCH   6   7
ATOM      7  C   UNL A   1      31.932  28.234  25.836  1.00  0.00     0.089 A 
ATOM      8  C   UNL A   1      30.467  28.339  23.826  1.00  0.00     0.157 A 
ATOM      9  S   UNL A   1      31.702  29.310  24.514  1.00  0.00    -0.116 S 
ATOM     10  C   UNL A   1      30.352  27.148  24.514  1.00  0.00     0.166 A 
ATOM     11  C   UNL A   1      31.148  27.094  25.699  1.00  0.00     0.109 A 
BRANCH   8  12
ATOM     12  C   UNL A   1      29.721  28.872  22.704  1.00  0.00     0.352 C 
ATOM     13  O   UNL A   1      30.191  29.434  21.721  1.00  0.00    -0.245 OA
BRANCH  12  14
ATOM     14  O   UNL A   1      28.385  28.736  22.940  1.00  0.00    -0.465 OA
ATOM     15  C   UNL A   1      27.639  29.958  22.949  1.00  0.00     0.282 C 
ENDBRANCH  12  14
ENDBRANCH   8  12
BRANCH  10  16
ATOM     16  O   UNL A   1      29.498  26.153  24.182  1.00  0.00    -0.504 OA
ATOM     17  H   UNL A   1      29.725  25.263  24.362  1.00  0.00     0.293 HD
ENDBRANCH  10  16
BRANCH  11  18
ATOM     18  N   UNL A   1      31.042  26.020  26.582  1.00  0.00    -0.317 N 
ATOM     19  C   UNL A   1      31.620  24.783  26.441  1.00  0.00     0.255 C 
ATOM     20  H   UNL A   1      30.497  26.164  27.390  1.00  0.00     0.170 HD
ATOM     21  O   UNL A   1      31.326  23.820  27.138  1.00  0.00    -0.269 OA
BRANCH  19  22
ATOM     22  C   UNL A   1      32.594  24.652  25.345  1.00  0.00     0.040 A 
ATOM     23  C   UNL A   1      34.320  24.822  25.809  1.00  0.00     0.014 A 
ATOM     24  C   UNL A   1      32.141  23.757  23.810  1.00  0.00     0.014 A 
ATOM     25  C   UNL A   1      35.597  24.048  24.797  1.00  0.00     0.001 A 
ATOM     26  C   UNL A   1      33.425  22.978  22.817  1.00  0.00     0.001 A 
ATOM     27  C   UNL A   1      35.153  23.130  23.320  1.00  0.00     0.000 A 
ENDBRANCH  19  22
ENDBRANCH  11  18
ENDBRANCH   6   7
ENDBRANCH   5   6
ENDBRANCH   3   5
ENDBRANCH   2   3
ENDBRANCH   1   2
BRANCH   1  28
ATOM     28  C   UNL A   1      33.237  35.572  29.646  1.00  0.00     0.275 C 
BRANCH  28  29
ATOM     29  O   UNL A   1      32.672  34.863  30.782  1.00  0.00    -0.458 OA
BRANCH  29  30
ATOM     30  C   UNL A   1      33.166  35.117  32.013  1.00  0.00     0.338 C 
ATOM     31  O   UNL A   1      32.710  35.935  32.791  1.00  0.00    -0.246 OA
BRANCH  30  32
ATOM     32  C   UNL A   1      34.463  34.447  32.280  1.00  0.00     0.060 A 
ATOM     33  C   UNL A   1      35.564  35.274  32.543  1.00  0.00     0.016 A 
ATOM     34  C   UNL A   1      34.661  33.074  32.133  1.00  0.00     0.016 A 
ATOM     35  C   UNL A   1      36.858  34.768  32.472  1.00  0.00     0.010 A 
ATOM     36  C   UNL A   1      35.963  32.559  32.137  1.00  0.00     0.010 A 
ATOM     37  C   UNL A   1      37.073  33.414  32.210  1.00  0.00    -0.014 A 
BRANCH  37  38
ATOM     38  C   UNL A   1      38.466  32.984  31.992  1.00  0.00     0.031 A 
ATOM     39  C   UNL A   1      39.446  33.087  33.113  1.00  0.00     0.074 A 
ATOM     40  C   UNL A   1      38.924  32.385  30.872  1.00  0.00     0.049 A 
ATOM     41  N   UNL A   1      40.646  33.585  33.078  1.00  0.00    -0.248 NA
ATOM     42  C   UNL A   1      39.048  32.544  34.417  1.00  0.00     0.031 C 
ATOM     43  C   UNL A   1      38.128  31.907  29.744  1.00  0.00     0.029 A 
ATOM     44  N   UNL A   1      40.191  31.921  30.599  1.00  0.00    -0.354 N 
ATOM     45  C   UNL A   1      41.211  33.281  34.311  1.00  0.00     0.074 A 
ATOM     46  C   UNL A   1      40.165  32.704  35.122  1.00  0.00     0.031 C 
ATOM     47  C   UNL A   1      38.844  30.982  29.078  1.00  0.00     0.029 A 
ATOM     48  C   UNL A   1      40.181  30.920  29.647  1.00  0.00     0.049 A 
ATOM     49  H   UNL A   1      41.007  32.261  31.032  1.00  0.00     0.167 HD
ATOM     50  C   UNL A   1      42.531  33.387  34.601  1.00  0.00     0.034 A 
ATOM     51  C   UNL A   1      41.148  30.024  29.365  1.00  0.00     0.034 A 
ATOM     52  C   UNL A   1      43.330  34.062  33.623  1.00  0.00     0.049 A 
ATOM     53  C   UNL A   1      42.466  30.501  29.828  1.00  0.00     0.074 A 
ATOM     54  C   UNL A   1      43.474  35.355  33.170  1.00  0.00     0.029 A 
ATOM     55  N   UNL A   1      44.119  33.273  32.824  1.00  0.00    -0.354 N 
ATOM     56  N   UNL A   1      43.160  31.442  29.251  1.00  0.00    -0.248 NA
ATOM     57  C   UNL A   1      43.022  29.984  31.072  1.00  0.00     0.031 C 
ATOM     58  C   UNL A   1      44.130  35.263  31.909  1.00  0.00     0.029 A 
ATOM     59  C   UNL A   1      44.295  33.909  31.619  1.00  0.00     0.049 A 
ATOM     60  H   UNL A   1      44.496  32.399  33.074  1.00  0.00     0.167 HD
ATOM     61  C   UNL A   1      44.020  31.893  30.240  1.00  0.00     0.074 A 
ATOM     62  C   UNL A   1      44.034  30.836  31.240  1.00  0.00     0.031 C 
ATOM     63  C   UNL A   1      44.345  33.216  30.342  1.00  0.00     0.034 A 
BRANCH  50  64
ATOM     64  C   UNL A   1      43.160  32.682  35.761  1.00  0.00     0.023 A 
ATOM     65  C   UNL A   1      43.673  33.454  36.820  1.00  0.00     0.012 A 
ATOM     66  C   UNL A   1      43.385  31.287  35.777  1.00  0.00     0.148 A 
ATOM     67  C   UNL A   1      44.355  32.843  37.879  1.00  0.00     0.002 A 
ATOM     68  C   UNL A   1      44.017  30.683  36.863  1.00  0.00     0.091 A 
ATOM     69  F   UNL A   1      43.030  30.545  34.715  1.00  0.00    -0.205 F 
ATOM     70  C   UNL A   1      44.517  31.455  37.913  1.00  0.00     0.022 A 
BRANCH  68  71
ATOM     71  S   UNL A   1      44.136  28.891  36.908  1.00  0.00     0.127 S 
ATOM     72  O   UNL A   1      45.068  28.612  35.821  1.00  0.00    -0.237 OA
ATOM     73  O   UNL A   1      44.661  28.611  38.245  1.00  0.00    -0.237 OA
ATOM     74  O   UNL A   1      42.748  28.481  36.715  1.00  0.00    -0.744 OA
ENDBRANCH  68  71
ENDBRANCH  50  64
BRANCH  51  75
ATOM     75  C   UNL A   1      40.977  28.711  28.715  1.00  0.00     0.023 A 
ATOM     76  C   UNL A   1      39.991  27.825  29.179  1.00  0.00     0.012 A 
ATOM     77  C   UNL A   1      41.688  28.369  27.544  1.00  0.00     0.148 A 
ATOM     78  C   UNL A   1      39.740  26.624  28.509  1.00  0.00     0.002 A 
ATOM     79  C   UNL A   1      41.459  27.155  26.906  1.00  0.00     0.091 A 
ATOM     80  F   UNL A   1      42.555  29.248  27.014  1.00  0.00    -0.205 F 
ATOM     81  C   UNL A   1      40.479  26.280  27.378  1.00  0.00     0.022 A 
BRANCH  79  82
ATOM     82  S   UNL A   1      42.487  26.701  25.507  1.00  0.00     0.127 S 
ATOM     83  O   UNL A   1      43.820  26.567  26.097  1.00  0.00    -0.237 OA
ATOM     84  O   UNL A   1      41.890  25.447  25.062  1.00  0.00    -0.237 OA
ATOM     85  O   UNL A   1      42.350  27.845  24.609  1.00  0.00    -0.744 OA
ENDBRANCH  79  82
ENDBRANCH  51  75
BRANCH  63  86
ATOM     86  C   UNL A   1      44.294  34.075  29.099  1.00  0.00     0.023 A 
ATOM     87  C   UNL A   1      43.149  34.835  28.781  1.00  0.00     0.012 A 
ATOM     88  C   UNL A   1      45.455  34.251  28.316  1.00  0.00     0.148 A 
ATOM     89  C   UNL A   1      43.143  35.704  27.688  1.00  0.00     0.002 A 
ATOM     90  C   UNL A   1      45.456  35.156  27.255  1.00  0.00     0.091 A 
ATOM     91  F   UNL A   1      46.553  33.543  28.625  1.00  0.00    -0.205 F 
ATOM     92  C   UNL A   1      44.297  35.874  26.930  1.00  0.00     0.022 A 
BRANCH  90  93
ATOM     93  S   UNL A   1      46.967  35.505  26.345  1.00  0.00     0.127 S 
ATOM     94  O   UNL A   1      46.743  36.868  25.869  1.00  0.00    -0.237 OA
ATOM     95  O   UNL A   1      48.008  35.385  27.369  1.00  0.00    -0.237 OA
ATOM     96  O   UNL A   1      47.025  34.465  25.323  1.00  0.00    -0.744 OA
ENDBRANCH  90  93
ENDBRANCH  63  86
ENDBRANCH  37  38
ENDBRANCH  30  32
ENDBRANCH  29  30
ENDBRANCH  28  29
ENDBRANCH   1  28
TORSDOF 21
ENDMDL
MODEL 3
REMARK VINA RESULT:     -11.5      4.648      9.602
REMARK SMILES COC(=O)c1sc(SCC(=O)OCCOC(=O)c2ccc(-c3c4nc(c(-c5cccc(S(=O)(=O)[O-])c5F)c5ccc([nH]5)c(-c5cccc(S(=O)(=O)[O-])c5F)c5nc(c(-c6cccc(S(=O)(=O)[O-])c6F)c6ccc3[nH]6)C=C5)C=C4)cc2)c(NC(=O)c2ccccc2)c1O
REMARK SMILES IDX 13 1 12 2 10 3 11 4 9 5 8 6 7 7 5 8 6 9 91 10 81 11 3 12
REMARK SMILES IDX 4 13 2 14 1 15 92 16 82 18 83 19 84 21 85 22 86 23 90 24
REMARK SMILES IDX 87 25 89 26 88 27 14 28 15 29 16 30 17 31 18 32 19 33 80 34
REMARK SMILES IDX 20 35 79 36 21 37 22 38 23 39 73 40 24 41 78 42 72 43 74 44
REMARK SMILES IDX 25 45 77 46 71 47 70 48 26 50 58 51 38 52 57 53 39 54 42 55
REMARK SMILES IDX 56 56 75 57 40 58 41 59 55 61 76 62 43 63 27 64 28 65 36 66
REMARK SMILES IDX 29 67 31 68 37 69 30 70 32 71 33 72 34 73 35 74 59 75 60 76
REMARK SMILES IDX 68 77 61 78 63 79 69 80 62 81 64 82 65 83 66 84 67 85 44 86
REMARK SMILES IDX 45 87 53 88 46 89 48 90 54 91 47 92 49 93 50 94 51 95 52 96
REMARK H PARENT 92 17 82 20 74 49 42 60
REMARK Flexibility Score: inf
ROOT
ATOM      1  C   UNL A   1      37.166  23.171  25.018  1.00  0.00     0.274 C 
ENDROOT
BRANCH   1   2
ATOM      2  O   UNL A   1      36.405  22.156  24.322  1.00  0.00    -0.461 OA
BRANCH   2   3
ATOM      3  C   UNL A   1      36.459  20.854  24.773  1.00  0.00     0.316 C 
ATOM      4  O   UNL A   1      37.408  20.097  24.597  1.00  0.00    -0.251 OA
BRANCH   3   5
ATOM      5  C   UNL A   1      34.929  20.344  25.281  1.00  0.00     0.198 C 
BRANCH   5   6
ATOM      6  S   UNL A   1      32.573  20.748  24.294  1.00  0.00    -0.101 SA
BRANCH   6   7
ATOM      7  C   UNL A   1      32.103  22.409  23.740  1.00  0.00     0.089 A 
ATOM      8  C   UNL A   1      32.057  24.553  22.476  1.00  0.00     0.157 A 
ATOM      9  S   UNL A   1      32.913  23.069  22.374  1.00  0.00    -0.116 S 
ATOM     10  C   UNL A   1      31.069  24.473  23.436  1.00  0.00     0.166 A 
ATOM     11  C   UNL A   1      31.116  23.270  24.205  1.00  0.00     0.109 A 
BRANCH   8  12
ATOM     12  C   UNL A   1      32.476  25.646  21.621  1.00  0.00     0.352 C 
ATOM     13  O   UNL A   1      33.379  25.614  20.793  1.00  0.00    -0.245 OA
BRANCH  12  14
ATOM     14  O   UNL A   1      31.766  26.766  21.936  1.00  0.00    -0.465 OA
ATOM     15  C   UNL A   1      32.551  27.890  22.347  1.00  0.00     0.282 C 
ENDBRANCH  12  14
ENDBRANCH   8  12
BRANCH  10  16
ATOM     16  O   UNL A   1      30.196  25.466  23.717  1.00  0.00    -0.504 OA
ATOM     17  H   UNL A   1      29.998  25.676  24.608  1.00  0.00     0.293 HD
ENDBRANCH  10  16
BRANCH  11  18
ATOM     18  N   UNL A   1      30.279  23.093  25.306  1.00  0.00    -0.317 N 
ATOM     19  C   UNL A   1      30.457  23.614  26.563  1.00  0.00     0.255 C 
ATOM     20  H   UNL A   1      29.477  22.537  25.167  1.00  0.00     0.170 HD
ATOM     21  O   UNL A   1      29.806  23.260  27.537  1.00  0.00    -0.269 OA
BRANCH  19  22
ATOM     22  C   UNL A   1      31.537  24.605  26.699  1.00  0.00     0.040 A 
ATOM     23  C   UNL A   1      33.201  23.993  26.413  1.00  0.00     0.014 A 
ATOM     24  C   UNL A   1      31.176  26.394  26.522  1.00  0.00     0.014 A 
ATOM     25  C   UNL A   1      34.494  25.134  25.882  1.00  0.00     0.001 A 
ATOM     26  C   UNL A   1      32.473  27.519  25.979  1.00  0.00     0.001 A 
ATOM     27  C   UNL A   1      34.131  26.878  25.661  1.00  0.00     0.000 A 
ENDBRANCH  19  22
ENDBRANCH  11  18
ENDBRANCH   6   7
ENDBRANCH   5   6
ENDBRANCH   3   5
ENDBRANCH   2   3
ENDBRANCH   1   2
BRANCH   1  28
ATOM     28  C   UNL A   1      38.230  22.506  25.908  1.00  0.00     0.275 C 
BRANCH  28  29
ATOM     29  O   UNL A   1      39.548  23.113  25.984  1.00  0.00    -0.458 OA
BRANCH  29  30
ATOM     30  C   UNL A   1      40.051  23.418  27.201  1.00  0.00     0.338 C 
ATOM     31  O   UNL A   1      40.566  22.619  27.961  1.00  0.00    -0.246 OA
BRANCH  30  32
ATOM     32  C   UNL A   1      39.741  24.801  27.639  1.00  0.00     0.060 A 
ATOM     33  C   UNL A   1      39.976  25.829  26.716  1.00  0.00     0.016 A 
ATOM     34  C   UNL A   1      39.381  25.128  28.947  1.00  0.00     0.016 A 
ATOM     35  C   UNL A   1      40.037  27.154  27.136  1.00  0.00     0.010 A 
ATOM     36  C   UNL A   1      39.371  26.470  29.347  1.00  0.00     0.010 A 
ATOM     37  C   UNL A   1      39.792  27.483  28.471  1.00  0.00    -0.014 A 
BRANCH  37  38
ATOM     38  C   UNL A   1      40.030  28.881  28.874  1.00  0.00     0.031 A 
ATOM     39  C   UNL A   1      41.307  29.546  28.483  1.00  0.00     0.074 A 
ATOM     40  C   UNL A   1      39.125  29.673  29.488  1.00  0.00     0.049 A 
ATOM     41  N   UNL A   1      42.106  30.241  29.237  1.00  0.00    -0.248 NA
ATOM     42  C   UNL A   1      41.724  29.447  27.079  1.00  0.00     0.031 C 
ATOM     43  C   UNL A   1      37.715  29.373  29.727  1.00  0.00     0.029 A 
ATOM     44  N   UNL A   1      39.248  30.990  29.865  1.00  0.00    -0.354 N 
ATOM     45  C   UNL A   1      43.044  30.795  28.373  1.00  0.00     0.074 A 
ATOM     46  C   UNL A   1      42.807  30.220  27.070  1.00  0.00     0.031 C 
ATOM     47  C   UNL A   1      37.057  30.532  29.914  1.00  0.00     0.029 A 
ATOM     48  C   UNL A   1      38.021  31.621  29.951  1.00  0.00     0.049 A 
ATOM     49  H   UNL A   1      40.108  31.432  30.050  1.00  0.00     0.167 HD
ATOM     50  C   UNL A   1      43.901  31.793  28.705  1.00  0.00     0.034 A 
ATOM     51  C   UNL A   1      37.760  32.943  29.969  1.00  0.00     0.034 A 
ATOM     52  C   UNL A   1      43.965  32.120  30.096  1.00  0.00     0.049 A 
ATOM     53  C   UNL A   1      38.944  33.713  30.396  1.00  0.00     0.074 A 
ATOM     54  C   UNL A   1      44.444  31.525  31.243  1.00  0.00     0.029 A 
ATOM     55  N   UNL A   1      43.326  33.270  30.486  1.00  0.00    -0.354 N 
ATOM     56  N   UNL A   1      39.389  33.777  31.620  1.00  0.00    -0.248 NA
ATOM     57  C   UNL A   1      39.766  34.381  29.395  1.00  0.00     0.031 C 
ATOM     58  C   UNL A   1      43.816  32.196  32.331  1.00  0.00     0.029 A 
ATOM     59  C   UNL A   1      42.928  33.128  31.794  1.00  0.00     0.049 A 
ATOM     60  H   UNL A   1      43.177  34.064  29.922  1.00  0.00     0.167 HD
ATOM     61  C   UNL A   1      40.716  34.154  31.487  1.00  0.00     0.074 A 
ATOM     62  C   UNL A   1      40.820  34.707  30.145  1.00  0.00     0.031 C 
ATOM     63  C   UNL A   1      41.678  33.652  32.318  1.00  0.00     0.034 A 
BRANCH  50  64
ATOM     64  C   UNL A   1      44.592  32.633  27.678  1.00  0.00     0.023 A 
ATOM     65  C   UNL A   1      43.809  33.333  26.742  1.00  0.00     0.012 A 
ATOM     66  C   UNL A   1      45.997  32.644  27.519  1.00  0.00     0.148 A 
ATOM     67  C   UNL A   1      44.415  34.054  25.706  1.00  0.00     0.002 A 
ATOM     68  C   UNL A   1      46.591  33.409  26.517  1.00  0.00     0.091 A 
ATOM     69  F   UNL A   1      46.761  31.873  28.311  1.00  0.00    -0.205 F 
ATOM     70  C   UNL A   1      45.807  34.107  25.597  1.00  0.00     0.022 A 
BRANCH  68  71
ATOM     71  S   UNL A   1      48.384  33.516  26.458  1.00  0.00     0.127 S 
ATOM     72  O   UNL A   1      48.608  34.348  25.281  1.00  0.00    -0.237 OA
ATOM     73  O   UNL A   1      48.736  34.153  27.728  1.00  0.00    -0.237 OA
ATOM     74  O   UNL A   1      48.778  32.114  26.365  1.00  0.00    -0.744 OA
ENDBRANCH  68  71
ENDBRANCH  50  64
BRANCH  51  75
ATOM     75  C   UNL A   1      36.494  33.601  29.594  1.00  0.00     0.023 A 
ATOM     76  C   UNL A   1      36.049  33.550  28.263  1.00  0.00     0.012 A 
ATOM     77  C   UNL A   1      35.641  34.169  30.566  1.00  0.00     0.148 A 
ATOM     78  C   UNL A   1      34.801  34.072  27.909  1.00  0.00     0.002 A 
ATOM     79  C   UNL A   1      34.419  34.720  30.200  1.00  0.00     0.091 A 
ATOM     80  F   UNL A   1      35.992  34.128  31.862  1.00  0.00    -0.205 F 
ATOM     81  C   UNL A   1      33.987  34.667  28.873  1.00  0.00     0.022 A 
BRANCH  79  82
ATOM     82  S   UNL A   1      33.435  35.558  31.444  1.00  0.00     0.127 S 
ATOM     83  O   UNL A   1      32.377  36.200  30.662  1.00  0.00    -0.237 OA
ATOM     84  O   UNL A   1      32.985  34.461  32.292  1.00  0.00    -0.237 OA
ATOM     85  O   UNL A   1      34.382  36.498  32.039  1.00  0.00    -0.744 OA
ENDBRANCH  79  82
ENDBRANCH  51  75
BRANCH  63  86
ATOM     86  C   UNL A   1      41.277  33.198  33.704  1.00  0.00     0.023 A 
ATOM     87  C   UNL A   1      41.348  34.070  34.809  1.00  0.00     0.012 A 
ATOM     88  C   UNL A   1      40.678  31.934  33.884  1.00  0.00     0.148 A 
ATOM     89  C   UNL A   1      40.883  33.679  36.066  1.00  0.00     0.002 A 
ATOM     90  C   UNL A   1      40.172  31.567  35.131  1.00  0.00     0.091 A 
ATOM     91  F   UNL A   1      40.592  31.106  32.830  1.00  0.00    -0.205 F 
ATOM     92  C   UNL A   1      40.285  32.432  36.227  1.00  0.00     0.022 A 
BRANCH  90  93
ATOM     93  S   UNL A   1      39.269  30.027  35.341  1.00  0.00     0.127 S 
ATOM     94  O   UNL A   1      38.363  30.031  34.195  1.00  0.00    -0.237 OA
ATOM     95  O   UNL A   1      40.322  29.011  35.278  1.00  0.00    -0.237 OA
ATOM     96  O   UNL A   1      38.647  30.146  36.656  1.00  0.00    -0.744 OA
ENDBRANCH  90  93
ENDBRANCH  63  86
ENDBRANCH  37  38
ENDBRANCH  30  32
ENDBRANCH  29  30
ENDBRANCH  28  29
ENDBRANCH   1  28
TORSDOF 21
ENDMDL
