MODEL 1
REMARK VINA RESULT:     -12.0      0.000      0.000
REMARK SMILES CC(C)CSc1cc2c(cc1Cl)C=C(C(=O)OCCOC(=O)c1ccc(-c3c4nc(c(-c5cccc(S(=O)(=O)[O-])c5F)c5ccc([nH]5)c(-c5cccc(S(=O)(=O)[O-])c5F)c5nc(c(-c6cccc(S(=O)(=O)[O-])c6F)c6ccc3[nH]6)C=C5)C=C4)cc1)[C@@H](C(F)(F)F)O2
REMARK SMILES IDX 18 1 17 2 15 3 16 4 14 5 6 6 7 7 11 8 8 9 10 10 12 11 9 12
REMARK SMILES IDX 91 13 13 14 86 15 5 16 4 17 2 18 1 19 3 20 87 21 88 22 89 23
REMARK SMILES IDX 90 24 19 25 20 26 21 27 22 28 23 29 24 30 85 31 25 32 84 33
REMARK SMILES IDX 26 34 27 35 28 36 78 37 29 38 83 39 77 40 79 41 30 42 82 43
REMARK SMILES IDX 76 44 75 45 31 47 63 48 43 49 62 50 44 51 47 52 61 53 80 54
REMARK SMILES IDX 45 55 46 56 60 58 81 59 48 60 32 61 33 62 41 63 34 64 36 65
REMARK SMILES IDX 42 66 35 67 37 68 38 69 39 70 40 71 64 72 65 73 73 74 66 75
REMARK SMILES IDX 68 76 74 77 67 78 69 79 70 80 71 81 72 82 49 83 50 84 58 85
REMARK SMILES IDX 51 86 53 87 59 88 52 89 54 90 55 91 56 92 57 93
REMARK H PARENT 79 46 47 57
REMARK Flexibility Score: inf
ROOT
ATOM      1  C   UNL A   1      31.141  29.653  24.758  1.00  0.00     0.275 C 
ENDROOT
BRANCH   1   2
ATOM      2  O   UNL A   1      31.582  28.322  25.106  1.00  0.00    -0.459 OA
BRANCH   2   3
ATOM      3  C   UNL A   1      32.469  27.763  24.251  1.00  0.00     0.338 C 
ATOM      4  O   UNL A   1      33.045  28.318  23.330  1.00  0.00    -0.246 OA
BRANCH   3   5
ATOM      5  C   UNL A   1      32.689  26.347  24.593  1.00  0.00     0.087 C 
ATOM      6  C   UNL A   1      34.796  21.802  25.069  1.00  0.00     0.030 A 
ATOM      7  C   UNL A   1      33.475  22.267  24.906  1.00  0.00     0.063 A 
ATOM      8  C   UNL A   1      35.804  22.745  25.322  1.00  0.00     0.055 A 
ATOM      9  C   UNL A   1      33.183  23.631  24.876  1.00  0.00     0.129 A 
ATOM     10  C   UNL A   1      35.520  24.110  25.244  1.00  0.00     0.033 A 
ATOM     11  Cl  UNL A   1      37.416  22.332  25.782  1.00  0.00    -0.083 Cl
ATOM     12  C   UNL A   1      34.217  24.548  24.992  1.00  0.00     0.019 A 
ATOM     13  O   UNL A   1      31.875  23.985  24.699  1.00  0.00    -0.475 OA
ATOM     14  C   UNL A   1      33.951  25.955  24.789  1.00  0.00     0.027 C 
ATOM     15  C   UNL A   1      31.524  25.400  24.610  1.00  0.00     0.316 C 
BRANCH   6  16
ATOM     16  S   UNL A   1      34.998  20.026  24.930  1.00  0.00    -0.124 SA
BRANCH  16  17
ATOM     17  C   UNL A   1      33.287  19.354  25.028  1.00  0.00     0.078 C 
BRANCH  17  18
ATOM     18  C   UNL A   1      32.929  18.141  24.147  1.00  0.00    -0.007 C 
ATOM     19  C   UNL A   1      32.341  18.494  22.782  1.00  0.00     0.008 C 
ATOM     20  C   UNL A   1      34.204  17.311  23.925  1.00  0.00     0.008 C 
ENDBRANCH  17  18
ENDBRANCH  16  17
ENDBRANCH   6  16
BRANCH  15  21
ATOM     21  C   UNL A   1      30.600  25.572  23.393  1.00  0.00     0.430 C 
ATOM     22  F   UNL A   1      29.997  24.401  23.071  1.00  0.00    -0.167 F 
ATOM     23  F   UNL A   1      29.603  26.455  23.636  1.00  0.00    -0.167 F 
ATOM     24  F   UNL A   1      31.266  26.000  22.298  1.00  0.00    -0.167 F 
ENDBRANCH  15  21
ENDBRANCH   3   5
ENDBRANCH   2   3
ENDBRANCH   1   2
BRANCH   1  25
ATOM     25  C   UNL A   1      31.438  30.646  25.883  1.00  0.00     0.275 C 
BRANCH  25  26
ATOM     26  O   UNL A   1      32.821  30.560  26.267  1.00  0.00    -0.458 OA
BRANCH  26  27
ATOM     27  C   UNL A   1      33.258  31.546  27.082  1.00  0.00     0.338 C 
ATOM     28  O   UNL A   1      32.653  32.545  27.427  1.00  0.00    -0.246 OA
BRANCH  27  29
ATOM     29  C   UNL A   1      34.597  31.206  27.583  1.00  0.00     0.060 A 
ATOM     30  C   UNL A   1      35.514  32.201  27.905  1.00  0.00     0.016 A 
ATOM     31  C   UNL A   1      34.878  29.876  27.880  1.00  0.00     0.016 A 
ATOM     32  C   UNL A   1      36.717  31.843  28.525  1.00  0.00     0.010 A 
ATOM     33  C   UNL A   1      35.994  29.548  28.641  1.00  0.00     0.010 A 
ATOM     34  C   UNL A   1      36.954  30.518  28.944  1.00  0.00    -0.014 A 
BRANCH  34  35
ATOM     35  C   UNL A   1      38.191  30.140  29.689  1.00  0.00     0.031 A 
ATOM     36  C   UNL A   1      38.430  30.625  31.103  1.00  0.00     0.074 A 
ATOM     37  C   UNL A   1      39.143  29.404  29.076  1.00  0.00     0.049 A 
ATOM     38  N   UNL A   1      39.457  30.404  31.884  1.00  0.00    -0.248 NA
ATOM     39  C   UNL A   1      37.414  31.505  31.708  1.00  0.00     0.031 C 
ATOM     40  C   UNL A   1      39.112  28.974  27.675  1.00  0.00     0.029 A 
ATOM     41  N   UNL A   1      40.320  28.879  29.552  1.00  0.00    -0.354 N 
ATOM     42  C   UNL A   1      39.237  31.157  33.033  1.00  0.00     0.074 A 
ATOM     43  C   UNL A   1      38.002  31.878  32.835  1.00  0.00     0.031 C 
ATOM     44  C   UNL A   1      40.178  28.197  27.426  1.00  0.00     0.029 A 
ATOM     45  C   UNL A   1      40.988  28.099  28.636  1.00  0.00     0.049 A 
ATOM     46  H   UNL A   1      40.655  29.046  30.463  1.00  0.00     0.167 HD
ATOM     47  C   UNL A   1      39.963  31.209  34.174  1.00  0.00     0.034 A 
ATOM     48  C   UNL A   1      42.112  27.364  28.756  1.00  0.00     0.034 A 
ATOM     49  C   UNL A   1      41.124  30.402  34.423  1.00  0.00     0.049 A 
ATOM     50  C   UNL A   1      42.825  27.325  30.078  1.00  0.00     0.074 A 
ATOM     51  C   UNL A   1      41.858  30.294  35.591  1.00  0.00     0.029 A 
ATOM     52  N   UNL A   1      41.702  29.546  33.501  1.00  0.00    -0.354 N 
ATOM     53  N   UNL A   1      42.522  27.946  31.191  1.00  0.00    -0.248 NA
ATOM     54  C   UNL A   1      44.014  26.464  30.172  1.00  0.00     0.031 C 
ATOM     55  C   UNL A   1      42.876  29.361  35.379  1.00  0.00     0.029 A 
ATOM     56  C   UNL A   1      42.773  28.890  34.079  1.00  0.00     0.049 A 
ATOM     57  H   UNL A   1      41.397  29.423  32.574  1.00  0.00     0.167 HD
ATOM     58  C   UNL A   1      43.467  27.538  32.123  1.00  0.00     0.074 A 
ATOM     59  C   UNL A   1      44.345  26.602  31.450  1.00  0.00     0.031 C 
ATOM     60  C   UNL A   1      43.601  27.918  33.416  1.00  0.00     0.034 A 
BRANCH  47  61
ATOM     61  C   UNL A   1      39.466  32.083  35.294  1.00  0.00     0.023 A 
ATOM     62  C   UNL A   1      38.592  31.536  36.254  1.00  0.00     0.012 A 
ATOM     63  C   UNL A   1      39.936  33.402  35.456  1.00  0.00     0.148 A 
ATOM     64  C   UNL A   1      38.173  32.291  37.347  1.00  0.00     0.002 A 
ATOM     65  C   UNL A   1      39.543  34.137  36.569  1.00  0.00     0.091 A 
ATOM     66  F   UNL A   1      40.761  33.905  34.527  1.00  0.00    -0.205 F 
ATOM     67  C   UNL A   1      38.656  33.585  37.510  1.00  0.00     0.022 A 
BRANCH  65  68
ATOM     68  S   UNL A   1      40.153  35.791  36.913  1.00  0.00     0.127 S 
ATOM     69  O   UNL A   1      39.643  36.540  35.765  1.00  0.00    -0.237 OA
ATOM     70  O   UNL A   1      39.497  36.100  38.183  1.00  0.00    -0.237 OA
ATOM     71  O   UNL A   1      41.604  35.681  36.984  1.00  0.00    -0.744 OA
ENDBRANCH  65  68
ENDBRANCH  47  61
BRANCH  48  72
ATOM     72  C   UNL A   1      42.548  26.511  27.616  1.00  0.00     0.023 A 
ATOM     73  C   UNL A   1      43.492  27.023  26.707  1.00  0.00     0.012 A 
ATOM     74  C   UNL A   1      42.108  25.181  27.481  1.00  0.00     0.148 A 
ATOM     75  C   UNL A   1      43.989  26.228  25.674  1.00  0.00     0.002 A 
ATOM     76  C   UNL A   1      42.637  24.380  26.474  1.00  0.00     0.091 A 
ATOM     77  F   UNL A   1      41.209  24.718  28.359  1.00  0.00    -0.205 F 
ATOM     78  C   UNL A   1      43.570  24.905  25.564  1.00  0.00     0.022 A 
BRANCH  76  79
ATOM     79  S   UNL A   1      42.247  22.634  26.315  1.00  0.00     0.127 S 
ATOM     80  O   UNL A   1      42.886  22.076  27.505  1.00  0.00    -0.237 OA
ATOM     81  O   UNL A   1      40.785  22.651  26.352  1.00  0.00    -0.237 OA
ATOM     82  O   UNL A   1      42.818  22.215  25.042  1.00  0.00    -0.744 OA
ENDBRANCH  76  79
ENDBRANCH  48  72
BRANCH  60  83
ATOM     83  C   UNL A   1      44.719  27.322  34.220  1.00  0.00     0.023 A 
ATOM     84  C   UNL A   1      45.931  28.027  34.341  1.00  0.00     0.012 A 
ATOM     85  C   UNL A   1      44.515  26.147  34.969  1.00  0.00     0.148 A 
ATOM     86  C   UNL A   1      46.930  27.567  35.198  1.00  0.00     0.002 A 
ATOM     87  C   UNL A   1      45.501  25.713  35.845  1.00  0.00     0.091 A 
ATOM     88  F   UNL A   1      43.353  25.494  34.826  1.00  0.00    -0.205 F 
ATOM     89  C   UNL A   1      46.710  26.420  35.958  1.00  0.00     0.022 A 
BRANCH  87  90
ATOM     90  S   UNL A   1      45.281  24.294  36.924  1.00  0.00     0.127 S 
ATOM     91  O   UNL A   1      46.618  24.149  37.500  1.00  0.00    -0.237 OA
ATOM     92  O   UNL A   1      44.262  24.771  37.857  1.00  0.00    -0.237 OA
ATOM     93  O   UNL A   1      44.855  23.196  36.066  1.00  0.00    -0.744 OA
ENDBRANCH  87  90
ENDBRANCH  60  83
ENDBRANCH  34  35
ENDBRANCH  27  29
ENDBRANCH  26  27
ENDBRANCH  25  26
ENDBRANCH   1  25
TORSDOF 18
ENDMDL
MODEL 2
REMARK VINA RESULT:     -11.8      1.225      1.634
REMARK SMILES CC(C)CSc1cc2c(cc1Cl)C=C(C(=O)OCCOC(=O)c1ccc(-c3c4nc(c(-c5cccc(S(=O)(=O)[O-])c5F)c5ccc([nH]5)c(-c5cccc(S(=O)(=O)[O-])c5F)c5nc(c(-c6cccc(S(=O)(=O)[O-])c6F)c6ccc3[nH]6)C=C5)C=C4)cc1)[C@@H](C(F)(F)F)O2
REMARK SMILES IDX 18 1 17 2 15 3 16 4 14 5 6 6 7 7 11 8 8 9 10 10 12 11 9 12
REMARK SMILES IDX 91 13 13 14 86 15 5 16 4 17 2 18 1 19 3 20 87 21 88 22 89 23
REMARK SMILES IDX 90 24 19 25 20 26 21 27 22 28 23 29 24 30 85 31 25 32 84 33
REMARK SMILES IDX 26 34 27 35 28 36 78 37 29 38 83 39 77 40 79 41 30 42 82 43
REMARK SMILES IDX 76 44 75 45 31 47 63 48 43 49 62 50 44 51 47 52 61 53 80 54
REMARK SMILES IDX 45 55 46 56 60 58 81 59 48 60 32 61 33 62 41 63 34 64 36 65
REMARK SMILES IDX 42 66 35 67 37 68 38 69 39 70 40 71 64 72 65 73 73 74 66 75
REMARK SMILES IDX 68 76 74 77 67 78 69 79 70 80 71 81 72 82 49 83 50 84 58 85
REMARK SMILES IDX 51 86 53 87 59 88 52 89 54 90 55 91 56 92 57 93
REMARK H PARENT 79 46 47 57
REMARK Flexibility Score: inf
ROOT
ATOM      1  C   UNL A   1      31.348  29.789  24.964  1.00  0.00     0.275 C 
ENDROOT
BRANCH   1   2
ATOM      2  O   UNL A   1      31.852  28.471  25.276  1.00  0.00    -0.459 OA
BRANCH   2   3
ATOM      3  C   UNL A   1      32.514  27.850  24.273  1.00  0.00     0.338 C 
ATOM      4  O   UNL A   1      32.890  28.351  23.226  1.00  0.00    -0.246 OA
BRANCH   3   5
ATOM      5  C   UNL A   1      32.762  26.440  24.619  1.00  0.00     0.087 C 
ATOM      6  C   UNL A   1      34.975  21.949  25.134  1.00  0.00     0.030 A 
ATOM      7  C   UNL A   1      33.645  22.380  24.945  1.00  0.00     0.063 A 
ATOM      8  C   UNL A   1      35.953  22.917  25.407  1.00  0.00     0.055 A 
ATOM      9  C   UNL A   1      33.320  23.737  24.910  1.00  0.00     0.129 A 
ATOM     10  C   UNL A   1      35.637  24.274  25.324  1.00  0.00     0.033 A 
ATOM     11  Cl  UNL A   1      37.565  22.544  25.898  1.00  0.00    -0.083 Cl
ATOM     12  C   UNL A   1      34.328  24.679  25.047  1.00  0.00     0.019 A 
ATOM     13  O   UNL A   1      32.007  24.058  24.707  1.00  0.00    -0.475 OA
ATOM     14  C   UNL A   1      34.031  26.079  24.839  1.00  0.00     0.027 C 
ATOM     15  C   UNL A   1      31.623  25.463  24.612  1.00  0.00     0.316 C 
BRANCH   6  16
ATOM     16  S   UNL A   1      35.224  20.179  24.998  1.00  0.00    -0.124 SA
BRANCH  16  17
ATOM     17  C   UNL A   1      33.532  19.485  24.788  1.00  0.00     0.078 C 
BRANCH  17  18
ATOM     18  C   UNL A   1      33.397  18.010  24.361  1.00  0.00    -0.007 C 
ATOM     19  C   UNL A   1      34.721  17.257  24.236  1.00  0.00     0.008 C 
ATOM     20  C   UNL A   1      32.523  17.284  25.396  1.00  0.00     0.008 C 
ENDBRANCH  17  18
ENDBRANCH  16  17
ENDBRANCH   6  16
BRANCH  15  21
ATOM     21  C   UNL A   1      30.719  25.613  23.377  1.00  0.00     0.430 C 
ATOM     22  F   UNL A   1      31.456  25.697  22.242  1.00  0.00    -0.167 F 
ATOM     23  F   UNL A   1      29.900  24.546  23.217  1.00  0.00    -0.167 F 
ATOM     24  F   UNL A   1      29.942  26.716  23.439  1.00  0.00    -0.167 F 
ENDBRANCH  15  21
ENDBRANCH   3   5
ENDBRANCH   2   3
ENDBRANCH   1   2
BRANCH   1  25
ATOM     25  C   UNL A   1      31.594  30.762  26.116  1.00  0.00     0.275 C 
BRANCH  25  26
ATOM     26  O   UNL A   1      32.862  30.486  26.737  1.00  0.00    -0.458 OA
BRANCH  26  27
ATOM     27  C   UNL A   1      33.477  31.551  27.297  1.00  0.00     0.338 C 
ATOM     28  O   UNL A   1      33.007  32.657  27.499  1.00  0.00    -0.246 OA
BRANCH  27  29
ATOM     29  C   UNL A   1      34.830  31.164  27.721  1.00  0.00     0.060 A 
ATOM     30  C   UNL A   1      35.797  32.127  27.991  1.00  0.00     0.016 A 
ATOM     31  C   UNL A   1      35.082  29.825  28.001  1.00  0.00     0.016 A 
ATOM     32  C   UNL A   1      37.021  31.727  28.541  1.00  0.00     0.010 A 
ATOM     33  C   UNL A   1      36.228  29.457  28.697  1.00  0.00     0.010 A 
ATOM     34  C   UNL A   1      37.236  30.393  28.946  1.00  0.00    -0.014 A 
BRANCH  34  35
ATOM     35  C   UNL A   1      38.500  29.972  29.618  1.00  0.00     0.031 A 
ATOM     36  C   UNL A   1      38.852  30.473  31.002  1.00  0.00     0.074 A 
ATOM     37  C   UNL A   1      39.374  29.178  28.963  1.00  0.00     0.049 A 
ATOM     38  N   UNL A   1      39.917  30.219  31.721  1.00  0.00    -0.248 NA
ATOM     39  C   UNL A   1      37.920  31.414  31.650  1.00  0.00     0.031 C 
ATOM     40  C   UNL A   1      39.233  28.720  27.578  1.00  0.00     0.029 A 
ATOM     41  N   UNL A   1      40.554  28.606  29.375  1.00  0.00    -0.354 N 
ATOM     42  C   UNL A   1      39.807  31.006  32.864  1.00  0.00     0.074 A 
ATOM     43  C   UNL A   1      38.597  31.781  32.728  1.00  0.00     0.031 C 
ATOM     44  C   UNL A   1      40.242  27.888  27.280  1.00  0.00     0.029 A 
ATOM     45  C   UNL A   1      41.124  27.776  28.437  1.00  0.00     0.049 A 
ATOM     46  H   UNL A   1      40.954  28.776  30.259  1.00  0.00     0.167 HD
ATOM     47  C   UNL A   1      40.608  31.046  33.954  1.00  0.00     0.034 A 
ATOM     48  C   UNL A   1      42.217  26.991  28.503  1.00  0.00     0.034 A 
ATOM     49  C   UNL A   1      41.743  30.189  34.148  1.00  0.00     0.049 A 
ATOM     50  C   UNL A   1      43.013  26.945  29.777  1.00  0.00     0.074 A 
ATOM     51  C   UNL A   1      42.546  30.070  35.269  1.00  0.00     0.029 A 
ATOM     52  N   UNL A   1      42.220  29.288  33.211  1.00  0.00    -0.354 N 
ATOM     53  N   UNL A   1      42.812  27.602  30.892  1.00  0.00    -0.248 NA
ATOM     54  C   UNL A   1      44.164  26.030  29.815  1.00  0.00     0.031 C 
ATOM     55  C   UNL A   1      43.503  29.085  35.014  1.00  0.00     0.029 A 
ATOM     56  C   UNL A   1      43.294  28.593  33.735  1.00  0.00     0.049 A 
ATOM     57  H   UNL A   1      41.849  29.160  32.309  1.00  0.00     0.167 HD
ATOM     58  C   UNL A   1      43.795  27.168  31.771  1.00  0.00     0.074 A 
ATOM     59  C   UNL A   1      44.583  26.178  31.066  1.00  0.00     0.031 C 
ATOM     60  C   UNL A   1      44.030  27.569  33.044  1.00  0.00     0.034 A 
BRANCH  47  61
ATOM     61  C   UNL A   1      40.226  31.966  35.083  1.00  0.00     0.023 A 
ATOM     62  C   UNL A   1      40.814  33.246  35.151  1.00  0.00     0.012 A 
ATOM     63  C   UNL A   1      39.224  31.613  36.008  1.00  0.00     0.148 A 
ATOM     64  C   UNL A   1      40.427  34.153  36.135  1.00  0.00     0.002 A 
ATOM     65  C   UNL A   1      38.818  32.537  36.964  1.00  0.00     0.091 A 
ATOM     66  F   UNL A   1      38.685  30.388  35.929  1.00  0.00    -0.205 F 
ATOM     67  C   UNL A   1      39.424  33.804  37.033  1.00  0.00     0.022 A 
BRANCH  65  68
ATOM     68  S   UNL A   1      37.490  32.218  38.130  1.00  0.00     0.127 S 
ATOM     69  O   UNL A   1      37.377  30.762  38.059  1.00  0.00    -0.237 OA
ATOM     70  O   UNL A   1      38.053  32.725  39.381  1.00  0.00    -0.237 OA
ATOM     71  O   UNL A   1      36.332  32.952  37.638  1.00  0.00    -0.744 OA
ENDBRANCH  65  68
ENDBRANCH  47  61
BRANCH  48  72
ATOM     72  C   UNL A   1      42.538  26.094  27.358  1.00  0.00     0.023 A 
ATOM     73  C   UNL A   1      43.348  26.585  26.317  1.00  0.00     0.012 A 
ATOM     74  C   UNL A   1      42.127  24.748  27.339  1.00  0.00     0.148 A 
ATOM     75  C   UNL A   1      43.740  25.753  25.268  1.00  0.00     0.002 A 
ATOM     76  C   UNL A   1      42.555  23.913  26.312  1.00  0.00     0.091 A 
ATOM     77  F   UNL A   1      41.356  24.306  28.341  1.00  0.00    -0.205 F 
ATOM     78  C   UNL A   1      43.353  24.416  25.271  1.00  0.00     0.022 A 
BRANCH  76  79
ATOM     79  S   UNL A   1      42.203  22.152  26.281  1.00  0.00     0.127 S 
ATOM     80  O   UNL A   1      42.912  21.727  25.077  1.00  0.00    -0.237 OA
ATOM     81  O   UNL A   1      42.804  21.707  27.539  1.00  0.00    -0.237 OA
ATOM     82  O   UNL A   1      40.753  22.038  26.228  1.00  0.00    -0.744 OA
ENDBRANCH  76  79
ENDBRANCH  48  72
BRANCH  60  83
ATOM     83  C   UNL A   1      45.169  26.936  33.789  1.00  0.00     0.023 A 
ATOM     84  C   UNL A   1      46.432  27.558  33.774  1.00  0.00     0.012 A 
ATOM     85  C   UNL A   1      44.951  25.818  34.615  1.00  0.00     0.148 A 
ATOM     86  C   UNL A   1      47.465  27.073  34.573  1.00  0.00     0.002 A 
ATOM     87  C   UNL A   1      45.975  25.359  35.434  1.00  0.00     0.091 A 
ATOM     88  F   UNL A   1      43.740  25.241  34.602  1.00  0.00    -0.205 F 
ATOM     89  C   UNL A   1      47.233  25.984  35.411  1.00  0.00     0.022 A 
BRANCH  87  90
ATOM     90  S   UNL A   1      45.752  24.015  36.603  1.00  0.00     0.127 S 
ATOM     91  O   UNL A   1      44.686  24.538  37.458  1.00  0.00    -0.237 OA
ATOM     92  O   UNL A   1      45.349  22.911  35.732  1.00  0.00    -0.237 OA
ATOM     93  O   UNL A   1      47.039  23.832  37.260  1.00  0.00    -0.744 OA
ENDBRANCH  87  90
ENDBRANCH  60  83
ENDBRANCH  34  35
ENDBRANCH  27  29
ENDBRANCH  26  27
ENDBRANCH  25  26
ENDBRANCH   1  25
TORSDOF 18
ENDMDL
MODEL 3
REMARK VINA RESULT:     -11.8      5.239     10.138
REMARK SMILES CC(C)CSc1cc2c(cc1Cl)C=C(C(=O)OCCOC(=O)c1ccc(-c3c4nc(c(-c5cccc(S(=O)(=O)[O-])c5F)c5ccc([nH]5)c(-c5cccc(S(=O)(=O)[O-])c5F)c5nc(c(-c6cccc(S(=O)(=O)[O-])c6F)c6ccc3[nH]6)C=C5)C=C4)cc1)[C@@H](C(F)(F)F)O2
REMARK SMILES IDX 18 1 17 2 15 3 16 4 14 5 6 6 7 7 11 8 8 9 10 10 12 11 9 12
REMARK SMILES IDX 91 13 13 14 86 15 5 16 4 17 2 18 1 19 3 20 87 21 88 22 89 23
REMARK SMILES IDX 90 24 19 25 20 26 21 27 22 28 23 29 24 30 85 31 25 32 84 33
REMARK SMILES IDX 26 34 27 35 28 36 78 37 29 38 83 39 77 40 79 41 30 42 82 43
REMARK SMILES IDX 76 44 75 45 31 47 63 48 43 49 62 50 44 51 47 52 61 53 80 54
REMARK SMILES IDX 45 55 46 56 60 58 81 59 48 60 32 61 33 62 41 63 34 64 36 65
REMARK SMILES IDX 42 66 35 67 37 68 38 69 39 70 40 71 64 72 65 73 73 74 66 75
REMARK SMILES IDX 68 76 74 77 67 78 69 79 70 80 71 81 72 82 49 83 50 84 58 85
REMARK SMILES IDX 51 86 53 87 59 88 52 89 54 90 55 91 56 92 57 93
REMARK H PARENT 79 46 47 57
REMARK Flexibility Score: inf
ROOT
ATOM      1  C   UNL A   1      35.546  20.488  25.077  1.00  0.00     0.275 C 
ENDROOT
BRANCH   1   2
ATOM      2  O   UNL A   1      34.931  21.699  24.584  1.00  0.00    -0.459 OA
BRANCH   2   3
ATOM      3  C   UNL A   1      33.717  21.541  24.008  1.00  0.00     0.338 C 
ATOM      4  O   UNL A   1      33.241  20.501  23.581  1.00  0.00    -0.246 OA
BRANCH   3   5
ATOM      5  C   UNL A   1      32.993  22.823  23.975  1.00  0.00     0.087 C 
ATOM      6  C   UNL A   1      31.952  27.745  24.121  1.00  0.00     0.030 A 
ATOM      7  C   UNL A   1      31.250  26.575  24.479  1.00  0.00     0.063 A 
ATOM      8  C   UNL A   1      33.157  27.606  23.415  1.00  0.00     0.055 A 
ATOM      9  C   UNL A   1      31.786  25.307  24.247  1.00  0.00     0.129 A 
ATOM     10  C   UNL A   1      33.715  26.339  23.227  1.00  0.00     0.033 A 
ATOM     11  Cl  UNL A   1      34.009  28.923  22.697  1.00  0.00    -0.083 Cl
ATOM     12  C   UNL A   1      33.042  25.197  23.669  1.00  0.00     0.019 A 
ATOM     13  O   UNL A   1      31.038  24.233  24.641  1.00  0.00    -0.475 OA
ATOM     14  C   UNL A   1      33.679  23.901  23.584  1.00  0.00     0.027 C 
ATOM     15  C   UNL A   1      31.576  22.887  24.466  1.00  0.00     0.316 C 
BRANCH   6  16
ATOM     16  S   UNL A   1      31.178  29.279  24.633  1.00  0.00    -0.124 SA
BRANCH  16  17
ATOM     17  C   UNL A   1      32.415  30.079  25.737  1.00  0.00     0.078 C 
BRANCH  17  18
ATOM     18  C   UNL A   1      32.611  29.500  27.152  1.00  0.00    -0.007 C 
ATOM     19  C   UNL A   1      31.575  28.455  27.565  1.00  0.00     0.008 C 
ATOM     20  C   UNL A   1      34.004  28.852  27.222  1.00  0.00     0.008 C 
ENDBRANCH  17  18
ENDBRANCH  16  17
ENDBRANCH   6  16
BRANCH  15  21
ATOM     21  C   UNL A   1      31.371  22.132  25.791  1.00  0.00     0.430 C 
ATOM     22  F   UNL A   1      30.161  22.419  26.332  1.00  0.00    -0.167 F 
ATOM     23  F   UNL A   1      31.397  20.789  25.617  1.00  0.00    -0.167 F 
ATOM     24  F   UNL A   1      32.311  22.442  26.710  1.00  0.00    -0.167 F 
ENDBRANCH  15  21
ENDBRANCH   3   5
ENDBRANCH   2   3
ENDBRANCH   1   2
BRANCH   1  25
ATOM     25  C   UNL A   1      37.054  20.494  24.827  1.00  0.00     0.275 C 
BRANCH  25  26
ATOM     26  O   UNL A   1      37.662  21.618  25.485  1.00  0.00    -0.458 OA
BRANCH  26  27
ATOM     27  C   UNL A   1      38.879  21.385  26.025  1.00  0.00     0.338 C 
ATOM     28  O   UNL A   1      39.533  20.360  25.963  1.00  0.00    -0.246 OA
BRANCH  27  29
ATOM     29  C   UNL A   1      39.370  22.613  26.666  1.00  0.00     0.060 A 
ATOM     30  C   UNL A   1      40.428  22.574  27.569  1.00  0.00     0.016 A 
ATOM     31  C   UNL A   1      38.865  23.836  26.236  1.00  0.00     0.016 A 
ATOM     32  C   UNL A   1      40.968  23.778  28.037  1.00  0.00     0.010 A 
ATOM     33  C   UNL A   1      39.511  25.020  26.574  1.00  0.00     0.010 A 
ATOM     34  C   UNL A   1      40.548  25.018  27.511  1.00  0.00    -0.014 A 
BRANCH  34  35
ATOM     35  C   UNL A   1      41.180  26.303  27.933  1.00  0.00     0.031 A 
ATOM     36  C   UNL A   1      42.605  26.636  27.546  1.00  0.00     0.074 A 
ATOM     37  C   UNL A   1      40.494  27.159  28.720  1.00  0.00     0.049 A 
ATOM     38  N   UNL A   1      43.309  27.699  27.843  1.00  0.00    -0.248 NA
ATOM     39  C   UNL A   1      43.356  25.636  26.765  1.00  0.00     0.031 C 
ATOM     40  C   UNL A   1      39.161  26.916  29.279  1.00  0.00     0.029 A 
ATOM     41  N   UNL A   1      40.817  28.411  29.184  1.00  0.00    -0.354 N 
ATOM     42  C   UNL A   1      44.586  27.468  27.342  1.00  0.00     0.074 A 
ATOM     43  C   UNL A   1      44.579  26.148  26.758  1.00  0.00     0.031 C 
ATOM     44  C   UNL A   1      38.754  28.006  29.948  1.00  0.00     0.029 A 
ATOM     45  C   UNL A   1      39.807  29.015  29.897  1.00  0.00     0.049 A 
ATOM     46  H   UNL A   1      41.690  28.836  29.021  1.00  0.00     0.167 HD
ATOM     47  C   UNL A   1      45.657  28.295  27.317  1.00  0.00     0.034 A 
ATOM     48  C   UNL A   1      39.721  30.250  30.431  1.00  0.00     0.034 A 
ATOM     49  C   UNL A   1      45.634  29.652  27.786  1.00  0.00     0.049 A 
ATOM     50  C   UNL A   1      40.872  31.202  30.269  1.00  0.00     0.074 A 
ATOM     51  C   UNL A   1      46.631  30.607  27.695  1.00  0.00     0.029 A 
ATOM     52  N   UNL A   1      44.553  30.254  28.406  1.00  0.00    -0.354 N 
ATOM     53  N   UNL A   1      42.022  31.002  29.674  1.00  0.00    -0.248 NA
ATOM     54  C   UNL A   1      40.705  32.554  30.821  1.00  0.00     0.031 C 
ATOM     55  C   UNL A   1      46.147  31.794  28.252  1.00  0.00     0.029 A 
ATOM     56  C   UNL A   1      44.849  31.575  28.687  1.00  0.00     0.049 A 
ATOM     57  H   UNL A   1      43.700  29.809  28.615  1.00  0.00     0.167 HD
ATOM     58  C   UNL A   1      42.708  32.206  29.761  1.00  0.00     0.074 A 
ATOM     59  C   UNL A   1      41.839  33.137  30.451  1.00  0.00     0.031 C 
ATOM     60  C   UNL A   1      43.954  32.505  29.320  1.00  0.00     0.034 A 
BRANCH  47  61
ATOM     61  C   UNL A   1      46.920  27.803  26.662  1.00  0.00     0.023 A 
ATOM     62  C   UNL A   1      47.869  27.109  27.439  1.00  0.00     0.012 A 
ATOM     63  C   UNL A   1      47.123  27.935  25.274  1.00  0.00     0.148 A 
ATOM     64  C   UNL A   1      49.011  26.570  26.851  1.00  0.00     0.002 A 
ATOM     65  C   UNL A   1      48.248  27.364  24.689  1.00  0.00     0.091 A 
ATOM     66  F   UNL A   1      46.212  28.606  24.556  1.00  0.00    -0.205 F 
ATOM     67  C   UNL A   1      49.195  26.689  25.478  1.00  0.00     0.022 A 
BRANCH  65  68
ATOM     68  S   UNL A   1      48.554  27.399  22.920  1.00  0.00     0.127 S 
ATOM     69  O   UNL A   1      47.425  28.195  22.440  1.00  0.00    -0.237 OA
ATOM     70  O   UNL A   1      49.850  28.074  22.847  1.00  0.00    -0.237 OA
ATOM     71  O   UNL A   1      48.561  26.010  22.481  1.00  0.00    -0.744 OA
ENDBRANCH  65  68
ENDBRANCH  47  61
BRANCH  48  72
ATOM     72  C   UNL A   1      38.442  30.682  31.058  1.00  0.00     0.023 A 
ATOM     73  C   UNL A   1      38.258  30.478  32.439  1.00  0.00     0.012 A 
ATOM     74  C   UNL A   1      37.457  31.369  30.324  1.00  0.00     0.148 A 
ATOM     75  C   UNL A   1      37.110  30.943  33.080  1.00  0.00     0.002 A 
ATOM     76  C   UNL A   1      36.333  31.866  30.976  1.00  0.00     0.091 A 
ATOM     77  F   UNL A   1      37.655  31.549  29.011  1.00  0.00    -0.205 F 
ATOM     78  C   UNL A   1      36.154  31.646  32.352  1.00  0.00     0.022 A 
BRANCH  76  79
ATOM     79  S   UNL A   1      35.098  32.877  30.152  1.00  0.00     0.127 S 
ATOM     80  O   UNL A   1      34.512  31.926  29.211  1.00  0.00    -0.237 OA
ATOM     81  O   UNL A   1      34.230  33.255  31.268  1.00  0.00    -0.237 OA
ATOM     82  O   UNL A   1      35.830  33.984  29.551  1.00  0.00    -0.744 OA
ENDBRANCH  76  79
ENDBRANCH  48  72
BRANCH  60  83
ATOM     83  C   UNL A   1      44.471  33.897  29.539  1.00  0.00     0.023 A 
ATOM     84  C   UNL A   1      45.072  34.222  30.770  1.00  0.00     0.012 A 
ATOM     85  C   UNL A   1      44.493  34.828  28.483  1.00  0.00     0.148 A 
ATOM     86  C   UNL A   1      45.688  35.459  30.947  1.00  0.00     0.002 A 
ATOM     87  C   UNL A   1      45.137  36.045  28.655  1.00  0.00     0.091 A 
ATOM     88  F   UNL A   1      43.904  34.492  27.325  1.00  0.00    -0.205 F 
ATOM     89  C   UNL A   1      45.732  36.364  29.888  1.00  0.00     0.022 A 
BRANCH  87  90
ATOM     90  S   UNL A   1      45.315  37.243  27.329  1.00  0.00     0.127 S 
ATOM     91  O   UNL A   1      43.926  37.633  27.091  1.00  0.00    -0.237 OA
ATOM     92  O   UNL A   1      46.141  38.275  27.954  1.00  0.00    -0.237 OA
ATOM     93  O   UNL A   1      45.956  36.535  26.229  1.00  0.00    -0.744 OA
ENDBRANCH  87  90
ENDBRANCH  60  83
ENDBRANCH  34  35
ENDBRANCH  27  29
ENDBRANCH  26  27
ENDBRANCH  25  26
ENDBRANCH   1  25
TORSDOF 18
ENDMDL
