MODEL 1
REMARK VINA RESULT:     -12.9      0.000      0.000
REMARK SMILES Cc1cc2c(c(C)c1Cl)C=C(C(=O)OCCOC(=O)c1ccc(-c3c4nc(c(-c5cccc(S(=O)(=O)[O-])c5F)c5ccc([nH]5)c(-c5cccc(S(=O)(=O)[O-])c5F)c5nc(c(-c6cccc(S(=O)(=O)[O-])c6F)c6ccc3[nH]6)C=C5)C=C4)cc1)[C@H](C(F)(F)F)O2
REMARK SMILES IDX 16 1 15 2 14 3 12 4 13 5 11 6 1 7 2 8 3 9 8 10 4 11 6 12
REMARK SMILES IDX 9 13 5 14 88 15 7 16 10 17 83 18 84 19 85 20 86 21 87 22
REMARK SMILES IDX 17 23 18 24 19 25 20 26 21 27 82 28 22 29 81 30 23 31 24 32
REMARK SMILES IDX 25 33 75 34 26 35 80 36 74 37 76 38 27 39 79 40 73 41 72 42
REMARK SMILES IDX 28 44 60 45 40 46 59 47 41 48 44 49 58 50 77 51 42 52 43 53
REMARK SMILES IDX 57 55 78 56 45 57 29 58 30 59 38 60 31 61 33 62 39 63 32 64
REMARK SMILES IDX 34 65 35 66 36 67 37 68 61 69 62 70 70 71 63 72 65 73 71 74
REMARK SMILES IDX 64 75 66 76 67 77 68 78 69 79 46 80 47 81 55 82 48 83 50 84
REMARK SMILES IDX 56 85 49 86 51 87 52 88 53 89 54 90
REMARK H PARENT 76 43 44 54
REMARK Flexibility Score: inf
ROOT
ATOM      1  C   UNL A   1      36.063  21.005  25.332  1.00  0.00     0.275 C 
ENDROOT
BRANCH   1   2
ATOM      2  C   UNL A   1      35.296  21.889  26.312  1.00  0.00     0.275 C 
BRANCH   2   3
ATOM      3  O   UNL A   1      33.950  21.397  26.491  1.00  0.00    -0.459 OA
BRANCH   3   4
ATOM      4  C   UNL A   1      33.078  22.230  27.100  1.00  0.00     0.338 C 
ATOM      5  O   UNL A   1      32.834  22.271  28.292  1.00  0.00    -0.246 OA
BRANCH   4   6
ATOM      6  C   UNL A   1      32.459  23.141  26.116  1.00  0.00     0.087 C 
ATOM      7  C   UNL A   1      29.316  28.005  23.169  1.00  0.00     0.046 C 
ATOM      8  C   UNL A   1      30.241  27.124  23.965  1.00  0.00    -0.028 A 
ATOM      9  C   UNL A   1      30.088  25.734  23.884  1.00  0.00     0.052 A 
ATOM     10  C   UNL A   1      31.262  27.655  24.775  1.00  0.00     0.047 A 
ATOM     11  C   UNL A   1      30.901  24.882  24.628  1.00  0.00     0.128 A 
ATOM     12  C   UNL A   1      32.089  26.808  25.547  1.00  0.00    -0.021 A 
ATOM     13  Cl  UNL A   1      31.472  29.380  24.815  1.00  0.00    -0.084 Cl
ATOM     14  C   UNL A   1      31.880  25.405  25.481  1.00  0.00     0.022 A 
ATOM     15  O   UNL A   1      30.622  23.547  24.511  1.00  0.00    -0.475 OA
ATOM     16  C   UNL A   1      33.182  27.368  26.427  1.00  0.00     0.047 C 
ATOM     17  C   UNL A   1      32.585  24.457  26.341  1.00  0.00     0.027 C 
ATOM     18  C   UNL A   1      31.586  22.586  25.028  1.00  0.00     0.316 C 
BRANCH  18  19
ATOM     19  C   UNL A   1      32.329  21.918  23.858  1.00  0.00     0.430 C 
ATOM     20  F   UNL A   1      31.634  21.952  22.703  1.00  0.00    -0.167 F 
ATOM     21  F   UNL A   1      33.539  22.488  23.637  1.00  0.00    -0.167 F 
ATOM     22  F   UNL A   1      32.589  20.612  24.132  1.00  0.00    -0.167 F 
ENDBRANCH  18  19
ENDBRANCH   4   6
ENDBRANCH   3   4
ENDBRANCH   2   3
ENDBRANCH   1   2
BRANCH   1  23
ATOM     23  O   UNL A   1      37.248  21.692  24.892  1.00  0.00    -0.458 OA
BRANCH  23  24
ATOM     24  C   UNL A   1      38.391  21.319  25.508  1.00  0.00     0.338 C 
ATOM     25  O   UNL A   1      39.001  20.272  25.365  1.00  0.00    -0.246 OA
BRANCH  24  26
ATOM     26  C   UNL A   1      38.896  22.417  26.346  1.00  0.00     0.060 A 
ATOM     27  C   UNL A   1      38.411  23.700  26.125  1.00  0.00     0.016 A 
ATOM     28  C   UNL A   1      39.988  22.218  27.186  1.00  0.00     0.016 A 
ATOM     29  C   UNL A   1      39.122  24.796  26.605  1.00  0.00     0.010 A 
ATOM     30  C   UNL A   1      40.620  23.323  27.770  1.00  0.00     0.010 A 
ATOM     31  C   UNL A   1      40.250  24.636  27.424  1.00  0.00    -0.014 A 
BRANCH  31  32
ATOM     32  C   UNL A   1      41.086  25.808  27.845  1.00  0.00     0.031 A 
ATOM     33  C   UNL A   1      40.489  26.887  28.728  1.00  0.00     0.074 A 
ATOM     34  C   UNL A   1      42.379  25.929  27.477  1.00  0.00     0.049 A 
ATOM     35  N   UNL A   1      40.926  28.096  28.971  1.00  0.00    -0.248 NA
ATOM     36  C   UNL A   1      39.225  26.567  29.413  1.00  0.00     0.031 C 
ATOM     37  C   UNL A   1      43.139  24.956  26.691  1.00  0.00     0.029 A 
ATOM     38  N   UNL A   1      43.289  26.934  27.717  1.00  0.00    -0.354 N 
ATOM     39  C   UNL A   1      39.947  28.711  29.747  1.00  0.00     0.074 A 
ATOM     40  C   UNL A   1      38.899  27.734  29.949  1.00  0.00     0.031 C 
ATOM     41  C   UNL A   1      44.401  25.382  26.555  1.00  0.00     0.029 A 
ATOM     42  C   UNL A   1      44.511  26.721  27.119  1.00  0.00     0.049 A 
ATOM     43  H   UNL A   1      43.086  27.728  28.262  1.00  0.00     0.167 HD
ATOM     44  C   UNL A   1      39.925  29.970  30.250  1.00  0.00     0.034 A 
ATOM     45  C   UNL A   1      45.581  27.528  26.967  1.00  0.00     0.034 A 
ATOM     46  C   UNL A   1      41.016  30.904  30.139  1.00  0.00     0.049 A 
ATOM     47  C   UNL A   1      45.525  28.930  27.503  1.00  0.00     0.074 A 
ATOM     48  C   UNL A   1      41.096  32.195  30.634  1.00  0.00     0.029 A 
ATOM     49  N   UNL A   1      42.226  30.642  29.518  1.00  0.00    -0.354 N 
ATOM     50  N   UNL A   1      44.578  29.512  28.196  1.00  0.00    -0.248 NA
ATOM     51  C   UNL A   1      46.686  29.790  27.229  1.00  0.00     0.031 C 
ATOM     52  C   UNL A   1      42.348  32.719  30.295  1.00  0.00     0.029 A 
ATOM     53  C   UNL A   1      43.058  31.747  29.611  1.00  0.00     0.049 A 
ATOM     54  H   UNL A   1      42.462  29.795  29.074  1.00  0.00     0.167 HD
ATOM     55  C   UNL A   1      45.027  30.804  28.445  1.00  0.00     0.074 A 
ATOM     56  C   UNL A   1      46.353  30.903  27.868  1.00  0.00     0.031 C 
ATOM     57  C   UNL A   1      44.388  31.826  29.067  1.00  0.00     0.034 A 
BRANCH  44  58
ATOM     58  C   UNL A   1      38.690  30.424  30.992  1.00  0.00     0.023 A 
ATOM     59  C   UNL A   1      38.608  30.272  32.389  1.00  0.00     0.012 A 
ATOM     60  C   UNL A   1      37.650  31.092  30.310  1.00  0.00     0.148 A 
ATOM     61  C   UNL A   1      37.502  30.751  33.094  1.00  0.00     0.002 A 
ATOM     62  C   UNL A   1      36.576  31.611  31.023  1.00  0.00     0.091 A 
ATOM     63  F   UNL A   1      37.736  31.214  28.978  1.00  0.00    -0.205 F 
ATOM     64  C   UNL A   1      36.495  31.431  32.414  1.00  0.00     0.022 A 
BRANCH  62  65
ATOM     65  S   UNL A   1      35.273  32.582  30.255  1.00  0.00     0.127 S 
ATOM     66  O   UNL A   1      34.868  31.713  29.150  1.00  0.00    -0.237 OA
ATOM     67  O   UNL A   1      34.293  32.690  31.335  1.00  0.00    -0.237 OA
ATOM     68  O   UNL A   1      35.888  33.843  29.862  1.00  0.00    -0.744 OA
ENDBRANCH  62  65
ENDBRANCH  44  58
BRANCH  45  69
ATOM     69  C   UNL A   1      46.791  27.026  26.249  1.00  0.00     0.023 A 
ATOM     70  C   UNL A   1      46.913  27.245  24.864  1.00  0.00     0.012 A 
ATOM     71  C   UNL A   1      47.845  26.391  26.938  1.00  0.00     0.148 A 
ATOM     72  C   UNL A   1      48.058  26.835  24.177  1.00  0.00     0.002 A 
ATOM     73  C   UNL A   1      49.012  26.056  26.264  1.00  0.00     0.091 A 
ATOM     74  F   UNL A   1      47.700  26.162  28.251  1.00  0.00    -0.205 F 
ATOM     75  C   UNL A   1      49.113  26.260  24.879  1.00  0.00     0.022 A 
BRANCH  73  76
ATOM     76  S   UNL A   1      50.483  25.476  27.117  1.00  0.00     0.127 S 
ATOM     77  O   UNL A   1      50.001  24.249  27.747  1.00  0.00    -0.237 OA
ATOM     78  O   UNL A   1      51.415  25.274  26.006  1.00  0.00    -0.237 OA
ATOM     79  O   UNL A   1      50.860  26.549  28.027  1.00  0.00    -0.744 OA
ENDBRANCH  73  76
ENDBRANCH  45  69
BRANCH  57  80
ATOM     80  C   UNL A   1      45.112  33.146  29.159  1.00  0.00     0.023 A 
ATOM     81  C   UNL A   1      45.954  33.397  30.260  1.00  0.00     0.012 A 
ATOM     82  C   UNL A   1      45.007  34.108  28.135  1.00  0.00     0.148 A 
ATOM     83  C   UNL A   1      46.652  34.600  30.360  1.00  0.00     0.002 A 
ATOM     84  C   UNL A   1      45.746  35.283  28.216  1.00  0.00     0.091 A 
ATOM     85  F   UNL A   1      44.188  33.860  27.103  1.00  0.00    -0.205 F 
ATOM     86  C   UNL A   1      46.557  35.538  29.334  1.00  0.00     0.022 A 
BRANCH  84  87
ATOM     87  S   UNL A   1      45.764  36.504  26.898  1.00  0.00     0.127 S 
ATOM     88  O   UNL A   1      44.358  36.904  26.843  1.00  0.00    -0.237 OA
ATOM     89  O   UNL A   1      46.666  37.525  27.432  1.00  0.00    -0.237 OA
ATOM     90  O   UNL A   1      46.265  35.812  25.718  1.00  0.00    -0.744 OA
ENDBRANCH  84  87
ENDBRANCH  57  80
ENDBRANCH  31  32
ENDBRANCH  24  26
ENDBRANCH  23  24
ENDBRANCH   1  23
TORSDOF 15
ENDMDL
MODEL 2
REMARK VINA RESULT:     -12.8      4.918      9.915
REMARK SMILES Cc1cc2c(c(C)c1Cl)C=C(C(=O)OCCOC(=O)c1ccc(-c3c4nc(c(-c5cccc(S(=O)(=O)[O-])c5F)c5ccc([nH]5)c(-c5cccc(S(=O)(=O)[O-])c5F)c5nc(c(-c6cccc(S(=O)(=O)[O-])c6F)c6ccc3[nH]6)C=C5)C=C4)cc1)[C@H](C(F)(F)F)O2
REMARK SMILES IDX 16 1 15 2 14 3 12 4 13 5 11 6 1 7 2 8 3 9 8 10 4 11 6 12
REMARK SMILES IDX 9 13 5 14 88 15 7 16 10 17 83 18 84 19 85 20 86 21 87 22
REMARK SMILES IDX 17 23 18 24 19 25 20 26 21 27 82 28 22 29 81 30 23 31 24 32
REMARK SMILES IDX 25 33 75 34 26 35 80 36 74 37 76 38 27 39 79 40 73 41 72 42
REMARK SMILES IDX 28 44 60 45 40 46 59 47 41 48 44 49 58 50 77 51 42 52 43 53
REMARK SMILES IDX 57 55 78 56 45 57 29 58 30 59 38 60 31 61 33 62 39 63 32 64
REMARK SMILES IDX 34 65 35 66 36 67 37 68 61 69 62 70 70 71 63 72 65 73 71 74
REMARK SMILES IDX 64 75 66 76 67 77 68 78 69 79 46 80 47 81 55 82 48 83 50 84
REMARK SMILES IDX 56 85 49 86 51 87 52 88 53 89 54 90
REMARK H PARENT 76 43 44 54
REMARK Flexibility Score: inf
ROOT
ATOM      1  C   UNL A   1      31.782  29.856  25.427  1.00  0.00     0.275 C 
ENDROOT
BRANCH   1   2
ATOM      2  C   UNL A   1      32.898  29.318  24.534  1.00  0.00     0.275 C 
BRANCH   2   3
ATOM      3  O   UNL A   1      33.088  27.904  24.756  1.00  0.00    -0.459 OA
BRANCH   3   4
ATOM      4  C   UNL A   1      32.738  27.080  23.745  1.00  0.00     0.338 C 
ATOM      5  O   UNL A   1      32.477  27.413  22.604  1.00  0.00    -0.246 OA
BRANCH   4   6
ATOM      6  C   UNL A   1      32.747  25.674  24.196  1.00  0.00     0.087 C 
ATOM      7  C   UNL A   1      33.827  19.303  24.881  1.00  0.00     0.046 C 
ATOM      8  C   UNL A   1      33.908  20.802  24.766  1.00  0.00    -0.028 A 
ATOM      9  C   UNL A   1      32.720  21.537  24.659  1.00  0.00     0.052 A 
ATOM     10  C   UNL A   1      35.139  21.485  24.778  1.00  0.00     0.047 A 
ATOM     11  C   UNL A   1      32.750  22.923  24.519  1.00  0.00     0.128 A 
ATOM     12  C   UNL A   1      35.190  22.889  24.626  1.00  0.00    -0.021 A 
ATOM     13  Cl  UNL A   1      36.596  20.558  24.972  1.00  0.00    -0.084 Cl
ATOM     14  C   UNL A   1      33.972  23.603  24.471  1.00  0.00     0.022 A 
ATOM     15  O   UNL A   1      31.530  23.527  24.366  1.00  0.00    -0.475 OA
ATOM     16  C   UNL A   1      36.505  23.631  24.629  1.00  0.00     0.047 C 
ATOM     17  C   UNL A   1      33.924  25.032  24.169  1.00  0.00     0.027 C 
ATOM     18  C   UNL A   1      31.451  24.975  24.492  1.00  0.00     0.316 C 
BRANCH  18  19
ATOM     19  C   UNL A   1      30.792  25.343  25.833  1.00  0.00     0.430 C 
ATOM     20  F   UNL A   1      29.726  24.570  26.126  1.00  0.00    -0.167 F 
ATOM     21  F   UNL A   1      31.666  25.262  26.864  1.00  0.00    -0.167 F 
ATOM     22  F   UNL A   1      30.362  26.632  25.823  1.00  0.00    -0.167 F 
ENDBRANCH  18  19
ENDBRANCH   4   6
ENDBRANCH   3   4
ENDBRANCH   2   3
ENDBRANCH   1   2
BRANCH   1  23
ATOM     23  O   UNL A   1      32.249  29.930  26.785  1.00  0.00    -0.458 OA
BRANCH  23  24
ATOM     24  C   UNL A   1      32.878  31.079  27.116  1.00  0.00     0.338 C 
ATOM     25  O   UNL A   1      32.379  32.186  27.241  1.00  0.00    -0.246 OA
BRANCH  24  26
ATOM     26  C   UNL A   1      34.292  30.814  27.416  1.00  0.00     0.060 A 
ATOM     27  C   UNL A   1      34.678  29.511  27.709  1.00  0.00     0.016 A 
ATOM     28  C   UNL A   1      35.180  31.867  27.618  1.00  0.00     0.016 A 
ATOM     29  C   UNL A   1      35.884  29.281  28.364  1.00  0.00     0.010 A 
ATOM     30  C   UNL A   1      36.445  31.608  28.161  1.00  0.00     0.010 A 
ATOM     31  C   UNL A   1      36.788  30.323  28.620  1.00  0.00    -0.014 A 
BRANCH  31  32
ATOM     32  C   UNL A   1      38.033  30.101  29.428  1.00  0.00     0.031 A 
ATOM     33  C   UNL A   1      39.169  29.274  28.859  1.00  0.00     0.074 A 
ATOM     34  C   UNL A   1      38.188  30.637  30.658  1.00  0.00     0.049 A 
ATOM     35  N   UNL A   1      40.188  28.729  29.473  1.00  0.00    -0.248 NA
ATOM     36  C   UNL A   1      39.144  29.012  27.410  1.00  0.00     0.031 C 
ATOM     37  C   UNL A   1      37.233  31.515  31.334  1.00  0.00     0.029 A 
ATOM     38  N   UNL A   1      39.217  30.516  31.565  1.00  0.00    -0.354 N 
ATOM     39  C   UNL A   1      40.863  27.981  28.513  1.00  0.00     0.074 A 
ATOM     40  C   UNL A   1      40.147  28.156  27.268  1.00  0.00     0.031 C 
ATOM     41  C   UNL A   1      37.735  31.892  32.517  1.00  0.00     0.029 A 
ATOM     42  C   UNL A   1      38.982  31.174  32.751  1.00  0.00     0.049 A 
ATOM     43  H   UNL A   1      40.040  30.009  31.383  1.00  0.00     0.167 HD
ATOM     44  C   UNL A   1      41.979  27.224  28.651  1.00  0.00     0.034 A 
ATOM     45  C   UNL A   1      39.642  31.154  33.927  1.00  0.00     0.034 A 
ATOM     46  C   UNL A   1      42.750  27.137  29.864  1.00  0.00     0.049 A 
ATOM     47  C   UNL A   1      40.858  30.283  34.071  1.00  0.00     0.074 A 
ATOM     48  C   UNL A   1      43.907  26.413  30.097  1.00  0.00     0.029 A 
ATOM     49  N   UNL A   1      42.466  27.816  31.038  1.00  0.00    -0.354 N 
ATOM     50  N   UNL A   1      41.459  29.549  33.168  1.00  0.00    -0.248 NA
ATOM     51  C   UNL A   1      41.482  30.235  35.401  1.00  0.00     0.031 C 
ATOM     52  C   UNL A   1      44.311  26.640  31.416  1.00  0.00     0.029 A 
ATOM     53  C   UNL A   1      43.420  27.525  32.000  1.00  0.00     0.049 A 
ATOM     54  H   UNL A   1      41.697  28.417  31.170  1.00  0.00     0.167 HD
ATOM     55  C   UNL A   1      42.535  28.952  33.818  1.00  0.00     0.074 A 
ATOM     56  C   UNL A   1      42.528  29.451  35.178  1.00  0.00     0.031 C 
ATOM     57  C   UNL A   1      43.428  28.051  33.340  1.00  0.00     0.034 A 
BRANCH  44  58
ATOM     58  C   UNL A   1      42.461  26.432  27.459  1.00  0.00     0.023 A 
ATOM     59  C   UNL A   1      43.359  27.012  26.541  1.00  0.00     0.012 A 
ATOM     60  C   UNL A   1      42.097  25.078  27.303  1.00  0.00     0.148 A 
ATOM     61  C   UNL A   1      43.865  26.267  25.475  1.00  0.00     0.002 A 
ATOM     62  C   UNL A   1      42.643  24.328  26.268  1.00  0.00     0.091 A 
ATOM     63  F   UNL A   1      41.228  24.546  28.175  1.00  0.00    -0.205 F 
ATOM     64  C   UNL A   1      43.519  24.925  25.346  1.00  0.00     0.022 A 
BRANCH  62  65
ATOM     65  S   UNL A   1      42.334  22.568  26.070  1.00  0.00     0.127 S 
ATOM     66  O   UNL A   1      43.052  22.279  24.829  1.00  0.00    -0.237 OA
ATOM     67  O   UNL A   1      42.951  22.011  27.275  1.00  0.00    -0.237 OA
ATOM     68  O   UNL A   1      40.887  22.418  26.002  1.00  0.00    -0.744 OA
ENDBRANCH  62  65
ENDBRANCH  44  58
BRANCH  45  69
ATOM     69  C   UNL A   1      39.143  31.975  35.071  1.00  0.00     0.023 A 
ATOM     70  C   UNL A   1      38.234  31.406  35.983  1.00  0.00     0.012 A 
ATOM     71  C   UNL A   1      39.608  33.286  35.294  1.00  0.00     0.148 A 
ATOM     72  C   UNL A   1      37.792  32.132  37.092  1.00  0.00     0.002 A 
ATOM     73  C   UNL A   1      39.226  33.973  36.440  1.00  0.00     0.091 A 
ATOM     74  F   UNL A   1      40.449  33.824  34.399  1.00  0.00    -0.205 F 
ATOM     75  C   UNL A   1      38.303  33.404  37.331  1.00  0.00     0.022 A 
BRANCH  73  76
ATOM     76  S   UNL A   1      39.967  35.539  36.915  1.00  0.00     0.127 S 
ATOM     77  O   UNL A   1      39.305  35.810  38.189  1.00  0.00    -0.237 OA
ATOM     78  O   UNL A   1      41.383  35.181  37.019  1.00  0.00    -0.237 OA
ATOM     79  O   UNL A   1      39.661  36.464  35.832  1.00  0.00    -0.744 OA
ENDBRANCH  73  76
ENDBRANCH  45  69
BRANCH  57  80
ATOM     80  C   UNL A   1      44.478  27.539  34.293  1.00  0.00     0.023 A 
ATOM     81  C   UNL A   1      45.668  28.272  34.471  1.00  0.00     0.012 A 
ATOM     82  C   UNL A   1      44.265  26.372  35.055  1.00  0.00     0.148 A 
ATOM     83  C   UNL A   1      46.646  27.834  35.363  1.00  0.00     0.002 A 
ATOM     84  C   UNL A   1      45.222  25.969  35.979  1.00  0.00     0.091 A 
ATOM     85  F   UNL A   1      43.135  25.677  34.861  1.00  0.00    -0.205 F 
ATOM     86  C   UNL A   1      46.419  26.690  36.124  1.00  0.00     0.022 A 
BRANCH  84  87
ATOM     87  S   UNL A   1      44.975  24.566  37.074  1.00  0.00     0.127 S 
ATOM     88  O   UNL A   1      44.888  23.458  36.123  1.00  0.00    -0.237 OA
ATOM     89  O   UNL A   1      46.196  24.581  37.880  1.00  0.00    -0.237 OA
ATOM     90  O   UNL A   1      43.756  24.849  37.819  1.00  0.00    -0.744 OA
ENDBRANCH  84  87
ENDBRANCH  57  80
ENDBRANCH  31  32
ENDBRANCH  24  26
ENDBRANCH  23  24
ENDBRANCH   1  23
TORSDOF 15
ENDMDL
MODEL 3
REMARK VINA RESULT:     -12.7      5.282      9.980
REMARK SMILES Cc1cc2c(c(C)c1Cl)C=C(C(=O)OCCOC(=O)c1ccc(-c3c4nc(c(-c5cccc(S(=O)(=O)[O-])c5F)c5ccc([nH]5)c(-c5cccc(S(=O)(=O)[O-])c5F)c5nc(c(-c6cccc(S(=O)(=O)[O-])c6F)c6ccc3[nH]6)C=C5)C=C4)cc1)[C@H](C(F)(F)F)O2
REMARK SMILES IDX 16 1 15 2 14 3 12 4 13 5 11 6 1 7 2 8 3 9 8 10 4 11 6 12
REMARK SMILES IDX 9 13 5 14 88 15 7 16 10 17 83 18 84 19 85 20 86 21 87 22
REMARK SMILES IDX 17 23 18 24 19 25 20 26 21 27 82 28 22 29 81 30 23 31 24 32
REMARK SMILES IDX 25 33 75 34 26 35 80 36 74 37 76 38 27 39 79 40 73 41 72 42
REMARK SMILES IDX 28 44 60 45 40 46 59 47 41 48 44 49 58 50 77 51 42 52 43 53
REMARK SMILES IDX 57 55 78 56 45 57 29 58 30 59 38 60 31 61 33 62 39 63 32 64
REMARK SMILES IDX 34 65 35 66 36 67 37 68 61 69 62 70 70 71 63 72 65 73 71 74
REMARK SMILES IDX 64 75 66 76 67 77 68 78 69 79 46 80 47 81 55 82 48 83 50 84
REMARK SMILES IDX 56 85 49 86 51 87 52 88 53 89 54 90
REMARK H PARENT 76 43 44 54
REMARK Flexibility Score: inf
ROOT
ATOM      1  C   UNL A   1      32.408  30.338  26.093  1.00  0.00     0.275 C 
ENDROOT
BRANCH   1   2
ATOM      2  C   UNL A   1      32.592  28.861  25.751  1.00  0.00     0.275 C 
BRANCH   2   3
ATOM      3  O   UNL A   1      33.534  28.706  24.668  1.00  0.00    -0.459 OA
BRANCH   3   4
ATOM      4  C   UNL A   1      33.037  28.263  23.492  1.00  0.00     0.338 C 
ATOM      5  O   UNL A   1      32.944  28.905  22.463  1.00  0.00    -0.246 OA
BRANCH   4   6
ATOM      6  C   UNL A   1      32.638  26.845  23.600  1.00  0.00     0.087 C 
ATOM      7  C   UNL A   1      32.400  20.355  23.403  1.00  0.00     0.046 C 
ATOM      8  C   UNL A   1      32.720  21.805  23.645  1.00  0.00    -0.028 A 
ATOM      9  C   UNL A   1      31.849  22.783  23.148  1.00  0.00     0.052 A 
ATOM     10  C   UNL A   1      33.859  22.206  24.368  1.00  0.00     0.047 A 
ATOM     11  C   UNL A   1      32.123  24.138  23.322  1.00  0.00     0.128 A 
ATOM     12  C   UNL A   1      34.161  23.575  24.545  1.00  0.00    -0.021 A 
ATOM     13  Cl  UNL A   1      34.895  20.974  25.027  1.00  0.00    -0.084 Cl
ATOM     14  C   UNL A   1      33.285  24.544  23.989  1.00  0.00     0.022 A 
ATOM     15  O   UNL A   1      31.230  25.000  22.744  1.00  0.00    -0.475 OA
ATOM     16  C   UNL A   1      35.386  24.016  25.311  1.00  0.00     0.047 C 
ATOM     17  C   UNL A   1      33.579  25.975  23.996  1.00  0.00     0.027 C 
ATOM     18  C   UNL A   1      31.288  26.408  23.110  1.00  0.00     0.316 C 
BRANCH  18  19
ATOM     19  C   UNL A   1      30.105  26.753  24.031  1.00  0.00     0.430 C 
ATOM     20  F   UNL A   1      30.340  26.457  25.325  1.00  0.00    -0.167 F 
ATOM     21  F   UNL A   1      29.769  28.063  23.954  1.00  0.00    -0.167 F 
ATOM     22  F   UNL A   1      28.988  26.071  23.659  1.00  0.00    -0.167 F 
ENDBRANCH  18  19
ENDBRANCH   4   6
ENDBRANCH   3   4
ENDBRANCH   2   3
ENDBRANCH   1   2
BRANCH   1  23
ATOM     23  O   UNL A   1      32.843  30.575  27.443  1.00  0.00    -0.458 OA
BRANCH  23  24
ATOM     24  C   UNL A   1      33.622  31.667  27.613  1.00  0.00     0.338 C 
ATOM     25  O   UNL A   1      33.261  32.832  27.668  1.00  0.00    -0.246 OA
BRANCH  24  26
ATOM     26  C   UNL A   1      35.018  31.264  27.830  1.00  0.00     0.060 A 
ATOM     27  C   UNL A   1      35.295  29.923  28.071  1.00  0.00     0.016 A 
ATOM     28  C   UNL A   1      36.010  32.225  28.009  1.00  0.00     0.016 A 
ATOM     29  C   UNL A   1      36.507  29.565  28.654  1.00  0.00     0.010 A 
ATOM     30  C   UNL A   1      37.272  31.836  28.476  1.00  0.00     0.010 A 
ATOM     31  C   UNL A   1      37.517  30.512  28.886  1.00  0.00    -0.014 A 
BRANCH  31  32
ATOM     32  C   UNL A   1      38.775  30.153  29.620  1.00  0.00     0.031 A 
ATOM     33  C   UNL A   1      39.760  29.180  29.004  1.00  0.00     0.074 A 
ATOM     34  C   UNL A   1      39.076  30.691  30.821  1.00  0.00     0.049 A 
ATOM     35  N   UNL A   1      40.743  28.525  29.568  1.00  0.00    -0.248 NA
ATOM     36  C   UNL A   1      39.609  28.893  27.567  1.00  0.00     0.031 C 
ATOM     37  C   UNL A   1      38.283  31.695  31.531  1.00  0.00     0.029 A 
ATOM     38  N   UNL A   1      40.140  30.462  31.665  1.00  0.00    -0.354 N 
ATOM     39  C   UNL A   1      41.256  27.679  28.589  1.00  0.00     0.074 A 
ATOM     40  C   UNL A   1      40.487  27.917  27.387  1.00  0.00     0.031 C 
ATOM     41  C   UNL A   1      38.904  32.030  32.669  1.00  0.00     0.029 A 
ATOM     42  C   UNL A   1      40.066  31.168  32.844  1.00  0.00     0.049 A 
ATOM     43  H   UNL A   1      40.880  29.852  31.446  1.00  0.00     0.167 HD
ATOM     44  C   UNL A   1      42.278  26.792  28.678  1.00  0.00     0.034 A 
ATOM     45  C   UNL A   1      40.795  31.090  33.976  1.00  0.00     0.034 A 
ATOM     46  C   UNL A   1      43.111  26.635  29.842  1.00  0.00     0.049 A 
ATOM     47  C   UNL A   1      41.902  30.078  34.068  1.00  0.00     0.074 A 
ATOM     48  C   UNL A   1      44.183  25.777  30.022  1.00  0.00     0.029 A 
ATOM     49  N   UNL A   1      42.990  27.368  31.012  1.00  0.00    -0.354 N 
ATOM     50  N   UNL A   1      42.347  29.256  33.151  1.00  0.00    -0.248 NA
ATOM     51  C   UNL A   1      42.601  29.979  35.357  1.00  0.00     0.031 C 
ATOM     52  C   UNL A   1      44.698  25.979  31.306  1.00  0.00     0.029 A 
ATOM     53  C   UNL A   1      43.963  26.980  31.919  1.00  0.00     0.049 A 
ATOM     54  H   UNL A   1      42.311  28.062  31.175  1.00  0.00     0.167 HD
ATOM     55  C   UNL A   1      43.382  28.544  33.748  1.00  0.00     0.074 A 
ATOM     56  C   UNL A   1      43.526  29.067  35.091  1.00  0.00     0.031 C 
ATOM     57  C   UNL A   1      44.124  27.528  33.241  1.00  0.00     0.034 A 
BRANCH  44  58
ATOM     58  C   UNL A   1      42.579  25.922  27.481  1.00  0.00     0.023 A 
ATOM     59  C   UNL A   1      43.426  26.394  26.459  1.00  0.00     0.012 A 
ATOM     60  C   UNL A   1      42.098  24.597  27.418  1.00  0.00     0.148 A 
ATOM     61  C   UNL A   1      43.767  25.574  25.383  1.00  0.00     0.002 A 
ATOM     62  C   UNL A   1      42.482  23.769  26.370  1.00  0.00     0.091 A 
ATOM     63  F   UNL A   1      41.280  24.169  28.390  1.00  0.00    -0.205 F 
ATOM     64  C   UNL A   1      43.307  24.260  25.345  1.00  0.00     0.022 A 
BRANCH  62  65
ATOM     65  S   UNL A   1      42.019  22.035  26.277  1.00  0.00     0.127 S 
ATOM     66  O   UNL A   1      40.589  22.125  25.984  1.00  0.00    -0.237 OA
ATOM     67  O   UNL A   1      42.840  21.558  25.164  1.00  0.00    -0.237 OA
ATOM     68  O   UNL A   1      42.354  21.458  27.572  1.00  0.00    -0.744 OA
ENDBRANCH  62  65
ENDBRANCH  44  58
BRANCH  45  69
ATOM     69  C   UNL A   1      40.477  31.989  35.126  1.00  0.00     0.023 A 
ATOM     70  C   UNL A   1      41.230  33.163  35.313  1.00  0.00     0.012 A 
ATOM     71  C   UNL A   1      39.397  31.722  35.992  1.00  0.00     0.148 A 
ATOM     72  C   UNL A   1      40.920  34.049  36.347  1.00  0.00     0.002 A 
ATOM     73  C   UNL A   1      39.045  32.646  36.968  1.00  0.00     0.091 A 
ATOM     74  F   UNL A   1      38.709  30.584  35.819  1.00  0.00    -0.205 F 
ATOM     75  C   UNL A   1      39.817  33.801  37.159  1.00  0.00     0.022 A 
BRANCH  73  76
ATOM     76  S   UNL A   1      37.542  32.493  37.940  1.00  0.00     0.127 S 
ATOM     77  O   UNL A   1      36.545  33.071  37.043  1.00  0.00    -0.237 OA
ATOM     78  O   UNL A   1      37.445  31.042  38.117  1.00  0.00    -0.237 OA
ATOM     79  O   UNL A   1      37.791  33.231  39.170  1.00  0.00    -0.744 OA
ENDBRANCH  73  76
ENDBRANCH  45  69
BRANCH  57  80
ATOM     80  C   UNL A   1      45.163  26.909  34.140  1.00  0.00     0.023 A 
ATOM     81  C   UNL A   1      46.456  27.468  34.191  1.00  0.00     0.012 A 
ATOM     82  C   UNL A   1      44.849  25.819  34.976  1.00  0.00     0.148 A 
ATOM     83  C   UNL A   1      47.430  26.930  35.030  1.00  0.00     0.002 A 
ATOM     84  C   UNL A   1      45.810  25.320  35.848  1.00  0.00     0.091 A 
ATOM     85  F   UNL A   1      43.620  25.289  34.903  1.00  0.00    -0.205 F 
ATOM     86  C   UNL A   1      47.105  25.864  35.866  1.00  0.00     0.022 A 
BRANCH  84  87
ATOM     87  S   UNL A   1      45.455  24.015  37.031  1.00  0.00     0.127 S 
ATOM     88  O   UNL A   1      44.431  24.641  37.867  1.00  0.00    -0.237 OA
ATOM     89  O   UNL A   1      44.965  22.939  36.171  1.00  0.00    -0.237 OA
ATOM     90  O   UNL A   1      46.717  23.727  37.700  1.00  0.00    -0.744 OA
ENDBRANCH  84  87
ENDBRANCH  57  80
ENDBRANCH  31  32
ENDBRANCH  24  26
ENDBRANCH  23  24
ENDBRANCH   1  23
TORSDOF 15
ENDMDL
