MODEL 1
REMARK VINA RESULT:     -10.5      0.000      0.000
REMARK SMILES O=C(OCCOC(=O)[C@H]1C[C@H](O)CN1C(=O)c1ccccc1O)c1ccc(-c2c3nc(c(-c4cccc(S(=O)(=O)[O-])c4F)c4ccc([nH]4)c(-c4cccc(S(=O)(=O)[O-])c4F)c4nc(c(-c5cccc(S(=O)(=O)[O-])c5F)c5ccc2[nH]5)C=C4)C=C3)cc1
REMARK SMILES IDX 4 1 3 2 2 3 1 4 24 5 25 6 86 7 26 8 85 9 27 10 28 11 29 12
REMARK SMILES IDX 79 13 30 14 84 15 78 16 80 17 31 18 83 19 77 20 76 21 32 23
REMARK SMILES IDX 64 24 44 25 63 26 45 27 48 28 62 29 81 30 46 31 47 32 61 34
REMARK SMILES IDX 82 35 49 36 33 37 34 38 42 39 35 40 37 41 43 42 36 43 38 44
REMARK SMILES IDX 39 45 40 46 41 47 65 48 66 49 74 50 67 51 69 52 75 53 68 54
REMARK SMILES IDX 70 55 71 56 72 57 73 58 50 59 51 60 59 61 52 62 54 63 60 64
REMARK SMILES IDX 53 65 55 66 56 67 57 68 58 69 5 70 6 71 7 72 8 73 9 74 10 75
REMARK SMILES IDX 14 76 11 77 13 78 15 79 16 80 17 81 18 82 22 83 19 84 21 85
REMARK SMILES IDX 20 86 23 87 12 89
REMARK H PARENT 80 22 48 33 23 88 12 90
REMARK Flexibility Score: inf
ROOT
ATOM      1  C   UNL A   1      40.496  19.881  26.298  1.00  0.00     0.275 C 
ENDROOT
BRANCH   1   2
ATOM      2  O   UNL A   1      40.555  21.305  26.202  1.00  0.00    -0.458 OA
BRANCH   2   3
ATOM      3  C   UNL A   1      39.556  22.191  26.398  1.00  0.00     0.338 C 
ATOM      4  O   UNL A   1      38.436  21.890  25.984  1.00  0.00    -0.246 OA
BRANCH   3   5
ATOM      5  C   UNL A   1      39.743  23.540  27.040  1.00  0.00     0.060 A 
ATOM      6  C   UNL A   1      40.397  23.853  28.242  1.00  0.00     0.016 A 
ATOM      7  C   UNL A   1      39.250  24.610  26.298  1.00  0.00     0.016 A 
ATOM      8  C   UNL A   1      40.692  25.175  28.611  1.00  0.00     0.010 A 
ATOM      9  C   UNL A   1      39.536  25.919  26.674  1.00  0.00     0.010 A 
ATOM     10  C   UNL A   1      40.323  26.229  27.791  1.00  0.00    -0.014 A 
BRANCH  10  11
ATOM     11  C   UNL A   1      40.727  27.645  28.043  1.00  0.00     0.031 A 
ATOM     12  C   UNL A   1      42.199  27.969  28.058  1.00  0.00     0.074 A 
ATOM     13  C   UNL A   1      39.825  28.568  28.455  1.00  0.00     0.049 A 
ATOM     14  N   UNL A   1      42.825  28.992  28.572  1.00  0.00    -0.248 NA
ATOM     15  C   UNL A   1      43.097  26.940  27.502  1.00  0.00     0.031 C 
ATOM     16  C   UNL A   1      38.381  28.357  28.604  1.00  0.00     0.029 A 
ATOM     17  N   UNL A   1      40.004  29.852  28.918  1.00  0.00    -0.354 N 
ATOM     18  C   UNL A   1      44.175  28.663  28.526  1.00  0.00     0.074 A 
ATOM     19  C   UNL A   1      44.267  27.327  27.985  1.00  0.00     0.031 C 
ATOM     20  C   UNL A   1      37.821  29.434  29.181  1.00  0.00     0.029 A 
ATOM     21  C   UNL A   1      38.855  30.423  29.433  1.00  0.00     0.049 A 
ATOM     22  H   UNL A   1      40.869  30.320  28.885  1.00  0.00     0.167 HD
ATOM     23  C   UNL A   1      45.243  29.422  28.865  1.00  0.00     0.034 A 
ATOM     24  C   UNL A   1      38.664  31.606  30.047  1.00  0.00     0.034 A 
ATOM     25  C   UNL A   1      45.119  30.802  29.249  1.00  0.00     0.049 A 
ATOM     26  C   UNL A   1      39.846  32.530  30.156  1.00  0.00     0.074 A 
ATOM     27  C   UNL A   1      46.112  31.743  29.445  1.00  0.00     0.029 A 
ATOM     28  N   UNL A   1      43.908  31.446  29.451  1.00  0.00    -0.354 N 
ATOM     29  N   UNL A   1      41.115  32.270  29.954  1.00  0.00    -0.248 NA
ATOM     30  C   UNL A   1      39.563  33.936  30.478  1.00  0.00     0.031 C 
ATOM     31  C   UNL A   1      45.498  32.963  29.755  1.00  0.00     0.029 A 
ATOM     32  C   UNL A   1      44.124  32.782  29.727  1.00  0.00     0.049 A 
ATOM     33  H   UNL A   1      43.023  31.015  29.403  1.00  0.00     0.167 HD
ATOM     34  C   UNL A   1      41.770  33.492  30.045  1.00  0.00     0.074 A 
ATOM     35  C   UNL A   1      40.757  34.489  30.321  1.00  0.00     0.031 C 
ATOM     36  C   UNL A   1      43.090  33.764  29.912  1.00  0.00     0.034 A 
BRANCH  23  37
ATOM     37  C   UNL A   1      46.618  28.807  28.755  1.00  0.00     0.023 A 
ATOM     38  C   UNL A   1      47.334  28.447  29.918  1.00  0.00     0.012 A 
ATOM     39  C   UNL A   1      47.201  28.564  27.495  1.00  0.00     0.148 A 
ATOM     40  C   UNL A   1      48.631  27.944  29.837  1.00  0.00     0.002 A 
ATOM     41  C   UNL A   1      48.462  27.980  27.420  1.00  0.00     0.091 A 
ATOM     42  F   UNL A   1      46.524  28.922  26.396  1.00  0.00    -0.205 F 
ATOM     43  C   UNL A   1      49.190  27.700  28.587  1.00  0.00     0.022 A 
BRANCH  41  44
ATOM     44  S   UNL A   1      49.218  27.494  25.866  1.00  0.00     0.127 S 
ATOM     45  O   UNL A   1      48.101  26.840  25.186  1.00  0.00    -0.237 OA
ATOM     46  O   UNL A   1      49.606  28.786  25.302  1.00  0.00    -0.237 OA
ATOM     47  O   UNL A   1      50.329  26.619  26.216  1.00  0.00    -0.744 OA
ENDBRANCH  41  44
ENDBRANCH  23  37
BRANCH  24  48
ATOM     48  C   UNL A   1      37.301  32.072  30.442  1.00  0.00     0.023 A 
ATOM     49  C   UNL A   1      36.841  31.767  31.741  1.00  0.00     0.012 A 
ATOM     50  C   UNL A   1      36.446  32.756  29.557  1.00  0.00     0.148 A 
ATOM     51  C   UNL A   1      35.537  32.070  32.131  1.00  0.00     0.002 A 
ATOM     52  C   UNL A   1      35.154  33.091  29.967  1.00  0.00     0.091 A 
ATOM     53  F   UNL A   1      36.897  33.044  28.329  1.00  0.00    -0.205 F 
ATOM     54  C   UNL A   1      34.694  32.730  31.245  1.00  0.00     0.022 A 
BRANCH  52  55
ATOM     55  S   UNL A   1      34.000  34.008  28.937  1.00  0.00     0.127 S 
ATOM     56  O   UNL A   1      34.869  35.024  28.347  1.00  0.00    -0.237 OA
ATOM     57  O   UNL A   1      33.542  32.977  28.004  1.00  0.00    -0.237 OA
ATOM     58  O   UNL A   1      32.972  34.506  29.840  1.00  0.00    -0.744 OA
ENDBRANCH  52  55
ENDBRANCH  24  48
BRANCH  36  59
ATOM     59  C   UNL A   1      43.510  35.205  29.966  1.00  0.00     0.023 A 
ATOM     60  C   UNL A   1      43.849  35.802  31.195  1.00  0.00     0.012 A 
ATOM     61  C   UNL A   1      43.630  35.945  28.773  1.00  0.00     0.148 A 
ATOM     62  C   UNL A   1      44.264  37.131  31.241  1.00  0.00     0.002 A 
ATOM     63  C   UNL A   1      44.094  37.253  28.822  1.00  0.00     0.091 A 
ATOM     64  F   UNL A   1      43.281  35.361  27.618  1.00  0.00    -0.205 F 
ATOM     65  C   UNL A   1      44.398  37.851  30.055  1.00  0.00     0.022 A 
BRANCH  63  66
ATOM     66  S   UNL A   1      44.391  38.215  27.336  1.00  0.00     0.127 S 
ATOM     67  O   UNL A   1      45.453  37.439  26.688  1.00  0.00    -0.237 OA
ATOM     68  O   UNL A   1      43.092  38.145  26.660  1.00  0.00    -0.237 OA
ATOM     69  O   UNL A   1      44.769  39.542  27.781  1.00  0.00    -0.744 OA
ENDBRANCH  63  66
ENDBRANCH  36  59
ENDBRANCH  10  11
ENDBRANCH   3   5
ENDBRANCH   2   3
ENDBRANCH   1   2
BRANCH   1  70
ATOM     70  C   UNL A   1      41.832  19.144  26.105  1.00  0.00     0.274 C 
BRANCH  70  71
ATOM     71  O   UNL A   1      42.652  19.570  24.987  1.00  0.00    -0.461 OA
BRANCH  71  72
ATOM     72  C   UNL A   1      44.000  19.467  25.185  1.00  0.00     0.329 C 
ATOM     73  O   UNL A   1      44.589  18.394  25.062  1.00  0.00    -0.250 OA
BRANCH  72  74
ATOM     74  C   UNL A   1      44.679  20.764  25.736  1.00  0.00     0.198 C 
ATOM     75  C   UNL A   1      45.667  21.258  24.667  1.00  0.00     0.071 C 
ATOM     76  N   UNL A   1      43.929  22.021  26.048  1.00  0.00    -0.322 N 
ATOM     77  C   UNL A   1      44.826  22.244  23.867  1.00  0.00     0.136 C 
ATOM     78  C   UNL A   1      44.025  22.962  24.949  1.00  0.00     0.152 C 
BRANCH  76  79
ATOM     79  C   UNL A   1      43.741  22.407  27.380  1.00  0.00     0.258 C 
ATOM     80  O   UNL A   1      42.852  21.824  28.005  1.00  0.00    -0.269 OA
BRANCH  79  81
ATOM     81  C   UNL A   1      44.570  23.447  28.141  1.00  0.00     0.081 A 
ATOM     82  C   UNL A   1      45.741  23.876  27.472  1.00  0.00     0.018 A 
ATOM     83  C   UNL A   1      44.424  23.902  29.467  1.00  0.00     0.128 A 
ATOM     84  C   UNL A   1      46.724  24.664  28.094  1.00  0.00     0.001 A 
ATOM     85  C   UNL A   1      45.405  24.707  30.088  1.00  0.00     0.047 A 
ATOM     86  C   UNL A   1      46.559  25.072  29.408  1.00  0.00     0.004 A 
BRANCH  83  87
ATOM     87  O   UNL A   1      43.399  23.498  30.277  1.00  0.00    -0.507 OA
ATOM     88  H   UNL A   1      43.053  22.631  30.197  1.00  0.00     0.293 HD
ENDBRANCH  83  87
ENDBRANCH  79  81
ENDBRANCH  76  79
BRANCH  77  89
ATOM     89  O   UNL A   1      45.646  23.122  23.113  1.00  0.00    -0.391 OA
ATOM     90  H   UNL A   1      45.381  23.091  22.180  1.00  0.00     0.211 HD
ENDBRANCH  77  89
ENDBRANCH  72  74
ENDBRANCH  71  72
ENDBRANCH  70  71
ENDBRANCH   1  70
TORSDOF 18
ENDMDL
MODEL 2
REMARK VINA RESULT:     -10.5      6.042     12.482
REMARK SMILES O=C(OCCOC(=O)[C@H]1C[C@H](O)CN1C(=O)c1ccccc1O)c1ccc(-c2c3nc(c(-c4cccc(S(=O)(=O)[O-])c4F)c4ccc([nH]4)c(-c4cccc(S(=O)(=O)[O-])c4F)c4nc(c(-c5cccc(S(=O)(=O)[O-])c5F)c5ccc2[nH]5)C=C4)C=C3)cc1
REMARK SMILES IDX 4 1 3 2 2 3 1 4 24 5 25 6 86 7 26 8 85 9 27 10 28 11 29 12
REMARK SMILES IDX 79 13 30 14 84 15 78 16 80 17 31 18 83 19 77 20 76 21 32 23
REMARK SMILES IDX 64 24 44 25 63 26 45 27 48 28 62 29 81 30 46 31 47 32 61 34
REMARK SMILES IDX 82 35 49 36 33 37 34 38 42 39 35 40 37 41 43 42 36 43 38 44
REMARK SMILES IDX 39 45 40 46 41 47 65 48 66 49 74 50 67 51 69 52 75 53 68 54
REMARK SMILES IDX 70 55 71 56 72 57 73 58 50 59 51 60 59 61 52 62 54 63 60 64
REMARK SMILES IDX 53 65 55 66 56 67 57 68 58 69 5 70 6 71 7 72 8 73 9 74 10 75
REMARK SMILES IDX 14 76 11 77 13 78 15 79 16 80 17 81 18 82 22 83 19 84 21 85
REMARK SMILES IDX 20 86 23 87 12 89
REMARK H PARENT 80 22 48 33 23 88 12 90
REMARK Flexibility Score: inf
ROOT
ATOM      1  C   UNL A   1      31.718  30.373  26.943  1.00  0.00     0.275 C 
ENDROOT
BRANCH   1   2
ATOM      2  O   UNL A   1      32.926  31.053  26.599  1.00  0.00    -0.458 OA
BRANCH   2   3
ATOM      3  C   UNL A   1      33.747  31.748  27.414  1.00  0.00     0.338 C 
ATOM      4  O   UNL A   1      33.358  32.845  27.817  1.00  0.00    -0.246 OA
BRANCH   3   5
ATOM      5  C   UNL A   1      35.123  31.286  27.813  1.00  0.00     0.060 A 
ATOM      6  C   UNL A   1      36.260  32.062  28.090  1.00  0.00     0.016 A 
ATOM      7  C   UNL A   1      35.249  29.910  27.983  1.00  0.00     0.016 A 
ATOM      8  C   UNL A   1      37.417  31.514  28.666  1.00  0.00     0.010 A 
ATOM      9  C   UNL A   1      36.402  29.371  28.545  1.00  0.00     0.010 A 
ATOM     10  C   UNL A   1      37.477  30.163  28.967  1.00  0.00    -0.014 A 
BRANCH  10  11
ATOM     11  C   UNL A   1      38.613  29.538  29.709  1.00  0.00     0.031 A 
ATOM     12  C   UNL A   1      38.879  30.003  31.118  1.00  0.00     0.074 A 
ATOM     13  C   UNL A   1      39.506  28.738  29.079  1.00  0.00     0.049 A 
ATOM     14  N   UNL A   1      39.958  29.896  31.845  1.00  0.00    -0.248 NA
ATOM     15  C   UNL A   1      37.807  30.789  31.756  1.00  0.00     0.031 C 
ATOM     16  C   UNL A   1      39.439  28.305  27.680  1.00  0.00     0.029 A 
ATOM     17  N   UNL A   1      40.707  28.220  29.511  1.00  0.00    -0.354 N 
ATOM     18  C   UNL A   1      39.743  30.711  32.950  1.00  0.00     0.074 A 
ATOM     19  C   UNL A   1      38.457  31.343  32.767  1.00  0.00     0.031 C 
ATOM     20  C   UNL A   1      40.568  27.654  27.349  1.00  0.00     0.029 A 
ATOM     21  C   UNL A   1      41.438  27.605  28.512  1.00  0.00     0.049 A 
ATOM     22  H   UNL A   1      41.015  28.282  30.443  1.00  0.00     0.167 HD
ATOM     23  C   UNL A   1      40.528  30.884  34.040  1.00  0.00     0.034 A 
ATOM     24  C   UNL A   1      42.675  27.073  28.533  1.00  0.00     0.034 A 
ATOM     25  C   UNL A   1      41.724  30.117  34.258  1.00  0.00     0.049 A 
ATOM     26  C   UNL A   1      43.400  27.053  29.851  1.00  0.00     0.074 A 
ATOM     27  C   UNL A   1      42.520  30.050  35.387  1.00  0.00     0.029 A 
ATOM     28  N   UNL A   1      42.267  29.242  33.330  1.00  0.00    -0.354 N 
ATOM     29  N   UNL A   1      43.112  27.695  30.958  1.00  0.00    -0.248 NA
ATOM     30  C   UNL A   1      44.561  26.160  29.958  1.00  0.00     0.031 C 
ATOM     31  C   UNL A   1      43.541  29.123  35.142  1.00  0.00     0.029 A 
ATOM     32  C   UNL A   1      43.363  28.599  33.871  1.00  0.00     0.049 A 
ATOM     33  H   UNL A   1      41.923  29.100  32.418  1.00  0.00     0.167 HD
ATOM     34  C   UNL A   1      44.005  27.223  31.912  1.00  0.00     0.074 A 
ATOM     35  C   UNL A   1      44.842  26.244  31.250  1.00  0.00     0.031 C 
ATOM     36  C   UNL A   1      44.121  27.568  33.216  1.00  0.00     0.034 A 
BRANCH  23  37
ATOM     37  C   UNL A   1      40.078  31.867  35.094  1.00  0.00     0.023 A 
ATOM     38  C   UNL A   1      40.502  33.212  35.043  1.00  0.00     0.012 A 
ATOM     39  C   UNL A   1      39.213  31.466  36.132  1.00  0.00     0.148 A 
ATOM     40  C   UNL A   1      40.153  34.115  36.046  1.00  0.00     0.002 A 
ATOM     41  C   UNL A   1      38.799  32.394  37.082  1.00  0.00     0.091 A 
ATOM     42  F   UNL A   1      38.826  30.183  36.184  1.00  0.00    -0.205 F 
ATOM     43  C   UNL A   1      39.292  33.708  37.059  1.00  0.00     0.022 A 
BRANCH  41  44
ATOM     44  S   UNL A   1      37.582  32.015  38.347  1.00  0.00     0.127 S 
ATOM     45  O   UNL A   1      38.374  32.157  39.569  1.00  0.00    -0.237 OA
ATOM     46  O   UNL A   1      36.589  33.067  38.136  1.00  0.00    -0.237 OA
ATOM     47  O   UNL A   1      37.115  30.665  38.065  1.00  0.00    -0.744 OA
ENDBRANCH  41  44
ENDBRANCH  23  37
BRANCH  24  48
ATOM     48  C   UNL A   1      43.242  26.361  27.349  1.00  0.00     0.023 A 
ATOM     49  C   UNL A   1      44.049  27.094  26.452  1.00  0.00     0.012 A 
ATOM     50  C   UNL A   1      42.963  25.009  27.069  1.00  0.00     0.148 A 
ATOM     51  C   UNL A   1      44.510  26.520  25.268  1.00  0.00     0.002 A 
ATOM     52  C   UNL A   1      43.459  24.429  25.901  1.00  0.00     0.091 A 
ATOM     53  F   UNL A   1      42.200  24.325  27.932  1.00  0.00    -0.205 F 
ATOM     54  C   UNL A   1      44.215  25.190  24.992  1.00  0.00     0.022 A 
BRANCH  52  55
ATOM     55  S   UNL A   1      43.207  22.701  25.474  1.00  0.00     0.127 S 
ATOM     56  O   UNL A   1      43.768  22.643  24.126  1.00  0.00    -0.237 OA
ATOM     57  O   UNL A   1      44.000  22.018  26.497  1.00  0.00    -0.237 OA
ATOM     58  O   UNL A   1      41.772  22.475  25.569  1.00  0.00    -0.744 OA
ENDBRANCH  52  55
ENDBRANCH  24  48
BRANCH  36  59
ATOM     59  C   UNL A   1      45.125  26.819  34.045  1.00  0.00     0.023 A 
ATOM     60  C   UNL A   1      46.440  27.301  34.178  1.00  0.00     0.012 A 
ATOM     61  C   UNL A   1      44.730  25.663  34.748  1.00  0.00     0.148 A 
ATOM     62  C   UNL A   1      47.364  26.619  34.968  1.00  0.00     0.002 A 
ATOM     63  C   UNL A   1      45.641  25.019  35.574  1.00  0.00     0.091 A 
ATOM     64  F   UNL A   1      43.478  25.211  34.588  1.00  0.00    -0.205 F 
ATOM     65  C   UNL A   1      46.961  25.488  35.674  1.00  0.00     0.022 A 
BRANCH  63  66
ATOM     66  S   UNL A   1      45.177  23.617  36.596  1.00  0.00     0.127 S 
ATOM     67  O   UNL A   1      44.542  24.281  37.738  1.00  0.00    -0.237 OA
ATOM     68  O   UNL A   1      44.248  22.895  35.722  1.00  0.00    -0.237 OA
ATOM     69  O   UNL A   1      46.406  22.906  36.889  1.00  0.00    -0.744 OA
ENDBRANCH  63  66
ENDBRANCH  36  59
ENDBRANCH  10  11
ENDBRANCH   3   5
ENDBRANCH   2   3
ENDBRANCH   1   2
BRANCH   1  70
ATOM     70  C   UNL A   1      31.856  28.864  27.209  1.00  0.00     0.274 C 
BRANCH  70  71
ATOM     71  O   UNL A   1      31.546  27.979  26.103  1.00  0.00    -0.461 OA
BRANCH  71  72
ATOM     72  C   UNL A   1      32.436  28.012  25.067  1.00  0.00     0.329 C 
ATOM     73  O   UNL A   1      33.645  27.875  25.251  1.00  0.00    -0.250 OA
BRANCH  72  74
ATOM     74  C   UNL A   1      31.815  28.403  23.686  1.00  0.00     0.198 C 
ATOM     75  C   UNL A   1      32.889  28.164  22.612  1.00  0.00     0.071 C 
ATOM     76  N   UNL A   1      30.635  27.707  23.083  1.00  0.00    -0.322 N 
ATOM     77  C   UNL A   1      32.588  26.744  22.151  1.00  0.00     0.136 C 
ATOM     78  C   UNL A   1      31.063  26.714  22.117  1.00  0.00     0.152 C 
BRANCH  76  79
ATOM     79  C   UNL A   1      29.398  28.359  23.023  1.00  0.00     0.258 C 
ATOM     80  O   UNL A   1      28.394  27.656  23.159  1.00  0.00    -0.269 OA
BRANCH  79  81
ATOM     81  C   UNL A   1      29.183  29.866  22.854  1.00  0.00     0.081 A 
ATOM     82  C   UNL A   1      29.676  30.658  23.919  1.00  0.00     0.018 A 
ATOM     83  C   UNL A   1      28.423  30.553  21.886  1.00  0.00     0.128 A 
ATOM     84  C   UNL A   1      29.392  32.029  24.039  1.00  0.00     0.001 A 
ATOM     85  C   UNL A   1      28.150  31.934  21.998  1.00  0.00     0.047 A 
ATOM     86  C   UNL A   1      28.620  32.666  23.080  1.00  0.00     0.004 A 
BRANCH  83  87
ATOM     87  O   UNL A   1      27.797  29.914  20.851  1.00  0.00    -0.507 OA
ATOM     88  H   UNL A   1      28.191  29.905  20.000  1.00  0.00     0.293 HD
ENDBRANCH  83  87
ENDBRANCH  79  81
ENDBRANCH  76  79
BRANCH  77  89
ATOM     89  O   UNL A   1      33.174  26.481  20.887  1.00  0.00    -0.391 OA
ATOM     90  H   UNL A   1      32.925  27.181  20.263  1.00  0.00     0.211 HD
ENDBRANCH  77  89
ENDBRANCH  72  74
ENDBRANCH  71  72
ENDBRANCH  70  71
ENDBRANCH   1  70
TORSDOF 18
ENDMDL
MODEL 3
REMARK VINA RESULT:     -10.5      4.100     10.091
REMARK SMILES O=C(OCCOC(=O)[C@H]1C[C@H](O)CN1C(=O)c1ccccc1O)c1ccc(-c2c3nc(c(-c4cccc(S(=O)(=O)[O-])c4F)c4ccc([nH]4)c(-c4cccc(S(=O)(=O)[O-])c4F)c4nc(c(-c5cccc(S(=O)(=O)[O-])c5F)c5ccc2[nH]5)C=C4)C=C3)cc1
REMARK SMILES IDX 4 1 3 2 2 3 1 4 24 5 25 6 86 7 26 8 85 9 27 10 28 11 29 12
REMARK SMILES IDX 79 13 30 14 84 15 78 16 80 17 31 18 83 19 77 20 76 21 32 23
REMARK SMILES IDX 64 24 44 25 63 26 45 27 48 28 62 29 81 30 46 31 47 32 61 34
REMARK SMILES IDX 82 35 49 36 33 37 34 38 42 39 35 40 37 41 43 42 36 43 38 44
REMARK SMILES IDX 39 45 40 46 41 47 65 48 66 49 74 50 67 51 69 52 75 53 68 54
REMARK SMILES IDX 70 55 71 56 72 57 73 58 50 59 51 60 59 61 52 62 54 63 60 64
REMARK SMILES IDX 53 65 55 66 56 67 57 68 58 69 5 70 6 71 7 72 8 73 9 74 10 75
REMARK SMILES IDX 14 76 11 77 13 78 15 79 16 80 17 81 18 82 22 83 19 84 21 85
REMARK SMILES IDX 20 86 23 87 12 89
REMARK H PARENT 80 22 48 33 23 88 12 90
REMARK Flexibility Score: inf
ROOT
ATOM      1  C   UNL A   1      36.417  22.535  23.578  1.00  0.00     0.275 C 
ENDROOT
BRANCH   1   2
ATOM      2  O   UNL A   1      36.696  21.960  24.855  1.00  0.00    -0.458 OA
BRANCH   2   3
ATOM      3  C   UNL A   1      37.898  21.610  25.361  1.00  0.00     0.338 C 
ATOM      4  O   UNL A   1      38.309  20.474  25.124  1.00  0.00    -0.246 OA
BRANCH   3   5
ATOM      5  C   UNL A   1      38.733  22.505  26.239  1.00  0.00     0.060 A 
ATOM      6  C   UNL A   1      39.873  22.176  26.990  1.00  0.00     0.016 A 
ATOM      7  C   UNL A   1      38.344  23.841  26.245  1.00  0.00     0.016 A 
ATOM      8  C   UNL A   1      40.683  23.155  27.586  1.00  0.00     0.010 A 
ATOM      9  C   UNL A   1      39.146  24.806  26.847  1.00  0.00     0.010 A 
ATOM     10  C   UNL A   1      40.365  24.498  27.462  1.00  0.00    -0.014 A 
BRANCH  10  11
ATOM     11  C   UNL A   1      41.253  25.599  27.943  1.00  0.00     0.031 A 
ATOM     12  C   UNL A   1      40.632  26.703  28.760  1.00  0.00     0.074 A 
ATOM     13  C   UNL A   1      42.524  25.722  27.490  1.00  0.00     0.049 A 
ATOM     14  N   UNL A   1      41.068  27.909  29.004  1.00  0.00    -0.248 NA
ATOM     15  C   UNL A   1      39.282  26.439  29.290  1.00  0.00     0.031 C 
ATOM     16  C   UNL A   1      43.215  24.789  26.595  1.00  0.00     0.029 A 
ATOM     17  N   UNL A   1      43.436  26.741  27.647  1.00  0.00    -0.354 N 
ATOM     18  C   UNL A   1      39.997  28.579  29.586  1.00  0.00     0.074 A 
ATOM     19  C   UNL A   1      38.883  27.661  29.606  1.00  0.00     0.031 C 
ATOM     20  C   UNL A   1      44.401  25.303  26.228  1.00  0.00     0.029 A 
ATOM     21  C   UNL A   1      44.570  26.596  26.870  1.00  0.00     0.049 A 
ATOM     22  H   UNL A   1      43.295  27.501  28.256  1.00  0.00     0.167 HD
ATOM     23  C   UNL A   1      39.961  29.833  30.096  1.00  0.00     0.034 A 
ATOM     24  C   UNL A   1      45.621  27.420  26.690  1.00  0.00     0.034 A 
ATOM     25  C   UNL A   1      41.133  30.658  30.200  1.00  0.00     0.049 A 
ATOM     26  C   UNL A   1      45.653  28.689  27.497  1.00  0.00     0.074 A 
ATOM     27  C   UNL A   1      41.289  31.868  30.851  1.00  0.00     0.029 A 
ATOM     28  N   UNL A   1      42.369  30.323  29.670  1.00  0.00    -0.354 N 
ATOM     29  N   UNL A   1      44.689  29.249  28.188  1.00  0.00    -0.248 NA
ATOM     30  C   UNL A   1      46.941  29.389  27.584  1.00  0.00     0.031 C 
ATOM     31  C   UNL A   1      42.628  32.259  30.722  1.00  0.00     0.029 A 
ATOM     32  C   UNL A   1      43.305  31.280  30.012  1.00  0.00     0.049 A 
ATOM     33  H   UNL A   1      42.553  29.521  29.129  1.00  0.00     0.167 HD
ATOM     34  C   UNL A   1      45.275  30.318  28.854  1.00  0.00     0.074 A 
ATOM     35  C   UNL A   1      46.674  30.327  28.481  1.00  0.00     0.031 C 
ATOM     36  C   UNL A   1      44.706  31.213  29.697  1.00  0.00     0.034 A 
BRANCH  23  37
ATOM     37  C   UNL A   1      38.648  30.341  30.642  1.00  0.00     0.023 A 
ATOM     38  C   UNL A   1      38.357  30.231  32.019  1.00  0.00     0.012 A 
ATOM     39  C   UNL A   1      37.701  30.951  29.795  1.00  0.00     0.148 A 
ATOM     40  C   UNL A   1      37.124  30.632  32.529  1.00  0.00     0.002 A 
ATOM     41  C   UNL A   1      36.507  31.427  30.325  1.00  0.00     0.091 A 
ATOM     42  F   UNL A   1      37.976  31.039  28.486  1.00  0.00    -0.205 F 
ATOM     43  C   UNL A   1      36.203  31.240  31.683  1.00  0.00     0.022 A 
BRANCH  41  44
ATOM     44  S   UNL A   1      35.311  32.352  29.355  1.00  0.00     0.127 S 
ATOM     45  O   UNL A   1      36.166  33.339  28.696  1.00  0.00    -0.237 OA
ATOM     46  O   UNL A   1      34.776  31.317  28.470  1.00  0.00    -0.237 OA
ATOM     47  O   UNL A   1      34.355  32.897  30.309  1.00  0.00    -0.744 OA
ENDBRANCH  41  44
ENDBRANCH  23  37
BRANCH  24  48
ATOM     48  C   UNL A   1      46.801  27.016  25.870  1.00  0.00     0.023 A 
ATOM     49  C   UNL A   1      47.799  26.225  26.479  1.00  0.00     0.012 A 
ATOM     50  C   UNL A   1      46.979  27.434  24.537  1.00  0.00     0.148 A 
ATOM     51  C   UNL A   1      48.980  25.915  25.805  1.00  0.00     0.002 A 
ATOM     52  C   UNL A   1      48.146  27.087  23.855  1.00  0.00     0.091 A 
ATOM     53  F   UNL A   1      46.022  28.180  23.970  1.00  0.00    -0.205 F 
ATOM     54  C   UNL A   1      49.154  26.345  24.495  1.00  0.00     0.022 A 
BRANCH  52  55
ATOM     55  S   UNL A   1      48.451  27.522  22.137  1.00  0.00     0.127 S 
ATOM     56  O   UNL A   1      49.668  28.324  22.245  1.00  0.00    -0.237 OA
ATOM     57  O   UNL A   1      48.636  26.208  21.520  1.00  0.00    -0.237 OA
ATOM     58  O   UNL A   1      47.264  28.238  21.693  1.00  0.00    -0.744 OA
ENDBRANCH  52  55
ENDBRANCH  24  48
BRANCH  36  59
ATOM     59  C   UNL A   1      45.608  32.218  30.354  1.00  0.00     0.023 A 
ATOM     60  C   UNL A   1      46.177  31.948  31.613  1.00  0.00     0.012 A 
ATOM     61  C   UNL A   1      45.940  33.409  29.679  1.00  0.00     0.148 A 
ATOM     62  C   UNL A   1      47.036  32.869  32.210  1.00  0.00     0.002 A 
ATOM     63  C   UNL A   1      46.837  34.297  30.256  1.00  0.00     0.091 A 
ATOM     64  F   UNL A   1      45.369  33.653  28.491  1.00  0.00    -0.205 F 
ATOM     65  C   UNL A   1      47.374  34.036  31.527  1.00  0.00     0.022 A 
BRANCH  63  66
ATOM     66  S   UNL A   1      47.404  35.772  29.402  1.00  0.00     0.127 S 
ATOM     67  O   UNL A   1      48.111  36.480  30.473  1.00  0.00    -0.237 OA
ATOM     68  O   UNL A   1      48.277  35.210  28.368  1.00  0.00    -0.237 OA
ATOM     69  O   UNL A   1      46.215  36.429  28.897  1.00  0.00    -0.744 OA
ENDBRANCH  63  66
ENDBRANCH  36  59
ENDBRANCH  10  11
ENDBRANCH   3   5
ENDBRANCH   2   3
ENDBRANCH   1   2
BRANCH   1  70
ATOM     70  C   UNL A   1      35.006  23.122  23.406  1.00  0.00     0.274 C 
BRANCH  70  71
ATOM     71  O   UNL A   1      34.772  24.431  23.984  1.00  0.00    -0.461 OA
BRANCH  71  72
ATOM     72  C   UNL A   1      33.496  24.654  24.418  1.00  0.00     0.329 C 
ATOM     73  O   UNL A   1      32.810  25.568  23.962  1.00  0.00    -0.250 OA
BRANCH  72  74
ATOM     74  C   UNL A   1      33.059  23.776  25.638  1.00  0.00     0.198 C 
ATOM     75  C   UNL A   1      32.059  24.600  26.464  1.00  0.00     0.071 C 
ATOM     76  N   UNL A   1      32.330  22.476  25.501  1.00  0.00    -0.322 N 
ATOM     77  C   UNL A   1      30.716  24.166  25.891  1.00  0.00     0.136 C 
ATOM     78  C   UNL A   1      30.904  22.666  25.685  1.00  0.00     0.152 C 
BRANCH  76  79
ATOM     79  C   UNL A   1      32.991  21.275  25.781  1.00  0.00     0.258 C 
ATOM     80  O   UNL A   1      33.701  21.256  26.790  1.00  0.00    -0.269 OA
BRANCH  79  81
ATOM     81  C   UNL A   1      32.872  19.975  24.980  1.00  0.00     0.081 A 
ATOM     82  C   UNL A   1      32.684  20.152  23.588  1.00  0.00     0.018 A 
ATOM     83  C   UNL A   1      32.753  18.650  25.447  1.00  0.00     0.128 A 
ATOM     84  C   UNL A   1      32.352  19.092  22.727  1.00  0.00     0.001 A 
ATOM     85  C   UNL A   1      32.435  17.582  24.579  1.00  0.00     0.047 A 
ATOM     86  C   UNL A   1      32.219  17.806  23.226  1.00  0.00     0.004 A 
BRANCH  83  87
ATOM     87  O   UNL A   1      32.812  18.328  26.775  1.00  0.00    -0.507 OA
ATOM     88  H   UNL A   1      32.793  17.430  27.040  1.00  0.00     0.293 HD
ENDBRANCH  83  87
ENDBRANCH  79  81
ENDBRANCH  76  79
BRANCH  77  89
ATOM     89  O   UNL A   1      29.656  24.473  26.782  1.00  0.00    -0.391 OA
ATOM     90  H   UNL A   1      30.018  24.859  27.595  1.00  0.00     0.211 HD
ENDBRANCH  77  89
ENDBRANCH  72  74
ENDBRANCH  71  72
ENDBRANCH  70  71
ENDBRANCH   1  70
TORSDOF 18
ENDMDL
