MODEL 1
REMARK VINA RESULT:     -12.4      0.000      0.000
REMARK SMILES O=C(N[C@@H](C(=O)OCCOC(=O)c1ccc(-c2c3nc(c(-c4cccc(S(=O)(=O)[O-])c4F)c4ccc([nH]4)c(-c4cccc(S(=O)(=O)[O-])c4F)c4nc(c(-c5cccc(S(=O)(=O)[O-])c5F)c5ccc2[nH]5)C=C4)C=C3)cc1)c1ccccc1)c1ccc(Br)nc1
REMARK SMILES IDX 9 1 8 2 7 3 5 4 6 5 4 6 3 7 1 8 2 9 82 11 83 12 88 13 84 14
REMARK SMILES IDX 87 15 85 16 86 17 76 18 77 19 81 20 78 21 80 22 79 23 10 24
REMARK SMILES IDX 11 25 12 26 13 27 14 28 75 29 15 30 74 31 16 32 17 33 18 34
REMARK SMILES IDX 68 35 19 36 73 37 67 38 69 39 20 40 72 41 66 42 65 43 21 45
REMARK SMILES IDX 53 46 33 47 52 48 34 49 37 50 51 51 70 52 35 53 36 54 50 56
REMARK SMILES IDX 71 57 38 58 22 59 23 60 31 61 24 62 26 63 32 64 25 65 27 66
REMARK SMILES IDX 28 67 29 68 30 69 54 70 55 71 63 72 56 73 58 74 64 75 57 76
REMARK SMILES IDX 59 77 60 78 61 79 62 80 39 81 40 82 48 83 41 84 43 85 49 86
REMARK SMILES IDX 42 87 44 88 45 89 46 90 47 91
REMARK H PARENT 3 10 69 44 37 55
REMARK Flexibility Score: inf
ROOT
ATOM      1  C   UNL A   1      31.745  30.340  25.863  1.00  0.00     0.275 C 
ENDROOT
BRANCH   1   2
ATOM      2  C   UNL A   1      31.538  28.835  25.717  1.00  0.00     0.274 C 
BRANCH   2   3
ATOM      3  O   UNL A   1      32.603  28.233  24.952  1.00  0.00    -0.460 OA
BRANCH   3   4
ATOM      4  C   UNL A   1      32.601  28.492  23.612  1.00  0.00     0.333 C 
ATOM      5  O   UNL A   1      33.354  29.291  23.064  1.00  0.00    -0.249 OA
BRANCH   4   6
ATOM      6  C   UNL A   1      31.482  27.736  22.868  1.00  0.00     0.223 C 
BRANCH   6   7
ATOM      7  N   UNL A   1      31.904  27.077  21.625  1.00  0.00    -0.335 N 
ATOM      8  O   UNL A   1      32.904  25.497  20.355  1.00  0.00    -0.269 OA
ATOM      9  C   UNL A   1      32.512  25.863  21.457  1.00  0.00     0.253 C 
ATOM     10  H   UNL A   1      31.726  27.579  20.798  1.00  0.00     0.165 HD
BRANCH   9  11
ATOM     11  C   UNL A   1      32.786  25.021  22.628  1.00  0.00     0.058 A 
ATOM     12  C   UNL A   1      34.024  25.131  23.257  1.00  0.00     0.018 A 
ATOM     13  C   UNL A   1      31.846  24.146  23.152  1.00  0.00     0.126 A 
ATOM     14  C   UNL A   1      34.253  24.410  24.427  1.00  0.00     0.037 A 
ATOM     15  N   UNL A   1      32.041  23.444  24.295  1.00  0.00    -0.249 NA
ATOM     16  C   UNL A   1      33.235  23.599  24.913  1.00  0.00     0.106 A 
ATOM     17  Br  UNL A   1      33.513  22.670  26.542  1.00  0.00    -0.029 Br
ENDBRANCH   9  11
ENDBRANCH   6   7
BRANCH   6  18
ATOM     18  C   UNL A   1      30.233  28.568  22.620  1.00  0.00    -0.014 A 
ATOM     19  C   UNL A   1      28.993  28.139  23.126  1.00  0.00     0.006 A 
ATOM     20  C   UNL A   1      30.272  29.765  21.883  1.00  0.00     0.006 A 
ATOM     21  C   UNL A   1      27.828  28.870  22.881  1.00  0.00     0.000 A 
ATOM     22  C   UNL A   1      29.103  30.492  21.636  1.00  0.00     0.000 A 
ATOM     23  C   UNL A   1      27.882  30.043  22.133  1.00  0.00     0.000 A 
ENDBRANCH   6  18
ENDBRANCH   4   6
ENDBRANCH   3   4
ENDBRANCH   2   3
ENDBRANCH   1   2
BRANCH   1  24
ATOM     24  O   UNL A   1      32.246  30.648  27.175  1.00  0.00    -0.458 OA
BRANCH  24  25
ATOM     25  C   UNL A   1      33.005  31.760  27.260  1.00  0.00     0.338 C 
ATOM     26  O   UNL A   1      32.632  32.925  27.128  1.00  0.00    -0.246 OA
BRANCH  25  27
ATOM     27  C   UNL A   1      34.381  31.410  27.625  1.00  0.00     0.060 A 
ATOM     28  C   UNL A   1      34.707  30.068  27.784  1.00  0.00     0.016 A 
ATOM     29  C   UNL A   1      35.287  32.401  28.000  1.00  0.00     0.016 A 
ATOM     30  C   UNL A   1      35.878  29.715  28.447  1.00  0.00     0.010 A 
ATOM     31  C   UNL A   1      36.514  32.034  28.568  1.00  0.00     0.010 A 
ATOM     32  C   UNL A   1      36.798  30.688  28.864  1.00  0.00    -0.014 A 
BRANCH  32  33
ATOM     33  C   UNL A   1      37.994  30.297  29.670  1.00  0.00     0.031 A 
ATOM     34  C   UNL A   1      39.075  29.433  29.066  1.00  0.00     0.074 A 
ATOM     35  C   UNL A   1      38.150  30.739  30.936  1.00  0.00     0.049 A 
ATOM     36  N   UNL A   1      40.088  28.845  29.653  1.00  0.00    -0.248 NA
ATOM     37  C   UNL A   1      39.003  29.177  27.617  1.00  0.00     0.031 C 
ATOM     38  C   UNL A   1      37.212  31.603  31.655  1.00  0.00     0.029 A 
ATOM     39  N   UNL A   1      39.161  30.528  31.843  1.00  0.00    -0.354 N 
ATOM     40  C   UNL A   1      40.702  28.071  28.674  1.00  0.00     0.074 A 
ATOM     41  C   UNL A   1      39.968  28.285  27.446  1.00  0.00     0.031 C 
ATOM     42  C   UNL A   1      37.717  31.896  32.862  1.00  0.00     0.029 A 
ATOM     43  C   UNL A   1      38.963  31.163  33.048  1.00  0.00     0.049 A 
ATOM     44  H   UNL A   1      39.953  29.975  31.650  1.00  0.00     0.167 HD
ATOM     45  C   UNL A   1      41.783  27.261  28.785  1.00  0.00     0.034 A 
ATOM     46  C   UNL A   1      39.676  31.134  34.192  1.00  0.00     0.034 A 
ATOM     47  C   UNL A   1      42.588  27.138  29.970  1.00  0.00     0.049 A 
ATOM     48  C   UNL A   1      40.908  30.278  34.270  1.00  0.00     0.074 A 
ATOM     49  C   UNL A   1      43.720  26.365  30.165  1.00  0.00     0.029 A 
ATOM     50  N   UNL A   1      42.373  27.833  31.149  1.00  0.00    -0.354 N 
ATOM     51  N   UNL A   1      41.462  29.546  33.336  1.00  0.00    -0.248 NA
ATOM     52  C   UNL A   1      41.610  30.243  35.561  1.00  0.00     0.031 C 
ATOM     53  C   UNL A   1      44.196  26.602  31.459  1.00  0.00     0.029 A 
ATOM     54  C   UNL A   1      43.361  27.521  32.070  1.00  0.00     0.049 A 
ATOM     55  H   UNL A   1      41.629  28.457  31.309  1.00  0.00     0.167 HD
ATOM     56  C   UNL A   1      42.578  28.962  33.924  1.00  0.00     0.074 A 
ATOM     57  C   UNL A   1      42.645  29.460  35.283  1.00  0.00     0.031 C 
ATOM     58  C   UNL A   1      43.446  28.065  33.399  1.00  0.00     0.034 A 
BRANCH  45  59
ATOM     59  C   UNL A   1      42.186  26.455  27.578  1.00  0.00     0.023 A 
ATOM     60  C   UNL A   1      42.983  27.043  26.577  1.00  0.00     0.012 A 
ATOM     61  C   UNL A   1      41.839  25.093  27.475  1.00  0.00     0.148 A 
ATOM     62  C   UNL A   1      43.411  26.293  25.482  1.00  0.00     0.002 A 
ATOM     63  C   UNL A   1      42.301  24.342  26.399  1.00  0.00     0.091 A 
ATOM     64  F   UNL A   1      41.056  24.558  28.423  1.00  0.00    -0.205 F 
ATOM     65  C   UNL A   1      43.082  24.942  25.399  1.00  0.00     0.022 A 
BRANCH  63  66
ATOM     66  S   UNL A   1      41.989  22.578  26.261  1.00  0.00     0.127 S 
ATOM     67  O   UNL A   1      40.529  22.539  26.208  1.00  0.00    -0.237 OA
ATOM     68  O   UNL A   1      42.654  22.237  25.003  1.00  0.00    -0.237 OA
ATOM     69  O   UNL A   1      42.595  21.977  27.442  1.00  0.00    -0.744 OA
ENDBRANCH  63  66
ENDBRANCH  45  59
BRANCH  46  70
ATOM     70  C   UNL A   1      39.239  31.964  35.351  1.00  0.00     0.023 A 
ATOM     71  C   UNL A   1      38.450  31.381  36.360  1.00  0.00     0.012 A 
ATOM     72  C   UNL A   1      39.657  33.302  35.496  1.00  0.00     0.148 A 
ATOM     73  C   UNL A   1      38.081  32.116  37.488  1.00  0.00     0.002 A 
ATOM     74  C   UNL A   1      39.346  34.004  36.654  1.00  0.00     0.091 A 
ATOM     75  F   UNL A   1      40.376  33.857  34.509  1.00  0.00    -0.205 F 
ATOM     76  C   UNL A   1      38.546  33.420  37.645  1.00  0.00     0.022 A 
BRANCH  74  77
ATOM     77  S   UNL A   1      40.070  35.614  36.990  1.00  0.00     0.127 S 
ATOM     78  O   UNL A   1      39.494  35.940  38.291  1.00  0.00    -0.237 OA
ATOM     79  O   UNL A   1      41.503  35.318  37.006  1.00  0.00    -0.237 OA
ATOM     80  O   UNL A   1      39.654  36.452  35.871  1.00  0.00    -0.744 OA
ENDBRANCH  74  77
ENDBRANCH  46  70
BRANCH  58  81
ATOM     81  C   UNL A   1      44.547  27.563  34.293  1.00  0.00     0.023 A 
ATOM     82  C   UNL A   1      45.762  28.272  34.351  1.00  0.00     0.012 A 
ATOM     83  C   UNL A   1      44.363  26.434  35.113  1.00  0.00     0.148 A 
ATOM     84  C   UNL A   1      46.790  27.850  35.193  1.00  0.00     0.002 A 
ATOM     85  C   UNL A   1      45.379  26.039  35.977  1.00  0.00     0.091 A 
ATOM     86  F   UNL A   1      43.208  25.757  35.026  1.00  0.00    -0.205 F 
ATOM     87  C   UNL A   1      46.595  26.741  36.013  1.00  0.00     0.022 A 
BRANCH  85  88
ATOM     88  S   UNL A   1      45.174  24.664  37.115  1.00  0.00     0.127 S 
ATOM     89  O   UNL A   1      44.152  25.177  38.024  1.00  0.00    -0.237 OA
ATOM     90  O   UNL A   1      44.721  23.587  36.235  1.00  0.00    -0.237 OA
ATOM     91  O   UNL A   1      46.490  24.444  37.700  1.00  0.00    -0.744 OA
ENDBRANCH  85  88
ENDBRANCH  58  81
ENDBRANCH  32  33
ENDBRANCH  25  27
ENDBRANCH  24  25
ENDBRANCH   1  24
TORSDOF 17
ENDMDL
MODEL 2
REMARK VINA RESULT:     -12.2      5.388     10.368
REMARK SMILES O=C(N[C@@H](C(=O)OCCOC(=O)c1ccc(-c2c3nc(c(-c4cccc(S(=O)(=O)[O-])c4F)c4ccc([nH]4)c(-c4cccc(S(=O)(=O)[O-])c4F)c4nc(c(-c5cccc(S(=O)(=O)[O-])c5F)c5ccc2[nH]5)C=C4)C=C3)cc1)c1ccccc1)c1ccc(Br)nc1
REMARK SMILES IDX 9 1 8 2 7 3 5 4 6 5 4 6 3 7 1 8 2 9 82 11 83 12 88 13 84 14
REMARK SMILES IDX 87 15 85 16 86 17 76 18 77 19 81 20 78 21 80 22 79 23 10 24
REMARK SMILES IDX 11 25 12 26 13 27 14 28 75 29 15 30 74 31 16 32 17 33 18 34
REMARK SMILES IDX 68 35 19 36 73 37 67 38 69 39 20 40 72 41 66 42 65 43 21 45
REMARK SMILES IDX 53 46 33 47 52 48 34 49 37 50 51 51 70 52 35 53 36 54 50 56
REMARK SMILES IDX 71 57 38 58 22 59 23 60 31 61 24 62 26 63 32 64 25 65 27 66
REMARK SMILES IDX 28 67 29 68 30 69 54 70 55 71 63 72 56 73 58 74 64 75 57 76
REMARK SMILES IDX 59 77 60 78 61 79 62 80 39 81 40 82 48 83 41 84 43 85 49 86
REMARK SMILES IDX 42 87 44 88 45 89 46 90 47 91
REMARK H PARENT 3 10 69 44 37 55
REMARK Flexibility Score: inf
ROOT
ATOM      1  C   UNL A   1      37.671  20.563  24.733  1.00  0.00     0.275 C 
ENDROOT
BRANCH   1   2
ATOM      2  C   UNL A   1      36.203  20.289  25.051  1.00  0.00     0.274 C 
BRANCH   2   3
ATOM      3  O   UNL A   1      35.402  21.477  24.883  1.00  0.00    -0.460 OA
BRANCH   3   4
ATOM      4  C   UNL A   1      34.464  21.711  25.847  1.00  0.00     0.333 C 
ATOM      5  O   UNL A   1      34.729  21.973  27.016  1.00  0.00    -0.249 OA
BRANCH   4   6
ATOM      6  C   UNL A   1      33.025  21.522  25.327  1.00  0.00     0.223 C 
BRANCH   6   7
ATOM      7  N   UNL A   1      31.972  21.885  26.283  1.00  0.00    -0.335 N 
ATOM      8  O   UNL A   1      30.608  23.272  27.435  1.00  0.00    -0.269 OA
ATOM      9  C   UNL A   1      31.407  23.108  26.519  1.00  0.00     0.253 C 
ATOM     10  H   UNL A   1      31.623  21.145  26.831  1.00  0.00     0.165 HD
BRANCH   9  11
ATOM     11  C   UNL A   1      31.831  24.268  25.726  1.00  0.00     0.058 A 
ATOM     12  C   UNL A   1      32.871  25.063  26.204  1.00  0.00     0.018 A 
ATOM     13  C   UNL A   1      31.261  24.582  24.502  1.00  0.00     0.126 A 
ATOM     14  C   UNL A   1      33.346  26.103  25.410  1.00  0.00     0.037 A 
ATOM     15  N   UNL A   1      31.713  25.582  23.706  1.00  0.00    -0.249 NA
ATOM     16  C   UNL A   1      32.752  26.313  24.171  1.00  0.00     0.106 A 
ATOM     17  Br  UNL A   1      33.440  27.681  23.054  1.00  0.00    -0.029 Br
ENDBRANCH   9  11
ENDBRANCH   6   7
BRANCH   6  18
ATOM     18  C   UNL A   1      32.754  20.140  24.750  1.00  0.00    -0.014 A 
ATOM     19  C   UNL A   1      32.776  19.013  25.591  1.00  0.00     0.006 A 
ATOM     20  C   UNL A   1      32.487  19.945  23.383  1.00  0.00     0.006 A 
ATOM     21  C   UNL A   1      32.563  17.732  25.076  1.00  0.00     0.000 A 
ATOM     22  C   UNL A   1      32.279  18.661  22.871  1.00  0.00     0.000 A 
ATOM     23  C   UNL A   1      32.320  17.556  23.716  1.00  0.00     0.000 A 
ENDBRANCH   6  18
ENDBRANCH   4   6
ENDBRANCH   3   4
ENDBRANCH   2   3
ENDBRANCH   1   2
BRANCH   1  24
ATOM     24  O   UNL A   1      38.138  21.698  25.481  1.00  0.00    -0.458 OA
BRANCH  24  25
ATOM     25  C   UNL A   1      39.295  21.516  26.149  1.00  0.00     0.338 C 
ATOM     26  O   UNL A   1      40.012  20.517  26.133  1.00  0.00    -0.246 OA
BRANCH  25  27
ATOM     27  C   UNL A   1      39.663  22.737  26.874  1.00  0.00     0.060 A 
ATOM     28  C   UNL A   1      39.077  23.938  26.492  1.00  0.00     0.016 A 
ATOM     29  C   UNL A   1      40.718  22.729  27.784  1.00  0.00     0.016 A 
ATOM     30  C   UNL A   1      39.636  25.143  26.909  1.00  0.00     0.010 A 
ATOM     31  C   UNL A   1      41.205  23.943  28.286  1.00  0.00     0.010 A 
ATOM     32  C   UNL A   1      40.717  25.171  27.802  1.00  0.00    -0.014 A 
BRANCH  32  33
ATOM     33  C   UNL A   1      41.371  26.468  28.151  1.00  0.00     0.031 A 
ATOM     34  C   UNL A   1      40.631  27.505  28.963  1.00  0.00     0.074 A 
ATOM     35  C   UNL A   1      42.645  26.722  27.783  1.00  0.00     0.049 A 
ATOM     36  N   UNL A   1      40.958  28.749  29.210  1.00  0.00    -0.248 NA
ATOM     37  C   UNL A   1      39.347  27.102  29.560  1.00  0.00     0.031 C 
ATOM     38  C   UNL A   1      43.505  25.815  27.022  1.00  0.00     0.029 A 
ATOM     39  N   UNL A   1      43.443  27.819  28.007  1.00  0.00    -0.354 N 
ATOM     40  C   UNL A   1      39.879  29.301  29.893  1.00  0.00     0.074 A 
ATOM     41  C   UNL A   1      38.898  28.250  30.049  1.00  0.00     0.031 C 
ATOM     42  C   UNL A   1      44.722  26.361  26.895  1.00  0.00     0.029 A 
ATOM     43  C   UNL A   1      44.706  27.700  27.473  1.00  0.00     0.049 A 
ATOM     44  H   UNL A   1      43.141  28.614  28.503  1.00  0.00     0.167 HD
ATOM     45  C   UNL A   1      39.722  30.565  30.354  1.00  0.00     0.034 A 
ATOM     46  C   UNL A   1      45.729  28.576  27.416  1.00  0.00     0.034 A 
ATOM     47  C   UNL A   1      40.742  31.579  30.310  1.00  0.00     0.049 A 
ATOM     48  C   UNL A   1      45.553  29.952  27.992  1.00  0.00     0.074 A 
ATOM     49  C   UNL A   1      40.682  32.880  30.781  1.00  0.00     0.029 A 
ATOM     50  N   UNL A   1      42.017  31.398  29.800  1.00  0.00    -0.354 N 
ATOM     51  N   UNL A   1      44.521  30.455  28.622  1.00  0.00    -0.248 NA
ATOM     52  C   UNL A   1      46.683  30.881  27.848  1.00  0.00     0.031 C 
ATOM     53  C   UNL A   1      41.927  33.482  30.566  1.00  0.00     0.029 A 
ATOM     54  C   UNL A   1      42.760  32.556  29.960  1.00  0.00     0.049 A 
ATOM     55  H   UNL A   1      42.346  30.568  29.385  1.00  0.00     0.167 HD
ATOM     56  C   UNL A   1      44.874  31.759  28.949  1.00  0.00     0.074 A 
ATOM     57  C   UNL A   1      46.233  31.953  28.486  1.00  0.00     0.031 C 
ATOM     58  C   UNL A   1      44.127  32.720  29.544  1.00  0.00     0.034 A 
BRANCH  45  59
ATOM     59  C   UNL A   1      38.401  30.927  30.982  1.00  0.00     0.023 A 
ATOM     60  C   UNL A   1      38.186  30.685  32.352  1.00  0.00     0.012 A 
ATOM     61  C   UNL A   1      37.403  31.578  30.229  1.00  0.00     0.148 A 
ATOM     62  C   UNL A   1      36.990  31.066  32.959  1.00  0.00     0.002 A 
ATOM     63  C   UNL A   1      36.229  31.989  30.850  1.00  0.00     0.091 A 
ATOM     64  F   UNL A   1      37.614  31.775  28.919  1.00  0.00    -0.205 F 
ATOM     65  C   UNL A   1      36.018  31.729  32.212  1.00  0.00     0.022 A 
BRANCH  63  66
ATOM     66  S   UNL A   1      34.963  32.919  29.978  1.00  0.00     0.127 S 
ATOM     67  O   UNL A   1      34.043  33.257  31.062  1.00  0.00    -0.237 OA
ATOM     68  O   UNL A   1      35.716  34.054  29.443  1.00  0.00    -0.237 OA
ATOM     69  O   UNL A   1      34.439  32.016  28.962  1.00  0.00    -0.744 OA
ENDBRANCH  63  66
ENDBRANCH  45  59
BRANCH  46  70
ATOM     70  C   UNL A   1      47.020  28.159  26.797  1.00  0.00     0.023 A 
ATOM     71  C   UNL A   1      48.057  27.680  27.620  1.00  0.00     0.012 A 
ATOM     72  C   UNL A   1      47.202  28.164  25.401  1.00  0.00     0.148 A 
ATOM     73  C   UNL A   1      49.252  27.221  27.063  1.00  0.00     0.002 A 
ATOM     74  C   UNL A   1      48.364  27.639  24.850  1.00  0.00     0.091 A 
ATOM     75  F   UNL A   1      46.221  28.658  24.630  1.00  0.00    -0.205 F 
ATOM     76  C   UNL A   1      49.398  27.181  25.679  1.00  0.00     0.022 A 
BRANCH  74  77
ATOM     77  S   UNL A   1      48.528  27.394  23.077  1.00  0.00     0.127 S 
ATOM     78  O   UNL A   1      49.870  27.908  22.823  1.00  0.00    -0.237 OA
ATOM     79  O   UNL A   1      48.388  25.943  22.946  1.00  0.00    -0.237 OA
ATOM     80  O   UNL A   1      47.426  28.147  22.492  1.00  0.00    -0.744 OA
ENDBRANCH  74  77
ENDBRANCH  46  70
BRANCH  58  81
ATOM     81  C   UNL A   1      44.762  34.070  29.732  1.00  0.00     0.023 A 
ATOM     82  C   UNL A   1      45.426  34.354  30.942  1.00  0.00     0.012 A 
ATOM     83  C   UNL A   1      44.753  35.031  28.703  1.00  0.00     0.148 A 
ATOM     84  C   UNL A   1      46.051  35.586  31.135  1.00  0.00     0.002 A 
ATOM     85  C   UNL A   1      45.408  36.243  28.890  1.00  0.00     0.091 A 
ATOM     86  F   UNL A   1      44.094  34.752  27.569  1.00  0.00    -0.205 F 
ATOM     87  C   UNL A   1      46.051  36.525  30.106  1.00  0.00     0.022 A 
BRANCH  85  88
ATOM     88  S   UNL A   1      45.513  37.473  27.584  1.00  0.00     0.127 S 
ATOM     89  O   UNL A   1      46.498  38.405  28.129  1.00  0.00    -0.237 OA
ATOM     90  O   UNL A   1      45.984  36.688  26.443  1.00  0.00    -0.237 OA
ATOM     91  O   UNL A   1      44.161  37.996  27.433  1.00  0.00    -0.744 OA
ENDBRANCH  85  88
ENDBRANCH  58  81
ENDBRANCH  32  33
ENDBRANCH  25  27
ENDBRANCH  24  25
ENDBRANCH   1  24
TORSDOF 17
ENDMDL
MODEL 3
REMARK VINA RESULT:     -12.1      5.034     10.123
REMARK SMILES O=C(N[C@@H](C(=O)OCCOC(=O)c1ccc(-c2c3nc(c(-c4cccc(S(=O)(=O)[O-])c4F)c4ccc([nH]4)c(-c4cccc(S(=O)(=O)[O-])c4F)c4nc(c(-c5cccc(S(=O)(=O)[O-])c5F)c5ccc2[nH]5)C=C4)C=C3)cc1)c1ccccc1)c1ccc(Br)nc1
REMARK SMILES IDX 9 1 8 2 7 3 5 4 6 5 4 6 3 7 1 8 2 9 82 11 83 12 88 13 84 14
REMARK SMILES IDX 87 15 85 16 86 17 76 18 77 19 81 20 78 21 80 22 79 23 10 24
REMARK SMILES IDX 11 25 12 26 13 27 14 28 75 29 15 30 74 31 16 32 17 33 18 34
REMARK SMILES IDX 68 35 19 36 73 37 67 38 69 39 20 40 72 41 66 42 65 43 21 45
REMARK SMILES IDX 53 46 33 47 52 48 34 49 37 50 51 51 70 52 35 53 36 54 50 56
REMARK SMILES IDX 71 57 38 58 22 59 23 60 31 61 24 62 26 63 32 64 25 65 27 66
REMARK SMILES IDX 28 67 29 68 30 69 54 70 55 71 63 72 56 73 58 74 64 75 57 76
REMARK SMILES IDX 59 77 60 78 61 79 62 80 39 81 40 82 48 83 41 84 43 85 49 86
REMARK SMILES IDX 42 87 44 88 45 89 46 90 47 91
REMARK H PARENT 3 10 69 44 37 55
REMARK Flexibility Score: inf
ROOT
ATOM      1  C   UNL A   1      36.824  20.146  24.938  1.00  0.00     0.275 C 
ENDROOT
BRANCH   1   2
ATOM      2  C   UNL A   1      35.386  20.570  25.220  1.00  0.00     0.274 C 
BRANCH   2   3
ATOM      3  O   UNL A   1      35.337  21.858  25.868  1.00  0.00    -0.460 OA
BRANCH   3   4
ATOM      4  C   UNL A   1      34.308  22.054  26.742  1.00  0.00     0.333 C 
ATOM      5  O   UNL A   1      34.189  21.460  27.809  1.00  0.00    -0.249 OA
BRANCH   4   6
ATOM      6  C   UNL A   1      33.254  23.041  26.200  1.00  0.00     0.223 C 
BRANCH   6   7
ATOM      7  N   UNL A   1      31.906  22.869  26.755  1.00  0.00    -0.335 N 
ATOM      8  O   UNL A   1      29.799  23.478  27.304  1.00  0.00    -0.269 OA
ATOM      9  C   UNL A   1      30.834  23.716  26.691  1.00  0.00     0.253 C 
ATOM     10  H   UNL A   1      31.752  22.028  27.241  1.00  0.00     0.165 HD
BRANCH   9  11
ATOM     11  C   UNL A   1      30.951  24.981  25.954  1.00  0.00     0.058 A 
ATOM     12  C   UNL A   1      31.701  26.014  26.512  1.00  0.00     0.018 A 
ATOM     13  C   UNL A   1      30.374  25.173  24.708  1.00  0.00     0.126 A 
ATOM     14  C   UNL A   1      31.901  27.178  25.774  1.00  0.00     0.037 A 
ATOM     15  N   UNL A   1      30.564  26.291  23.966  1.00  0.00    -0.249 NA
ATOM     16  C   UNL A   1      31.331  27.264  24.509  1.00  0.00     0.106 A 
ATOM     17  Br  UNL A   1      31.657  28.815  23.470  1.00  0.00    -0.029 Br
ENDBRANCH   9  11
ENDBRANCH   6   7
BRANCH   6  18
ATOM     18  C   UNL A   1      33.190  23.103  24.681  1.00  0.00    -0.014 A 
ATOM     19  C   UNL A   1      33.806  24.166  23.996  1.00  0.00     0.006 A 
ATOM     20  C   UNL A   1      32.519  22.125  23.925  1.00  0.00     0.006 A 
ATOM     21  C   UNL A   1      33.731  24.260  22.605  1.00  0.00     0.000 A 
ATOM     22  C   UNL A   1      32.441  22.226  22.533  1.00  0.00     0.000 A 
ATOM     23  C   UNL A   1      33.045  23.293  21.874  1.00  0.00     0.000 A 
ENDBRANCH   6  18
ENDBRANCH   4   6
ENDBRANCH   3   4
ENDBRANCH   2   3
ENDBRANCH   1   2
BRANCH   1  24
ATOM     24  O   UNL A   1      37.713  21.263  25.109  1.00  0.00    -0.458 OA
BRANCH  24  25
ATOM     25  C   UNL A   1      38.852  21.000  25.783  1.00  0.00     0.338 C 
ATOM     26  O   UNL A   1      39.493  19.950  25.775  1.00  0.00    -0.246 OA
BRANCH  25  27
ATOM     27  C   UNL A   1      39.307  22.195  26.501  1.00  0.00     0.060 A 
ATOM     28  C   UNL A   1      38.764  23.426  26.153  1.00  0.00     0.016 A 
ATOM     29  C   UNL A   1      40.398  22.129  27.366  1.00  0.00     0.016 A 
ATOM     30  C   UNL A   1      39.396  24.599  26.556  1.00  0.00     0.010 A 
ATOM     31  C   UNL A   1      40.962  23.314  27.856  1.00  0.00     0.010 A 
ATOM     32  C   UNL A   1      40.513  24.567  27.403  1.00  0.00    -0.014 A 
BRANCH  32  33
ATOM     33  C   UNL A   1      41.242  25.829  27.735  1.00  0.00     0.031 A 
ATOM     34  C   UNL A   1      40.592  26.886  28.596  1.00  0.00     0.074 A 
ATOM     35  C   UNL A   1      42.506  26.032  27.305  1.00  0.00     0.049 A 
ATOM     36  N   UNL A   1      40.986  28.110  28.841  1.00  0.00    -0.248 NA
ATOM     37  C   UNL A   1      39.322  26.532  29.253  1.00  0.00     0.031 C 
ATOM     38  C   UNL A   1      43.285  25.098  26.490  1.00  0.00     0.029 A 
ATOM     39  N   UNL A   1      43.363  27.088  27.502  1.00  0.00    -0.354 N 
ATOM     40  C   UNL A   1      39.970  28.699  29.585  1.00  0.00     0.074 A 
ATOM     41  C   UNL A   1      38.951  27.691  29.778  1.00  0.00     0.031 C 
ATOM     42  C   UNL A   1      44.518  25.592  26.308  1.00  0.00     0.029 A 
ATOM     43  C   UNL A   1      44.591  26.922  26.903  1.00  0.00     0.049 A 
ATOM     44  H   UNL A   1      43.123  27.889  28.023  1.00  0.00     0.167 HD
ATOM     45  C   UNL A   1      39.893  29.963  30.070  1.00  0.00     0.034 A 
ATOM     46  C   UNL A   1      45.649  27.752  26.804  1.00  0.00     0.034 A 
ATOM     47  C   UNL A   1      40.954  30.930  29.986  1.00  0.00     0.049 A 
ATOM     48  C   UNL A   1      45.564  29.125  27.406  1.00  0.00     0.074 A 
ATOM     49  C   UNL A   1      40.977  32.225  30.476  1.00  0.00     0.029 A 
ATOM     50  N   UNL A   1      42.192  30.700  29.410  1.00  0.00    -0.354 N 
ATOM     51  N   UNL A   1      44.588  29.664  28.094  1.00  0.00    -0.248 NA
ATOM     52  C   UNL A   1      46.726  30.005  27.216  1.00  0.00     0.031 C 
ATOM     53  C   UNL A   1      42.235  32.774  30.205  1.00  0.00     0.029 A 
ATOM     54  C   UNL A   1      42.994  31.822  29.546  1.00  0.00     0.049 A 
ATOM     55  H   UNL A   1      42.462  29.863  28.968  1.00  0.00     0.167 HD
ATOM     56  C   UNL A   1      45.016  30.946  28.418  1.00  0.00     0.074 A 
ATOM     57  C   UNL A   1      46.357  31.087  27.890  1.00  0.00     0.031 C 
ATOM     58  C   UNL A   1      44.345  31.930  29.063  1.00  0.00     0.034 A 
BRANCH  45  59
ATOM     59  C   UNL A   1      38.623  30.374  30.768  1.00  0.00     0.023 A 
ATOM     60  C   UNL A   1      38.465  30.118  32.144  1.00  0.00     0.012 A 
ATOM     61  C   UNL A   1      37.620  31.082  30.076  1.00  0.00     0.148 A 
ATOM     62  C   UNL A   1      37.320  30.543  32.816  1.00  0.00     0.002 A 
ATOM     63  C   UNL A   1      36.499  31.536  30.761  1.00  0.00     0.091 A 
ATOM     64  F   UNL A   1      37.775  31.292  28.761  1.00  0.00    -0.205 F 
ATOM     65  C   UNL A   1      36.344  31.262  32.129  1.00  0.00     0.022 A 
BRANCH  63  66
ATOM     66  S   UNL A   1      35.236  32.538  29.968  1.00  0.00     0.127 S 
ATOM     67  O   UNL A   1      34.740  31.629  28.936  1.00  0.00    -0.237 OA
ATOM     68  O   UNL A   1      34.296  32.787  31.062  1.00  0.00    -0.237 OA
ATOM     69  O   UNL A   1      35.923  33.729  29.486  1.00  0.00    -0.744 OA
ENDBRANCH  63  66
ENDBRANCH  45  59
BRANCH  46  70
ATOM     70  C   UNL A   1      46.886  27.286  26.115  1.00  0.00     0.023 A 
ATOM     71  C   UNL A   1      47.109  27.651  24.774  1.00  0.00     0.012 A 
ATOM     72  C   UNL A   1      47.874  26.549  26.797  1.00  0.00     0.148 A 
ATOM     73  C   UNL A   1      48.289  27.284  24.124  1.00  0.00     0.002 A 
ATOM     74  C   UNL A   1      49.075  26.250  26.167  1.00  0.00     0.091 A 
ATOM     75  F   UNL A   1      47.633  26.175  28.062  1.00  0.00    -0.205 F 
ATOM     76  C   UNL A   1      49.280  26.602  24.826  1.00  0.00     0.022 A 
BRANCH  74  77
ATOM     77  S   UNL A   1      50.453  25.539  27.076  1.00  0.00     0.127 S 
ATOM     78  O   UNL A   1      50.731  26.576  28.065  1.00  0.00    -0.237 OA
ATOM     79  O   UNL A   1      49.872  24.310  27.618  1.00  0.00    -0.237 OA
ATOM     80  O   UNL A   1      51.485  25.310  26.072  1.00  0.00    -0.744 OA
ENDBRANCH  74  77
ENDBRANCH  46  70
BRANCH  58  81
ATOM     81  C   UNL A   1      45.048  33.249  29.236  1.00  0.00     0.023 A 
ATOM     82  C   UNL A   1      45.834  33.463  30.386  1.00  0.00     0.012 A 
ATOM     83  C   UNL A   1      44.983  34.246  28.245  1.00  0.00     0.148 A 
ATOM     84  C   UNL A   1      46.523  34.662  30.560  1.00  0.00     0.002 A 
ATOM     85  C   UNL A   1      45.701  35.425  28.409  1.00  0.00     0.091 A 
ATOM     86  F   UNL A   1      44.210  34.034  27.169  1.00  0.00    -0.205 F 
ATOM     87  C   UNL A   1      46.466  35.638  29.568  1.00  0.00     0.022 A 
BRANCH  85  88
ATOM     88  S   UNL A   1      45.734  36.698  27.141  1.00  0.00     0.127 S 
ATOM     89  O   UNL A   1      44.321  37.057  27.039  1.00  0.00    -0.237 OA
ATOM     90  O   UNL A   1      46.581  37.728  27.745  1.00  0.00    -0.237 OA
ATOM     91  O   UNL A   1      46.313  36.062  25.966  1.00  0.00    -0.744 OA
ENDBRANCH  85  88
ENDBRANCH  58  81
ENDBRANCH  32  33
ENDBRANCH  25  27
ENDBRANCH  24  25
ENDBRANCH   1  24
TORSDOF 17
ENDMDL
