MODEL 1
REMARK VINA RESULT:     -11.6      0.000      0.000
REMARK SMILES C[N@H+]1CCO[C@@H](CN2C[C@H](C(=O)OCCOC(=O)c3ccc(-c4c5nc(c(-c6cccc(S(=O)(=O)[O-])c6F)c6ccc([nH]6)c(-c6cccc(S(=O)(=O)[O-])c6F)c6nc(c(-c7cccc(S(=O)(=O)[O-])c7F)c7ccc4[nH]7)C=C6)C=C5)cc3)CC2=O)C1
REMARK SMILES IDX 15 1 14 2 13 3 11 4 12 5 10 6 8 7 9 8 83 9 82 10 84 11 7 12
REMARK SMILES IDX 6 13 1 14 2 15 3 16 85 17 4 19 5 20 16 21 17 22 18 23 19 24
REMARK SMILES IDX 20 25 81 26 21 27 80 28 22 29 23 30 24 31 74 32 25 33 79 34
REMARK SMILES IDX 73 35 75 36 26 37 78 38 72 39 71 40 27 42 59 43 39 44 58 45
REMARK SMILES IDX 40 46 43 47 57 48 76 49 41 50 42 51 56 53 77 54 44 55 28 56
REMARK SMILES IDX 29 57 37 58 30 59 32 60 38 61 31 62 33 63 34 64 35 65 36 66
REMARK SMILES IDX 60 67 61 68 69 69 62 70 64 71 70 72 63 73 65 74 66 75 67 76
REMARK SMILES IDX 68 77 45 78 46 79 54 80 47 81 49 82 55 83 48 84 50 85 51 86
REMARK SMILES IDX 52 87 53 88
REMARK H PARENT 2 18 75 41 43 52
REMARK Flexibility Score: inf
ROOT
ATOM      1  C   UNL A   1      31.727  30.311  25.632  1.00  0.00     0.275 C 
ENDROOT
BRANCH   1   2
ATOM      2  C   UNL A   1      32.156  29.015  24.949  1.00  0.00     0.274 C 
BRANCH   2   3
ATOM      3  O   UNL A   1      31.066  28.078  24.824  1.00  0.00    -0.462 OA
BRANCH   3   4
ATOM      4  C   UNL A   1      31.396  26.888  24.252  1.00  0.00     0.311 C 
ATOM      5  O   UNL A   1      32.417  26.692  23.606  1.00  0.00    -0.252 OA
BRANCH   4   6
ATOM      6  C   UNL A   1      30.298  25.860  24.437  1.00  0.00     0.128 C 
ATOM      7  N   UNL A   1      31.212  23.777  25.001  1.00  0.00    -0.339 N 
ATOM      8  C   UNL A   1      30.747  24.528  23.864  1.00  0.00     0.135 C 
ATOM      9  C   UNL A   1      30.713  24.272  26.189  1.00  0.00     0.223 C 
ATOM     10  C   UNL A   1      29.963  25.553  25.896  1.00  0.00     0.117 C 
ATOM     11  O   UNL A   1      30.853  23.777  27.296  1.00  0.00    -0.275 OA
BRANCH   7  12
ATOM     12  C   UNL A   1      32.289  22.798  24.889  1.00  0.00     0.157 C 
BRANCH  12  13
ATOM     13  C   UNL A   1      33.732  23.324  24.767  1.00  0.00     0.192 C 
ATOM     14  C   UNL A   1      33.856  21.940  27.705  1.00  0.00     0.332 C 
ATOM     15  N   UNL A   1      34.915  22.538  26.912  1.00  0.00    -0.333 N 
ATOM     16  C   UNL A   1      35.614  21.563  26.057  1.00  0.00     0.290 C 
ATOM     17  C   UNL A   1      34.455  23.674  26.084  1.00  0.00     0.296 C 
ATOM     18  H   UNL A   1      35.574  22.896  27.604  1.00  0.00     0.348 HD
ATOM     19  C   UNL A   1      34.905  21.227  24.734  1.00  0.00     0.222 C 
ATOM     20  O   UNL A   1      34.533  22.397  23.998  1.00  0.00    -0.365 OA
ENDBRANCH  12  13
ENDBRANCH   7  12
ENDBRANCH   4   6
ENDBRANCH   3   4
ENDBRANCH   2   3
ENDBRANCH   1   2
BRANCH   1  21
ATOM     21  O   UNL A   1      32.292  30.416  26.949  1.00  0.00    -0.458 OA
BRANCH  21  22
ATOM     22  C   UNL A   1      32.958  31.568  27.194  1.00  0.00     0.338 C 
ATOM     23  O   UNL A   1      32.508  32.701  27.147  1.00  0.00    -0.246 OA
BRANCH  22  24
ATOM     24  C   UNL A   1      34.332  31.280  27.627  1.00  0.00     0.060 A 
ATOM     25  C   UNL A   1      34.666  29.967  27.938  1.00  0.00     0.016 A 
ATOM     26  C   UNL A   1      35.225  32.313  27.906  1.00  0.00     0.016 A 
ATOM     27  C   UNL A   1      35.838  29.690  28.633  1.00  0.00     0.010 A 
ATOM     28  C   UNL A   1      36.456  32.014  28.506  1.00  0.00     0.010 A 
ATOM     29  C   UNL A   1      36.760  30.703  28.917  1.00  0.00    -0.014 A 
BRANCH  29  30
ATOM     30  C   UNL A   1      38.004  30.388  29.675  1.00  0.00     0.031 A 
ATOM     31  C   UNL A   1      39.058  29.501  29.066  1.00  0.00     0.074 A 
ATOM     32  C   UNL A   1      38.205  30.900  30.907  1.00  0.00     0.049 A 
ATOM     33  N   UNL A   1      40.103  28.950  29.628  1.00  0.00    -0.248 NA
ATOM     34  C   UNL A   1      38.910  29.178  27.637  1.00  0.00     0.031 C 
ATOM     35  C   UNL A   1      37.301  31.816  31.604  1.00  0.00     0.029 A 
ATOM     36  N   UNL A   1      39.235  30.714  31.798  1.00  0.00    -0.354 N 
ATOM     37  C   UNL A   1      40.686  28.152  28.651  1.00  0.00     0.074 A 
ATOM     38  C   UNL A   1      39.888  28.301  27.454  1.00  0.00     0.031 C 
ATOM     39  C   UNL A   1      37.819  32.124  32.802  1.00  0.00     0.029 A 
ATOM     40  C   UNL A   1      39.043  31.358  32.999  1.00  0.00     0.049 A 
ATOM     41  H   UNL A   1      40.033  30.173  31.597  1.00  0.00     0.167 HD
ATOM     42  C   UNL A   1      41.791  27.371  28.741  1.00  0.00     0.034 A 
ATOM     43  C   UNL A   1      39.739  31.301  34.152  1.00  0.00     0.034 A 
ATOM     44  C   UNL A   1      42.633  27.294  29.907  1.00  0.00     0.049 A 
ATOM     45  C   UNL A   1      40.955  30.422  34.229  1.00  0.00     0.074 A 
ATOM     46  C   UNL A   1      43.792  26.559  30.081  1.00  0.00     0.029 A 
ATOM     47  N   UNL A   1      42.417  27.986  31.089  1.00  0.00    -0.354 N 
ATOM     48  N   UNL A   1      41.502  29.685  33.294  1.00  0.00    -0.248 NA
ATOM     49  C   UNL A   1      41.658  30.372  35.520  1.00  0.00     0.031 C 
ATOM     50  C   UNL A   1      44.268  26.791  31.377  1.00  0.00     0.029 A 
ATOM     51  C   UNL A   1      43.418  27.691  31.999  1.00  0.00     0.049 A 
ATOM     52  H   UNL A   1      41.664  28.596  31.256  1.00  0.00     0.167 HD
ATOM     53  C   UNL A   1      42.626  29.106  33.873  1.00  0.00     0.074 A 
ATOM     54  C   UNL A   1      42.695  29.597  35.234  1.00  0.00     0.031 C 
ATOM     55  C   UNL A   1      43.507  28.228  33.333  1.00  0.00     0.034 A 
BRANCH  42  56
ATOM     56  C   UNL A   1      42.165  26.539  27.542  1.00  0.00     0.023 A 
ATOM     57  C   UNL A   1      42.907  27.107  26.489  1.00  0.00     0.012 A 
ATOM     58  C   UNL A   1      41.828  25.170  27.490  1.00  0.00     0.148 A 
ATOM     59  C   UNL A   1      43.281  26.336  25.388  1.00  0.00     0.002 A 
ATOM     60  C   UNL A   1      42.243  24.398  26.412  1.00  0.00     0.091 A 
ATOM     61  F   UNL A   1      41.104  24.652  28.492  1.00  0.00    -0.205 F 
ATOM     62  C   UNL A   1      42.960  24.982  25.355  1.00  0.00     0.022 A 
BRANCH  60  63
ATOM     63  S   UNL A   1      41.947  22.628  26.319  1.00  0.00     0.127 S 
ATOM     64  O   UNL A   1      42.599  22.154  27.539  1.00  0.00    -0.237 OA
ATOM     65  O   UNL A   1      40.485  22.557  26.343  1.00  0.00    -0.237 OA
ATOM     66  O   UNL A   1      42.554  22.183  25.072  1.00  0.00    -0.744 OA
ENDBRANCH  60  63
ENDBRANCH  42  56
BRANCH  43  67
ATOM     67  C   UNL A   1      39.290  32.099  35.330  1.00  0.00     0.023 A 
ATOM     68  C   UNL A   1      38.453  31.504  36.293  1.00  0.00     0.012 A 
ATOM     69  C   UNL A   1      39.715  33.430  35.519  1.00  0.00     0.148 A 
ATOM     70  C   UNL A   1      38.027  32.226  37.408  1.00  0.00     0.002 A 
ATOM     71  C   UNL A   1      39.341  34.121  36.665  1.00  0.00     0.091 A 
ATOM     72  F   UNL A   1      40.491  33.990  34.580  1.00  0.00    -0.205 F 
ATOM     73  C   UNL A   1      38.481  33.528  37.602  1.00  0.00     0.022 A 
BRANCH  71  74
ATOM     74  S   UNL A   1      40.002  35.743  37.066  1.00  0.00     0.127 S 
ATOM     75  O   UNL A   1      39.315  36.046  38.317  1.00  0.00    -0.237 OA
ATOM     76  O   UNL A   1      41.433  35.464  37.199  1.00  0.00    -0.237 OA
ATOM     77  O   UNL A   1      39.665  36.595  35.933  1.00  0.00    -0.744 OA
ENDBRANCH  71  74
ENDBRANCH  43  67
BRANCH  55  78
ATOM     78  C   UNL A   1      44.647  27.765  34.200  1.00  0.00     0.023 A 
ATOM     79  C   UNL A   1      45.814  28.549  34.299  1.00  0.00     0.012 A 
ATOM     80  C   UNL A   1      44.537  26.589  34.968  1.00  0.00     0.148 A 
ATOM     81  C   UNL A   1      46.866  28.154  35.124  1.00  0.00     0.002 A 
ATOM     82  C   UNL A   1      45.571  26.226  35.823  1.00  0.00     0.091 A 
ATOM     83  F   UNL A   1      43.428  25.847  34.846  1.00  0.00    -0.205 F 
ATOM     84  C   UNL A   1      46.740  27.000  35.893  1.00  0.00     0.022 A 
BRANCH  82  85
ATOM     85  S   UNL A   1      45.459  24.808  36.921  1.00  0.00     0.127 S 
ATOM     86  O   UNL A   1      45.292  23.708  35.972  1.00  0.00    -0.237 OA
ATOM     87  O   UNL A   1      46.756  24.836  37.598  1.00  0.00    -0.237 OA
ATOM     88  O   UNL A   1      44.319  25.062  37.790  1.00  0.00    -0.744 OA
ENDBRANCH  82  85
ENDBRANCH  55  78
ENDBRANCH  29  30
ENDBRANCH  22  24
ENDBRANCH  21  22
ENDBRANCH   1  21
TORSDOF 16
ENDMDL
MODEL 2
REMARK VINA RESULT:     -11.6      4.865     10.021
REMARK SMILES C[N@H+]1CCO[C@@H](CN2C[C@H](C(=O)OCCOC(=O)c3ccc(-c4c5nc(c(-c6cccc(S(=O)(=O)[O-])c6F)c6ccc([nH]6)c(-c6cccc(S(=O)(=O)[O-])c6F)c6nc(c(-c7cccc(S(=O)(=O)[O-])c7F)c7ccc4[nH]7)C=C6)C=C5)cc3)CC2=O)C1
REMARK SMILES IDX 15 1 14 2 13 3 11 4 12 5 10 6 8 7 9 8 83 9 82 10 84 11 7 12
REMARK SMILES IDX 6 13 1 14 2 15 3 16 85 17 4 19 5 20 16 21 17 22 18 23 19 24
REMARK SMILES IDX 20 25 81 26 21 27 80 28 22 29 23 30 24 31 74 32 25 33 79 34
REMARK SMILES IDX 73 35 75 36 26 37 78 38 72 39 71 40 27 42 59 43 39 44 58 45
REMARK SMILES IDX 40 46 43 47 57 48 76 49 41 50 42 51 56 53 77 54 44 55 28 56
REMARK SMILES IDX 29 57 37 58 30 59 32 60 38 61 31 62 33 63 34 64 35 65 36 66
REMARK SMILES IDX 60 67 61 68 69 69 62 70 64 71 70 72 63 73 65 74 66 75 67 76
REMARK SMILES IDX 68 77 45 78 46 79 54 80 47 81 49 82 55 83 48 84 50 85 51 86
REMARK SMILES IDX 52 87 53 88
REMARK H PARENT 2 18 75 41 43 52
REMARK Flexibility Score: inf
ROOT
ATOM      1  C   UNL A   1      36.332  20.660  25.004  1.00  0.00     0.275 C 
ENDROOT
BRANCH   1   2
ATOM      2  C   UNL A   1      34.971  21.263  25.347  1.00  0.00     0.274 C 
BRANCH   2   3
ATOM      3  O   UNL A   1      34.242  21.666  24.169  1.00  0.00    -0.462 OA
BRANCH   3   4
ATOM      4  C   UNL A   1      33.219  22.534  24.398  1.00  0.00     0.311 C 
ATOM      5  O   UNL A   1      32.948  23.008  25.493  1.00  0.00    -0.252 OA
BRANCH   4   6
ATOM      6  C   UNL A   1      32.399  22.768  23.145  1.00  0.00     0.128 C 
ATOM      7  N   UNL A   1      31.912  25.047  22.899  1.00  0.00    -0.339 N 
ATOM      8  C   UNL A   1      31.347  23.828  23.417  1.00  0.00     0.135 C 
ATOM      9  C   UNL A   1      32.920  24.806  21.987  1.00  0.00     0.223 C 
ATOM     10  C   UNL A   1      33.198  23.318  21.964  1.00  0.00     0.117 C 
ATOM     11  O   UNL A   1      33.504  25.640  21.315  1.00  0.00    -0.275 OA
BRANCH   7  12
ATOM     12  C   UNL A   1      31.615  26.347  23.493  1.00  0.00     0.157 C 
BRANCH  12  13
ATOM     13  C   UNL A   1      32.283  26.696  24.837  1.00  0.00     0.192 C 
ATOM     14  C   UNL A   1      33.818  28.769  22.860  1.00  0.00     0.332 C 
ATOM     15  N   UNL A   1      33.886  28.637  24.304  1.00  0.00    -0.333 N 
ATOM     16  C   UNL A   1      32.920  29.501  25.007  1.00  0.00     0.290 C 
ATOM     17  C   UNL A   1      33.725  27.243  24.772  1.00  0.00     0.296 C 
ATOM     18  H   UNL A   1      34.829  28.944  24.540  1.00  0.00     0.348 HD
ATOM     19  C   UNL A   1      31.488  28.949  25.091  1.00  0.00     0.222 C 
ATOM     20  O   UNL A   1      31.445  27.606  25.586  1.00  0.00    -0.365 OA
ENDBRANCH  12  13
ENDBRANCH   7  12
ENDBRANCH   4   6
ENDBRANCH   3   4
ENDBRANCH   2   3
ENDBRANCH   1   2
BRANCH   1  21
ATOM     21  O   UNL A   1      37.368  21.655  25.055  1.00  0.00    -0.458 OA
BRANCH  21  22
ATOM     22  C   UNL A   1      38.495  21.272  25.700  1.00  0.00     0.338 C 
ATOM     23  O   UNL A   1      39.021  20.172  25.670  1.00  0.00    -0.246 OA
BRANCH  22  24
ATOM     24  C   UNL A   1      39.087  22.414  26.410  1.00  0.00     0.060 A 
ATOM     25  C   UNL A   1      38.619  23.689  26.118  1.00  0.00     0.016 A 
ATOM     26  C   UNL A   1      40.217  22.250  27.208  1.00  0.00     0.016 A 
ATOM     27  C   UNL A   1      39.339  24.808  26.522  1.00  0.00     0.010 A 
ATOM     28  C   UNL A   1      40.876  23.383  27.708  1.00  0.00     0.010 A 
ATOM     29  C   UNL A   1      40.470  24.677  27.336  1.00  0.00    -0.014 A 
BRANCH  29  30
ATOM     30  C   UNL A   1      41.236  25.888  27.747  1.00  0.00     0.031 A 
ATOM     31  C   UNL A   1      40.579  26.949  28.590  1.00  0.00     0.074 A 
ATOM     32  C   UNL A   1      42.526  26.041  27.381  1.00  0.00     0.049 A 
ATOM     33  N   UNL A   1      41.000  28.153  28.881  1.00  0.00    -0.248 NA
ATOM     34  C   UNL A   1      39.266  26.619  29.170  1.00  0.00     0.031 C 
ATOM     35  C   UNL A   1      43.311  25.074  26.612  1.00  0.00     0.029 A 
ATOM     36  N   UNL A   1      43.402  27.077  27.599  1.00  0.00    -0.354 N 
ATOM     37  C   UNL A   1      39.974  28.752  29.604  1.00  0.00     0.074 A 
ATOM     38  C   UNL A   1      38.914  27.774  29.720  1.00  0.00     0.031 C 
ATOM     39  C   UNL A   1      44.552  25.551  26.436  1.00  0.00     0.029 A 
ATOM     40  C   UNL A   1      44.626  26.895  26.996  1.00  0.00     0.049 A 
ATOM     41  H   UNL A   1      43.177  27.872  28.134  1.00  0.00     0.167 HD
ATOM     42  C   UNL A   1      39.924  30.001  30.128  1.00  0.00     0.034 A 
ATOM     43  C   UNL A   1      45.675  27.730  26.858  1.00  0.00     0.034 A 
ATOM     44  C   UNL A   1      41.014  30.940  30.087  1.00  0.00     0.049 A 
ATOM     45  C   UNL A   1      45.590  29.112  27.441  1.00  0.00     0.074 A 
ATOM     46  C   UNL A   1      41.070  32.216  30.621  1.00  0.00     0.029 A 
ATOM     47  N   UNL A   1      42.244  30.702  29.493  1.00  0.00    -0.354 N 
ATOM     48  N   UNL A   1      44.621  29.659  28.133  1.00  0.00    -0.248 NA
ATOM     49  C   UNL A   1      46.750  29.993  27.233  1.00  0.00     0.031 C 
ATOM     50  C   UNL A   1      42.327  32.757  30.332  1.00  0.00     0.029 A 
ATOM     51  C   UNL A   1      43.063  31.809  29.641  1.00  0.00     0.049 A 
ATOM     52  H   UNL A   1      42.497  29.870  29.033  1.00  0.00     0.167 HD
ATOM     53  C   UNL A   1      45.062  30.935  28.465  1.00  0.00     0.074 A 
ATOM     54  C   UNL A   1      46.397  31.071  27.920  1.00  0.00     0.031 C 
ATOM     55  C   UNL A   1      44.410  31.913  29.141  1.00  0.00     0.034 A 
BRANCH  42  56
ATOM     56  C   UNL A   1      38.647  30.429  30.804  1.00  0.00     0.023 A 
ATOM     57  C   UNL A   1      38.464  30.200  32.182  1.00  0.00     0.012 A 
ATOM     58  C   UNL A   1      37.651  31.115  30.080  1.00  0.00     0.148 A 
ATOM     59  C   UNL A   1      37.296  30.618  32.822  1.00  0.00     0.002 A 
ATOM     60  C   UNL A   1      36.510  31.569  30.733  1.00  0.00     0.091 A 
ATOM     61  F   UNL A   1      37.833  31.306  28.765  1.00  0.00    -0.205 F 
ATOM     62  C   UNL A   1      36.327  31.311  32.101  1.00  0.00     0.022 A 
BRANCH  60  63
ATOM     63  S   UNL A   1      35.245  32.540  29.908  1.00  0.00     0.127 S 
ATOM     64  O   UNL A   1      34.286  32.760  30.989  1.00  0.00    -0.237 OA
ATOM     65  O   UNL A   1      35.987  33.734  29.500  1.00  0.00    -0.237 OA
ATOM     66  O   UNL A   1      34.764  31.721  28.803  1.00  0.00    -0.744 OA
ENDBRANCH  60  63
ENDBRANCH  42  56
BRANCH  43  67
ATOM     67  C   UNL A   1      46.893  27.278  26.125  1.00  0.00     0.023 A 
ATOM     68  C   UNL A   1      47.011  27.539  24.747  1.00  0.00     0.012 A 
ATOM     69  C   UNL A   1      47.948  26.620  26.791  1.00  0.00     0.148 A 
ATOM     70  C   UNL A   1      48.144  27.134  24.041  1.00  0.00     0.002 A 
ATOM     71  C   UNL A   1      49.101  26.280  26.096  1.00  0.00     0.091 A 
ATOM     72  F   UNL A   1      47.809  26.357  28.098  1.00  0.00    -0.205 F 
ATOM     73  C   UNL A   1      49.194  26.518  24.716  1.00  0.00     0.022 A 
BRANCH  71  74
ATOM     74  S   UNL A   1      50.558  25.622  26.917  1.00  0.00     0.127 S 
ATOM     75  O   UNL A   1      50.039  24.393  27.509  1.00  0.00    -0.237 OA
ATOM     76  O   UNL A   1      51.477  25.427  25.795  1.00  0.00    -0.237 OA
ATOM     77  O   UNL A   1      50.977  26.653  27.858  1.00  0.00    -0.744 OA
ENDBRANCH  71  74
ENDBRANCH  43  67
BRANCH  55  78
ATOM     78  C   UNL A   1      45.142  33.210  29.364  1.00  0.00     0.023 A 
ATOM     79  C   UNL A   1      45.901  33.392  30.537  1.00  0.00     0.012 A 
ATOM     80  C   UNL A   1      45.131  34.221  28.383  1.00  0.00     0.148 A 
ATOM     81  C   UNL A   1      46.613  34.574  30.744  1.00  0.00     0.002 A 
ATOM     82  C   UNL A   1      45.880  35.376  28.575  1.00  0.00     0.091 A 
ATOM     83  F   UNL A   1      44.387  34.037  27.283  1.00  0.00    -0.205 F 
ATOM     84  C   UNL A   1      46.611  35.559  29.760  1.00  0.00     0.022 A 
BRANCH  82  85
ATOM     85  S   UNL A   1      46.013  36.658  27.323  1.00  0.00     0.127 S 
ATOM     86  O   UNL A   1      44.646  37.176  27.281  1.00  0.00    -0.237 OA
ATOM     87  O   UNL A   1      46.992  37.570  27.915  1.00  0.00    -0.237 OA
ATOM     88  O   UNL A   1      46.467  35.990  26.111  1.00  0.00    -0.744 OA
ENDBRANCH  82  85
ENDBRANCH  55  78
ENDBRANCH  29  30
ENDBRANCH  22  24
ENDBRANCH  21  22
ENDBRANCH   1  21
TORSDOF 16
ENDMDL
MODEL 3
REMARK VINA RESULT:     -11.5      5.192     10.146
REMARK SMILES C[N@H+]1CCO[C@@H](CN2C[C@H](C(=O)OCCOC(=O)c3ccc(-c4c5nc(c(-c6cccc(S(=O)(=O)[O-])c6F)c6ccc([nH]6)c(-c6cccc(S(=O)(=O)[O-])c6F)c6nc(c(-c7cccc(S(=O)(=O)[O-])c7F)c7ccc4[nH]7)C=C6)C=C5)cc3)CC2=O)C1
REMARK SMILES IDX 15 1 14 2 13 3 11 4 12 5 10 6 8 7 9 8 83 9 82 10 84 11 7 12
REMARK SMILES IDX 6 13 1 14 2 15 3 16 85 17 4 19 5 20 16 21 17 22 18 23 19 24
REMARK SMILES IDX 20 25 81 26 21 27 80 28 22 29 23 30 24 31 74 32 25 33 79 34
REMARK SMILES IDX 73 35 75 36 26 37 78 38 72 39 71 40 27 42 59 43 39 44 58 45
REMARK SMILES IDX 40 46 43 47 57 48 76 49 41 50 42 51 56 53 77 54 44 55 28 56
REMARK SMILES IDX 29 57 37 58 30 59 32 60 38 61 31 62 33 63 34 64 35 65 36 66
REMARK SMILES IDX 60 67 61 68 69 69 62 70 64 71 70 72 63 73 65 74 66 75 67 76
REMARK SMILES IDX 68 77 45 78 46 79 54 80 47 81 49 82 55 83 48 84 50 85 51 86
REMARK SMILES IDX 52 87 53 88
REMARK H PARENT 2 18 75 41 43 52
REMARK Flexibility Score: inf
ROOT
ATOM      1  C   UNL A   1      36.221  21.063  25.734  1.00  0.00     0.275 C 
ENDROOT
BRANCH   1   2
ATOM      2  C   UNL A   1      35.085  20.911  24.724  1.00  0.00     0.274 C 
BRANCH   2   3
ATOM      3  O   UNL A   1      34.397  22.155  24.484  1.00  0.00    -0.462 OA
BRANCH   3   4
ATOM      4  C   UNL A   1      33.199  22.279  25.117  1.00  0.00     0.311 C 
ATOM      5  O   UNL A   1      32.151  21.795  24.711  1.00  0.00    -0.252 OA
BRANCH   4   6
ATOM      6  C   UNL A   1      33.306  23.171  26.338  1.00  0.00     0.128 C 
ATOM      7  N   UNL A   1      32.670  25.364  25.808  1.00  0.00    -0.339 N 
ATOM      8  C   UNL A   1      33.839  24.532  25.927  1.00  0.00     0.135 C 
ATOM      9  C   UNL A   1      31.591  24.845  26.494  1.00  0.00     0.223 C 
ATOM     10  C   UNL A   1      31.969  23.475  27.014  1.00  0.00     0.117 C 
ATOM     11  O   UNL A   1      30.508  25.383  26.655  1.00  0.00    -0.275 OA
BRANCH   7  12
ATOM     12  C   UNL A   1      32.601  26.463  24.850  1.00  0.00     0.157 C 
BRANCH  12  13
ATOM     13  C   UNL A   1      33.691  27.550  24.919  1.00  0.00     0.192 C 
ATOM     14  C   UNL A   1      31.055  29.388  24.436  1.00  0.00     0.332 C 
ATOM     15  N   UNL A   1      32.427  29.780  24.704  1.00  0.00    -0.333 N 
ATOM     16  C   UNL A   1      32.701  29.966  26.140  1.00  0.00     0.290 C 
ATOM     17  C   UNL A   1      33.424  28.850  24.132  1.00  0.00     0.296 C 
ATOM     18  H   UNL A   1      32.527  30.680  24.235  1.00  0.00     0.348 HD
ATOM     19  C   UNL A   1      32.988  28.674  26.924  1.00  0.00     0.222 C 
ATOM     20  O   UNL A   1      33.990  27.864  26.299  1.00  0.00    -0.365 OA
ENDBRANCH  12  13
ENDBRANCH   7  12
ENDBRANCH   4   6
ENDBRANCH   3   4
ENDBRANCH   2   3
ENDBRANCH   1   2
BRANCH   1  21
ATOM     21  O   UNL A   1      37.396  21.612  25.114  1.00  0.00    -0.458 OA
BRANCH  21  22
ATOM     22  C   UNL A   1      38.565  21.259  25.697  1.00  0.00     0.338 C 
ATOM     23  O   UNL A   1      39.127  20.180  25.622  1.00  0.00    -0.246 OA
BRANCH  22  24
ATOM     24  C   UNL A   1      39.151  22.410  26.398  1.00  0.00     0.060 A 
ATOM     25  C   UNL A   1      38.671  23.680  26.101  1.00  0.00     0.016 A 
ATOM     26  C   UNL A   1      40.286  22.260  27.192  1.00  0.00     0.016 A 
ATOM     27  C   UNL A   1      39.383  24.806  26.496  1.00  0.00     0.010 A 
ATOM     28  C   UNL A   1      40.938  23.401  27.683  1.00  0.00     0.010 A 
ATOM     29  C   UNL A   1      40.519  24.690  27.305  1.00  0.00    -0.014 A 
BRANCH  29  30
ATOM     30  C   UNL A   1      41.276  25.909  27.706  1.00  0.00     0.031 A 
ATOM     31  C   UNL A   1      40.618  26.965  28.555  1.00  0.00     0.074 A 
ATOM     32  C   UNL A   1      42.561  26.076  27.325  1.00  0.00     0.049 A 
ATOM     33  N   UNL A   1      41.029  28.173  28.841  1.00  0.00    -0.248 NA
ATOM     34  C   UNL A   1      39.316  26.622  29.151  1.00  0.00     0.031 C 
ATOM     35  C   UNL A   1      43.347  25.116  26.549  1.00  0.00     0.029 A 
ATOM     36  N   UNL A   1      43.429  27.121  27.532  1.00  0.00    -0.354 N 
ATOM     37  C   UNL A   1      40.006  28.762  29.574  1.00  0.00     0.074 A 
ATOM     38  C   UNL A   1      38.958  27.773  29.703  1.00  0.00     0.031 C 
ATOM     39  C   UNL A   1      44.581  25.606  26.358  1.00  0.00     0.029 A 
ATOM     40  C   UNL A   1      44.647  26.951  26.915  1.00  0.00     0.049 A 
ATOM     41  H   UNL A   1      43.201  27.915  28.069  1.00  0.00     0.167 HD
ATOM     42  C   UNL A   1      39.948  30.011  30.098  1.00  0.00     0.034 A 
ATOM     43  C   UNL A   1      45.685  27.797  26.764  1.00  0.00     0.034 A 
ATOM     44  C   UNL A   1      41.027  30.962  30.043  1.00  0.00     0.049 A 
ATOM     45  C   UNL A   1      45.593  29.179  27.347  1.00  0.00     0.074 A 
ATOM     46  C   UNL A   1      41.076  32.239  30.574  1.00  0.00     0.029 A 
ATOM     47  N   UNL A   1      42.253  30.736  29.435  1.00  0.00    -0.354 N 
ATOM     48  N   UNL A   1      44.625  29.716  28.050  1.00  0.00    -0.248 NA
ATOM     49  C   UNL A   1      46.740  30.072  27.125  1.00  0.00     0.031 C 
ATOM     50  C   UNL A   1      42.324  32.793  30.271  1.00  0.00     0.029 A 
ATOM     51  C   UNL A   1      43.062  31.852  29.572  1.00  0.00     0.049 A 
ATOM     52  H   UNL A   1      42.510  29.906  28.973  1.00  0.00     0.167 HD
ATOM     53  C   UNL A   1      45.056  30.998  28.375  1.00  0.00     0.074 A 
ATOM     54  C   UNL A   1      46.383  31.147  27.814  1.00  0.00     0.031 C 
ATOM     55  C   UNL A   1      44.402  31.969  29.057  1.00  0.00     0.034 A 
BRANCH  42  56
ATOM     56  C   UNL A   1      38.674  30.427  30.787  1.00  0.00     0.023 A 
ATOM     57  C   UNL A   1      38.517  30.215  32.171  1.00  0.00     0.012 A 
ATOM     58  C   UNL A   1      37.655  31.084  30.069  1.00  0.00     0.148 A 
ATOM     59  C   UNL A   1      37.352  30.622  32.823  1.00  0.00     0.002 A 
ATOM     60  C   UNL A   1      36.517  31.527  30.734  1.00  0.00     0.091 A 
ATOM     61  F   UNL A   1      37.813  31.258  28.749  1.00  0.00    -0.205 F 
ATOM     62  C   UNL A   1      36.359  31.286  32.108  1.00  0.00     0.022 A 
BRANCH  60  63
ATOM     63  S   UNL A   1      35.221  32.463  29.915  1.00  0.00     0.127 S 
ATOM     64  O   UNL A   1      34.285  32.699  31.013  1.00  0.00    -0.237 OA
ATOM     65  O   UNL A   1      35.940  33.655  29.460  1.00  0.00    -0.237 OA
ATOM     66  O   UNL A   1      34.725  31.611  28.842  1.00  0.00    -0.744 OA
ENDBRANCH  60  63
ENDBRANCH  42  56
BRANCH  43  67
ATOM     67  C   UNL A   1      46.899  27.357  26.018  1.00  0.00     0.023 A 
ATOM     68  C   UNL A   1      47.836  26.517  26.650  1.00  0.00     0.012 A 
ATOM     69  C   UNL A   1      47.114  27.737  24.677  1.00  0.00     0.148 A 
ATOM     70  C   UNL A   1      48.975  26.084  25.970  1.00  0.00     0.002 A 
ATOM     71  C   UNL A   1      48.215  27.248  23.985  1.00  0.00     0.091 A 
ATOM     72  F   UNL A   1      46.225  28.557  24.098  1.00  0.00    -0.205 F 
ATOM     73  C   UNL A   1      49.158  26.437  24.635  1.00  0.00     0.022 A 
BRANCH  71  74
ATOM     74  S   UNL A   1      48.446  27.530  22.226  1.00  0.00     0.127 S 
ATOM     75  O   UNL A   1      49.620  28.396  22.212  1.00  0.00    -0.237 OA
ATOM     76  O   UNL A   1      48.675  26.172  21.728  1.00  0.00    -0.237 OA
ATOM     77  O   UNL A   1      47.205  28.133  21.759  1.00  0.00    -0.744 OA
ENDBRANCH  71  74
ENDBRANCH  43  67
BRANCH  55  78
ATOM     78  C   UNL A   1      45.122  33.275  29.270  1.00  0.00     0.023 A 
ATOM     79  C   UNL A   1      45.901  33.463  30.429  1.00  0.00     0.012 A 
ATOM     80  C   UNL A   1      45.081  34.288  28.292  1.00  0.00     0.148 A 
ATOM     81  C   UNL A   1      46.603  34.652  30.627  1.00  0.00     0.002 A 
ATOM     82  C   UNL A   1      45.820  35.451  28.474  1.00  0.00     0.091 A 
ATOM     83  F   UNL A   1      44.319  34.098  27.206  1.00  0.00    -0.205 F 
ATOM     84  C   UNL A   1      46.571  35.640  29.645  1.00  0.00     0.022 A 
BRANCH  82  85
ATOM     85  S   UNL A   1      45.914  36.738  27.224  1.00  0.00     0.127 S 
ATOM     86  O   UNL A   1      44.535  37.222  27.190  1.00  0.00    -0.237 OA
ATOM     87  O   UNL A   1      46.873  37.674  27.812  1.00  0.00    -0.237 OA
ATOM     88  O   UNL A   1      46.378  36.084  26.008  1.00  0.00    -0.744 OA
ENDBRANCH  82  85
ENDBRANCH  55  78
ENDBRANCH  29  30
ENDBRANCH  22  24
ENDBRANCH  21  22
ENDBRANCH   1  21
TORSDOF 16
ENDMDL
