MODEL 1
REMARK VINA RESULT:     -12.3      0.000      0.000
REMARK SMILES Cc1nc2sc3c(c2c2nc(CCC(=O)OCCOC(=O)c4ccc(-c5c6nc(c(-c7cccc(S(=O)(=O)[O-])c7F)c7ccc([nH]7)c(-c7cccc(S(=O)(=O)[O-])c7F)c7nc(c(-c8cccc(S(=O)(=O)[O-])c8F)c8ccc5[nH]8)C=C7)C=C6)cc4)nn12)[C@@H](C)CCC3
REMARK SMILES IDX 18 1 17 2 16 3 14 4 15 5 13 6 12 7 11 8 1 9 2 10 3 11 86 12
REMARK SMILES IDX 4 13 9 14 85 15 5 16 8 17 10 18 6 19 7 20 91 21 87 22 90 23
REMARK SMILES IDX 88 24 89 25 19 26 20 27 21 28 22 29 23 30 84 31 24 32 83 33
REMARK SMILES IDX 25 34 26 35 27 36 77 37 28 38 82 39 76 40 78 41 29 42 81 43
REMARK SMILES IDX 75 44 74 45 30 47 62 48 42 49 61 50 43 51 46 52 60 53 79 54
REMARK SMILES IDX 44 55 45 56 59 58 80 59 47 60 31 61 32 62 40 63 33 64 35 65
REMARK SMILES IDX 41 66 34 67 36 68 37 69 38 70 39 71 63 72 64 73 72 74 65 75
REMARK SMILES IDX 67 76 73 77 66 78 68 79 69 80 70 81 71 82 48 83 49 84 57 85
REMARK SMILES IDX 50 86 52 87 58 88 51 89 53 90 54 91 55 92 56 93
REMARK H PARENT 78 46 46 57
REMARK Flexibility Score: inf
ROOT
ATOM      1  C   UNL A   1      32.191  33.792  27.287  1.00  0.00     0.275 C 
ENDROOT
BRANCH   1   2
ATOM      2  C   UNL A   1      32.100  32.299  26.988  1.00  0.00     0.274 C 
BRANCH   2   3
ATOM      3  O   UNL A   1      33.262  31.563  27.425  1.00  0.00    -0.462 OA
BRANCH   3   4
ATOM      4  C   UNL A   1      33.250  30.223  27.213  1.00  0.00     0.306 C 
ATOM      5  O   UNL A   1      34.248  29.529  27.047  1.00  0.00    -0.252 OA
BRANCH   4   6
ATOM      6  C   UNL A   1      31.847  29.682  27.090  1.00  0.00     0.131 C 
BRANCH   6   7
ATOM      7  C   UNL A   1      31.680  28.217  27.467  1.00  0.00     0.091 C 
BRANCH   7   8
ATOM      8  C   UNL A   1      31.793  27.282  26.311  1.00  0.00     0.152 A 
ATOM      9  C   UNL A   1      30.622  27.388  22.351  1.00  0.00     0.090 C 
ATOM     10  C   UNL A   1      31.379  26.289  23.028  1.00  0.00     0.131 A 
ATOM     11  N   UNL A   1      31.719  25.186  22.408  1.00  0.00    -0.222 NA
ATOM     12  N   UNL A   1      31.647  26.510  24.384  1.00  0.00    -0.199 N 
ATOM     13  C   UNL A   1      32.344  24.238  23.182  1.00  0.00     0.129 A 
ATOM     14  C   UNL A   1      32.284  25.588  25.166  1.00  0.00     0.168 A 
ATOM     15  N   UNL A   1      31.286  27.593  25.103  1.00  0.00    -0.150 NA
ATOM     16  S   UNL A   1      32.822  22.730  22.532  1.00  0.00    -0.120 S 
ATOM     17  C   UNL A   1      32.654  24.301  24.535  1.00  0.00     0.060 A 
ATOM     18  N   UNL A   1      32.407  26.052  26.385  1.00  0.00    -0.211 NA
ATOM     19  C   UNL A   1      33.373  22.176  24.046  1.00  0.00     0.011 A 
ATOM     20  C   UNL A   1      33.202  23.099  25.064  1.00  0.00    -0.018 A 
ATOM     21  C   UNL A   1      33.933  20.800  24.225  1.00  0.00     0.047 C 
ATOM     22  C   UNL A   1      33.548  22.777  26.498  1.00  0.00     0.018 C 
ATOM     23  C   UNL A   1      34.812  20.760  25.480  1.00  0.00     0.006 C 
ATOM     24  C   UNL A   1      32.323  22.935  27.398  1.00  0.00     0.013 C 
ATOM     25  C   UNL A   1      34.060  21.323  26.687  1.00  0.00     0.008 C 
ENDBRANCH   7   8
ENDBRANCH   6   7
ENDBRANCH   4   6
ENDBRANCH   3   4
ENDBRANCH   2   3
ENDBRANCH   1   2
BRANCH   1  26
ATOM     26  O   UNL A   1      32.186  34.072  28.681  1.00  0.00    -0.458 OA
BRANCH  26  27
ATOM     27  C   UNL A   1      33.043  35.062  29.014  1.00  0.00     0.338 C 
ATOM     28  O   UNL A   1      32.855  36.262  28.999  1.00  0.00    -0.246 OA
BRANCH  27  29
ATOM     29  C   UNL A   1      34.362  34.502  29.212  1.00  0.00     0.060 A 
ATOM     30  C   UNL A   1      35.224  34.410  28.118  1.00  0.00     0.016 A 
ATOM     31  C   UNL A   1      34.627  33.903  30.448  1.00  0.00     0.016 A 
ATOM     32  C   UNL A   1      36.390  33.691  28.271  1.00  0.00     0.010 A 
ATOM     33  C   UNL A   1      35.781  33.176  30.592  1.00  0.00     0.010 A 
ATOM     34  C   UNL A   1      36.646  33.072  29.501  1.00  0.00    -0.014 A 
BRANCH  34  35
ATOM     35  C   UNL A   1      37.940  32.453  29.694  1.00  0.00     0.031 A 
ATOM     36  C   UNL A   1      38.008  31.035  29.261  1.00  0.00     0.074 A 
ATOM     37  C   UNL A   1      39.034  33.159  30.025  1.00  0.00     0.049 A 
ATOM     38  N   UNL A   1      38.324  30.000  29.968  1.00  0.00    -0.248 NA
ATOM     39  C   UNL A   1      37.554  30.716  27.898  1.00  0.00     0.031 C 
ATOM     40  C   UNL A   1      39.157  34.616  30.121  1.00  0.00     0.029 A 
ATOM     41  N   UNL A   1      40.310  32.718  30.179  1.00  0.00    -0.354 N 
ATOM     42  C   UNL A   1      38.307  28.924  29.082  1.00  0.00     0.074 A 
ATOM     43  C   UNL A   1      37.663  29.390  27.884  1.00  0.00     0.031 C 
ATOM     44  C   UNL A   1      40.466  34.944  30.069  1.00  0.00     0.029 A 
ATOM     45  C   UNL A   1      41.257  33.726  30.066  1.00  0.00     0.049 A 
ATOM     46  H   UNL A   1      40.540  31.777  30.353  1.00  0.00     0.167 HD
ATOM     47  C   UNL A   1      39.026  27.795  29.318  1.00  0.00     0.034 A 
ATOM     48  C   UNL A   1      42.587  33.555  29.895  1.00  0.00     0.034 A 
ATOM     49  C   UNL A   1      39.421  27.703  30.700  1.00  0.00     0.049 A 
ATOM     50  C   UNL A   1      42.918  32.173  30.316  1.00  0.00     0.074 A 
ATOM     51  C   UNL A   1      38.753  27.644  31.906  1.00  0.00     0.029 A 
ATOM     52  N   UNL A   1      40.726  28.007  30.996  1.00  0.00    -0.354 N 
ATOM     53  N   UNL A   1      42.850  31.747  31.548  1.00  0.00    -0.248 NA
ATOM     54  C   UNL A   1      43.002  31.133  29.303  1.00  0.00     0.031 C 
ATOM     55  C   UNL A   1      39.592  28.333  32.829  1.00  0.00     0.029 A 
ATOM     56  C   UNL A   1      40.733  28.756  32.141  1.00  0.00     0.049 A 
ATOM     57  H   UNL A   1      41.517  27.736  30.476  1.00  0.00     0.167 HD
ATOM     58  C   UNL A   1      42.447  30.422  31.439  1.00  0.00     0.074 A 
ATOM     59  C   UNL A   1      42.715  30.064  30.051  1.00  0.00     0.031 C 
ATOM     60  C   UNL A   1      41.664  29.840  32.397  1.00  0.00     0.034 A 
BRANCH  47  61
ATOM     61  C   UNL A   1      39.678  26.941  28.252  1.00  0.00     0.023 A 
ATOM     62  C   UNL A   1      39.338  25.567  28.235  1.00  0.00     0.012 A 
ATOM     63  C   UNL A   1      40.782  27.330  27.458  1.00  0.00     0.148 A 
ATOM     64  C   UNL A   1      40.094  24.627  27.527  1.00  0.00     0.002 A 
ATOM     65  C   UNL A   1      41.476  26.403  26.685  1.00  0.00     0.091 A 
ATOM     66  F   UNL A   1      41.270  28.570  27.535  1.00  0.00    -0.205 F 
ATOM     67  C   UNL A   1      41.160  25.046  26.744  1.00  0.00     0.022 A 
BRANCH  65  68
ATOM     68  S   UNL A   1      42.813  26.920  25.600  1.00  0.00     0.127 S 
ATOM     69  O   UNL A   1      43.811  27.382  26.559  1.00  0.00    -0.237 OA
ATOM     70  O   UNL A   1      43.147  25.672  24.911  1.00  0.00    -0.237 OA
ATOM     71  O   UNL A   1      42.228  27.935  24.732  1.00  0.00    -0.744 OA
ENDBRANCH  65  68
ENDBRANCH  47  61
BRANCH  48  72
ATOM     72  C   UNL A   1      43.568  34.440  29.230  1.00  0.00     0.023 A 
ATOM     73  C   UNL A   1      44.195  35.456  29.976  1.00  0.00     0.012 A 
ATOM     74  C   UNL A   1      44.065  34.157  27.937  1.00  0.00     0.148 A 
ATOM     75  C   UNL A   1      45.296  36.151  29.462  1.00  0.00     0.002 A 
ATOM     76  C   UNL A   1      45.148  34.864  27.423  1.00  0.00     0.091 A 
ATOM     77  F   UNL A   1      43.537  33.136  27.248  1.00  0.00    -0.205 F 
ATOM     78  C   UNL A   1      45.773  35.855  28.189  1.00  0.00     0.022 A 
BRANCH  76  79
ATOM     79  S   UNL A   1      45.817  34.530  25.787  1.00  0.00     0.127 S 
ATOM     80  O   UNL A   1      46.743  35.649  25.601  1.00  0.00    -0.237 OA
ATOM     81  O   UNL A   1      46.457  33.232  25.982  1.00  0.00    -0.237 OA
ATOM     82  O   UNL A   1      44.674  34.547  24.883  1.00  0.00    -0.744 OA
ENDBRANCH  76  79
ENDBRANCH  48  72
BRANCH  60  83
ATOM     83  C   UNL A   1      41.484  30.557  33.717  1.00  0.00     0.023 A 
ATOM     84  C   UNL A   1      42.448  30.467  34.742  1.00  0.00     0.012 A 
ATOM     85  C   UNL A   1      40.454  31.508  33.841  1.00  0.00     0.148 A 
ATOM     86  C   UNL A   1      42.381  31.287  35.870  1.00  0.00     0.002 A 
ATOM     87  C   UNL A   1      40.424  32.365  34.937  1.00  0.00     0.091 A 
ATOM     88  F   UNL A   1      39.542  31.591  32.861  1.00  0.00    -0.205 F 
ATOM     89  C   UNL A   1      41.380  32.249  35.959  1.00  0.00     0.022 A 
BRANCH  87  90
ATOM     90  S   UNL A   1      39.267  33.735  35.031  1.00  0.00     0.127 S 
ATOM     91  O   UNL A   1      39.700  34.420  36.247  1.00  0.00    -0.237 OA
ATOM     92  O   UNL A   1      39.537  34.464  33.790  1.00  0.00    -0.237 OA
ATOM     93  O   UNL A   1      37.940  33.131  35.085  1.00  0.00    -0.744 OA
ENDBRANCH  87  90
ENDBRANCH  60  83
ENDBRANCH  34  35
ENDBRANCH  27  29
ENDBRANCH  26  27
ENDBRANCH   1  26
TORSDOF 16
ENDMDL
MODEL 2
REMARK VINA RESULT:     -12.2      3.754      7.460
REMARK SMILES Cc1nc2sc3c(c2c2nc(CCC(=O)OCCOC(=O)c4ccc(-c5c6nc(c(-c7cccc(S(=O)(=O)[O-])c7F)c7ccc([nH]7)c(-c7cccc(S(=O)(=O)[O-])c7F)c7nc(c(-c8cccc(S(=O)(=O)[O-])c8F)c8ccc5[nH]8)C=C7)C=C6)cc4)nn12)[C@@H](C)CCC3
REMARK SMILES IDX 18 1 17 2 16 3 14 4 15 5 13 6 12 7 11 8 1 9 2 10 3 11 86 12
REMARK SMILES IDX 4 13 9 14 85 15 5 16 8 17 10 18 6 19 7 20 91 21 87 22 90 23
REMARK SMILES IDX 88 24 89 25 19 26 20 27 21 28 22 29 23 30 84 31 24 32 83 33
REMARK SMILES IDX 25 34 26 35 27 36 77 37 28 38 82 39 76 40 78 41 29 42 81 43
REMARK SMILES IDX 75 44 74 45 30 47 62 48 42 49 61 50 43 51 46 52 60 53 79 54
REMARK SMILES IDX 44 55 45 56 59 58 80 59 47 60 31 61 32 62 40 63 33 64 35 65
REMARK SMILES IDX 41 66 34 67 36 68 37 69 38 70 39 71 63 72 64 73 72 74 65 75
REMARK SMILES IDX 67 76 73 77 66 78 68 79 69 80 70 81 71 82 48 83 49 84 57 85
REMARK SMILES IDX 50 86 52 87 58 88 51 89 53 90 54 91 55 92 56 93
REMARK H PARENT 78 46 46 57
REMARK Flexibility Score: inf
ROOT
ATOM      1  C   UNL A   1      33.553  31.513  27.488  1.00  0.00     0.275 C 
ENDROOT
BRANCH   1   2
ATOM      2  C   UNL A   1      32.572  30.535  26.849  1.00  0.00     0.274 C 
BRANCH   2   3
ATOM      3  O   UNL A   1      33.224  29.417  26.210  1.00  0.00    -0.462 OA
BRANCH   3   4
ATOM      4  C   UNL A   1      32.867  28.179  26.637  1.00  0.00     0.306 C 
ATOM      5  O   UNL A   1      32.052  27.950  27.524  1.00  0.00    -0.252 OA
BRANCH   4   6
ATOM      6  C   UNL A   1      33.677  27.096  25.969  1.00  0.00     0.131 C 
BRANCH   6   7
ATOM      7  C   UNL A   1      32.969  25.757  25.815  1.00  0.00     0.091 C 
BRANCH   7   8
ATOM      8  C   UNL A   1      33.898  24.596  25.692  1.00  0.00     0.152 A 
ATOM      9  C   UNL A   1      37.982  24.084  26.031  1.00  0.00     0.090 C 
ATOM     10  C   UNL A   1      36.969  23.016  25.760  1.00  0.00     0.131 A 
ATOM     11  N   UNL A   1      37.305  21.767  25.553  1.00  0.00    -0.222 NA
ATOM     12  N   UNL A   1      35.646  23.466  25.695  1.00  0.00    -0.199 N 
ATOM     13  C   UNL A   1      36.270  20.917  25.243  1.00  0.00     0.129 A 
ATOM     14  C   UNL A   1      34.601  22.635  25.407  1.00  0.00     0.168 A 
ATOM     15  N   UNL A   1      35.228  24.741  25.845  1.00  0.00    -0.150 NA
ATOM     16  S   UNL A   1      36.544  19.262  24.912  1.00  0.00    -0.120 S 
ATOM     17  C   UNL A   1      34.920  21.218  25.117  1.00  0.00     0.060 A 
ATOM     18  N   UNL A   1      33.481  23.315  25.414  1.00  0.00    -0.211 NA
ATOM     19  C   UNL A   1      34.899  18.992  24.559  1.00  0.00     0.011 A 
ATOM     20  C   UNL A   1      34.118  20.130  24.672  1.00  0.00    -0.018 A 
ATOM     21  C   UNL A   1      34.397  17.651  24.124  1.00  0.00     0.047 C 
ATOM     22  C   UNL A   1      32.649  20.126  24.324  1.00  0.00     0.018 C 
ATOM     23  C   UNL A   1      32.892  17.550  24.397  1.00  0.00     0.006 C 
ATOM     24  C   UNL A   1      32.351  21.148  23.227  1.00  0.00     0.013 C 
ATOM     25  C   UNL A   1      32.152  18.750  23.805  1.00  0.00     0.008 C 
ENDBRANCH   7   8
ENDBRANCH   6   7
ENDBRANCH   4   6
ENDBRANCH   3   4
ENDBRANCH   2   3
ENDBRANCH   1   2
BRANCH   1  26
ATOM     26  O   UNL A   1      34.796  30.905  27.816  1.00  0.00    -0.458 OA
BRANCH  26  27
ATOM     27  C   UNL A   1      35.734  31.807  28.179  1.00  0.00     0.338 C 
ATOM     28  O   UNL A   1      35.652  33.018  28.198  1.00  0.00    -0.246 OA
BRANCH  27  29
ATOM     29  C   UNL A   1      36.999  31.128  28.363  1.00  0.00     0.060 A 
ATOM     30  C   UNL A   1      37.104  29.789  27.984  1.00  0.00     0.016 A 
ATOM     31  C   UNL A   1      37.988  31.798  29.092  1.00  0.00     0.016 A 
ATOM     32  C   UNL A   1      38.240  29.099  28.351  1.00  0.00     0.010 A 
ATOM     33  C   UNL A   1      39.109  31.104  29.469  1.00  0.00     0.010 A 
ATOM     34  C   UNL A   1      39.220  29.761  29.101  1.00  0.00    -0.014 A 
BRANCH  34  35
ATOM     35  C   UNL A   1      40.469  29.073  29.346  1.00  0.00     0.031 A 
ATOM     36  C   UNL A   1      40.726  28.766  30.776  1.00  0.00     0.074 A 
ATOM     37  C   UNL A   1      41.217  28.562  28.353  1.00  0.00     0.049 A 
ATOM     38  N   UNL A   1      41.733  29.128  31.500  1.00  0.00    -0.248 NA
ATOM     39  C   UNL A   1      39.669  28.063  31.522  1.00  0.00     0.031 C 
ATOM     40  C   UNL A   1      40.876  28.490  26.930  1.00  0.00     0.029 A 
ATOM     41  N   UNL A   1      42.370  27.849  28.445  1.00  0.00    -0.354 N 
ATOM     42  C   UNL A   1      41.535  28.525  32.741  1.00  0.00     0.074 A 
ATOM     43  C   UNL A   1      40.182  28.039  32.750  1.00  0.00     0.031 C 
ATOM     44  C   UNL A   1      41.668  27.567  26.343  1.00  0.00     0.029 A 
ATOM     45  C   UNL A   1      42.638  27.092  27.314  1.00  0.00     0.049 A 
ATOM     46  H   UNL A   1      42.956  27.866  29.236  1.00  0.00     0.167 HD
ATOM     47  C   UNL A   1      42.572  28.272  33.583  1.00  0.00     0.034 A 
ATOM     48  C   UNL A   1      43.540  26.088  27.221  1.00  0.00     0.034 A 
ATOM     49  C   UNL A   1      43.735  29.045  33.233  1.00  0.00     0.049 A 
ATOM     50  C   UNL A   1      44.497  26.242  28.342  1.00  0.00     0.074 A 
ATOM     51  C   UNL A   1      44.020  30.391  33.131  1.00  0.00     0.029 A 
ATOM     52  N   UNL A   1      44.746  28.386  32.580  1.00  0.00    -0.354 N 
ATOM     53  N   UNL A   1      45.350  27.225  28.446  1.00  0.00    -0.248 NA
ATOM     54  C   UNL A   1      44.281  25.476  29.558  1.00  0.00     0.031 C 
ATOM     55  C   UNL A   1      44.957  30.492  32.063  1.00  0.00     0.029 A 
ATOM     56  C   UNL A   1      45.206  29.203  31.584  1.00  0.00     0.049 A 
ATOM     57  H   UNL A   1      45.081  27.484  32.790  1.00  0.00     0.167 HD
ATOM     58  C   UNL A   1      45.438  27.469  29.810  1.00  0.00     0.074 A 
ATOM     59  C   UNL A   1      44.895  26.270  30.440  1.00  0.00     0.031 C 
ATOM     60  C   UNL A   1      45.664  28.729  30.291  1.00  0.00     0.034 A 
BRANCH  47  61
ATOM     61  C   UNL A   1      42.666  27.080  34.512  1.00  0.00     0.023 A 
ATOM     62  C   UNL A   1      42.233  27.271  35.846  1.00  0.00     0.012 A 
ATOM     63  C   UNL A   1      43.387  25.893  34.244  1.00  0.00     0.148 A 
ATOM     64  C   UNL A   1      42.559  26.370  36.865  1.00  0.00     0.002 A 
ATOM     65  C   UNL A   1      43.631  24.957  35.244  1.00  0.00     0.091 A 
ATOM     66  F   UNL A   1      43.967  25.704  33.057  1.00  0.00    -0.205 F 
ATOM     67  C   UNL A   1      43.253  25.207  36.563  1.00  0.00     0.022 A 
BRANCH  65  68
ATOM     68  S   UNL A   1      44.458  23.403  34.876  1.00  0.00     0.127 S 
ATOM     69  O   UNL A   1      43.466  22.729  34.046  1.00  0.00    -0.237 OA
ATOM     70  O   UNL A   1      45.656  23.855  34.167  1.00  0.00    -0.237 OA
ATOM     71  O   UNL A   1      44.733  22.802  36.176  1.00  0.00    -0.744 OA
ENDBRANCH  65  68
ENDBRANCH  47  61
BRANCH  48  72
ATOM     72  C   UNL A   1      43.534  24.903  26.337  1.00  0.00     0.023 A 
ATOM     73  C   UNL A   1      44.462  24.825  25.282  1.00  0.00     0.012 A 
ATOM     74  C   UNL A   1      42.784  23.746  26.652  1.00  0.00     0.148 A 
ATOM     75  C   UNL A   1      44.657  23.630  24.581  1.00  0.00     0.002 A 
ATOM     76  C   UNL A   1      42.967  22.566  25.940  1.00  0.00     0.091 A 
ATOM     77  F   UNL A   1      41.958  23.776  27.708  1.00  0.00    -0.205 F 
ATOM     78  C   UNL A   1      43.913  22.501  24.909  1.00  0.00     0.022 A 
BRANCH  76  79
ATOM     79  S   UNL A   1      42.041  21.070  26.314  1.00  0.00     0.127 S 
ATOM     80  O   UNL A   1      40.662  21.491  26.057  1.00  0.00    -0.237 OA
ATOM     81  O   UNL A   1      42.583  20.127  25.340  1.00  0.00    -0.237 OA
ATOM     82  O   UNL A   1      42.320  20.771  27.713  1.00  0.00    -0.744 OA
ENDBRANCH  76  79
ENDBRANCH  48  72
BRANCH  60  83
ATOM     83  C   UNL A   1      46.109  29.803  29.322  1.00  0.00     0.023 A 
ATOM     84  C   UNL A   1      47.462  29.948  28.954  1.00  0.00     0.012 A 
ATOM     85  C   UNL A   1      45.133  30.519  28.604  1.00  0.00     0.148 A 
ATOM     86  C   UNL A   1      47.839  30.798  27.912  1.00  0.00     0.002 A 
ATOM     87  C   UNL A   1      45.506  31.318  27.527  1.00  0.00     0.091 A 
ATOM     88  F   UNL A   1      43.848  30.373  28.957  1.00  0.00    -0.205 F 
ATOM     89  C   UNL A   1      46.860  31.468  27.186  1.00  0.00     0.022 A 
BRANCH  87  90
ATOM     90  S   UNL A   1      44.286  32.072  26.447  1.00  0.00     0.127 S 
ATOM     91  O   UNL A   1      45.108  32.536  25.331  1.00  0.00    -0.237 OA
ATOM     92  O   UNL A   1      43.404  30.946  26.128  1.00  0.00    -0.237 OA
ATOM     93  O   UNL A   1      43.646  33.117  27.237  1.00  0.00    -0.744 OA
ENDBRANCH  87  90
ENDBRANCH  60  83
ENDBRANCH  34  35
ENDBRANCH  27  29
ENDBRANCH  26  27
ENDBRANCH   1  26
TORSDOF 16
ENDMDL
MODEL 3
REMARK VINA RESULT:     -12.1      3.242      7.441
REMARK SMILES Cc1nc2sc3c(c2c2nc(CCC(=O)OCCOC(=O)c4ccc(-c5c6nc(c(-c7cccc(S(=O)(=O)[O-])c7F)c7ccc([nH]7)c(-c7cccc(S(=O)(=O)[O-])c7F)c7nc(c(-c8cccc(S(=O)(=O)[O-])c8F)c8ccc5[nH]8)C=C7)C=C6)cc4)nn12)[C@@H](C)CCC3
REMARK SMILES IDX 18 1 17 2 16 3 14 4 15 5 13 6 12 7 11 8 1 9 2 10 3 11 86 12
REMARK SMILES IDX 4 13 9 14 85 15 5 16 8 17 10 18 6 19 7 20 91 21 87 22 90 23
REMARK SMILES IDX 88 24 89 25 19 26 20 27 21 28 22 29 23 30 84 31 24 32 83 33
REMARK SMILES IDX 25 34 26 35 27 36 77 37 28 38 82 39 76 40 78 41 29 42 81 43
REMARK SMILES IDX 75 44 74 45 30 47 62 48 42 49 61 50 43 51 46 52 60 53 79 54
REMARK SMILES IDX 44 55 45 56 59 58 80 59 47 60 31 61 32 62 40 63 33 64 35 65
REMARK SMILES IDX 41 66 34 67 36 68 37 69 38 70 39 71 63 72 64 73 72 74 65 75
REMARK SMILES IDX 67 76 73 77 66 78 68 79 69 80 70 81 71 82 48 83 49 84 57 85
REMARK SMILES IDX 50 86 52 87 58 88 51 89 53 90 54 91 55 92 56 93
REMARK H PARENT 78 46 46 57
REMARK Flexibility Score: inf
ROOT
ATOM      1  C   UNL A   1      32.680  30.739  26.871  1.00  0.00     0.275 C 
ENDROOT
BRANCH   1   2
ATOM      2  C   UNL A   1      32.964  29.651  25.840  1.00  0.00     0.274 C 
BRANCH   2   3
ATOM      3  O   UNL A   1      31.902  28.680  25.735  1.00  0.00    -0.462 OA
BRANCH   3   4
ATOM      4  C   UNL A   1      31.943  27.636  26.602  1.00  0.00     0.306 C 
ATOM      5  O   UNL A   1      31.284  27.554  27.633  1.00  0.00    -0.252 OA
BRANCH   4   6
ATOM      6  C   UNL A   1      32.986  26.618  26.212  1.00  0.00     0.131 C 
BRANCH   6   7
ATOM      7  C   UNL A   1      32.440  25.298  25.686  1.00  0.00     0.091 C 
BRANCH   7   8
ATOM      8  C   UNL A   1      33.466  24.220  25.589  1.00  0.00     0.152 A 
ATOM      9  C   UNL A   1      37.573  24.058  26.005  1.00  0.00     0.090 C 
ATOM     10  C   UNL A   1      36.659  22.907  25.725  1.00  0.00     0.131 A 
ATOM     11  N   UNL A   1      37.103  21.689  25.534  1.00  0.00    -0.222 NA
ATOM     12  N   UNL A   1      35.304  23.243  25.633  1.00  0.00    -0.199 N 
ATOM     13  C   UNL A   1      36.149  20.752  25.214  1.00  0.00     0.129 A 
ATOM     14  C   UNL A   1      34.338  22.324  25.333  1.00  0.00     0.168 A 
ATOM     15  N   UNL A   1      34.776  24.478  25.765  1.00  0.00    -0.150 NA
ATOM     16  S   UNL A   1      36.569  19.125  24.901  1.00  0.00    -0.120 S 
ATOM     17  C   UNL A   1      34.781  20.937  25.061  1.00  0.00     0.060 A 
ATOM     18  N   UNL A   1      33.165  22.906  25.314  1.00  0.00    -0.211 NA
ATOM     19  C   UNL A   1      34.959  18.713  24.522  1.00  0.00     0.011 A 
ATOM     20  C   UNL A   1      34.083  19.782  24.611  1.00  0.00    -0.018 A 
ATOM     21  C   UNL A   1      34.580  17.332  24.088  1.00  0.00     0.047 C 
ATOM     22  C   UNL A   1      32.626  19.651  24.237  1.00  0.00     0.018 C 
ATOM     23  C   UNL A   1      33.085  17.105  24.336  1.00  0.00     0.006 C 
ATOM     24  C   UNL A   1      32.263  20.636  23.127  1.00  0.00     0.013 C 
ATOM     25  C   UNL A   1      32.257  18.234  23.720  1.00  0.00     0.008 C 
ENDBRANCH   7   8
ENDBRANCH   6   7
ENDBRANCH   4   6
ENDBRANCH   3   4
ENDBRANCH   2   3
ENDBRANCH   1   2
BRANCH   1  26
ATOM     26  O   UNL A   1      33.609  30.729  27.948  1.00  0.00    -0.458 OA
BRANCH  26  27
ATOM     27  C   UNL A   1      34.516  31.725  27.860  1.00  0.00     0.338 C 
ATOM     28  O   UNL A   1      34.353  32.864  27.474  1.00  0.00    -0.246 OA
BRANCH  27  29
ATOM     29  C   UNL A   1      35.837  31.186  28.102  1.00  0.00     0.060 A 
ATOM     30  C   UNL A   1      36.004  29.801  28.130  1.00  0.00     0.016 A 
ATOM     31  C   UNL A   1      36.836  32.085  28.492  1.00  0.00     0.016 A 
ATOM     32  C   UNL A   1      37.213  29.302  28.564  1.00  0.00     0.010 A 
ATOM     33  C   UNL A   1      38.033  31.585  28.938  1.00  0.00     0.010 A 
ATOM     34  C   UNL A   1      38.206  30.200  28.976  1.00  0.00    -0.014 A 
BRANCH  34  35
ATOM     35  C   UNL A   1      39.518  29.670  29.282  1.00  0.00     0.031 A 
ATOM     36  C   UNL A   1      39.918  29.817  30.704  1.00  0.00     0.074 A 
ATOM     37  C   UNL A   1      40.211  28.918  28.411  1.00  0.00     0.049 A 
ATOM     38  N   UNL A   1      40.955  30.422  31.181  1.00  0.00    -0.248 NA
ATOM     39  C   UNL A   1      38.982  29.327  31.729  1.00  0.00     0.031 C 
ATOM     40  C   UNL A   1      39.755  28.407  27.116  1.00  0.00     0.029 A 
ATOM     41  N   UNL A   1      41.416  28.314  28.589  1.00  0.00    -0.354 N 
ATOM     42  C   UNL A   1      40.909  30.211  32.558  1.00  0.00     0.074 A 
ATOM     43  C   UNL A   1      39.600  29.693  32.850  1.00  0.00     0.031 C 
ATOM     44  C   UNL A   1      40.557  27.386  26.747  1.00  0.00     0.029 A 
ATOM     45  C   UNL A   1      41.639  27.265  27.709  1.00  0.00     0.049 A 
ATOM     46  H   UNL A   1      42.065  28.593  29.275  1.00  0.00     0.167 HD
ATOM     47  C   UNL A   1      42.030  30.267  33.325  1.00  0.00     0.034 A 
ATOM     48  C   UNL A   1      42.598  26.319  27.823  1.00  0.00     0.034 A 
ATOM     49  C   UNL A   1      43.100  30.948  32.644  1.00  0.00     0.049 A 
ATOM     50  C   UNL A   1      43.635  26.842  28.743  1.00  0.00     0.074 A 
ATOM     51  C   UNL A   1      43.279  32.212  32.122  1.00  0.00     0.029 A 
ATOM     52  N   UNL A   1      44.096  30.166  32.113  1.00  0.00    -0.354 N 
ATOM     53  N   UNL A   1      44.421  27.846  28.464  1.00  0.00    -0.248 NA
ATOM     54  C   UNL A   1      43.581  26.467  30.147  1.00  0.00     0.031 C 
ATOM     55  C   UNL A   1      44.110  32.028  30.980  1.00  0.00     0.029 A 
ATOM     56  C   UNL A   1      44.408  30.666  30.878  1.00  0.00     0.049 A 
ATOM     57  H   UNL A   1      44.511  29.384  32.543  1.00  0.00     0.167 HD
ATOM     58  C   UNL A   1      44.610  28.491  29.680  1.00  0.00     0.074 A 
ATOM     59  C   UNL A   1      44.209  27.515  30.687  1.00  0.00     0.031 C 
ATOM     60  C   UNL A   1      44.786  29.846  29.742  1.00  0.00     0.034 A 
BRANCH  47  61
ATOM     61  C   UNL A   1      42.289  29.413  34.548  1.00  0.00     0.023 A 
ATOM     62  C   UNL A   1      43.025  30.008  35.600  1.00  0.00     0.012 A 
ATOM     63  C   UNL A   1      42.099  28.014  34.621  1.00  0.00     0.148 A 
ATOM     64  C   UNL A   1      43.598  29.247  36.625  1.00  0.00     0.002 A 
ATOM     65  C   UNL A   1      42.596  27.273  35.690  1.00  0.00     0.091 A 
ATOM     66  F   UNL A   1      41.556  27.348  33.599  1.00  0.00    -0.205 F 
ATOM     67  C   UNL A   1      43.377  27.877  36.674  1.00  0.00     0.022 A 
BRANCH  65  68
ATOM     68  S   UNL A   1      42.264  25.512  35.829  1.00  0.00     0.127 S 
ATOM     69  O   UNL A   1      42.652  25.246  37.210  1.00  0.00    -0.237 OA
ATOM     70  O   UNL A   1      40.825  25.450  35.567  1.00  0.00    -0.237 OA
ATOM     71  O   UNL A   1      43.080  24.888  34.794  1.00  0.00    -0.744 OA
ENDBRANCH  65  68
ENDBRANCH  47  61
BRANCH  48  72
ATOM     72  C   UNL A   1      42.600  24.923  27.333  1.00  0.00     0.023 A 
ATOM     73  C   UNL A   1      41.418  24.164  27.410  1.00  0.00     0.012 A 
ATOM     74  C   UNL A   1      43.680  24.403  26.582  1.00  0.00     0.148 A 
ATOM     75  C   UNL A   1      41.304  22.939  26.744  1.00  0.00     0.002 A 
ATOM     76  C   UNL A   1      43.568  23.175  25.937  1.00  0.00     0.091 A 
ATOM     77  F   UNL A   1      44.781  25.150  26.425  1.00  0.00    -0.205 F 
ATOM     78  C   UNL A   1      42.376  22.445  26.006  1.00  0.00     0.022 A 
BRANCH  76  79
ATOM     79  S   UNL A   1      44.914  22.481  24.965  1.00  0.00     0.127 S 
ATOM     80  O   UNL A   1      44.343  21.209  24.517  1.00  0.00    -0.237 OA
ATOM     81  O   UNL A   1      45.076  23.482  23.915  1.00  0.00    -0.237 OA
ATOM     82  O   UNL A   1      46.033  22.338  25.887  1.00  0.00    -0.744 OA
ENDBRANCH  76  79
ENDBRANCH  48  72
BRANCH  60  83
ATOM     83  C   UNL A   1      45.067  30.598  28.460  1.00  0.00     0.023 A 
ATOM     84  C   UNL A   1      44.024  31.056  27.629  1.00  0.00     0.012 A 
ATOM     85  C   UNL A   1      46.377  31.046  28.207  1.00  0.00     0.148 A 
ATOM     86  C   UNL A   1      44.277  31.921  26.563  1.00  0.00     0.002 A 
ATOM     87  C   UNL A   1      46.617  31.956  27.181  1.00  0.00     0.091 A 
ATOM     88  F   UNL A   1      47.364  30.610  29.003  1.00  0.00    -0.205 F 
ATOM     89  C   UNL A   1      45.571  32.387  26.351  1.00  0.00     0.022 A 
BRANCH  87  90
ATOM     90  S   UNL A   1      48.225  32.724  26.961  1.00  0.00     0.127 S 
ATOM     91  O   UNL A   1      47.962  33.690  25.896  1.00  0.00    -0.237 OA
ATOM     92  O   UNL A   1      48.476  33.319  28.277  1.00  0.00    -0.237 OA
ATOM     93  O   UNL A   1      49.140  31.641  26.618  1.00  0.00    -0.744 OA
ENDBRANCH  87  90
ENDBRANCH  60  83
ENDBRANCH  34  35
ENDBRANCH  27  29
ENDBRANCH  26  27
ENDBRANCH   1  26
TORSDOF 16
ENDMDL
