MODEL 1
REMARK VINA RESULT:     -11.8      0.000      0.000
REMARK SMILES COc1ccc(/C=N/Nc2cccc(C(=O)OCCOC(=O)c3ccc(-c4c5nc(c(-c6cccc(S(=O)(=O)[O-])c6F)c6ccc([nH]6)c(-c6cccc(S(=O)(=O)[O-])c6F)c6nc(c(-c7cccc(S(=O)(=O)[O-])c7F)c7ccc4[nH]7)C=C6)C=C5)cc3)c2)cc1O
REMARK SMILES IDX 18 1 17 2 15 3 16 4 14 5 10 6 11 7 86 8 12 9 13 10 9 11 8 13
REMARK SMILES IDX 7 14 6 15 3 16 4 17 88 18 5 19 87 20 2 21 1 22 89 23 19 25
REMARK SMILES IDX 20 26 21 27 22 28 23 29 24 30 85 31 25 32 84 33 26 34 27 35
REMARK SMILES IDX 28 36 78 37 29 38 83 39 77 40 79 41 30 42 82 43 76 44 75 45
REMARK SMILES IDX 31 47 63 48 43 49 62 50 44 51 47 52 61 53 80 54 45 55 46 56
REMARK SMILES IDX 60 58 81 59 48 60 32 61 33 62 41 63 34 64 36 65 42 66 35 67
REMARK SMILES IDX 37 68 38 69 39 70 40 71 64 72 65 73 73 74 66 75 68 76 74 77
REMARK SMILES IDX 67 78 69 79 70 80 71 81 72 82 49 83 50 84 58 85 51 86 53 87
REMARK SMILES IDX 59 88 52 89 54 90 55 91 56 92 57 93
REMARK H PARENT 9 12 89 24 79 46 47 57
REMARK Flexibility Score: inf
ROOT
ATOM      1  C   UNL A   1      30.884  31.394  25.598  1.00  0.00     0.275 C 
ENDROOT
BRANCH   1   2
ATOM      2  O   UNL A   1      31.716  30.258  25.291  1.00  0.00    -0.458 OA
BRANCH   2   3
ATOM      3  C   UNL A   1      31.124  29.236  24.627  1.00  0.00     0.338 C 
ATOM      4  O   UNL A   1      30.208  29.331  23.822  1.00  0.00    -0.246 OA
BRANCH   3   5
ATOM      5  C   UNL A   1      31.785  27.945  24.944  1.00  0.00     0.062 A 
ATOM      6  C   UNL A   1      31.995  25.545  24.646  1.00  0.00     0.057 A 
ATOM      7  C   UNL A   1      33.086  25.541  25.525  1.00  0.00     0.028 A 
ATOM      8  C   UNL A   1      31.299  26.744  24.430  1.00  0.00     0.043 A 
ATOM      9  C   UNL A   1      33.566  26.734  26.061  1.00  0.00     0.003 A 
ATOM     10  C   UNL A   1      32.957  27.937  25.711  1.00  0.00     0.016 A 
BRANCH   6  11
ATOM     11  N   UNL A   1      31.758  24.402  23.857  1.00  0.00    -0.278 N 
ATOM     12  H   UNL A   1      31.299  24.523  22.995  1.00  0.00     0.190 HD
BRANCH  11  13
ATOM     13  N   UNL A   1      32.125  23.136  24.213  1.00  0.00    -0.183 NA
ATOM     14  C   UNL A   1      32.131  22.249  23.265  1.00  0.00     0.141 C 
BRANCH  14  15
ATOM     15  C   UNL A   1      32.430  20.832  23.522  1.00  0.00    -0.002 A 
ATOM     16  C   UNL A   1      32.846  18.119  24.012  1.00  0.00     0.160 A 
ATOM     17  C   UNL A   1      33.149  19.059  24.999  1.00  0.00     0.051 A 
ATOM     18  C   UNL A   1      32.313  18.547  22.793  1.00  0.00     0.158 A 
ATOM     19  C   UNL A   1      32.929  20.419  24.758  1.00  0.00     0.014 A 
ATOM     20  C   UNL A   1      32.144  19.900  22.520  1.00  0.00     0.060 A 
BRANCH  16  21
ATOM     21  O   UNL A   1      32.936  16.792  24.345  1.00  0.00    -0.493 OA
ATOM     22  C   UNL A   1      32.678  16.541  25.727  1.00  0.00     0.278 C 
ENDBRANCH  16  21
BRANCH  18  23
ATOM     23  O   UNL A   1      31.850  17.659  21.863  1.00  0.00    -0.504 OA
ATOM     24  H   UNL A   1      31.700  17.939  20.982  1.00  0.00     0.293 HD
ENDBRANCH  18  23
ENDBRANCH  14  15
ENDBRANCH  11  13
ENDBRANCH   6  11
ENDBRANCH   3   5
ENDBRANCH   2   3
ENDBRANCH   1   2
BRANCH   1  25
ATOM     25  C   UNL A   1      31.430  32.173  26.797  1.00  0.00     0.275 C 
BRANCH  25  26
ATOM     26  O   UNL A   1      32.737  31.699  27.169  1.00  0.00    -0.458 OA
BRANCH  26  27
ATOM     27  C   UNL A   1      33.582  32.659  27.612  1.00  0.00     0.338 C 
ATOM     28  O   UNL A   1      33.323  33.832  27.822  1.00  0.00    -0.246 OA
BRANCH  27  29
ATOM     29  C   UNL A   1      34.882  32.071  27.965  1.00  0.00     0.060 A 
ATOM     30  C   UNL A   1      34.891  30.720  28.286  1.00  0.00     0.016 A 
ATOM     31  C   UNL A   1      36.018  32.842  28.173  1.00  0.00     0.016 A 
ATOM     32  C   UNL A   1      35.982  30.143  28.919  1.00  0.00     0.010 A 
ATOM     33  C   UNL A   1      37.160  32.238  28.722  1.00  0.00     0.010 A 
ATOM     34  C   UNL A   1      37.140  30.894  29.147  1.00  0.00    -0.014 A 
BRANCH  34  35
ATOM     35  C   UNL A   1      38.289  30.275  29.868  1.00  0.00     0.031 A 
ATOM     36  C   UNL A   1      38.592  30.669  31.292  1.00  0.00     0.074 A 
ATOM     37  C   UNL A   1      39.057  29.348  29.256  1.00  0.00     0.049 A 
ATOM     38  N   UNL A   1      39.619  30.346  32.037  1.00  0.00    -0.248 NA
ATOM     39  C   UNL A   1      37.625  31.552  31.965  1.00  0.00     0.031 C 
ATOM     40  C   UNL A   1      38.869  28.857  27.889  1.00  0.00     0.029 A 
ATOM     41  N   UNL A   1      40.163  28.661  29.699  1.00  0.00    -0.354 N 
ATOM     42  C   UNL A   1      39.465  31.048  33.228  1.00  0.00     0.074 A 
ATOM     43  C   UNL A   1      38.237  31.804  33.115  1.00  0.00     0.031 C 
ATOM     44  C   UNL A   1      39.817  27.951  27.606  1.00  0.00     0.029 A 
ATOM     45  C   UNL A   1      40.731  27.857  28.737  1.00  0.00     0.049 A 
ATOM     46  H   UNL A   1      40.514  28.737  30.616  1.00  0.00     0.167 HD
ATOM     47  C   UNL A   1      40.272  31.061  34.315  1.00  0.00     0.034 A 
ATOM     48  C   UNL A   1      41.886  27.163  28.736  1.00  0.00     0.034 A 
ATOM     49  C   UNL A   1      41.457  30.255  34.452  1.00  0.00     0.049 A 
ATOM     50  C   UNL A   1      42.752  27.188  29.964  1.00  0.00     0.074 A 
ATOM     51  C   UNL A   1      42.304  30.154  35.541  1.00  0.00     0.029 A 
ATOM     52  N   UNL A   1      41.962  29.414  33.474  1.00  0.00    -0.354 N 
ATOM     53  N   UNL A   1      42.555  27.808  31.101  1.00  0.00    -0.248 NA
ATOM     54  C   UNL A   1      43.990  26.396  29.918  1.00  0.00     0.031 C 
ATOM     55  C   UNL A   1      43.344  29.283  35.209  1.00  0.00     0.029 A 
ATOM     56  C   UNL A   1      43.115  28.798  33.931  1.00  0.00     0.049 A 
ATOM     57  H   UNL A   1      41.562  29.275  32.586  1.00  0.00     0.167 HD
ATOM     58  C   UNL A   1      43.620  27.450  31.919  1.00  0.00     0.074 A 
ATOM     59  C   UNL A   1      44.446  26.539  31.155  1.00  0.00     0.031 C 
ATOM     60  C   UNL A   1      43.896  27.848  33.184  1.00  0.00     0.034 A 
BRANCH  47  61
ATOM     61  C   UNL A   1      39.917  31.975  35.459  1.00  0.00     0.023 A 
ATOM     62  C   UNL A   1      40.457  33.274  35.528  1.00  0.00     0.012 A 
ATOM     63  C   UNL A   1      38.961  31.571  36.414  1.00  0.00     0.148 A 
ATOM     64  C   UNL A   1      40.067  34.150  36.542  1.00  0.00     0.002 A 
ATOM     65  C   UNL A   1      38.541  32.465  37.392  1.00  0.00     0.091 A 
ATOM     66  F   UNL A   1      38.473  30.325  36.341  1.00  0.00    -0.205 F 
ATOM     67  C   UNL A   1      39.101  33.750  37.465  1.00  0.00     0.022 A 
BRANCH  65  68
ATOM     68  S   UNL A   1      37.238  32.079  38.567  1.00  0.00     0.127 S 
ATOM     69  O   UNL A   1      37.810  32.580  39.816  1.00  0.00    -0.237 OA
ATOM     70  O   UNL A   1      36.119  32.866  38.051  1.00  0.00    -0.237 OA
ATOM     71  O   UNL A   1      37.051  30.637  38.506  1.00  0.00    -0.744 OA
ENDBRANCH  65  68
ENDBRANCH  47  61
BRANCH  48  72
ATOM     72  C   UNL A   1      42.307  26.401  27.524  1.00  0.00     0.023 A 
ATOM     73  C   UNL A   1      43.002  27.055  26.489  1.00  0.00     0.012 A 
ATOM     74  C   UNL A   1      42.011  25.030  27.392  1.00  0.00     0.148 A 
ATOM     75  C   UNL A   1      43.353  26.369  25.325  1.00  0.00     0.002 A 
ATOM     76  C   UNL A   1      42.423  24.337  26.260  1.00  0.00     0.091 A 
ATOM     77  F   UNL A   1      41.333  24.426  28.378  1.00  0.00    -0.205 F 
ATOM     78  C   UNL A   1      43.073  25.009  25.215  1.00  0.00     0.022 A 
BRANCH  76  79
ATOM     79  S   UNL A   1      42.228  22.559  26.102  1.00  0.00     0.127 S 
ATOM     80  O   UNL A   1      42.865  22.302  24.813  1.00  0.00    -0.237 OA
ATOM     81  O   UNL A   1      42.969  22.070  27.264  1.00  0.00    -0.237 OA
ATOM     82  O   UNL A   1      40.792  22.317  26.161  1.00  0.00    -0.744 OA
ENDBRANCH  76  79
ENDBRANCH  48  72
BRANCH  60  83
ATOM     83  C   UNL A   1      45.099  27.242  33.858  1.00  0.00     0.023 A 
ATOM     84  C   UNL A   1      46.324  27.936  33.891  1.00  0.00     0.012 A 
ATOM     85  C   UNL A   1      44.994  25.993  34.502  1.00  0.00     0.148 A 
ATOM     86  C   UNL A   1      47.439  27.375  34.514  1.00  0.00     0.002 A 
ATOM     87  C   UNL A   1      46.092  25.467  35.170  1.00  0.00     0.091 A 
ATOM     88  F   UNL A   1      43.826  25.338  34.443  1.00  0.00    -0.205 F 
ATOM     89  C   UNL A   1      47.320  26.148  35.162  1.00  0.00     0.022 A 
BRANCH  87  90
ATOM     90  S   UNL A   1      45.999  23.944  36.117  1.00  0.00     0.127 S 
ATOM     91  O   UNL A   1      45.877  22.943  35.059  1.00  0.00    -0.237 OA
ATOM     92  O   UNL A   1      47.283  23.937  36.818  1.00  0.00    -0.237 OA
ATOM     93  O   UNL A   1      44.838  24.081  36.986  1.00  0.00    -0.744 OA
ENDBRANCH  87  90
ENDBRANCH  60  83
ENDBRANCH  34  35
ENDBRANCH  27  29
ENDBRANCH  26  27
ENDBRANCH  25  26
ENDBRANCH   1  25
TORSDOF 19
ENDMDL
MODEL 2
REMARK VINA RESULT:     -11.8      5.221      8.674
REMARK SMILES COc1ccc(/C=N/Nc2cccc(C(=O)OCCOC(=O)c3ccc(-c4c5nc(c(-c6cccc(S(=O)(=O)[O-])c6F)c6ccc([nH]6)c(-c6cccc(S(=O)(=O)[O-])c6F)c6nc(c(-c7cccc(S(=O)(=O)[O-])c7F)c7ccc4[nH]7)C=C6)C=C5)cc3)c2)cc1O
REMARK SMILES IDX 18 1 17 2 15 3 16 4 14 5 10 6 11 7 86 8 12 9 13 10 9 11 8 13
REMARK SMILES IDX 7 14 6 15 3 16 4 17 88 18 5 19 87 20 2 21 1 22 89 23 19 25
REMARK SMILES IDX 20 26 21 27 22 28 23 29 24 30 85 31 25 32 84 33 26 34 27 35
REMARK SMILES IDX 28 36 78 37 29 38 83 39 77 40 79 41 30 42 82 43 76 44 75 45
REMARK SMILES IDX 31 47 63 48 43 49 62 50 44 51 47 52 61 53 80 54 45 55 46 56
REMARK SMILES IDX 60 58 81 59 48 60 32 61 33 62 41 63 34 64 36 65 42 66 35 67
REMARK SMILES IDX 37 68 38 69 39 70 40 71 64 72 65 73 73 74 66 75 68 76 74 77
REMARK SMILES IDX 67 78 69 79 70 80 71 81 72 82 49 83 50 84 58 85 51 86 53 87
REMARK SMILES IDX 59 88 52 89 54 90 55 91 56 92 57 93
REMARK H PARENT 9 12 89 24 79 46 47 57
REMARK Flexibility Score: inf
ROOT
ATOM      1  C   UNL A   1      35.641  20.442  25.334  1.00  0.00     0.275 C 
ENDROOT
BRANCH   1   2
ATOM      2  O   UNL A   1      34.782  21.065  24.359  1.00  0.00    -0.458 OA
BRANCH   2   3
ATOM      3  C   UNL A   1      33.666  21.668  24.833  1.00  0.00     0.338 C 
ATOM      4  O   UNL A   1      32.723  21.116  25.382  1.00  0.00    -0.246 OA
BRANCH   3   5
ATOM      5  C   UNL A   1      33.750  23.142  24.671  1.00  0.00     0.062 A 
ATOM      6  C   UNL A   1      33.372  25.153  23.366  1.00  0.00     0.057 A 
ATOM      7  C   UNL A   1      33.877  25.923  24.423  1.00  0.00     0.028 A 
ATOM      8  C   UNL A   1      33.393  23.755  23.471  1.00  0.00     0.043 A 
ATOM      9  C   UNL A   1      34.256  25.317  25.618  1.00  0.00     0.003 A 
ATOM     10  C   UNL A   1      34.123  23.938  25.761  1.00  0.00     0.016 A 
BRANCH   6  11
ATOM     11  N   UNL A   1      32.678  25.806  22.327  1.00  0.00    -0.278 N 
ATOM     12  H   UNL A   1      32.709  25.405  21.428  1.00  0.00     0.190 HD
BRANCH  11  13
ATOM     13  N   UNL A   1      31.966  26.959  22.488  1.00  0.00    -0.183 NA
ATOM     14  C   UNL A   1      30.772  26.835  22.983  1.00  0.00     0.141 C 
BRANCH  14  15
ATOM     15  C   UNL A   1      29.865  27.983  23.137  1.00  0.00    -0.002 A 
ATOM     16  C   UNL A   1      28.107  30.142  23.283  1.00  0.00     0.160 A 
ATOM     17  C   UNL A   1      29.485  30.363  23.319  1.00  0.00     0.051 A 
ATOM     18  C   UNL A   1      27.621  28.838  23.150  1.00  0.00     0.158 A 
ATOM     19  C   UNL A   1      30.368  29.282  23.233  1.00  0.00     0.014 A 
ATOM     20  C   UNL A   1      28.487  27.750  23.121  1.00  0.00     0.060 A 
BRANCH  16  21
ATOM     21  O   UNL A   1      27.285  31.237  23.219  1.00  0.00    -0.493 OA
ATOM     22  C   UNL A   1      27.960  32.420  22.790  1.00  0.00     0.278 C 
ENDBRANCH  16  21
BRANCH  18  23
ATOM     23  O   UNL A   1      26.294  28.585  22.946  1.00  0.00    -0.504 OA
ATOM     24  H   UNL A   1      25.760  28.288  23.656  1.00  0.00     0.293 HD
ENDBRANCH  18  23
ENDBRANCH  14  15
ENDBRANCH  11  13
ENDBRANCH   6  11
ENDBRANCH   3   5
ENDBRANCH   2   3
ENDBRANCH   1   2
BRANCH   1  25
ATOM     25  C   UNL A   1      37.075  20.322  24.815  1.00  0.00     0.275 C 
BRANCH  25  26
ATOM     26  O   UNL A   1      37.868  21.452  25.221  1.00  0.00    -0.458 OA
BRANCH  26  27
ATOM     27  C   UNL A   1      39.000  21.137  25.891  1.00  0.00     0.338 C 
ATOM     28  O   UNL A   1      39.609  20.081  25.858  1.00  0.00    -0.246 OA
BRANCH  27  29
ATOM     29  C   UNL A   1      39.523  22.318  26.593  1.00  0.00     0.060 A 
ATOM     30  C   UNL A   1      39.055  23.555  26.170  1.00  0.00     0.016 A 
ATOM     31  C   UNL A   1      40.579  22.246  27.492  1.00  0.00     0.016 A 
ATOM     32  C   UNL A   1      39.695  24.728  26.543  1.00  0.00     0.010 A 
ATOM     33  C   UNL A   1      41.167  23.435  27.950  1.00  0.00     0.010 A 
ATOM     34  C   UNL A   1      40.764  24.688  27.443  1.00  0.00    -0.014 A 
BRANCH  34  35
ATOM     35  C   UNL A   1      41.473  25.951  27.802  1.00  0.00     0.031 A 
ATOM     36  C   UNL A   1      40.763  27.019  28.596  1.00  0.00     0.074 A 
ATOM     37  C   UNL A   1      42.757  26.139  27.432  1.00  0.00     0.049 A 
ATOM     38  N   UNL A   1      41.161  28.232  28.888  1.00  0.00    -0.248 NA
ATOM     39  C   UNL A   1      39.425  26.691  29.118  1.00  0.00     0.031 C 
ATOM     40  C   UNL A   1      43.574  25.184  26.679  1.00  0.00     0.029 A 
ATOM     41  N   UNL A   1      43.601  27.208  27.625  1.00  0.00    -0.354 N 
ATOM     42  C   UNL A   1      40.097  28.835  29.551  1.00  0.00     0.074 A 
ATOM     43  C   UNL A   1      39.040  27.851  29.633  1.00  0.00     0.031 C 
ATOM     44  C   UNL A   1      44.794  25.703  26.478  1.00  0.00     0.029 A 
ATOM     45  C   UNL A   1      44.824  27.059  27.011  1.00  0.00     0.049 A 
ATOM     46  H   UNL A   1      43.355  28.002  28.153  1.00  0.00     0.167 HD
ATOM     47  C   UNL A   1      40.011  30.092  30.046  1.00  0.00     0.034 A 
ATOM     48  C   UNL A   1      45.839  27.929  26.842  1.00  0.00     0.034 A 
ATOM     49  C   UNL A   1      41.088  31.046  30.024  1.00  0.00     0.049 A 
ATOM     50  C   UNL A   1      45.716  29.312  27.415  1.00  0.00     0.074 A 
ATOM     51  C   UNL A   1      41.113  32.323  30.556  1.00  0.00     0.029 A 
ATOM     52  N   UNL A   1      42.326  30.832  29.440  1.00  0.00    -0.354 N 
ATOM     53  N   UNL A   1      44.727  29.840  28.094  1.00  0.00    -0.248 NA
ATOM     54  C   UNL A   1      46.860  30.215  27.223  1.00  0.00     0.031 C 
ATOM     55  C   UNL A   1      42.353  32.896  30.261  1.00  0.00     0.029 A 
ATOM     56  C   UNL A   1      43.120  31.955  29.593  1.00  0.00     0.049 A 
ATOM     57  H   UNL A   1      42.601  30.003  28.986  1.00  0.00     0.167 HD
ATOM     58  C   UNL A   1      45.145  31.118  28.442  1.00  0.00     0.074 A 
ATOM     59  C   UNL A   1      46.487  31.277  27.922  1.00  0.00     0.031 C 
ATOM     60  C   UNL A   1      44.474  32.080  29.123  1.00  0.00     0.034 A 
BRANCH  47  61
ATOM     61  C   UNL A   1      38.706  30.531  30.660  1.00  0.00     0.023 A 
ATOM     62  C   UNL A   1      38.504  30.435  32.050  1.00  0.00     0.012 A 
ATOM     63  C   UNL A   1      37.715  31.134  29.857  1.00  0.00     0.148 A 
ATOM     64  C   UNL A   1      37.329  30.914  32.631  1.00  0.00     0.002 A 
ATOM     65  C   UNL A   1      36.570  31.653  30.448  1.00  0.00     0.091 A 
ATOM     66  F   UNL A   1      37.919  31.199  28.534  1.00  0.00    -0.205 F 
ATOM     67  C   UNL A   1      36.369  31.534  31.832  1.00  0.00     0.022 A 
BRANCH  65  68
ATOM     68  S   UNL A   1      35.320  32.550  29.520  1.00  0.00     0.127 S 
ATOM     69  O   UNL A   1      34.476  33.074  30.594  1.00  0.00    -0.237 OA
ATOM     70  O   UNL A   1      36.119  33.560  28.827  1.00  0.00    -0.237 OA
ATOM     71  O   UNL A   1      34.681  31.573  28.650  1.00  0.00    -0.744 OA
ENDBRANCH  65  68
ENDBRANCH  47  61
BRANCH  48  72
ATOM     72  C   UNL A   1      47.056  27.528  26.077  1.00  0.00     0.023 A 
ATOM     73  C   UNL A   1      48.106  26.854  26.730  1.00  0.00     0.012 A 
ATOM     74  C   UNL A   1      47.179  27.823  24.705  1.00  0.00     0.148 A 
ATOM     75  C   UNL A   1      49.274  26.523  26.042  1.00  0.00     0.002 A 
ATOM     76  C   UNL A   1      48.317  27.430  24.010  1.00  0.00     0.091 A 
ATOM     77  F   UNL A   1      46.179  28.481  24.102  1.00  0.00    -0.205 F 
ATOM     78  C   UNL A   1      49.375  26.801  24.681  1.00  0.00     0.022 A 
BRANCH  76  79
ATOM     79  S   UNL A   1      48.466  27.623  22.231  1.00  0.00     0.127 S 
ATOM     80  O   UNL A   1      47.178  28.219  21.886  1.00  0.00    -0.237 OA
ATOM     81  O   UNL A   1      49.612  28.525  22.121  1.00  0.00    -0.237 OA
ATOM     82  O   UNL A   1      48.707  26.283  21.711  1.00  0.00    -0.744 OA
ENDBRANCH  76  79
ENDBRANCH  48  72
BRANCH  60  83
ATOM     83  C   UNL A   1      45.205  33.363  29.416  1.00  0.00     0.023 A 
ATOM     84  C   UNL A   1      45.991  33.489  30.577  1.00  0.00     0.012 A 
ATOM     85  C   UNL A   1      45.145  34.435  28.502  1.00  0.00     0.148 A 
ATOM     86  C   UNL A   1      46.668  34.678  30.849  1.00  0.00     0.002 A 
ATOM     87  C   UNL A   1      45.868  35.594  28.750  1.00  0.00     0.091 A 
ATOM     88  F   UNL A   1      44.376  34.304  27.411  1.00  0.00    -0.205 F 
ATOM     89  C   UNL A   1      46.616  35.725  29.931  1.00  0.00     0.022 A 
BRANCH  87  90
ATOM     90  S   UNL A   1      45.939  36.950  27.574  1.00  0.00     0.127 S 
ATOM     91  O   UNL A   1      46.739  36.368  26.498  1.00  0.00    -0.237 OA
ATOM     92  O   UNL A   1      44.527  37.148  27.245  1.00  0.00    -0.237 OA
ATOM     93  O   UNL A   1      46.556  38.064  28.281  1.00  0.00    -0.744 OA
ENDBRANCH  87  90
ENDBRANCH  60  83
ENDBRANCH  34  35
ENDBRANCH  27  29
ENDBRANCH  26  27
ENDBRANCH  25  26
ENDBRANCH   1  25
TORSDOF 19
ENDMDL
MODEL 3
REMARK VINA RESULT:     -11.6      5.347      8.537
REMARK SMILES COc1ccc(/C=N/Nc2cccc(C(=O)OCCOC(=O)c3ccc(-c4c5nc(c(-c6cccc(S(=O)(=O)[O-])c6F)c6ccc([nH]6)c(-c6cccc(S(=O)(=O)[O-])c6F)c6nc(c(-c7cccc(S(=O)(=O)[O-])c7F)c7ccc4[nH]7)C=C6)C=C5)cc3)c2)cc1O
REMARK SMILES IDX 18 1 17 2 15 3 16 4 14 5 10 6 11 7 86 8 12 9 13 10 9 11 8 13
REMARK SMILES IDX 7 14 6 15 3 16 4 17 88 18 5 19 87 20 2 21 1 22 89 23 19 25
REMARK SMILES IDX 20 26 21 27 22 28 23 29 24 30 85 31 25 32 84 33 26 34 27 35
REMARK SMILES IDX 28 36 78 37 29 38 83 39 77 40 79 41 30 42 82 43 76 44 75 45
REMARK SMILES IDX 31 47 63 48 43 49 62 50 44 51 47 52 61 53 80 54 45 55 46 56
REMARK SMILES IDX 60 58 81 59 48 60 32 61 33 62 41 63 34 64 36 65 42 66 35 67
REMARK SMILES IDX 37 68 38 69 39 70 40 71 64 72 65 73 73 74 66 75 68 76 74 77
REMARK SMILES IDX 67 78 69 79 70 80 71 81 72 82 49 83 50 84 58 85 51 86 53 87
REMARK SMILES IDX 59 88 52 89 54 90 55 91 56 92 57 93
REMARK H PARENT 9 12 89 24 79 46 47 57
REMARK Flexibility Score: inf
ROOT
ATOM      1  C   UNL A   1      36.568  22.516  23.697  1.00  0.00     0.275 C 
ENDROOT
BRANCH   1   2
ATOM      2  O   UNL A   1      35.136  22.407  23.572  1.00  0.00    -0.458 OA
BRANCH   2   3
ATOM      3  C   UNL A   1      34.434  23.564  23.617  1.00  0.00     0.338 C 
ATOM      4  O   UNL A   1      34.471  24.465  22.790  1.00  0.00    -0.246 OA
BRANCH   3   5
ATOM      5  C   UNL A   1      33.525  23.588  24.790  1.00  0.00     0.062 A 
ATOM      6  C   UNL A   1      31.451  24.276  25.848  1.00  0.00     0.057 A 
ATOM      7  C   UNL A   1      31.815  23.566  27.000  1.00  0.00     0.028 A 
ATOM      8  C   UNL A   1      32.356  24.347  24.779  1.00  0.00     0.043 A 
ATOM      9  C   UNL A   1      32.991  22.822  27.029  1.00  0.00     0.003 A 
ATOM     10  C   UNL A   1      33.804  22.778  25.899  1.00  0.00     0.016 A 
BRANCH   6  11
ATOM     11  N   UNL A   1      30.119  24.718  25.719  1.00  0.00    -0.278 N 
ATOM     12  H   UNL A   1      29.400  24.102  25.989  1.00  0.00     0.190 HD
BRANCH  11  13
ATOM     13  N   UNL A   1      29.763  25.946  25.243  1.00  0.00    -0.183 NA
ATOM     14  C   UNL A   1      29.770  26.088  23.952  1.00  0.00     0.141 C 
BRANCH  14  15
ATOM     15  C   UNL A   1      29.484  27.378  23.305  1.00  0.00    -0.002 A 
ATOM     16  C   UNL A   1      29.027  29.891  22.187  1.00  0.00     0.160 A 
ATOM     17  C   UNL A   1      27.986  29.212  22.824  1.00  0.00     0.051 A 
ATOM     18  C   UNL A   1      30.298  29.312  22.136  1.00  0.00     0.158 A 
ATOM     19  C   UNL A   1      28.217  27.958  23.396  1.00  0.00     0.014 A 
ATOM     20  C   UNL A   1      30.527  28.040  22.651  1.00  0.00     0.060 A 
BRANCH  16  21
ATOM     21  O   UNL A   1      28.793  31.177  21.774  1.00  0.00    -0.493 OA
ATOM     22  C   UNL A   1      27.701  31.795  22.455  1.00  0.00     0.278 C 
ENDBRANCH  16  21
BRANCH  18  23
ATOM     23  O   UNL A   1      31.381  30.002  21.672  1.00  0.00    -0.504 OA
ATOM     24  H   UNL A   1      32.135  30.113  22.216  1.00  0.00     0.293 HD
ENDBRANCH  18  23
ENDBRANCH  14  15
ENDBRANCH  11  13
ENDBRANCH   6  11
ENDBRANCH   3   5
ENDBRANCH   2   3
ENDBRANCH   1   2
BRANCH   1  25
ATOM     25  C   UNL A   1      37.160  21.283  24.384  1.00  0.00     0.275 C 
BRANCH  25  26
ATOM     26  O   UNL A   1      37.512  21.572  25.749  1.00  0.00    -0.458 OA
BRANCH  26  27
ATOM     27  C   UNL A   1      38.816  21.374  26.051  1.00  0.00     0.338 C 
ATOM     28  O   UNL A   1      39.513  20.426  25.730  1.00  0.00    -0.246 OA
BRANCH  27  29
ATOM     29  C   UNL A   1      39.368  22.558  26.726  1.00  0.00     0.060 A 
ATOM     30  C   UNL A   1      38.840  23.789  26.362  1.00  0.00     0.016 A 
ATOM     31  C   UNL A   1      40.496  22.497  27.534  1.00  0.00     0.016 A 
ATOM     32  C   UNL A   1      39.483  24.971  26.699  1.00  0.00     0.010 A 
ATOM     33  C   UNL A   1      41.093  23.694  27.960  1.00  0.00     0.010 A 
ATOM     34  C   UNL A   1      40.623  24.944  27.507  1.00  0.00    -0.014 A 
BRANCH  34  35
ATOM     35  C   UNL A   1      41.331  26.218  27.826  1.00  0.00     0.031 A 
ATOM     36  C   UNL A   1      40.670  27.254  28.700  1.00  0.00     0.074 A 
ATOM     37  C   UNL A   1      42.572  26.445  27.348  1.00  0.00     0.049 A 
ATOM     38  N   UNL A   1      41.063  28.471  28.979  1.00  0.00    -0.248 NA
ATOM     39  C   UNL A   1      39.392  26.883  29.333  1.00  0.00     0.031 C 
ATOM     40  C   UNL A   1      43.341  25.524  26.507  1.00  0.00     0.029 A 
ATOM     41  N   UNL A   1      43.405  27.531  27.486  1.00  0.00    -0.354 N 
ATOM     42  C   UNL A   1      40.049  29.036  29.745  1.00  0.00     0.074 A 
ATOM     43  C   UNL A   1      39.027  28.025  29.902  1.00  0.00     0.031 C 
ATOM     44  C   UNL A   1      44.526  26.076  26.208  1.00  0.00     0.029 A 
ATOM     45  C   UNL A   1      44.571  27.423  26.763  1.00  0.00     0.049 A 
ATOM     46  H   UNL A   1      43.188  28.309  28.048  1.00  0.00     0.167 HD
ATOM     47  C   UNL A   1      39.977  30.282  30.270  1.00  0.00     0.034 A 
ATOM     48  C   UNL A   1      45.547  28.321  26.521  1.00  0.00     0.034 A 
ATOM     49  C   UNL A   1      41.025  31.263  30.171  1.00  0.00     0.049 A 
ATOM     50  C   UNL A   1      45.442  29.691  27.129  1.00  0.00     0.074 A 
ATOM     51  C   UNL A   1      41.068  32.531  30.723  1.00  0.00     0.029 A 
ATOM     52  N   UNL A   1      42.211  31.090  29.476  1.00  0.00    -0.354 N 
ATOM     53  N   UNL A   1      44.505  30.183  27.903  1.00  0.00    -0.248 NA
ATOM     54  C   UNL A   1      46.543  30.625  26.853  1.00  0.00     0.031 C 
ATOM     55  C   UNL A   1      42.263  33.140  30.330  1.00  0.00     0.029 A 
ATOM     56  C   UNL A   1      42.989  32.231  29.579  1.00  0.00     0.049 A 
ATOM     57  H   UNL A   1      42.464  30.277  28.983  1.00  0.00     0.167 HD
ATOM     58  C   UNL A   1      44.922  31.465  28.238  1.00  0.00     0.074 A 
ATOM     59  C   UNL A   1      46.209  31.666  27.603  1.00  0.00     0.031 C 
ATOM     60  C   UNL A   1      44.293  32.397  28.993  1.00  0.00     0.034 A 
BRANCH  47  61
ATOM     61  C   UNL A   1      38.722  30.677  31.005  1.00  0.00     0.023 A 
ATOM     62  C   UNL A   1      38.649  30.556  32.407  1.00  0.00     0.012 A 
ATOM     63  C   UNL A   1      37.649  31.265  30.305  1.00  0.00     0.148 A 
ATOM     64  C   UNL A   1      37.519  30.995  33.098  1.00  0.00     0.002 A 
ATOM     65  C   UNL A   1      36.548  31.745  31.004  1.00  0.00     0.091 A 
ATOM     66  F   UNL A   1      37.731  31.355  28.970  1.00  0.00    -0.205 F 
ATOM     67  C   UNL A   1      36.476  31.601  32.399  1.00  0.00     0.022 A 
BRANCH  65  68
ATOM     68  S   UNL A   1      35.198  32.622  30.207  1.00  0.00     0.127 S 
ATOM     69  O   UNL A   1      35.882  33.804  29.685  1.00  0.00    -0.237 OA
ATOM     70  O   UNL A   1      34.772  31.664  29.186  1.00  0.00    -0.237 OA
ATOM     71  O   UNL A   1      34.214  32.884  31.247  1.00  0.00    -0.744 OA
ENDBRANCH  65  68
ENDBRANCH  47  61
BRANCH  48  72
ATOM     72  C   UNL A   1      46.700  27.965  25.644  1.00  0.00     0.023 A 
ATOM     73  C   UNL A   1      46.567  28.039  24.244  1.00  0.00     0.012 A 
ATOM     74  C   UNL A   1      47.926  27.544  26.194  1.00  0.00     0.148 A 
ATOM     75  C   UNL A   1      47.618  27.656  23.409  1.00  0.00     0.002 A 
ATOM     76  C   UNL A   1      48.991  27.228  25.358  1.00  0.00     0.091 A 
ATOM     77  F   UNL A   1      48.030  27.461  27.528  1.00  0.00    -0.205 F 
ATOM     78  C   UNL A   1      48.832  27.261  23.965  1.00  0.00     0.022 A 
BRANCH  76  79
ATOM     79  S   UNL A   1      50.626  26.847  25.994  1.00  0.00     0.127 S 
ATOM     80  O   UNL A   1      51.254  26.211  24.839  1.00  0.00    -0.237 OA
ATOM     81  O   UNL A   1      51.140  28.177  26.321  1.00  0.00    -0.237 OA
ATOM     82  O   UNL A   1      50.406  25.989  27.151  1.00  0.00    -0.744 OA
ENDBRANCH  76  79
ENDBRANCH  48  72
BRANCH  60  83
ATOM     83  C   UNL A   1      45.016  33.694  29.244  1.00  0.00     0.023 A 
ATOM     84  C   UNL A   1      45.842  33.844  30.375  1.00  0.00     0.012 A 
ATOM     85  C   UNL A   1      44.909  34.753  28.321  1.00  0.00     0.148 A 
ATOM     86  C   UNL A   1      46.512  35.045  30.609  1.00  0.00     0.002 A 
ATOM     87  C   UNL A   1      45.625  35.925  28.530  1.00  0.00     0.091 A 
ATOM     88  F   UNL A   1      44.104  34.599  27.260  1.00  0.00    -0.205 F 
ATOM     89  C   UNL A   1      46.413  36.079  29.682  1.00  0.00     0.022 A 
BRANCH  87  90
ATOM     90  S   UNL A   1      45.636  37.266  27.336  1.00  0.00     0.127 S 
ATOM     91  O   UNL A   1      46.486  38.251  28.003  1.00  0.00    -0.237 OA
ATOM     92  O   UNL A   1      46.241  36.632  26.164  1.00  0.00    -0.237 OA
ATOM     93  O   UNL A   1      44.245  37.659  27.158  1.00  0.00    -0.744 OA
ENDBRANCH  87  90
ENDBRANCH  60  83
ENDBRANCH  34  35
ENDBRANCH  27  29
ENDBRANCH  26  27
ENDBRANCH  25  26
ENDBRANCH   1  25
TORSDOF 19
ENDMDL
