MODEL 1
REMARK VINA RESULT:     -11.3      0.000      0.000
REMARK SMILES CCC[NH2+]CC(=O)N1[C@@H](C(=O)OCCOC(=O)c2ccc(-c3c4nc(c(-c5cccc(S(=O)(=O)[O-])c5F)c5ccc([nH]5)c(-c5cccc(S(=O)(=O)[O-])c5F)c5nc(c(-c6cccc(S(=O)(=O)[O-])c6F)c6ccc3[nH]6)C=C5)C=C4)cc2)CC[C@@H]2CCCC[C@@H]21
REMARK SMILES IDX 13 1 12 2 10 3 11 4 9 5 8 6 88 7 81 8 83 9 87 10 82 11 84 12
REMARK SMILES IDX 86 13 85 14 6 15 7 16 5 17 4 18 3 21 2 22 1 23 14 24 15 25
REMARK SMILES IDX 16 26 17 27 18 28 19 29 80 30 20 31 79 32 21 33 22 34 23 35
REMARK SMILES IDX 73 36 24 37 78 38 72 39 74 40 25 41 77 42 71 43 70 44 26 46
REMARK SMILES IDX 58 47 38 48 57 49 39 50 42 51 56 52 75 53 40 54 41 55 55 57
REMARK SMILES IDX 76 58 43 59 27 60 28 61 36 62 29 63 31 64 37 65 30 66 32 67
REMARK SMILES IDX 33 68 34 69 35 70 59 71 60 72 68 73 61 74 63 75 69 76 62 77
REMARK SMILES IDX 64 78 65 79 66 80 67 81 44 82 45 83 53 84 46 85 48 86 54 87
REMARK SMILES IDX 47 88 49 89 50 90 51 91 52 92
REMARK H PARENT 4 19 4 20 74 45 42 56
REMARK Flexibility Score: inf
ROOT
ATOM      1  C   UNL A   1      36.306  20.371  25.004  1.00  0.00     0.274 C 
ENDROOT
BRANCH   1   2
ATOM      2  O   UNL A   1      36.129  21.785  25.293  1.00  0.00    -0.461 OA
BRANCH   2   3
ATOM      3  C   UNL A   1      35.605  22.497  24.269  1.00  0.00     0.328 C 
ATOM      4  O   UNL A   1      36.200  22.623  23.198  1.00  0.00    -0.250 OA
BRANCH   3   5
ATOM      5  C   UNL A   1      34.334  23.327  24.599  1.00  0.00     0.195 C 
ATOM      6  N   UNL A   1      33.047  22.800  25.118  1.00  0.00    -0.321 N 
ATOM      7  C   UNL A   1      31.848  23.684  25.096  1.00  0.00     0.089 C 
ATOM      8  C   UNL A   1      34.104  24.089  23.274  1.00  0.00     0.037 C 
ATOM      9  C   UNL A   1      31.687  24.366  23.726  1.00  0.00     0.012 C 
ATOM     10  C   UNL A   1      31.854  24.688  26.267  1.00  0.00     0.025 C 
ATOM     11  C   UNL A   1      32.977  25.081  23.334  1.00  0.00     0.008 C 
ATOM     12  C   UNL A   1      30.514  25.343  23.716  1.00  0.00     0.006 C 
ATOM     13  C   UNL A   1      30.999  25.957  26.124  1.00  0.00     0.002 C 
ATOM     14  C   UNL A   1      30.725  26.469  24.715  1.00  0.00     0.000 C 
BRANCH   6  15
ATOM     15  C   UNL A   1      32.930  21.543  25.680  1.00  0.00     0.278 C 
ATOM     16  O   UNL A   1      33.271  21.351  26.849  1.00  0.00    -0.268 OA
BRANCH  15  17
ATOM     17  C   UNL A   1      32.516  20.385  24.755  1.00  0.00     0.362 C 
BRANCH  17  18
ATOM     18  N   UNL A   1      32.321  19.119  25.474  1.00  0.00    -0.338 N 
ATOM     19  H   UNL A   1      32.424  19.296  26.473  1.00  0.00     0.346 HD
ATOM     20  H   UNL A   1      31.390  18.779  25.234  1.00  0.00     0.346 HD
BRANCH  18  21
ATOM     21  C   UNL A   1      33.270  18.076  25.089  1.00  0.00     0.260 C 
BRANCH  21  22
ATOM     22  C   UNL A   1      33.191  17.755  23.590  1.00  0.00     0.058 C 
ATOM     23  C   UNL A   1      34.031  16.581  23.125  1.00  0.00     0.010 C 
ENDBRANCH  21  22
ENDBRANCH  18  21
ENDBRANCH  17  18
ENDBRANCH  15  17
ENDBRANCH   6  15
ENDBRANCH   3   5
ENDBRANCH   2   3
ENDBRANCH   1   2
BRANCH   1  24
ATOM     24  C   UNL A   1      37.763  19.853  25.080  1.00  0.00     0.275 C 
BRANCH  24  25
ATOM     25  O   UNL A   1      38.664  20.966  25.211  1.00  0.00    -0.458 OA
BRANCH  25  26
ATOM     26  C   UNL A   1      39.656  20.836  26.126  1.00  0.00     0.338 C 
ATOM     27  O   UNL A   1      40.237  19.821  26.450  1.00  0.00    -0.246 OA
BRANCH  26  28
ATOM     28  C   UNL A   1      39.916  22.169  26.713  1.00  0.00     0.060 A 
ATOM     29  C   UNL A   1      39.158  23.275  26.315  1.00  0.00     0.016 A 
ATOM     30  C   UNL A   1      40.974  22.333  27.607  1.00  0.00     0.016 A 
ATOM     31  C   UNL A   1      39.477  24.556  26.784  1.00  0.00     0.010 A 
ATOM     32  C   UNL A   1      41.285  23.612  28.086  1.00  0.00     0.010 A 
ATOM     33  C   UNL A   1      40.568  24.741  27.646  1.00  0.00    -0.014 A 
BRANCH  33  34
ATOM     34  C   UNL A   1      41.108  26.108  27.902  1.00  0.00     0.031 A 
ATOM     35  C   UNL A   1      42.512  26.422  27.440  1.00  0.00     0.074 A 
ATOM     36  C   UNL A   1      40.399  27.066  28.532  1.00  0.00     0.049 A 
ATOM     37  N   UNL A   1      43.214  27.516  27.592  1.00  0.00    -0.248 NA
ATOM     38  C   UNL A   1      43.216  25.353  26.712  1.00  0.00     0.031 C 
ATOM     39  C   UNL A   1      39.032  26.929  29.028  1.00  0.00     0.029 A 
ATOM     40  N   UNL A   1      40.755  28.348  28.880  1.00  0.00    -0.354 N 
ATOM     41  C   UNL A   1      44.447  27.261  27.002  1.00  0.00     0.074 A 
ATOM     42  C   UNL A   1      44.404  25.901  26.508  1.00  0.00     0.031 C 
ATOM     43  C   UNL A   1      38.673  28.074  29.637  1.00  0.00     0.029 A 
ATOM     44  C   UNL A   1      39.789  29.020  29.595  1.00  0.00     0.049 A 
ATOM     45  H   UNL A   1      41.622  28.750  28.641  1.00  0.00     0.167 HD
ATOM     46  C   UNL A   1      45.515  28.081  26.855  1.00  0.00     0.034 A 
ATOM     47  C   UNL A   1      39.808  30.246  30.161  1.00  0.00     0.034 A 
ATOM     48  C   UNL A   1      45.578  29.438  27.324  1.00  0.00     0.049 A 
ATOM     49  C   UNL A   1      41.032  31.125  30.024  1.00  0.00     0.074 A 
ATOM     50  C   UNL A   1      46.622  30.341  27.204  1.00  0.00     0.029 A 
ATOM     51  N   UNL A   1      44.565  30.090  28.005  1.00  0.00    -0.354 N 
ATOM     52  N   UNL A   1      42.144  30.906  29.365  1.00  0.00    -0.248 NA
ATOM     53  C   UNL A   1      40.984  32.440  30.686  1.00  0.00     0.031 C 
ATOM     54  C   UNL A   1      46.244  31.536  27.827  1.00  0.00     0.029 A 
ATOM     55  C   UNL A   1      44.956  31.383  28.312  1.00  0.00     0.049 A 
ATOM     56  H   UNL A   1      43.695  29.694  28.237  1.00  0.00     0.167 HD
ATOM     57  C   UNL A   1      42.901  32.069  29.493  1.00  0.00     0.074 A 
ATOM     58  C   UNL A   1      42.113  32.999  30.273  1.00  0.00     0.031 C 
ATOM     59  C   UNL A   1      44.144  32.337  29.022  1.00  0.00     0.034 A 
BRANCH  46  60
ATOM     60  C   UNL A   1      46.705  27.532  26.115  1.00  0.00     0.023 A 
ATOM     61  C   UNL A   1      46.799  27.721  24.722  1.00  0.00     0.012 A 
ATOM     62  C   UNL A   1      47.744  26.870  26.796  1.00  0.00     0.148 A 
ATOM     63  C   UNL A   1      47.893  27.229  24.010  1.00  0.00     0.002 A 
ATOM     64  C   UNL A   1      48.853  26.421  26.088  1.00  0.00     0.091 A 
ATOM     65  F   UNL A   1      47.625  26.683  28.119  1.00  0.00    -0.205 F 
ATOM     66  C   UNL A   1      48.922  26.588  24.695  1.00  0.00     0.022 A 
BRANCH  64  67
ATOM     67  S   UNL A   1      50.266  25.653  26.885  1.00  0.00     0.127 S 
ATOM     68  O   UNL A   1      51.154  25.417  25.748  1.00  0.00    -0.237 OA
ATOM     69  O   UNL A   1      50.711  26.703  27.800  1.00  0.00    -0.237 OA
ATOM     70  O   UNL A   1      49.756  24.454  27.537  1.00  0.00    -0.744 OA
ENDBRANCH  64  67
ENDBRANCH  46  60
BRANCH  47  71
ATOM     71  C   UNL A   1      38.614  30.765  30.894  1.00  0.00     0.023 A 
ATOM     72  C   UNL A   1      38.494  30.520  32.277  1.00  0.00     0.012 A 
ATOM     73  C   UNL A   1      37.577  31.444  30.226  1.00  0.00     0.148 A 
ATOM     74  C   UNL A   1      37.344  30.899  32.971  1.00  0.00     0.002 A 
ATOM     75  C   UNL A   1      36.459  31.867  30.936  1.00  0.00     0.091 A 
ATOM     76  F   UNL A   1      37.697  31.647  28.907  1.00  0.00    -0.205 F 
ATOM     77  C   UNL A   1      36.330  31.578  32.303  1.00  0.00     0.022 A 
BRANCH  75  78
ATOM     78  S   UNL A   1      35.156  32.849  30.183  1.00  0.00     0.127 S 
ATOM     79  O   UNL A   1      35.901  33.999  29.678  1.00  0.00    -0.237 OA
ATOM     80  O   UNL A   1      34.651  31.938  29.153  1.00  0.00    -0.237 OA
ATOM     81  O   UNL A   1      34.208  33.126  31.254  1.00  0.00    -0.744 OA
ENDBRANCH  75  78
ENDBRANCH  47  71
BRANCH  59  82
ATOM     82  C   UNL A   1      44.723  33.709  29.276  1.00  0.00     0.023 A 
ATOM     83  C   UNL A   1      45.426  33.969  30.469  1.00  0.00     0.012 A 
ATOM     84  C   UNL A   1      44.624  34.724  28.302  1.00  0.00     0.148 A 
ATOM     85  C   UNL A   1      45.986  35.225  30.706  1.00  0.00     0.002 A 
ATOM     86  C   UNL A   1      45.226  35.959  28.524  1.00  0.00     0.091 A 
ATOM     87  F   UNL A   1      43.937  34.471  27.179  1.00  0.00    -0.205 F 
ATOM     88  C   UNL A   1      45.896  36.216  29.731  1.00  0.00     0.022 A 
BRANCH  86  89
ATOM     89  S   UNL A   1      45.240  37.258  27.282  1.00  0.00     0.127 S 
ATOM     90  O   UNL A   1      46.130  36.694  26.269  1.00  0.00    -0.237 OA
ATOM     91  O   UNL A   1      43.832  37.328  26.885  1.00  0.00    -0.237 OA
ATOM     92  O   UNL A   1      45.732  38.450  27.960  1.00  0.00    -0.744 OA
ENDBRANCH  86  89
ENDBRANCH  59  82
ENDBRANCH  33  34
ENDBRANCH  26  28
ENDBRANCH  25  26
ENDBRANCH  24  25
ENDBRANCH   1  24
TORSDOF 19
ENDMDL
MODEL 2
REMARK VINA RESULT:     -11.2      1.622      2.071
REMARK SMILES CCC[NH2+]CC(=O)N1[C@@H](C(=O)OCCOC(=O)c2ccc(-c3c4nc(c(-c5cccc(S(=O)(=O)[O-])c5F)c5ccc([nH]5)c(-c5cccc(S(=O)(=O)[O-])c5F)c5nc(c(-c6cccc(S(=O)(=O)[O-])c6F)c6ccc3[nH]6)C=C5)C=C4)cc2)CC[C@@H]2CCCC[C@@H]21
REMARK SMILES IDX 13 1 12 2 10 3 11 4 9 5 8 6 88 7 81 8 83 9 87 10 82 11 84 12
REMARK SMILES IDX 86 13 85 14 6 15 7 16 5 17 4 18 3 21 2 22 1 23 14 24 15 25
REMARK SMILES IDX 16 26 17 27 18 28 19 29 80 30 20 31 79 32 21 33 22 34 23 35
REMARK SMILES IDX 73 36 24 37 78 38 72 39 74 40 25 41 77 42 71 43 70 44 26 46
REMARK SMILES IDX 58 47 38 48 57 49 39 50 42 51 56 52 75 53 40 54 41 55 55 57
REMARK SMILES IDX 76 58 43 59 27 60 28 61 36 62 29 63 31 64 37 65 30 66 32 67
REMARK SMILES IDX 33 68 34 69 35 70 59 71 60 72 68 73 61 74 63 75 69 76 62 77
REMARK SMILES IDX 64 78 65 79 66 80 67 81 44 82 45 83 53 84 46 85 48 86 54 87
REMARK SMILES IDX 47 88 49 89 50 90 51 91 52 92
REMARK H PARENT 4 19 4 20 74 45 42 56
REMARK Flexibility Score: inf
ROOT
ATOM      1  C   UNL A   1      35.833  21.272  25.938  1.00  0.00     0.274 C 
ENDROOT
BRANCH   1   2
ATOM      2  O   UNL A   1      35.401  22.629  25.642  1.00  0.00    -0.461 OA
BRANCH   2   3
ATOM      3  C   UNL A   1      34.589  23.167  26.580  1.00  0.00     0.328 C 
ATOM      4  O   UNL A   1      34.395  22.613  27.663  1.00  0.00    -0.250 OA
BRANCH   3   5
ATOM      5  C   UNL A   1      33.746  24.391  26.128  1.00  0.00     0.195 C 
ATOM      6  N   UNL A   1      32.276  24.422  25.922  1.00  0.00    -0.321 N 
ATOM      7  C   UNL A   1      31.675  25.582  25.207  1.00  0.00     0.089 C 
ATOM      8  C   UNL A   1      34.476  24.816  24.833  1.00  0.00     0.037 C 
ATOM      9  C   UNL A   1      32.451  25.900  23.917  1.00  0.00     0.012 C 
ATOM     10  C   UNL A   1      31.522  26.808  26.130  1.00  0.00     0.025 C 
ATOM     11  C   UNL A   1      33.936  26.075  24.218  1.00  0.00     0.008 C 
ATOM     12  C   UNL A   1      31.901  27.142  23.219  1.00  0.00     0.006 C 
ATOM     13  C   UNL A   1      31.401  28.190  25.469  1.00  0.00     0.002 C 
ATOM     14  C   UNL A   1      32.038  28.375  24.097  1.00  0.00     0.000 C 
BRANCH   6  15
ATOM     15  C   UNL A   1      31.434  23.447  26.422  1.00  0.00     0.278 C 
ATOM     16  O   UNL A   1      31.179  23.405  27.627  1.00  0.00    -0.268 OA
BRANCH  15  17
ATOM     17  C   UNL A   1      30.970  22.343  25.455  1.00  0.00     0.362 C 
BRANCH  17  18
ATOM     18  N   UNL A   1      31.900  21.207  25.395  1.00  0.00    -0.338 N 
ATOM     19  H   UNL A   1      32.585  21.310  26.143  1.00  0.00     0.346 HD
ATOM     20  H   UNL A   1      31.344  20.359  25.493  1.00  0.00     0.346 HD
BRANCH  18  21
ATOM     21  C   UNL A   1      32.616  21.105  24.124  1.00  0.00     0.260 C 
BRANCH  21  22
ATOM     22  C   UNL A   1      31.992  21.997  23.043  1.00  0.00     0.058 C 
ATOM     23  C   UNL A   1      32.973  22.784  22.193  1.00  0.00     0.010 C 
ENDBRANCH  21  22
ENDBRANCH  18  21
ENDBRANCH  17  18
ENDBRANCH  15  17
ENDBRANCH   6  15
ENDBRANCH   3   5
ENDBRANCH   2   3
ENDBRANCH   1   2
BRANCH   1  24
ATOM     24  C   UNL A   1      36.914  20.697  24.991  1.00  0.00     0.275 C 
BRANCH  24  25
ATOM     25  O   UNL A   1      38.046  21.583  24.955  1.00  0.00    -0.458 OA
BRANCH  25  26
ATOM     26  C   UNL A   1      39.046  21.324  25.831  1.00  0.00     0.338 C 
ATOM     27  O   UNL A   1      39.563  20.252  26.070  1.00  0.00    -0.246 OA
BRANCH  26  28
ATOM     28  C   UNL A   1      39.411  22.592  26.500  1.00  0.00     0.060 A 
ATOM     29  C   UNL A   1      38.699  23.764  26.225  1.00  0.00     0.016 A 
ATOM     30  C   UNL A   1      40.519  22.630  27.347  1.00  0.00     0.016 A 
ATOM     31  C   UNL A   1      39.115  24.986  26.770  1.00  0.00     0.010 A 
ATOM     32  C   UNL A   1      40.926  23.850  27.901  1.00  0.00     0.010 A 
ATOM     33  C   UNL A   1      40.255  25.046  27.583  1.00  0.00    -0.014 A 
BRANCH  33  34
ATOM     34  C   UNL A   1      40.885  26.359  27.910  1.00  0.00     0.031 A 
ATOM     35  C   UNL A   1      42.330  26.576  27.525  1.00  0.00     0.074 A 
ATOM     36  C   UNL A   1      40.222  27.349  28.538  1.00  0.00     0.049 A 
ATOM     37  N   UNL A   1      43.105  27.607  27.746  1.00  0.00    -0.248 NA
ATOM     38  C   UNL A   1      42.984  25.477  26.794  1.00  0.00     0.031 C 
ATOM     39  C   UNL A   1      38.826  27.305  28.965  1.00  0.00     0.029 A 
ATOM     40  N   UNL A   1      40.657  28.590  28.946  1.00  0.00    -0.354 N 
ATOM     41  C   UNL A   1      44.342  27.274  27.205  1.00  0.00     0.074 A 
ATOM     42  C   UNL A   1      44.220  25.937  26.665  1.00  0.00     0.031 C 
ATOM     43  C   UNL A   1      38.526  28.456  29.595  1.00  0.00     0.029 A 
ATOM     44  C   UNL A   1      39.712  29.313  29.637  1.00  0.00     0.049 A 
ATOM     45  H   UNL A   1      41.563  28.929  28.761  1.00  0.00     0.167 HD
ATOM     46  C   UNL A   1      45.476  28.013  27.136  1.00  0.00     0.034 A 
ATOM     47  C   UNL A   1      39.797  30.516  30.245  1.00  0.00     0.034 A 
ATOM     48  C   UNL A   1      45.620  29.345  27.653  1.00  0.00     0.049 A 
ATOM     49  C   UNL A   1      41.090  31.300  30.195  1.00  0.00     0.074 A 
ATOM     50  C   UNL A   1      46.735  30.167  27.611  1.00  0.00     0.029 A 
ATOM     51  N   UNL A   1      44.628  30.054  28.308  1.00  0.00    -0.354 N 
ATOM     52  N   UNL A   1      42.213  31.015  29.581  1.00  0.00    -0.248 NA
ATOM     53  C   UNL A   1      41.110  32.594  30.897  1.00  0.00     0.031 C 
ATOM     54  C   UNL A   1      46.419  31.369  28.256  1.00  0.00     0.029 A 
ATOM     55  C   UNL A   1      45.101  31.303  28.675  1.00  0.00     0.049 A 
ATOM     56  H   UNL A   1      43.719  29.720  28.486  1.00  0.00     0.167 HD
ATOM     57  C   UNL A   1      43.050  32.111  29.783  1.00  0.00     0.074 A 
ATOM     58  C   UNL A   1      42.297  33.076  30.556  1.00  0.00     0.031 C 
ATOM     59  C   UNL A   1      44.331  32.295  29.379  1.00  0.00     0.034 A 
BRANCH  46  60
ATOM     60  C   UNL A   1      46.656  27.394  26.433  1.00  0.00     0.023 A 
ATOM     61  C   UNL A   1      47.414  26.408  27.095  1.00  0.00     0.012 A 
ATOM     62  C   UNL A   1      46.988  27.755  25.114  1.00  0.00     0.148 A 
ATOM     63  C   UNL A   1      48.508  25.813  26.467  1.00  0.00     0.002 A 
ATOM     64  C   UNL A   1      48.052  27.127  24.478  1.00  0.00     0.091 A 
ATOM     65  F   UNL A   1      46.266  28.711  24.511  1.00  0.00    -0.205 F 
ATOM     66  C   UNL A   1      48.820  26.166  25.157  1.00  0.00     0.022 A 
BRANCH  64  67
ATOM     67  S   UNL A   1      48.489  27.454  22.767  1.00  0.00     0.127 S 
ATOM     68  O   UNL A   1      49.735  28.203  22.919  1.00  0.00    -0.237 OA
ATOM     69  O   UNL A   1      48.649  26.104  22.228  1.00  0.00    -0.237 OA
ATOM     70  O   UNL A   1      47.374  28.204  22.205  1.00  0.00    -0.744 OA
ENDBRANCH  64  67
ENDBRANCH  46  60
BRANCH  47  71
ATOM     71  C   UNL A   1      38.612  31.104  30.939  1.00  0.00     0.023 A 
ATOM     72  C   UNL A   1      38.474  30.935  32.331  1.00  0.00     0.012 A 
ATOM     73  C   UNL A   1      37.600  31.776  30.227  1.00  0.00     0.148 A 
ATOM     74  C   UNL A   1      37.330  31.379  32.994  1.00  0.00     0.002 A 
ATOM     75  C   UNL A   1      36.488  32.265  30.903  1.00  0.00     0.091 A 
ATOM     76  F   UNL A   1      37.736  31.907  28.900  1.00  0.00    -0.205 F 
ATOM     77  C   UNL A   1      36.340  32.050  32.282  1.00  0.00     0.022 A 
BRANCH  75  78
ATOM     78  S   UNL A   1      35.219  33.242  30.089  1.00  0.00     0.127 S 
ATOM     79  O   UNL A   1      34.468  32.216  29.369  1.00  0.00    -0.237 OA
ATOM     80  O   UNL A   1      34.517  33.834  31.229  1.00  0.00    -0.237 OA
ATOM     81  O   UNL A   1      35.936  34.202  29.261  1.00  0.00    -0.744 OA
ENDBRANCH  75  78
ENDBRANCH  47  71
BRANCH  59  82
ATOM     82  C   UNL A   1      45.000  33.610  29.705  1.00  0.00     0.023 A 
ATOM     83  C   UNL A   1      45.725  33.754  30.905  1.00  0.00     0.012 A 
ATOM     84  C   UNL A   1      44.964  34.683  28.791  1.00  0.00     0.148 A 
ATOM     85  C   UNL A   1      46.367  34.955  31.208  1.00  0.00     0.002 A 
ATOM     86  C   UNL A   1      45.647  35.861  29.079  1.00  0.00     0.091 A 
ATOM     87  F   UNL A   1      44.257  34.541  27.662  1.00  0.00    -0.205 F 
ATOM     88  C   UNL A   1      46.337  36.004  30.292  1.00  0.00     0.022 A 
BRANCH  86  89
ATOM     89  S   UNL A   1      45.740  37.226  27.912  1.00  0.00     0.127 S 
ATOM     90  O   UNL A   1      46.527  36.639  26.828  1.00  0.00    -0.237 OA
ATOM     91  O   UNL A   1      44.332  37.458  27.587  1.00  0.00    -0.237 OA
ATOM     92  O   UNL A   1      46.378  38.320  28.632  1.00  0.00    -0.744 OA
ENDBRANCH  86  89
ENDBRANCH  59  82
ENDBRANCH  33  34
ENDBRANCH  26  28
ENDBRANCH  25  26
ENDBRANCH  24  25
ENDBRANCH   1  24
TORSDOF 19
ENDMDL
MODEL 3
REMARK VINA RESULT:     -10.9      1.669      7.985
REMARK SMILES CCC[NH2+]CC(=O)N1[C@@H](C(=O)OCCOC(=O)c2ccc(-c3c4nc(c(-c5cccc(S(=O)(=O)[O-])c5F)c5ccc([nH]5)c(-c5cccc(S(=O)(=O)[O-])c5F)c5nc(c(-c6cccc(S(=O)(=O)[O-])c6F)c6ccc3[nH]6)C=C5)C=C4)cc2)CC[C@@H]2CCCC[C@@H]21
REMARK SMILES IDX 13 1 12 2 10 3 11 4 9 5 8 6 88 7 81 8 83 9 87 10 82 11 84 12
REMARK SMILES IDX 86 13 85 14 6 15 7 16 5 17 4 18 3 21 2 22 1 23 14 24 15 25
REMARK SMILES IDX 16 26 17 27 18 28 19 29 80 30 20 31 79 32 21 33 22 34 23 35
REMARK SMILES IDX 73 36 24 37 78 38 72 39 74 40 25 41 77 42 71 43 70 44 26 46
REMARK SMILES IDX 58 47 38 48 57 49 39 50 42 51 56 52 75 53 40 54 41 55 55 57
REMARK SMILES IDX 76 58 43 59 27 60 28 61 36 62 29 63 31 64 37 65 30 66 32 67
REMARK SMILES IDX 33 68 34 69 35 70 59 71 60 72 68 73 61 74 63 75 69 76 62 77
REMARK SMILES IDX 64 78 65 79 66 80 67 81 44 82 45 83 53 84 46 85 48 86 54 87
REMARK SMILES IDX 47 88 49 89 50 90 51 91 52 92
REMARK H PARENT 4 19 4 20 74 45 42 56
REMARK Flexibility Score: inf
ROOT
ATOM      1  C   UNL A   1      35.578  20.873  25.013  1.00  0.00     0.274 C 
ENDROOT
BRANCH   1   2
ATOM      2  O   UNL A   1      34.449  19.995  24.748  1.00  0.00    -0.461 OA
BRANCH   2   3
ATOM      3  C   UNL A   1      33.252  20.625  24.729  1.00  0.00     0.328 C 
ATOM      4  O   UNL A   1      32.197  20.016  24.907  1.00  0.00    -0.250 OA
BRANCH   3   5
ATOM      5  C   UNL A   1      33.269  22.102  24.245  1.00  0.00     0.195 C 
ATOM      6  N   UNL A   1      32.634  23.259  24.924  1.00  0.00    -0.321 N 
ATOM      7  C   UNL A   1      32.494  24.541  24.177  1.00  0.00     0.089 C 
ATOM      8  C   UNL A   1      32.732  21.967  22.802  1.00  0.00     0.037 C 
ATOM      9  C   UNL A   1      31.918  24.303  22.771  1.00  0.00     0.012 C 
ATOM     10  C   UNL A   1      33.813  25.340  24.157  1.00  0.00     0.025 C 
ATOM     11  C   UNL A   1      32.743  23.255  22.029  1.00  0.00     0.008 C 
ATOM     12  C   UNL A   1      31.853  25.596  21.962  1.00  0.00     0.006 C 
ATOM     13  C   UNL A   1      33.993  26.394  23.053  1.00  0.00     0.002 C 
ATOM     14  C   UNL A   1      33.237  26.185  21.747  1.00  0.00     0.000 C 
BRANCH   6  15
ATOM     15  C   UNL A   1      32.223  23.215  26.242  1.00  0.00     0.278 C 
ATOM     16  O   UNL A   1      33.054  23.232  27.153  1.00  0.00    -0.268 OA
BRANCH  15  17
ATOM     17  C   UNL A   1      30.726  22.985  26.514  1.00  0.00     0.362 C 
BRANCH  17  18
ATOM     18  N   UNL A   1      29.877  24.067  25.997  1.00  0.00    -0.338 N 
ATOM     19  H   UNL A   1      29.974  24.095  24.982  1.00  0.00     0.346 HD
ATOM     20  H   UNL A   1      28.922  23.864  26.290  1.00  0.00     0.346 HD
BRANCH  18  21
ATOM     21  C   UNL A   1      30.218  25.384  26.530  1.00  0.00     0.260 C 
BRANCH  21  22
ATOM     22  C   UNL A   1      30.169  26.470  25.446  1.00  0.00     0.058 C 
ATOM     23  C   UNL A   1      29.137  26.261  24.354  1.00  0.00     0.010 C 
ENDBRANCH  21  22
ENDBRANCH  18  21
ENDBRANCH  17  18
ENDBRANCH  15  17
ENDBRANCH   6  15
ENDBRANCH   3   5
ENDBRANCH   2   3
ENDBRANCH   1   2
BRANCH   1  24
ATOM     24  C   UNL A   1      36.968  20.191  25.002  1.00  0.00     0.275 C 
BRANCH  24  25
ATOM     25  O   UNL A   1      37.998  21.191  25.072  1.00  0.00    -0.458 OA
BRANCH  25  26
ATOM     26  C   UNL A   1      39.082  20.891  25.828  1.00  0.00     0.338 C 
ATOM     27  O   UNL A   1      39.588  19.800  25.998  1.00  0.00    -0.246 OA
BRANCH  26  28
ATOM     28  C   UNL A   1      39.561  22.139  26.461  1.00  0.00     0.060 A 
ATOM     29  C   UNL A   1      38.932  23.357  26.182  1.00  0.00     0.016 A 
ATOM     30  C   UNL A   1      40.693  22.108  27.276  1.00  0.00     0.016 A 
ATOM     31  C   UNL A   1      39.454  24.553  26.691  1.00  0.00     0.010 A 
ATOM     32  C   UNL A   1      41.207  23.303  27.795  1.00  0.00     0.010 A 
ATOM     33  C   UNL A   1      40.619  24.541  27.472  1.00  0.00    -0.014 A 
BRANCH  33  34
ATOM     34  C   UNL A   1      41.355  25.807  27.756  1.00  0.00     0.031 A 
ATOM     35  C   UNL A   1      40.627  26.909  28.490  1.00  0.00     0.074 A 
ATOM     36  C   UNL A   1      42.633  26.008  27.379  1.00  0.00     0.049 A 
ATOM     37  N   UNL A   1      41.036  28.112  28.805  1.00  0.00    -0.248 NA
ATOM     38  C   UNL A   1      39.251  26.610  28.922  1.00  0.00     0.031 C 
ATOM     39  C   UNL A   1      43.477  25.045  26.676  1.00  0.00     0.029 A 
ATOM     40  N   UNL A   1      43.437  27.116  27.523  1.00  0.00    -0.354 N 
ATOM     41  C   UNL A   1      39.965  28.720  29.450  1.00  0.00     0.074 A 
ATOM     42  C   UNL A   1      38.880  27.761  29.460  1.00  0.00     0.031 C 
ATOM     43  C   UNL A   1      44.673  25.613  26.430  1.00  0.00     0.029 A 
ATOM     44  C   UNL A   1      44.676  26.986  26.937  1.00  0.00     0.049 A 
ATOM     45  H   UNL A   1      43.152  27.929  28.001  1.00  0.00     0.167 HD
ATOM     46  C   UNL A   1      39.885  29.953  30.007  1.00  0.00     0.034 A 
ATOM     47  C   UNL A   1      45.686  27.873  26.811  1.00  0.00     0.034 A 
ATOM     48  C   UNL A   1      40.950  30.917  30.021  1.00  0.00     0.049 A 
ATOM     49  C   UNL A   1      45.553  29.260  27.400  1.00  0.00     0.074 A 
ATOM     50  C   UNL A   1      40.953  32.186  30.577  1.00  0.00     0.029 A 
ATOM     51  N   UNL A   1      42.198  30.729  29.453  1.00  0.00    -0.354 N 
ATOM     52  N   UNL A   1      44.574  29.776  28.103  1.00  0.00    -0.248 NA
ATOM     53  C   UNL A   1      46.689  30.177  27.205  1.00  0.00     0.031 C 
ATOM     54  C   UNL A   1      42.200  32.771  30.332  1.00  0.00     0.029 A 
ATOM     55  C   UNL A   1      42.980  31.857  29.645  1.00  0.00     0.049 A 
ATOM     56  H   UNL A   1      42.488  29.915  28.983  1.00  0.00     0.167 HD
ATOM     57  C   UNL A   1      44.997  31.052  28.472  1.00  0.00     0.074 A 
ATOM     58  C   UNL A   1      46.329  31.224  27.934  1.00  0.00     0.031 C 
ATOM     59  C   UNL A   1      44.334  32.002  29.177  1.00  0.00     0.034 A 
BRANCH  46  60
ATOM     60  C   UNL A   1      38.593  30.315  30.689  1.00  0.00     0.023 A 
ATOM     61  C   UNL A   1      38.376  29.904  32.020  1.00  0.00     0.012 A 
ATOM     62  C   UNL A   1      37.617  31.091  30.035  1.00  0.00     0.148 A 
ATOM     63  C   UNL A   1      37.191  30.230  32.679  1.00  0.00     0.002 A 
ATOM     64  C   UNL A   1      36.458  31.450  30.714  1.00  0.00     0.091 A 
ATOM     65  F   UNL A   1      37.835  31.453  28.763  1.00  0.00    -0.205 F 
ATOM     66  C   UNL A   1      36.238  31.010  32.029  1.00  0.00     0.022 A 
BRANCH  64  67
ATOM     67  S   UNL A   1      35.205  32.515  29.993  1.00  0.00     0.127 S 
ATOM     68  O   UNL A   1      34.611  31.634  28.989  1.00  0.00    -0.237 OA
ATOM     69  O   UNL A   1      34.345  32.797  31.142  1.00  0.00    -0.237 OA
ATOM     70  O   UNL A   1      35.915  33.672  29.467  1.00  0.00    -0.744 OA
ENDBRANCH  64  67
ENDBRANCH  46  60
BRANCH  47  71
ATOM     71  C   UNL A   1      46.956  27.489  26.125  1.00  0.00     0.023 A 
ATOM     72  C   UNL A   1      48.016  26.956  26.885  1.00  0.00     0.012 A 
ATOM     73  C   UNL A   1      47.141  27.699  24.745  1.00  0.00     0.148 A 
ATOM     74  C   UNL A   1      49.251  26.684  26.295  1.00  0.00     0.002 A 
ATOM     75  C   UNL A   1      48.356  27.374  24.153  1.00  0.00     0.091 A 
ATOM     76  F   UNL A   1      46.130  28.229  24.042  1.00  0.00    -0.205 F 
ATOM     77  C   UNL A   1      49.419  26.887  24.929  1.00  0.00     0.022 A 
BRANCH  75  78
ATOM     78  S   UNL A   1      48.626  27.494  22.381  1.00  0.00     0.127 S 
ATOM     79  O   UNL A   1      47.485  28.301  21.958  1.00  0.00    -0.237 OA
ATOM     80  O   UNL A   1      49.921  28.174  22.320  1.00  0.00    -0.237 OA
ATOM     81  O   UNL A   1      48.647  26.120  21.896  1.00  0.00    -0.744 OA
ENDBRANCH  75  78
ENDBRANCH  47  71
BRANCH  59  82
ATOM     82  C   UNL A   1      45.049  33.300  29.471  1.00  0.00     0.023 A 
ATOM     83  C   UNL A   1      45.881  33.408  30.603  1.00  0.00     0.012 A 
ATOM     84  C   UNL A   1      44.946  34.395  28.588  1.00  0.00     0.148 A 
ATOM     85  C   UNL A   1      46.565  34.594  30.873  1.00  0.00     0.002 A 
ATOM     86  C   UNL A   1      45.669  35.557  28.838  1.00  0.00     0.091 A 
ATOM     87  F   UNL A   1      44.138  34.287  27.524  1.00  0.00    -0.205 F 
ATOM     88  C   UNL A   1      46.468  35.664  29.987  1.00  0.00     0.022 A 
BRANCH  86  89
ATOM     89  S   UNL A   1      45.676  36.947  27.698  1.00  0.00     0.127 S 
ATOM     90  O   UNL A   1      46.553  37.894  28.386  1.00  0.00    -0.237 OA
ATOM     91  O   UNL A   1      46.248  36.357  26.486  1.00  0.00    -0.237 OA
ATOM     92  O   UNL A   1      44.285  37.359  27.566  1.00  0.00    -0.744 OA
ENDBRANCH  86  89
ENDBRANCH  59  82
ENDBRANCH  33  34
ENDBRANCH  26  28
ENDBRANCH  25  26
ENDBRANCH  24  25
ENDBRANCH   1  24
TORSDOF 19
ENDMDL
