MODEL 1
REMARK VINA RESULT:     -14.1      0.000      0.000
REMARK SMILES Cc1ccc(S(=O)(=O)n2cc(C(=O)C(=O)N[C@@H](Cc3cnc[nH]3)C(=O)OCCOC(=O)c3ccc(-c4c5nc(c(-c6cccc(S(=O)(=O)[O-])c6F)c6ccc([nH]6)c(-c6cccc(S(=O)(=O)[O-])c6F)c6nc(c(-c7cccc(S(=O)(=O)[O-])c7F)c7ccc4[nH]7)C=C6)C=C5)cc3)c3ccccc32)cc1
REMARK SMILES IDX 27 1 26 2 24 3 25 4 17 5 16 6 14 7 15 8 12 10 13 11 11 12
REMARK SMILES IDX 9 13 10 14 100 15 95 16 99 17 96 18 98 19 97 20 6 21 7 22
REMARK SMILES IDX 8 23 5 24 1 25 2 26 3 27 102 28 4 29 101 30 18 31 19 32
REMARK SMILES IDX 20 33 23 34 21 35 22 36 28 38 29 39 30 40 31 41 32 42 33 43
REMARK SMILES IDX 94 44 34 45 93 46 35 47 36 48 37 49 87 50 38 51 92 52 86 53
REMARK SMILES IDX 88 54 39 55 91 56 85 57 84 58 40 60 72 61 52 62 71 63 53 64
REMARK SMILES IDX 56 65 70 66 89 67 54 68 55 69 69 71 90 72 57 73 41 74 42 75
REMARK SMILES IDX 50 76 43 77 45 78 51 79 44 80 46 81 47 82 48 83 49 84 73 85
REMARK SMILES IDX 74 86 82 87 75 88 77 89 83 90 76 91 78 92 79 93 80 94 81 95
REMARK SMILES IDX 58 96 59 97 67 98 60 99 62 100 68 101 61 102 63 103 64 104
REMARK SMILES IDX 65 105 66 106
REMARK H PARENT 16 9 23 37 88 59 56 70
REMARK Flexibility Score: inf
ROOT
ATOM      1  C   UNL A   1      33.349  30.229  27.339  1.00  0.00     0.274 C 
ENDROOT
BRANCH   1   2
ATOM      2  O   UNL A   1      32.731  30.276  26.046  1.00  0.00    -0.461 OA
BRANCH   2   3
ATOM      3  C   UNL A   1      31.826  29.184  25.687  1.00  0.00     0.329 C 
ATOM      4  O   UNL A   1      31.640  28.588  26.783  1.00  0.00    -0.250 OA
BRANCH   3   5
ATOM      5  C   UNL A   1      30.934  28.953  23.685  1.00  0.00     0.198 C 
BRANCH   5   6
ATOM      6  N   UNL A   1      31.262  27.774  22.507  1.00  0.00    -0.335 N 
ATOM      7  C   UNL A   1      32.218  26.799  22.295  1.00  0.00     0.293 C 
ATOM      8  O   UNL A   1      32.161  26.192  21.225  1.00  0.00    -0.265 OA
ATOM      9  H   UNL A   1      30.596  27.791  21.784  1.00  0.00     0.164 HD
BRANCH   7  10
ATOM     10  C   UNL A   1      33.333  26.444  23.310  1.00  0.00     0.252 C 
ATOM     11  O   UNL A   1      34.305  27.188  23.377  1.00  0.00    -0.283 OA
BRANCH  10  12
ATOM     12  C   UNL A   1      33.292  25.181  24.097  1.00  0.00     0.054 A 
ATOM     13  N   UNL A   1      33.935  23.307  25.150  1.00  0.00    -0.240 N 
ATOM     14  C   UNL A   1      34.305  24.241  24.217  1.00  0.00     0.117 A 
ATOM     15  C   UNL A   1      32.674  23.562  25.639  1.00  0.00     0.065 A 
ATOM     16  C   UNL A   1      32.221  24.699  24.947  1.00  0.00     0.012 A 
ATOM     17  C   UNL A   1      31.889  22.905  26.607  1.00  0.00     0.028 A 
ATOM     18  C   UNL A   1      30.904  25.143  25.208  1.00  0.00     0.011 A 
ATOM     19  C   UNL A   1      30.591  23.365  26.831  1.00  0.00     0.002 A 
ATOM     20  C   UNL A   1      30.100  24.461  26.131  1.00  0.00     0.001 A 
BRANCH  13  21
ATOM     21  S   UNL A   1      34.959  22.055  25.691  1.00  0.00     0.268 S 
ATOM     22  O   UNL A   1      34.708  21.933  27.116  1.00  0.00    -0.201 OA
ATOM     23  O   UNL A   1      36.282  22.356  25.175  1.00  0.00    -0.201 OA
BRANCH  21  24
ATOM     24  C   UNL A   1      34.466  20.518  24.947  1.00  0.00     0.088 A 
ATOM     25  C   UNL A   1      33.466  16.615  23.430  1.00  0.00     0.044 C 
ATOM     26  C   UNL A   1      33.815  17.981  23.943  1.00  0.00    -0.051 A 
ATOM     27  C   UNL A   1      35.093  18.226  24.458  1.00  0.00     0.005 A 
ATOM     28  C   UNL A   1      32.880  19.025  23.911  1.00  0.00     0.005 A 
ATOM     29  C   UNL A   1      35.416  19.486  24.964  1.00  0.00     0.022 A 
ATOM     30  C   UNL A   1      33.206  20.296  24.397  1.00  0.00     0.022 A 
ENDBRANCH  21  24
ENDBRANCH  13  21
ENDBRANCH  10  12
ENDBRANCH   7  10
ENDBRANCH   5   6
BRANCH   5  31
ATOM     31  C   UNL A   1      29.271  29.186  23.061  1.00  0.00     0.092 C 
BRANCH  31  32
ATOM     32  C   UNL A   1      28.803  30.602  22.796  1.00  0.00     0.037 A 
ATOM     33  C   UNL A   1      27.649  31.288  23.108  1.00  0.00     0.134 A 
ATOM     34  N   UNL A   1      29.550  31.537  22.104  1.00  0.00    -0.348 N 
ATOM     35  N   UNL A   1      27.803  32.634  22.889  1.00  0.00    -0.245 NA
ATOM     36  C   UNL A   1      28.967  32.756  22.295  1.00  0.00     0.196 A 
ATOM     37  H   UNL A   1      30.357  31.356  21.570  1.00  0.00     0.167 HD
ENDBRANCH  31  32
ENDBRANCH   5  31
ENDBRANCH   3   5
ENDBRANCH   2   3
ENDBRANCH   1   2
BRANCH   1  38
ATOM     38  C   UNL A   1      33.803  31.637  27.748  1.00  0.00     0.275 C 
BRANCH  38  39
ATOM     39  O   UNL A   1      35.144  32.021  27.335  1.00  0.00    -0.458 OA
BRANCH  39  40
ATOM     40  C   UNL A   1      36.258  31.768  28.084  1.00  0.00     0.338 C 
ATOM     41  O   UNL A   1      36.939  32.635  28.607  1.00  0.00    -0.246 OA
BRANCH  40  42
ATOM     42  C   UNL A   1      36.768  30.396  27.918  1.00  0.00     0.060 A 
ATOM     43  C   UNL A   1      36.634  29.322  29.360  1.00  0.00     0.016 A 
ATOM     44  C   UNL A   1      38.079  30.124  26.714  1.00  0.00     0.016 A 
ATOM     45  C   UNL A   1      37.963  28.135  29.731  1.00  0.00     0.010 A 
ATOM     46  C   UNL A   1      39.387  28.936  27.096  1.00  0.00     0.010 A 
ATOM     47  C   UNL A   1      39.357  28.000  28.638  1.00  0.00    -0.014 A 
BRANCH  47  48
ATOM     48  C   UNL A   1      40.720  27.657  29.060  1.00  0.00     0.031 A 
ATOM     49  C   UNL A   1      41.288  26.416  28.520  1.00  0.00     0.074 A 
ATOM     50  C   UNL A   1      41.536  28.645  29.483  1.00  0.00     0.049 A 
ATOM     51  N   UNL A   1      42.279  26.369  27.695  1.00  0.00    -0.248 NA
ATOM     52  C   UNL A   1      40.647  25.126  28.793  1.00  0.00     0.031 C 
ATOM     53  C   UNL A   1      42.986  28.732  29.360  1.00  0.00     0.029 A 
ATOM     54  N   UNL A   1      41.231  29.748  30.254  1.00  0.00    -0.354 N 
ATOM     55  C   UNL A   1      42.512  25.038  27.446  1.00  0.00     0.074 A 
ATOM     56  C   UNL A   1      41.384  24.316  28.029  1.00  0.00     0.031 C 
ATOM     57  C   UNL A   1      43.456  29.661  30.209  1.00  0.00     0.029 A 
ATOM     58  C   UNL A   1      42.342  30.105  31.027  1.00  0.00     0.049 A 
ATOM     59  H   UNL A   1      40.364  30.214  30.260  1.00  0.00     0.167 HD
ATOM     60  C   UNL A   1      43.757  24.510  27.544  1.00  0.00     0.034 A 
ATOM     61  C   UNL A   1      42.271  29.949  32.388  1.00  0.00     0.034 A 
ATOM     62  C   UNL A   1      44.579  25.166  28.542  1.00  0.00     0.049 A 
ATOM     63  C   UNL A   1      42.998  28.692  32.865  1.00  0.00     0.074 A 
ATOM     64  C   UNL A   1      45.469  26.222  28.559  1.00  0.00     0.029 A 
ATOM     65  N   UNL A   1      44.321  24.861  29.866  1.00  0.00    -0.354 N 
ATOM     66  N   UNL A   1      43.689  27.896  32.090  1.00  0.00    -0.248 NA
ATOM     67  C   UNL A   1      42.948  28.199  34.240  1.00  0.00     0.031 C 
ATOM     68  C   UNL A   1      45.641  26.618  29.926  1.00  0.00     0.029 A 
ATOM     69  C   UNL A   1      44.905  25.765  30.736  1.00  0.00     0.049 A 
ATOM     70  H   UNL A   1      43.785  24.090  30.156  1.00  0.00     0.167 HD
ATOM     71  C   UNL A   1      44.020  26.756  32.767  1.00  0.00     0.074 A 
ATOM     72  C   UNL A   1      43.543  27.001  34.120  1.00  0.00     0.031 C 
ATOM     73  C   UNL A   1      44.619  25.676  32.172  1.00  0.00     0.034 A 
BRANCH  60  74
ATOM     74  C   UNL A   1      44.190  23.552  26.471  1.00  0.00     0.023 A 
ATOM     75  C   UNL A   1      44.939  24.063  25.397  1.00  0.00     0.012 A 
ATOM     76  C   UNL A   1      43.801  22.184  26.408  1.00  0.00     0.148 A 
ATOM     77  C   UNL A   1      45.249  23.277  24.283  1.00  0.00     0.002 A 
ATOM     78  C   UNL A   1      44.129  21.398  25.304  1.00  0.00     0.091 A 
ATOM     79  F   UNL A   1      43.065  21.663  27.403  1.00  0.00    -0.205 F 
ATOM     80  C   UNL A   1      44.841  21.948  24.233  1.00  0.00     0.022 A 
BRANCH  78  81
ATOM     81  S   UNL A   1      43.656  19.667  25.152  1.00  0.00     0.127 S 
ATOM     82  O   UNL A   1      44.072  19.363  23.782  1.00  0.00    -0.237 OA
ATOM     83  O   UNL A   1      44.465  19.028  26.190  1.00  0.00    -0.237 OA
ATOM     84  O   UNL A   1      42.219  19.623  25.386  1.00  0.00    -0.744 OA
ENDBRANCH  78  81
ENDBRANCH  60  74
BRANCH  61  85
ATOM     85  C   UNL A   1      40.956  30.465  32.901  1.00  0.00     0.023 A 
ATOM     86  C   UNL A   1      39.853  29.586  32.734  1.00  0.00     0.012 A 
ATOM     87  C   UNL A   1      40.875  31.461  33.886  1.00  0.00     0.148 A 
ATOM     88  C   UNL A   1      38.842  29.526  33.693  1.00  0.00     0.002 A 
ATOM     89  C   UNL A   1      39.819  31.443  34.796  1.00  0.00     0.091 A 
ATOM     90  F   UNL A   1      41.862  32.362  33.984  1.00  0.00    -0.205 F 
ATOM     91  C   UNL A   1      38.852  30.427  34.751  1.00  0.00     0.022 A 
BRANCH  89  92
ATOM     92  S   UNL A   1      39.750  32.633  36.146  1.00  0.00     0.127 S 
ATOM     93  O   UNL A   1      40.324  33.821  35.522  1.00  0.00    -0.237 OA
ATOM     94  O   UNL A   1      38.317  32.723  36.431  1.00  0.00    -0.237 OA
ATOM     95  O   UNL A   1      40.533  32.018  37.211  1.00  0.00    -0.744 OA
ENDBRANCH  89  92
ENDBRANCH  61  85
BRANCH  73  96
ATOM     96  C   UNL A   1      45.011  24.447  32.968  1.00  0.00     0.023 A 
ATOM     97  C   UNL A   1      44.056  23.442  33.227  1.00  0.00     0.012 A 
ATOM     98  C   UNL A   1      46.276  24.297  33.582  1.00  0.00     0.148 A 
ATOM     99  C   UNL A   1      44.369  22.301  33.971  1.00  0.00     0.002 A 
ATOM    100  C   UNL A   1      46.537  23.230  34.434  1.00  0.00     0.091 A 
ATOM    101  F   UNL A   1      47.260  25.158  33.296  1.00  0.00    -0.205 F 
ATOM    102  C   UNL A   1      45.605  22.204  34.593  1.00  0.00     0.022 A 
BRANCH 100 103
ATOM    103  S   UNL A   1      47.995  23.185  35.485  1.00  0.00     0.127 S 
ATOM    104  O   UNL A   1      48.982  22.568  34.595  1.00  0.00    -0.237 OA
ATOM    105  O   UNL A   1      48.217  24.603  35.756  1.00  0.00    -0.237 OA
ATOM    106  O   UNL A   1      47.628  22.368  36.634  1.00  0.00    -0.744 OA
ENDBRANCH 100 103
ENDBRANCH  73  96
ENDBRANCH  47  48
ENDBRANCH  40  42
ENDBRANCH  39  40
ENDBRANCH  38  39
ENDBRANCH   1  38
TORSDOF 21
ENDMDL
MODEL 2
REMARK VINA RESULT:     -13.9      3.586      7.460
REMARK SMILES Cc1ccc(S(=O)(=O)n2cc(C(=O)C(=O)N[C@@H](Cc3cnc[nH]3)C(=O)OCCOC(=O)c3ccc(-c4c5nc(c(-c6cccc(S(=O)(=O)[O-])c6F)c6ccc([nH]6)c(-c6cccc(S(=O)(=O)[O-])c6F)c6nc(c(-c7cccc(S(=O)(=O)[O-])c7F)c7ccc4[nH]7)C=C6)C=C5)cc3)c3ccccc32)cc1
REMARK SMILES IDX 27 1 26 2 24 3 25 4 17 5 16 6 14 7 15 8 12 10 13 11 11 12
REMARK SMILES IDX 9 13 10 14 100 15 95 16 99 17 96 18 98 19 97 20 6 21 7 22
REMARK SMILES IDX 8 23 5 24 1 25 2 26 3 27 102 28 4 29 101 30 18 31 19 32
REMARK SMILES IDX 20 33 23 34 21 35 22 36 28 38 29 39 30 40 31 41 32 42 33 43
REMARK SMILES IDX 94 44 34 45 93 46 35 47 36 48 37 49 87 50 38 51 92 52 86 53
REMARK SMILES IDX 88 54 39 55 91 56 85 57 84 58 40 60 72 61 52 62 71 63 53 64
REMARK SMILES IDX 56 65 70 66 89 67 54 68 55 69 69 71 90 72 57 73 41 74 42 75
REMARK SMILES IDX 50 76 43 77 45 78 51 79 44 80 46 81 47 82 48 83 49 84 73 85
REMARK SMILES IDX 74 86 82 87 75 88 77 89 83 90 76 91 78 92 79 93 80 94 81 95
REMARK SMILES IDX 58 96 59 97 67 98 60 99 62 100 68 101 61 102 63 103 64 104
REMARK SMILES IDX 65 105 66 106
REMARK H PARENT 16 9 23 37 88 59 56 70
REMARK Flexibility Score: inf
ROOT
ATOM      1  C   UNL A   1      37.380  21.360  24.544  1.00  0.00     0.274 C 
ENDROOT
BRANCH   1   2
ATOM      2  O   UNL A   1      36.771  22.630  24.274  1.00  0.00    -0.461 OA
BRANCH   2   3
ATOM      3  C   UNL A   1      35.358  22.637  23.896  1.00  0.00     0.329 C 
ATOM      4  O   UNL A   1      35.361  23.196  22.765  1.00  0.00    -0.250 OA
BRANCH   3   5
ATOM      5  C   UNL A   1      33.780  21.641  25.070  1.00  0.00     0.198 C 
BRANCH   5   6
ATOM      6  N   UNL A   1      32.735  22.314  26.228  1.00  0.00    -0.335 N 
ATOM      7  C   UNL A   1      31.823  23.351  26.281  1.00  0.00     0.293 C 
ATOM      8  O   UNL A   1      31.322  23.589  27.381  1.00  0.00    -0.265 OA
ATOM      9  H   UNL A   1      32.797  21.841  27.088  1.00  0.00     0.164 HD
BRANCH   7  10
ATOM     10  C   UNL A   1      31.412  24.208  25.058  1.00  0.00     0.252 C 
ATOM     11  O   UNL A   1      30.951  23.628  24.081  1.00  0.00    -0.283 OA
BRANCH  10  12
ATOM     12  C   UNL A   1      31.675  25.672  25.014  1.00  0.00     0.054 A 
ATOM     13  N   UNL A   1      31.876  27.819  25.637  1.00  0.00    -0.240 N 
ATOM     14  C   UNL A   1      31.320  26.611  25.972  1.00  0.00     0.117 A 
ATOM     15  C   UNL A   1      32.567  27.737  24.450  1.00  0.00     0.065 A 
ATOM     16  C   UNL A   1      32.403  26.414  24.004  1.00  0.00     0.012 A 
ATOM     17  C   UNL A   1      33.308  28.691  23.723  1.00  0.00     0.028 A 
ATOM     18  C   UNL A   1      32.961  26.070  22.751  1.00  0.00     0.011 A 
ATOM     19  C   UNL A   1      33.835  28.319  22.486  1.00  0.00     0.002 A 
ATOM     20  C   UNL A   1      33.653  27.030  22.000  1.00  0.00     0.001 A 
BRANCH  13  21
ATOM     21  S   UNL A   1      31.793  29.205  26.627  1.00  0.00     0.268 S 
ATOM     22  O   UNL A   1      31.102  28.783  27.832  1.00  0.00    -0.201 OA
ATOM     23  O   UNL A   1      31.279  30.275  25.791  1.00  0.00    -0.201 OA
BRANCH  21  24
ATOM     24  C   UNL A   1      33.432  29.688  27.114  1.00  0.00     0.088 A 
ATOM     25  C   UNL A   1      37.537  30.588  28.050  1.00  0.00     0.044 C 
ATOM     26  C   UNL A   1      36.102  30.278  27.739  1.00  0.00    -0.051 A 
ATOM     27  C   UNL A   1      35.699  28.950  27.562  1.00  0.00     0.005 A 
ATOM     28  C   UNL A   1      35.150  31.301  27.629  1.00  0.00     0.005 A 
ATOM     29  C   UNL A   1      34.372  28.655  27.244  1.00  0.00     0.022 A 
ATOM     30  C   UNL A   1      33.814  31.010  27.331  1.00  0.00     0.022 A 
ENDBRANCH  21  24
ENDBRANCH  13  21
ENDBRANCH  10  12
ENDBRANCH   7  10
ENDBRANCH   5   6
BRANCH   5  31
ATOM     31  C   UNL A   1      32.594  20.358  24.671  1.00  0.00     0.092 C 
BRANCH  31  32
ATOM     32  C   UNL A   1      33.115  18.954  24.449  1.00  0.00     0.037 A 
ATOM     33  C   UNL A   1      34.383  18.421  24.365  1.00  0.00     0.134 A 
ATOM     34  N   UNL A   1      32.297  17.856  24.262  1.00  0.00    -0.348 N 
ATOM     35  N   UNL A   1      34.346  17.050  24.425  1.00  0.00    -0.245 NA
ATOM     36  C   UNL A   1      33.072  16.737  24.376  1.00  0.00     0.196 A 
ATOM     37  H   UNL A   1      31.330  17.876  24.079  1.00  0.00     0.167 HD
ENDBRANCH  31  32
ENDBRANCH   5  31
ENDBRANCH   3   5
ENDBRANCH   2   3
ENDBRANCH   1   2
BRANCH   1  38
ATOM     38  C   UNL A   1      38.343  21.490  25.732  1.00  0.00     0.275 C 
BRANCH  38  39
ATOM     39  O   UNL A   1      38.432  22.807  26.342  1.00  0.00    -0.458 OA
BRANCH  39  40
ATOM     40  C   UNL A   1      39.587  23.309  26.872  1.00  0.00     0.338 C 
ATOM     41  O   UNL A   1      40.426  22.631  27.441  1.00  0.00    -0.246 OA
BRANCH  40  42
ATOM     42  C   UNL A   1      39.572  24.776  27.009  1.00  0.00     0.060 A 
ATOM     43  C   UNL A   1      40.803  25.673  26.045  1.00  0.00     0.016 A 
ATOM     44  C   UNL A   1      38.956  25.471  28.551  1.00  0.00     0.016 A 
ATOM     45  C   UNL A   1      41.606  27.146  26.751  1.00  0.00     0.010 A 
ATOM     46  C   UNL A   1      39.761  26.939  29.234  1.00  0.00     0.010 A 
ATOM     47  C   UNL A   1      41.130  27.726  28.362  1.00  0.00    -0.014 A 
BRANCH  47  48
ATOM     48  C   UNL A   1      42.030  28.393  29.309  1.00  0.00     0.031 A 
ATOM     49  C   UNL A   1      43.273  27.692  29.648  1.00  0.00     0.074 A 
ATOM     50  C   UNL A   1      41.953  29.735  29.441  1.00  0.00     0.049 A 
ATOM     51  N   UNL A   1      44.452  28.101  29.315  1.00  0.00    -0.248 NA
ATOM     52  C   UNL A   1      43.232  26.373  30.285  1.00  0.00     0.031 C 
ATOM     53  C   UNL A   1      43.022  30.671  29.766  1.00  0.00     0.029 A 
ATOM     54  N   UNL A   1      40.833  30.541  29.443  1.00  0.00    -0.354 N 
ATOM     55  C   UNL A   1      45.337  27.183  29.826  1.00  0.00     0.074 A 
ATOM     56  C   UNL A   1      44.530  26.056  30.287  1.00  0.00     0.031 C 
ATOM     57  C   UNL A   1      42.493  31.840  30.163  1.00  0.00     0.029 A 
ATOM     58  C   UNL A   1      41.056  31.656  30.259  1.00  0.00     0.049 A 
ATOM     59  H   UNL A   1      40.004  30.360  28.945  1.00  0.00     0.167 HD
ATOM     60  C   UNL A   1      46.410  27.571  30.560  1.00  0.00     0.034 A 
ATOM     61  C   UNL A   1      40.337  31.771  31.422  1.00  0.00     0.034 A 
ATOM     62  C   UNL A   1      46.172  28.781  31.324  1.00  0.00     0.049 A 
ATOM     63  C   UNL A   1      41.152  31.363  32.649  1.00  0.00     0.074 A 
ATOM     64  C   UNL A   1      46.338  30.136  31.117  1.00  0.00     0.029 A 
ATOM     65  N   UNL A   1      45.405  28.660  32.468  1.00  0.00    -0.354 N 
ATOM     66  N   UNL A   1      42.416  31.028  32.621  1.00  0.00    -0.248 NA
ATOM     67  C   UNL A   1      40.589  31.238  33.992  1.00  0.00     0.031 C 
ATOM     68  C   UNL A   1      45.549  30.822  32.097  1.00  0.00     0.029 A 
ATOM     69  C   UNL A   1      44.956  29.885  32.931  1.00  0.00     0.049 A 
ATOM     70  H   UNL A   1      45.201  27.802  32.903  1.00  0.00     0.167 HD
ATOM     71  C   UNL A   1      42.788  30.504  33.828  1.00  0.00     0.074 A 
ATOM     72  C   UNL A   1      41.606  30.672  34.661  1.00  0.00     0.031 C 
ATOM     73  C   UNL A   1      44.013  29.933  34.054  1.00  0.00     0.034 A 
BRANCH  60  74
ATOM     74  C   UNL A   1      47.721  26.893  30.285  1.00  0.00     0.023 A 
ATOM     75  C   UNL A   1      48.291  26.124  31.314  1.00  0.00     0.012 A 
ATOM     76  C   UNL A   1      48.482  27.064  29.094  1.00  0.00     0.148 A 
ATOM     77  C   UNL A   1      49.578  25.588  31.199  1.00  0.00     0.002 A 
ATOM     78  C   UNL A   1      49.757  26.511  28.976  1.00  0.00     0.091 A 
ATOM     79  F   UNL A   1      47.983  27.810  28.096  1.00  0.00    -0.205 F 
ATOM     80  C   UNL A   1      50.312  25.785  30.034  1.00  0.00     0.022 A 
BRANCH  78  81
ATOM     81  S   UNL A   1      50.780  26.701  27.506  1.00  0.00     0.127 S 
ATOM     82  O   UNL A   1      52.016  26.032  27.913  1.00  0.00    -0.237 OA
ATOM     83  O   UNL A   1      50.007  25.985  26.491  1.00  0.00    -0.237 OA
ATOM     84  O   UNL A   1      50.897  28.136  27.283  1.00  0.00    -0.744 OA
ENDBRANCH  78  81
ENDBRANCH  60  74
BRANCH  61  85
ATOM     85  C   UNL A   1      38.889  31.455  31.169  1.00  0.00     0.023 A 
ATOM     86  C   UNL A   1      38.471  30.161  31.580  1.00  0.00     0.012 A 
ATOM     87  C   UNL A   1      37.919  32.458  31.023  1.00  0.00     0.148 A 
ATOM     88  C   UNL A   1      37.190  29.959  32.091  1.00  0.00     0.002 A 
ATOM     89  C   UNL A   1      36.617  32.224  31.465  1.00  0.00     0.091 A 
ATOM     90  F   UNL A   1      38.283  33.652  30.537  1.00  0.00    -0.205 F 
ATOM     91  C   UNL A   1      36.277  31.007  32.075  1.00  0.00     0.022 A 
BRANCH  89  92
ATOM     92  S   UNL A   1      35.378  33.529  31.403  1.00  0.00     0.127 S 
ATOM     93  O   UNL A   1      34.209  32.853  31.955  1.00  0.00    -0.237 OA
ATOM     94  O   UNL A   1      35.950  34.565  32.264  1.00  0.00    -0.237 OA
ATOM     95  O   UNL A   1      35.308  33.896  29.993  1.00  0.00    -0.744 OA
ENDBRANCH  89  92
ENDBRANCH  61  85
BRANCH  73  96
ATOM     96  C   UNL A   1      44.403  29.404  35.419  1.00  0.00     0.023 A 
ATOM     97  C   UNL A   1      45.454  30.010  36.136  1.00  0.00     0.012 A 
ATOM     98  C   UNL A   1      43.839  28.235  35.982  1.00  0.00     0.148 A 
ATOM     99  C   UNL A   1      45.859  29.544  37.390  1.00  0.00     0.002 A 
ATOM    100  C   UNL A   1      44.338  27.696  37.163  1.00  0.00     0.091 A 
ATOM    101  F   UNL A   1      42.770  27.669  35.409  1.00  0.00    -0.205 F 
ATOM    102  C   UNL A   1      45.314  28.373  37.895  1.00  0.00     0.022 A 
BRANCH 100 103
ATOM    103  S   UNL A   1      43.882  26.050  37.727  1.00  0.00     0.127 S 
ATOM    104  O   UNL A   1      42.466  26.233  38.054  1.00  0.00    -0.237 OA
ATOM    105  O   UNL A   1      44.136  25.242  36.536  1.00  0.00    -0.237 OA
ATOM    106  O   UNL A   1      44.735  25.777  38.875  1.00  0.00    -0.744 OA
ENDBRANCH 100 103
ENDBRANCH  73  96
ENDBRANCH  47  48
ENDBRANCH  40  42
ENDBRANCH  39  40
ENDBRANCH  38  39
ENDBRANCH   1  38
TORSDOF 21
ENDMDL
MODEL 3
REMARK VINA RESULT:     -13.4      4.085     10.572
REMARK SMILES Cc1ccc(S(=O)(=O)n2cc(C(=O)C(=O)N[C@@H](Cc3cnc[nH]3)C(=O)OCCOC(=O)c3ccc(-c4c5nc(c(-c6cccc(S(=O)(=O)[O-])c6F)c6ccc([nH]6)c(-c6cccc(S(=O)(=O)[O-])c6F)c6nc(c(-c7cccc(S(=O)(=O)[O-])c7F)c7ccc4[nH]7)C=C6)C=C5)cc3)c3ccccc32)cc1
REMARK SMILES IDX 27 1 26 2 24 3 25 4 17 5 16 6 14 7 15 8 12 10 13 11 11 12
REMARK SMILES IDX 9 13 10 14 100 15 95 16 99 17 96 18 98 19 97 20 6 21 7 22
REMARK SMILES IDX 8 23 5 24 1 25 2 26 3 27 102 28 4 29 101 30 18 31 19 32
REMARK SMILES IDX 20 33 23 34 21 35 22 36 28 38 29 39 30 40 31 41 32 42 33 43
REMARK SMILES IDX 94 44 34 45 93 46 35 47 36 48 37 49 87 50 38 51 92 52 86 53
REMARK SMILES IDX 88 54 39 55 91 56 85 57 84 58 40 60 72 61 52 62 71 63 53 64
REMARK SMILES IDX 56 65 70 66 89 67 54 68 55 69 69 71 90 72 57 73 41 74 42 75
REMARK SMILES IDX 50 76 43 77 45 78 51 79 44 80 46 81 47 82 48 83 49 84 73 85
REMARK SMILES IDX 74 86 82 87 75 88 77 89 83 90 76 91 78 92 79 93 80 94 81 95
REMARK SMILES IDX 58 96 59 97 67 98 60 99 62 100 68 101 61 102 63 103 64 104
REMARK SMILES IDX 65 105 66 106
REMARK H PARENT 16 9 23 37 88 59 56 70
REMARK Flexibility Score: inf
ROOT
ATOM      1  C   UNL A   1      38.185  21.400  25.698  1.00  0.00     0.274 C 
ENDROOT
BRANCH   1   2
ATOM      2  O   UNL A   1      36.808  21.767  25.859  1.00  0.00    -0.461 OA
BRANCH   2   3
ATOM      3  C   UNL A   1      35.951  21.717  24.674  1.00  0.00     0.329 C 
ATOM      4  O   UNL A   1      36.713  22.107  23.747  1.00  0.00    -0.250 OA
BRANCH   3   5
ATOM      5  C   UNL A   1      33.904  20.900  24.686  1.00  0.00     0.198 C 
BRANCH   5   6
ATOM      6  N   UNL A   1      32.747  20.917  23.443  1.00  0.00    -0.335 N 
ATOM      7  C   UNL A   1      32.279  21.827  22.514  1.00  0.00     0.293 C 
ATOM      8  O   UNL A   1      31.323  21.470  21.824  1.00  0.00    -0.265 OA
ATOM      9  H   UNL A   1      32.289  20.050  23.363  1.00  0.00     0.164 HD
BRANCH   7  10
ATOM     10  C   UNL A   1      32.880  23.239  22.305  1.00  0.00     0.252 C 
ATOM     11  O   UNL A   1      33.839  23.348  21.549  1.00  0.00    -0.283 OA
BRANCH  10  12
ATOM     12  C   UNL A   1      32.393  24.412  23.082  1.00  0.00     0.054 A 
ATOM     13  N   UNL A   1      31.833  26.512  23.640  1.00  0.00    -0.240 N 
ATOM     14  C   UNL A   1      32.557  25.751  22.758  1.00  0.00     0.117 A 
ATOM     15  C   UNL A   1      31.213  25.726  24.584  1.00  0.00     0.065 A 
ATOM     16  C   UNL A   1      31.601  24.406  24.296  1.00  0.00     0.012 A 
ATOM     17  C   UNL A   1      30.363  26.044  25.663  1.00  0.00     0.028 A 
ATOM     18  C   UNL A   1      31.156  23.386  25.169  1.00  0.00     0.011 A 
ATOM     19  C   UNL A   1      29.953  25.013  26.509  1.00  0.00     0.002 A 
ATOM     20  C   UNL A   1      30.355  23.704  26.274  1.00  0.00     0.001 A 
BRANCH  13  21
ATOM     21  S   UNL A   1      31.657  28.203  23.506  1.00  0.00     0.268 S 
ATOM     22  O   UNL A   1      30.227  28.451  23.548  1.00  0.00    -0.201 OA
ATOM     23  O   UNL A   1      32.466  28.610  22.371  1.00  0.00    -0.201 OA
BRANCH  21  24
ATOM     24  C   UNL A   1      32.361  28.990  24.935  1.00  0.00     0.088 A 
ATOM     25  C   UNL A   1      34.410  30.881  28.216  1.00  0.00     0.044 C 
ATOM     26  C   UNL A   1      33.685  30.215  27.083  1.00  0.00    -0.051 A 
ATOM     27  C   UNL A   1      34.289  29.155  26.398  1.00  0.00     0.005 A 
ATOM     28  C   UNL A   1      32.404  30.634  26.700  1.00  0.00     0.005 A 
ATOM     29  C   UNL A   1      33.634  28.548  25.324  1.00  0.00     0.022 A 
ATOM     30  C   UNL A   1      31.734  30.016  25.638  1.00  0.00     0.022 A 
ENDBRANCH  21  24
ENDBRANCH  13  21
ENDBRANCH  10  12
ENDBRANCH   7  10
ENDBRANCH   5   6
BRANCH   5  31
ATOM     31  C   UNL A   1      33.190  19.418  25.398  1.00  0.00     0.092 C 
BRANCH  31  32
ATOM     32  C   UNL A   1      33.547  18.087  24.773  1.00  0.00     0.037 A 
ATOM     33  C   UNL A   1      33.015  17.362  23.729  1.00  0.00     0.134 A 
ATOM     34  N   UNL A   1      34.585  17.288  25.216  1.00  0.00    -0.348 N 
ATOM     35  N   UNL A   1      33.851  16.338  23.363  1.00  0.00    -0.245 NA
ATOM     36  C   UNL A   1      34.799  16.326  24.271  1.00  0.00     0.196 A 
ATOM     37  H   UNL A   1      35.080  17.393  26.060  1.00  0.00     0.167 HD
ENDBRANCH  31  32
ENDBRANCH   5  31
ENDBRANCH   3   5
ENDBRANCH   2   3
ENDBRANCH   1   2
BRANCH   1  38
ATOM     38  C   UNL A   1      39.084  22.490  26.299  1.00  0.00     0.275 C 
BRANCH  38  39
ATOM     39  O   UNL A   1      40.251  22.024  27.032  1.00  0.00    -0.458 OA
BRANCH  39  40
ATOM     40  C   UNL A   1      41.365  21.520  26.422  1.00  0.00     0.338 C 
ATOM     41  O   UNL A   1      41.370  20.508  25.740  1.00  0.00    -0.246 OA
BRANCH  40  42
ATOM     42  C   UNL A   1      42.618  22.097  26.938  1.00  0.00     0.060 A 
ATOM     43  C   UNL A   1      42.771  22.176  28.733  1.00  0.00     0.016 A 
ATOM     44  C   UNL A   1      43.482  23.295  25.909  1.00  0.00     0.016 A 
ATOM     45  C   UNL A   1      43.584  23.608  29.509  1.00  0.00     0.010 A 
ATOM     46  C   UNL A   1      44.289  24.707  26.697  1.00  0.00     0.010 A 
ATOM     47  C   UNL A   1      44.273  24.892  28.491  1.00  0.00    -0.014 A 
BRANCH  47  48
ATOM     48  C   UNL A   1      44.341  26.309  28.865  1.00  0.00     0.031 A 
ATOM     49  C   UNL A   1      43.064  26.999  29.078  1.00  0.00     0.074 A 
ATOM     50  C   UNL A   1      45.465  26.772  29.451  1.00  0.00     0.049 A 
ATOM     51  N   UNL A   1      42.656  27.435  30.223  1.00  0.00    -0.248 NA
ATOM     52  C   UNL A   1      42.089  27.111  27.990  1.00  0.00     0.031 C 
ATOM     53  C   UNL A   1      45.596  27.844  30.431  1.00  0.00     0.029 A 
ATOM     54  N   UNL A   1      46.779  26.452  29.176  1.00  0.00    -0.354 N 
ATOM     55  C   UNL A   1      41.435  28.024  29.998  1.00  0.00     0.074 A 
ATOM     56  C   UNL A   1      41.059  27.667  28.633  1.00  0.00     0.031 C 
ATOM     57  C   UNL A   1      46.876  28.247  30.490  1.00  0.00     0.029 A 
ATOM     58  C   UNL A   1      47.598  27.555  29.438  1.00  0.00     0.049 A 
ATOM     59  H   UNL A   1      47.093  25.579  28.847  1.00  0.00     0.167 HD
ATOM     60  C   UNL A   1      41.160  29.271  30.455  1.00  0.00     0.034 A 
ATOM     61  C   UNL A   1      48.215  28.180  28.383  1.00  0.00     0.034 A 
ATOM     62  C   UNL A   1      42.327  30.131  30.509  1.00  0.00     0.049 A 
ATOM     63  C   UNL A   1      47.499  29.466  27.975  1.00  0.00     0.074 A 
ATOM     64  C   UNL A   1      43.289  30.442  31.449  1.00  0.00     0.029 A 
ATOM     65  N   UNL A   1      42.782  30.646  29.309  1.00  0.00    -0.354 N 
ATOM     66  N   UNL A   1      46.472  29.975  28.604  1.00  0.00    -0.248 NA
ATOM     67  C   UNL A   1      47.846  30.245  26.787  1.00  0.00     0.031 C 
ATOM     68  C   UNL A   1      44.387  31.050  30.756  1.00  0.00     0.029 A 
ATOM     69  C   UNL A   1      44.063  31.159  29.412  1.00  0.00     0.049 A 
ATOM     70  H   UNL A   1      42.256  30.647  28.478  1.00  0.00     0.167 HD
ATOM     71  C   UNL A   1      45.929  30.992  27.868  1.00  0.00     0.074 A 
ATOM     72  C   UNL A   1      46.838  31.131  26.740  1.00  0.00     0.031 C 
ATOM     73  C   UNL A   1      44.758  31.619  28.204  1.00  0.00     0.034 A 
BRANCH  60  74
ATOM     74  C   UNL A   1      39.811  29.501  31.074  1.00  0.00     0.023 A 
ATOM     75  C   UNL A   1      39.171  28.406  31.681  1.00  0.00     0.012 A 
ATOM     76  C   UNL A   1      39.085  30.723  30.993  1.00  0.00     0.148 A 
ATOM     77  C   UNL A   1      37.854  28.494  32.141  1.00  0.00     0.002 A 
ATOM     78  C   UNL A   1      37.778  30.811  31.471  1.00  0.00     0.091 A 
ATOM     79  F   UNL A   1      39.652  31.787  30.400  1.00  0.00    -0.205 F 
ATOM     80  C   UNL A   1      37.156  29.691  32.033  1.00  0.00     0.022 A 
BRANCH  78  81
ATOM     81  S   UNL A   1      36.797  32.319  31.386  1.00  0.00     0.127 S 
ATOM     82  O   UNL A   1      36.827  32.614  29.953  1.00  0.00    -0.237 OA
ATOM     83  O   UNL A   1      35.497  31.876  31.889  1.00  0.00    -0.237 OA
ATOM     84  O   UNL A   1      37.480  33.289  32.232  1.00  0.00    -0.744 OA
ENDBRANCH  78  81
ENDBRANCH  60  74
BRANCH  61  85
ATOM     85  C   UNL A   1      48.811  27.159  27.454  1.00  0.00     0.023 A 
ATOM     86  C   UNL A   1      48.018  26.833  26.322  1.00  0.00     0.012 A 
ATOM     87  C   UNL A   1      50.192  26.915  27.398  1.00  0.00     0.148 A 
ATOM     88  C   UNL A   1      48.616  26.545  25.096  1.00  0.00     0.002 A 
ATOM     89  C   UNL A   1      50.776  26.550  26.185  1.00  0.00     0.091 A 
ATOM     90  F   UNL A   1      50.935  27.119  28.493  1.00  0.00    -0.205 F 
ATOM     91  C   UNL A   1      50.001  26.449  25.020  1.00  0.00     0.022 A 
BRANCH  89  92
ATOM     92  S   UNL A   1      52.560  26.347  26.049  1.00  0.00     0.127 S 
ATOM     93  O   UNL A   1      52.674  25.549  24.833  1.00  0.00    -0.237 OA
ATOM     94  O   UNL A   1      53.038  27.725  25.926  1.00  0.00    -0.237 OA
ATOM     95  O   UNL A   1      52.945  25.691  27.293  1.00  0.00    -0.744 OA
ENDBRANCH  89  92
ENDBRANCH  61  85
BRANCH  73  96
ATOM     96  C   UNL A   1      44.212  32.772  27.385  1.00  0.00     0.023 A 
ATOM     97  C   UNL A   1      44.213  32.700  25.977  1.00  0.00     0.012 A 
ATOM     98  C   UNL A   1      43.798  33.997  27.959  1.00  0.00     0.148 A 
ATOM     99  C   UNL A   1      43.736  33.746  25.183  1.00  0.00     0.002 A 
ATOM    100  C   UNL A   1      43.457  35.083  27.161  1.00  0.00     0.091 A 
ATOM    101  F   UNL A   1      43.674  34.100  29.288  1.00  0.00    -0.205 F 
ATOM    102  C   UNL A   1      43.377  34.948  25.775  1.00  0.00     0.022 A 
BRANCH 100 103
ATOM    103  S   UNL A   1      43.254  36.737  27.838  1.00  0.00     0.127 S 
ATOM    104  O   UNL A   1      42.014  36.593  28.603  1.00  0.00    -0.237 OA
ATOM    105  O   UNL A   1      44.461  36.881  28.648  1.00  0.00    -0.237 OA
ATOM    106  O   UNL A   1      43.152  37.623  26.687  1.00  0.00    -0.744 OA
ENDBRANCH 100 103
ENDBRANCH  73  96
ENDBRANCH  47  48
ENDBRANCH  40  42
ENDBRANCH  39  40
ENDBRANCH  38  39
ENDBRANCH   1  38
TORSDOF 21
ENDMDL
