MODEL 1
REMARK VINA RESULT:     -11.4      0.000      0.000
REMARK SMILES CC(=O)Oc1ccccc1C(=O)OCCOC(=O)c1ccc(-c2c3nc(c(-c4cccc(S(=O)(=O)[O-])c4F)c4ccc([nH]4)c(-c4cccc(S(=O)(=O)[O-])c4F)c4nc(c(-c5cccc(S(=O)(=O)[O-])c5F)c5ccc2[nH]5)C=C4)C=C3)cc1
REMARK SMILES IDX 15 1 14 2 13 3 11 4 12 5 10 6 5 7 6 8 7 9 9 10 8 11 4 12
REMARK SMILES IDX 2 13 1 14 3 15 16 16 17 17 18 18 19 19 20 20 81 21 21 22
REMARK SMILES IDX 80 23 22 24 23 25 24 26 74 27 25 28 79 29 73 30 75 31 26 32
REMARK SMILES IDX 78 33 72 34 71 35 27 37 59 38 39 39 58 40 40 41 43 42 57 43
REMARK SMILES IDX 76 44 41 45 42 46 56 48 77 49 44 50 28 51 29 52 37 53 30 54
REMARK SMILES IDX 32 55 38 56 31 57 33 58 34 59 35 60 36 61 60 62 61 63 69 64
REMARK SMILES IDX 62 65 64 66 70 67 63 68 65 69 66 70 67 71 68 72 45 73 46 74
REMARK SMILES IDX 54 75 47 76 49 77 55 78 48 79 50 80 51 81 52 82 53 83
REMARK H PARENT 75 36 43 47
REMARK Flexibility Score: inf
ROOT
ATOM      1  C   UNL A   1      36.468  20.569  25.006  1.00  0.00     0.275 C 
ENDROOT
BRANCH   1   2
ATOM      2  C   UNL A   1      35.128  21.087  25.526  1.00  0.00     0.275 C 
BRANCH   2   3
ATOM      3  O   UNL A   1      34.018  20.566  24.765  1.00  0.00    -0.458 OA
BRANCH   3   4
ATOM      4  C   UNL A   1      32.873  21.300  24.802  1.00  0.00     0.342 C 
ATOM      5  O   UNL A   1      31.842  20.986  25.363  1.00  0.00    -0.246 OA
BRANCH   4   6
ATOM      6  C   UNL A   1      33.041  22.608  24.115  1.00  0.00     0.102 A 
ATOM      7  C   UNL A   1      33.242  23.820  24.785  1.00  0.00     0.145 A 
ATOM      8  C   UNL A   1      33.417  25.010  24.069  1.00  0.00     0.048 A 
ATOM      9  C   UNL A   1      33.384  24.999  22.673  1.00  0.00     0.004 A 
ATOM     10  C   UNL A   1      33.049  22.612  22.710  1.00  0.00     0.019 A 
ATOM     11  C   UNL A   1      33.187  23.801  21.993  1.00  0.00     0.001 A 
BRANCH   7  12
ATOM     12  O   UNL A   1      33.183  23.942  26.181  1.00  0.00    -0.426 OA
BRANCH  12  13
ATOM     13  C   UNL A   1      31.943  24.271  26.715  1.00  0.00     0.308 C 
ATOM     14  C   UNL A   1      31.628  25.693  26.364  1.00  0.00     0.139 C 
ATOM     15  O   UNL A   1      31.217  23.544  27.377  1.00  0.00    -0.252 OA
ENDBRANCH  12  13
ENDBRANCH   7  12
ENDBRANCH   4   6
ENDBRANCH   3   4
ENDBRANCH   2   3
ENDBRANCH   1   2
BRANCH   1  16
ATOM     16  O   UNL A   1      37.480  21.582  25.117  1.00  0.00    -0.458 OA
BRANCH  16  17
ATOM     17  C   UNL A   1      38.610  21.186  25.742  1.00  0.00     0.338 C 
ATOM     18  O   UNL A   1      39.137  20.086  25.700  1.00  0.00    -0.246 OA
BRANCH  17  19
ATOM     19  C   UNL A   1      39.227  22.331  26.419  1.00  0.00     0.060 A 
ATOM     20  C   UNL A   1      38.747  23.594  26.098  1.00  0.00     0.016 A 
ATOM     21  C   UNL A   1      40.360  22.191  27.212  1.00  0.00     0.016 A 
ATOM     22  C   UNL A   1      39.460  24.730  26.454  1.00  0.00     0.010 A 
ATOM     23  C   UNL A   1      41.007  23.340  27.678  1.00  0.00     0.010 A 
ATOM     24  C   UNL A   1      40.590  24.624  27.270  1.00  0.00    -0.014 A 
BRANCH  24  25
ATOM     25  C   UNL A   1      41.330  25.850  27.679  1.00  0.00     0.031 A 
ATOM     26  C   UNL A   1      40.658  26.895  28.529  1.00  0.00     0.074 A 
ATOM     27  C   UNL A   1      42.605  26.031  27.277  1.00  0.00     0.049 A 
ATOM     28  N   UNL A   1      41.071  28.097  28.840  1.00  0.00    -0.248 NA
ATOM     29  C   UNL A   1      39.340  26.554  29.088  1.00  0.00     0.031 C 
ATOM     30  C   UNL A   1      43.383  25.087  26.470  1.00  0.00     0.029 A 
ATOM     31  N   UNL A   1      43.471  27.077  27.481  1.00  0.00    -0.354 N 
ATOM     32  C   UNL A   1      40.031  28.686  29.552  1.00  0.00     0.074 A 
ATOM     33  C   UNL A   1      38.973  27.703  29.639  1.00  0.00     0.031 C 
ATOM     34  C   UNL A   1      44.613  25.581  26.269  1.00  0.00     0.029 A 
ATOM     35  C   UNL A   1      44.680  26.919  26.840  1.00  0.00     0.049 A 
ATOM     36  H   UNL A   1      43.250  27.863  28.030  1.00  0.00     0.167 HD
ATOM     37  C   UNL A   1      39.967  29.930  30.083  1.00  0.00     0.034 A 
ATOM     38  C   UNL A   1      45.709  27.771  26.676  1.00  0.00     0.034 A 
ATOM     39  C   UNL A   1      41.052  30.876  30.045  1.00  0.00     0.049 A 
ATOM     40  C   UNL A   1      45.609  29.147  27.265  1.00  0.00     0.074 A 
ATOM     41  C   UNL A   1      41.113  32.139  30.607  1.00  0.00     0.029 A 
ATOM     42  N   UNL A   1      42.266  30.665  29.406  1.00  0.00    -0.354 N 
ATOM     43  N   UNL A   1      44.642  29.669  27.980  1.00  0.00    -0.248 NA
ATOM     44  C   UNL A   1      46.744  30.049  27.034  1.00  0.00     0.031 C 
ATOM     45  C   UNL A   1      42.348  32.706  30.277  1.00  0.00     0.029 A 
ATOM     46  C   UNL A   1      43.075  31.781  29.543  1.00  0.00     0.049 A 
ATOM     47  H   UNL A   1      42.515  29.842  28.927  1.00  0.00     0.167 HD
ATOM     48  C   UNL A   1      45.059  30.953  28.303  1.00  0.00     0.074 A 
ATOM     49  C   UNL A   1      46.380  31.119  27.730  1.00  0.00     0.031 C 
ATOM     50  C   UNL A   1      44.402  31.915  28.998  1.00  0.00     0.034 A 
BRANCH  37  51
ATOM     51  C   UNL A   1      38.677  30.347  30.749  1.00  0.00     0.023 A 
ATOM     52  C   UNL A   1      38.453  30.060  32.110  1.00  0.00     0.012 A 
ATOM     53  C   UNL A   1      37.700  31.061  30.025  1.00  0.00     0.148 A 
ATOM     54  C   UNL A   1      37.260  30.436  32.729  1.00  0.00     0.002 A 
ATOM     55  C   UNL A   1      36.536  31.477  30.661  1.00  0.00     0.091 A 
ATOM     56  F   UNL A   1      37.919  31.309  28.726  1.00  0.00    -0.205 F 
ATOM     57  C   UNL A   1      36.308  31.153  32.008  1.00  0.00     0.022 A 
BRANCH  55  58
ATOM     58  S   UNL A   1      35.288  32.476  29.840  1.00  0.00     0.127 S 
ATOM     59  O   UNL A   1      34.821  31.563  28.798  1.00  0.00    -0.237 OA
ATOM     60  O   UNL A   1      34.326  32.713  30.918  1.00  0.00    -0.237 OA
ATOM     61  O   UNL A   1      35.975  33.669  29.367  1.00  0.00    -0.744 OA
ENDBRANCH  55  58
ENDBRANCH  37  51
BRANCH  38  62
ATOM     62  C   UNL A   1      46.916  27.337  25.916  1.00  0.00     0.023 A 
ATOM     63  C   UNL A   1      47.838  26.464  26.523  1.00  0.00     0.012 A 
ATOM     64  C   UNL A   1      47.124  27.738  24.580  1.00  0.00     0.148 A 
ATOM     65  C   UNL A   1      48.954  26.011  25.819  1.00  0.00     0.002 A 
ATOM     66  C   UNL A   1      48.203  27.233  23.866  1.00  0.00     0.091 A 
ATOM     67  F   UNL A   1      46.241  28.581  24.026  1.00  0.00    -0.205 F 
ATOM     68  C   UNL A   1      49.129  26.382  24.489  1.00  0.00     0.022 A 
BRANCH  66  69
ATOM     69  S   UNL A   1      48.431  27.545  22.111  1.00  0.00     0.127 S 
ATOM     70  O   UNL A   1      49.602  28.418  22.112  1.00  0.00    -0.237 OA
ATOM     71  O   UNL A   1      48.668  26.195  21.595  1.00  0.00    -0.237 OA
ATOM     72  O   UNL A   1      47.189  28.154  21.654  1.00  0.00    -0.744 OA
ENDBRANCH  66  69
ENDBRANCH  38  62
BRANCH  50  73
ATOM     73  C   UNL A   1      45.116  33.225  29.206  1.00  0.00     0.023 A 
ATOM     74  C   UNL A   1      45.962  33.394  30.320  1.00  0.00     0.012 A 
ATOM     75  C   UNL A   1      44.991  34.266  28.266  1.00  0.00     0.148 A 
ATOM     76  C   UNL A   1      46.644  34.595  30.514  1.00  0.00     0.002 A 
ATOM     77  C   UNL A   1      45.715  35.439  28.437  1.00  0.00     0.091 A 
ATOM     78  F   UNL A   1      44.166  34.089  27.224  1.00  0.00    -0.205 F 
ATOM     79  C   UNL A   1      46.529  35.612  29.569  1.00  0.00     0.022 A 
BRANCH  77  80
ATOM     80  S   UNL A   1      45.706  36.762  27.223  1.00  0.00     0.127 S 
ATOM     81  O   UNL A   1      44.273  37.009  27.064  1.00  0.00    -0.237 OA
ATOM     82  O   UNL A   1      46.435  37.823  27.918  1.00  0.00    -0.237 OA
ATOM     83  O   UNL A   1      46.382  36.234  26.047  1.00  0.00    -0.744 OA
ENDBRANCH  77  80
ENDBRANCH  50  73
ENDBRANCH  24  25
ENDBRANCH  17  19
ENDBRANCH  16  17
ENDBRANCH   1  16
TORSDOF 16
ENDMDL
MODEL 2
REMARK VINA RESULT:     -11.3      1.566      2.213
REMARK SMILES CC(=O)Oc1ccccc1C(=O)OCCOC(=O)c1ccc(-c2c3nc(c(-c4cccc(S(=O)(=O)[O-])c4F)c4ccc([nH]4)c(-c4cccc(S(=O)(=O)[O-])c4F)c4nc(c(-c5cccc(S(=O)(=O)[O-])c5F)c5ccc2[nH]5)C=C4)C=C3)cc1
REMARK SMILES IDX 15 1 14 2 13 3 11 4 12 5 10 6 5 7 6 8 7 9 9 10 8 11 4 12
REMARK SMILES IDX 2 13 1 14 3 15 16 16 17 17 18 18 19 19 20 20 81 21 21 22
REMARK SMILES IDX 80 23 22 24 23 25 24 26 74 27 25 28 79 29 73 30 75 31 26 32
REMARK SMILES IDX 78 33 72 34 71 35 27 37 59 38 39 39 58 40 40 41 43 42 57 43
REMARK SMILES IDX 76 44 41 45 42 46 56 48 77 49 44 50 28 51 29 52 37 53 30 54
REMARK SMILES IDX 32 55 38 56 31 57 33 58 34 59 35 60 36 61 60 62 61 63 69 64
REMARK SMILES IDX 62 65 64 66 70 67 63 68 65 69 66 70 67 71 68 72 45 73 46 74
REMARK SMILES IDX 54 75 47 76 49 77 55 78 48 79 50 80 51 81 52 82 53 83
REMARK H PARENT 75 36 43 47
REMARK Flexibility Score: inf
ROOT
ATOM      1  C   UNL A   1      36.478  20.491  24.857  1.00  0.00     0.275 C 
ENDROOT
BRANCH   1   2
ATOM      2  C   UNL A   1      34.969  20.561  25.082  1.00  0.00     0.275 C 
BRANCH   2   3
ATOM      3  O   UNL A   1      34.362  21.636  24.334  1.00  0.00    -0.458 OA
BRANCH   3   4
ATOM      4  C   UNL A   1      33.009  21.580  24.201  1.00  0.00     0.342 C 
ATOM      5  O   UNL A   1      32.378  20.668  23.705  1.00  0.00    -0.246 OA
BRANCH   4   6
ATOM      6  C   UNL A   1      32.351  22.768  24.807  1.00  0.00     0.102 A 
ATOM      7  C   UNL A   1      31.813  23.824  24.063  1.00  0.00     0.145 A 
ATOM      8  C   UNL A   1      31.186  24.900  24.702  1.00  0.00     0.048 A 
ATOM      9  C   UNL A   1      31.099  24.932  26.096  1.00  0.00     0.004 A 
ATOM     10  C   UNL A   1      32.219  22.801  26.205  1.00  0.00     0.019 A 
ATOM     11  C   UNL A   1      31.627  23.888  26.848  1.00  0.00     0.001 A 
BRANCH   7  12
ATOM     12  O   UNL A   1      31.950  23.928  22.671  1.00  0.00    -0.426 OA
BRANCH  12  13
ATOM     13  C   UNL A   1      32.831  24.900  22.212  1.00  0.00     0.308 C 
ATOM     14  C   UNL A   1      32.068  25.888  21.382  1.00  0.00     0.139 C 
ATOM     15  O   UNL A   1      34.033  24.956  22.424  1.00  0.00    -0.252 OA
ENDBRANCH  12  13
ENDBRANCH   7  12
ENDBRANCH   4   6
ENDBRANCH   3   4
ENDBRANCH   2   3
ENDBRANCH   1   2
BRANCH   1  16
ATOM     16  O   UNL A   1      37.156  21.464  25.666  1.00  0.00    -0.458 OA
BRANCH  16  17
ATOM     17  C   UNL A   1      38.466  21.211  25.877  1.00  0.00     0.338 C 
ATOM     18  O   UNL A   1      39.105  20.240  25.505  1.00  0.00    -0.246 OA
BRANCH  17  19
ATOM     19  C   UNL A   1      39.091  22.359  26.541  1.00  0.00     0.060 A 
ATOM     20  C   UNL A   1      38.625  23.622  26.199  1.00  0.00     0.016 A 
ATOM     21  C   UNL A   1      40.217  22.219  27.343  1.00  0.00     0.016 A 
ATOM     22  C   UNL A   1      39.347  24.756  26.543  1.00  0.00     0.010 A 
ATOM     23  C   UNL A   1      40.874  23.369  27.796  1.00  0.00     0.010 A 
ATOM     24  C   UNL A   1      40.472  24.650  27.367  1.00  0.00    -0.014 A 
BRANCH  24  25
ATOM     25  C   UNL A   1      41.222  25.875  27.763  1.00  0.00     0.031 A 
ATOM     26  C   UNL A   1      40.560  26.931  28.608  1.00  0.00     0.074 A 
ATOM     27  C   UNL A   1      42.496  26.044  27.354  1.00  0.00     0.049 A 
ATOM     28  N   UNL A   1      40.982  28.133  28.908  1.00  0.00    -0.248 NA
ATOM     29  C   UNL A   1      39.242  26.603  29.176  1.00  0.00     0.031 C 
ATOM     30  C   UNL A   1      43.264  25.089  26.551  1.00  0.00     0.029 A 
ATOM     31  N   UNL A   1      43.370  27.086  27.545  1.00  0.00    -0.354 N 
ATOM     32  C   UNL A   1      39.950  28.734  29.620  1.00  0.00     0.074 A 
ATOM     33  C   UNL A   1      38.886  27.758  29.719  1.00  0.00     0.031 C 
ATOM     34  C   UNL A   1      44.496  25.574  26.341  1.00  0.00     0.029 A 
ATOM     35  C   UNL A   1      44.574  26.915  26.901  1.00  0.00     0.049 A 
ATOM     36  H   UNL A   1      43.156  27.878  28.090  1.00  0.00     0.167 HD
ATOM     37  C   UNL A   1      39.896  29.983  30.141  1.00  0.00     0.034 A 
ATOM     38  C   UNL A   1      45.608  27.759  26.725  1.00  0.00     0.034 A 
ATOM     39  C   UNL A   1      40.987  30.921  30.090  1.00  0.00     0.049 A 
ATOM     40  C   UNL A   1      45.519  29.141  27.304  1.00  0.00     0.074 A 
ATOM     41  C   UNL A   1      41.058  32.189  30.642  1.00  0.00     0.029 A 
ATOM     42  N   UNL A   1      42.196  30.698  29.448  1.00  0.00    -0.354 N 
ATOM     43  N   UNL A   1      44.559  29.674  28.018  1.00  0.00    -0.248 NA
ATOM     44  C   UNL A   1      46.659  30.034  27.060  1.00  0.00     0.031 C 
ATOM     45  C   UNL A   1      42.296  32.744  30.301  1.00  0.00     0.029 A 
ATOM     46  C   UNL A   1      43.013  31.809  29.572  1.00  0.00     0.049 A 
ATOM     47  H   UNL A   1      42.438  29.869  28.974  1.00  0.00     0.167 HD
ATOM     48  C   UNL A   1      44.986  30.959  28.330  1.00  0.00     0.074 A 
ATOM     49  C   UNL A   1      46.305  31.111  27.749  1.00  0.00     0.031 C 
ATOM     50  C   UNL A   1      44.339  31.930  29.019  1.00  0.00     0.034 A 
BRANCH  37  51
ATOM     51  C   UNL A   1      38.612  30.413  30.809  1.00  0.00     0.023 A 
ATOM     52  C   UNL A   1      38.404  30.163  32.180  1.00  0.00     0.012 A 
ATOM     53  C   UNL A   1      37.624  31.104  30.077  1.00  0.00     0.148 A 
ATOM     54  C   UNL A   1      37.216  30.553  32.801  1.00  0.00     0.002 A 
ATOM     55  C   UNL A   1      36.465  31.533  30.714  1.00  0.00     0.091 A 
ATOM     56  F   UNL A   1      37.828  31.316  28.769  1.00  0.00    -0.205 F 
ATOM     57  C   UNL A   1      36.254  31.246  32.072  1.00  0.00     0.022 A 
BRANCH  55  58
ATOM     58  S   UNL A   1      35.205  32.504  29.880  1.00  0.00     0.127 S 
ATOM     59  O   UNL A   1      34.267  32.767  30.970  1.00  0.00    -0.237 OA
ATOM     60  O   UNL A   1      35.963  33.674  29.435  1.00  0.00    -0.237 OA
ATOM     61  O   UNL A   1      34.697  31.665  28.804  1.00  0.00    -0.744 OA
ENDBRANCH  55  58
ENDBRANCH  37  51
BRANCH  38  62
ATOM     62  C   UNL A   1      46.809  27.311  25.963  1.00  0.00     0.023 A 
ATOM     63  C   UNL A   1      46.899  27.590  24.587  1.00  0.00     0.012 A 
ATOM     64  C   UNL A   1      47.884  26.665  26.606  1.00  0.00     0.148 A 
ATOM     65  C   UNL A   1      48.030  27.218  23.860  1.00  0.00     0.002 A 
ATOM     66  C   UNL A   1      49.033  26.353  25.890  1.00  0.00     0.091 A 
ATOM     67  F   UNL A   1      47.772  26.395  27.915  1.00  0.00    -0.205 F 
ATOM     68  C   UNL A   1      49.101  26.613  24.513  1.00  0.00     0.022 A 
BRANCH  66  69
ATOM     69  S   UNL A   1      50.513  25.702  26.673  1.00  0.00     0.127 S 
ATOM     70  O   UNL A   1      51.400  25.517  25.528  1.00  0.00    -0.237 OA
ATOM     71  O   UNL A   1      50.884  26.798  27.570  1.00  0.00    -0.237 OA
ATOM     72  O   UNL A   1      50.097  24.483  27.354  1.00  0.00    -0.744 OA
ENDBRANCH  66  69
ENDBRANCH  38  62
BRANCH  50  73
ATOM     73  C   UNL A   1      45.062  33.237  29.214  1.00  0.00     0.023 A 
ATOM     74  C   UNL A   1      45.900  33.416  30.332  1.00  0.00     0.012 A 
ATOM     75  C   UNL A   1      44.953  34.265  28.258  1.00  0.00     0.148 A 
ATOM     76  C   UNL A   1      46.591  34.614  30.514  1.00  0.00     0.002 A 
ATOM     77  C   UNL A   1      45.686  35.434  28.417  1.00  0.00     0.091 A 
ATOM     78  F   UNL A   1      44.135  34.080  27.211  1.00  0.00    -0.205 F 
ATOM     79  C   UNL A   1      46.493  35.617  29.553  1.00  0.00     0.022 A 
BRANCH  77  80
ATOM     80  S   UNL A   1      45.697  36.739  27.184  1.00  0.00     0.127 S 
ATOM     81  O   UNL A   1      46.586  37.723  27.800  1.00  0.00    -0.237 OA
ATOM     82  O   UNL A   1      46.258  36.055  26.017  1.00  0.00    -0.237 OA
ATOM     83  O   UNL A   1      44.312  37.161  27.030  1.00  0.00    -0.744 OA
ENDBRANCH  77  80
ENDBRANCH  50  73
ENDBRANCH  24  25
ENDBRANCH  17  19
ENDBRANCH  16  17
ENDBRANCH   1  16
TORSDOF 16
ENDMDL
MODEL 3
REMARK VINA RESULT:     -11.2      5.461     10.292
REMARK SMILES CC(=O)Oc1ccccc1C(=O)OCCOC(=O)c1ccc(-c2c3nc(c(-c4cccc(S(=O)(=O)[O-])c4F)c4ccc([nH]4)c(-c4cccc(S(=O)(=O)[O-])c4F)c4nc(c(-c5cccc(S(=O)(=O)[O-])c5F)c5ccc2[nH]5)C=C4)C=C3)cc1
REMARK SMILES IDX 15 1 14 2 13 3 11 4 12 5 10 6 5 7 6 8 7 9 9 10 8 11 4 12
REMARK SMILES IDX 2 13 1 14 3 15 16 16 17 17 18 18 19 19 20 20 81 21 21 22
REMARK SMILES IDX 80 23 22 24 23 25 24 26 74 27 25 28 79 29 73 30 75 31 26 32
REMARK SMILES IDX 78 33 72 34 71 35 27 37 59 38 39 39 58 40 40 41 43 42 57 43
REMARK SMILES IDX 76 44 41 45 42 46 56 48 77 49 44 50 28 51 29 52 37 53 30 54
REMARK SMILES IDX 32 55 38 56 31 57 33 58 34 59 35 60 36 61 60 62 61 63 69 64
REMARK SMILES IDX 62 65 64 66 70 67 63 68 65 69 66 70 67 71 68 72 45 73 46 74
REMARK SMILES IDX 54 75 47 76 49 77 55 78 48 79 50 80 51 81 52 82 53 83
REMARK H PARENT 75 36 43 47
REMARK Flexibility Score: inf
ROOT
ATOM      1  C   UNL A   1      31.490  29.897  25.731  1.00  0.00     0.275 C 
ENDROOT
BRANCH   1   2
ATOM      2  C   UNL A   1      32.121  28.900  24.761  1.00  0.00     0.275 C 
BRANCH   2   3
ATOM      3  O   UNL A   1      32.797  27.829  25.454  1.00  0.00    -0.458 OA
BRANCH   3   4
ATOM      4  C   UNL A   1      32.161  26.626  25.457  1.00  0.00     0.342 C 
ATOM      5  O   UNL A   1      30.974  26.446  25.645  1.00  0.00    -0.246 OA
BRANCH   4   6
ATOM      6  C   UNL A   1      33.093  25.515  25.127  1.00  0.00     0.102 A 
ATOM      7  C   UNL A   1      33.813  25.432  23.930  1.00  0.00     0.145 A 
ATOM      8  C   UNL A   1      34.692  24.368  23.699  1.00  0.00     0.048 A 
ATOM      9  C   UNL A   1      34.854  23.371  24.663  1.00  0.00     0.004 A 
ATOM     10  C   UNL A   1      33.299  24.523  26.100  1.00  0.00     0.019 A 
ATOM     11  C   UNL A   1      34.147  23.441  25.859  1.00  0.00     0.001 A 
BRANCH   7  12
ATOM     12  O   UNL A   1      33.633  26.327  22.865  1.00  0.00    -0.426 OA
BRANCH  12  13
ATOM     13  C   UNL A   1      32.877  25.864  21.796  1.00  0.00     0.308 C 
ATOM     14  C   UNL A   1      31.452  26.284  21.995  1.00  0.00     0.139 C 
ATOM     15  O   UNL A   1      33.279  25.210  20.845  1.00  0.00    -0.252 OA
ENDBRANCH  12  13
ENDBRANCH   7  12
ENDBRANCH   4   6
ENDBRANCH   3   4
ENDBRANCH   2   3
ENDBRANCH   1   2
BRANCH   1  16
ATOM     16  O   UNL A   1      32.281  30.013  26.924  1.00  0.00    -0.458 OA
BRANCH  16  17
ATOM     17  C   UNL A   1      32.909  31.200  27.072  1.00  0.00     0.338 C 
ATOM     18  O   UNL A   1      32.433  32.316  26.933  1.00  0.00    -0.246 OA
BRANCH  17  19
ATOM     19  C   UNL A   1      34.273  30.980  27.564  1.00  0.00     0.060 A 
ATOM     20  C   UNL A   1      34.637  29.674  27.864  1.00  0.00     0.016 A 
ATOM     21  C   UNL A   1      35.114  32.037  27.890  1.00  0.00     0.016 A 
ATOM     22  C   UNL A   1      35.781  29.414  28.604  1.00  0.00     0.010 A 
ATOM     23  C   UNL A   1      36.331  31.763  28.525  1.00  0.00     0.010 A 
ATOM     24  C   UNL A   1      36.660  30.453  28.929  1.00  0.00    -0.014 A 
BRANCH  24  25
ATOM     25  C   UNL A   1      37.905  30.163  29.692  1.00  0.00     0.031 A 
ATOM     26  C   UNL A   1      38.954  29.249  29.118  1.00  0.00     0.074 A 
ATOM     27  C   UNL A   1      38.090  30.713  30.910  1.00  0.00     0.049 A 
ATOM     28  N   UNL A   1      40.013  28.741  29.695  1.00  0.00    -0.248 NA
ATOM     29  C   UNL A   1      38.782  28.834  27.716  1.00  0.00     0.031 C 
ATOM     30  C   UNL A   1      37.164  31.635  31.575  1.00  0.00     0.029 A 
ATOM     31  N   UNL A   1      39.113  30.569  31.815  1.00  0.00    -0.354 N 
ATOM     32  C   UNL A   1      40.582  27.881  28.761  1.00  0.00     0.074 A 
ATOM     33  C   UNL A   1      39.757  27.947  27.574  1.00  0.00     0.031 C 
ATOM     34  C   UNL A   1      37.669  31.992  32.764  1.00  0.00     0.029 A 
ATOM     35  C   UNL A   1      38.900  31.249  32.994  1.00  0.00     0.049 A 
ATOM     36  H   UNL A   1      39.920  30.033  31.639  1.00  0.00     0.167 HD
ATOM     37  C   UNL A   1      41.688  27.109  28.884  1.00  0.00     0.034 A 
ATOM     38  C   UNL A   1      39.581  31.235  34.155  1.00  0.00     0.034 A 
ATOM     39  C   UNL A   1      42.535  27.102  30.048  1.00  0.00     0.049 A 
ATOM     40  C   UNL A   1      40.797  30.364  34.269  1.00  0.00     0.074 A 
ATOM     41  C   UNL A   1      43.714  26.404  30.251  1.00  0.00     0.029 A 
ATOM     42  N   UNL A   1      42.295  27.822  31.210  1.00  0.00    -0.354 N 
ATOM     43  N   UNL A   1      41.350  29.598  33.361  1.00  0.00    -0.248 NA
ATOM     44  C   UNL A   1      41.489  30.361  35.565  1.00  0.00     0.031 C 
ATOM     45  C   UNL A   1      44.165  26.675  31.546  1.00  0.00     0.029 A 
ATOM     46  C   UNL A   1      43.290  27.572  32.139  1.00  0.00     0.049 A 
ATOM     47  H   UNL A   1      41.528  28.424  31.351  1.00  0.00     0.167 HD
ATOM     48  C   UNL A   1      42.468  29.038  33.965  1.00  0.00     0.074 A 
ATOM     49  C   UNL A   1      42.527  29.576  35.310  1.00  0.00     0.031 C 
ATOM     50  C   UNL A   1      43.355  28.146  33.459  1.00  0.00     0.034 A 
BRANCH  37  51
ATOM     51  C   UNL A   1      42.046  26.201  27.732  1.00  0.00     0.023 A 
ATOM     52  C   UNL A   1      42.889  26.659  26.700  1.00  0.00     0.012 A 
ATOM     53  C   UNL A   1      41.572  24.874  27.697  1.00  0.00     0.148 A 
ATOM     54  C   UNL A   1      43.218  25.826  25.629  1.00  0.00     0.002 A 
ATOM     55  C   UNL A   1      41.944  24.035  26.653  1.00  0.00     0.091 A 
ATOM     56  F   UNL A   1      40.754  24.460  28.675  1.00  0.00    -0.205 F 
ATOM     57  C   UNL A   1      42.755  24.513  25.611  1.00  0.00     0.022 A 
BRANCH  55  58
ATOM     58  S   UNL A   1      41.466  22.304  26.584  1.00  0.00     0.127 S 
ATOM     59  O   UNL A   1      40.012  22.405  26.465  1.00  0.00    -0.237 OA
ATOM     60  O   UNL A   1      42.145  21.845  25.372  1.00  0.00    -0.237 OA
ATOM     61  O   UNL A   1      41.954  21.703  27.817  1.00  0.00    -0.744 OA
ENDBRANCH  55  58
ENDBRANCH  37  51
BRANCH  38  62
ATOM     62  C   UNL A   1      39.117  32.075  35.296  1.00  0.00     0.023 A 
ATOM     63  C   UNL A   1      38.196  31.543  36.218  1.00  0.00     0.012 A 
ATOM     64  C   UNL A   1      39.625  33.373  35.503  1.00  0.00     0.148 A 
ATOM     65  C   UNL A   1      37.778  32.293  37.316  1.00  0.00     0.002 A 
ATOM     66  C   UNL A   1      39.252  34.091  36.633  1.00  0.00     0.091 A 
ATOM     67  F   UNL A   1      40.490  33.868  34.605  1.00  0.00    -0.205 F 
ATOM     68  C   UNL A   1      38.315  33.560  37.532  1.00  0.00     0.022 A 
BRANCH  66  69
ATOM     69  S   UNL A   1      39.997  35.668  37.065  1.00  0.00     0.127 S 
ATOM     70  O   UNL A   1      39.655  36.488  35.906  1.00  0.00    -0.237 OA
ATOM     71  O   UNL A   1      39.282  36.010  38.296  1.00  0.00    -0.237 OA
ATOM     72  O   UNL A   1      41.416  35.397  37.250  1.00  0.00    -0.744 OA
ENDBRANCH  66  69
ENDBRANCH  38  62
BRANCH  50  73
ATOM     73  C   UNL A   1      44.489  27.719  34.354  1.00  0.00     0.023 A 
ATOM     74  C   UNL A   1      45.689  28.458  34.368  1.00  0.00     0.012 A 
ATOM     75  C   UNL A   1      44.343  26.619  35.221  1.00  0.00     0.148 A 
ATOM     76  C   UNL A   1      46.740  28.084  35.205  1.00  0.00     0.002 A 
ATOM     77  C   UNL A   1      45.373  26.285  36.091  1.00  0.00     0.091 A 
ATOM     78  F   UNL A   1      43.199  25.919  35.177  1.00  0.00    -0.205 F 
ATOM     79  C   UNL A   1      46.578  27.007  36.073  1.00  0.00     0.022 A 
BRANCH  77  80
ATOM     80  S   UNL A   1      45.218  24.977  37.310  1.00  0.00     0.127 S 
ATOM     81  O   UNL A   1      46.517  25.038  37.979  1.00  0.00    -0.237 OA
ATOM     82  O   UNL A   1      44.091  25.442  38.120  1.00  0.00    -0.237 OA
ATOM     83  O   UNL A   1      44.960  23.755  36.560  1.00  0.00    -0.744 OA
ENDBRANCH  77  80
ENDBRANCH  50  73
ENDBRANCH  24  25
ENDBRANCH  17  19
ENDBRANCH  16  17
ENDBRANCH   1  16
TORSDOF 16
ENDMDL
