MODEL 1
REMARK VINA RESULT:     -10.6      0.000      0.000
REMARK SMILES CC(C)C[C@@H](CNC(=O)[C@@H]1CCOC1)C(=O)OCCOC(=O)c1ccc(-c2c3nc(c(-c4cccc(S(=O)(=O)[O-])c4F)c4ccc([nH]4)c(-c4cccc(S(=O)(=O)[O-])c4F)c4nc(c(-c5cccc(S(=O)(=O)[O-])c5F)c5ccc2[nH]5)C=C4)C=C3)cc1
REMARK SMILES IDX 18 1 17 2 15 3 16 4 5 5 4 6 2 7 1 8 3 9 6 10 7 11 8 12 9 14
REMARK SMILES IDX 10 15 11 16 14 17 12 18 13 19 19 20 20 21 21 22 22 23 23 24
REMARK SMILES IDX 24 25 85 26 25 27 84 28 26 29 27 30 28 31 78 32 29 33 83 34
REMARK SMILES IDX 77 35 79 36 30 37 82 38 76 39 75 40 31 42 63 43 43 44 62 45
REMARK SMILES IDX 44 46 47 47 61 48 80 49 45 50 46 51 60 53 81 54 48 55 32 56
REMARK SMILES IDX 33 57 41 58 34 59 36 60 42 61 35 62 37 63 38 64 39 65 40 66
REMARK SMILES IDX 64 67 65 68 73 69 66 70 68 71 74 72 67 73 69 74 70 75 71 76
REMARK SMILES IDX 72 77 49 78 50 79 58 80 51 81 53 82 59 83 52 84 54 85 55 86
REMARK SMILES IDX 56 87 57 88
REMARK H PARENT 7 13 79 41 47 52
REMARK Flexibility Score: inf
ROOT
ATOM      1  C   UNL A   1      35.601  21.506  25.893  1.00  0.00     0.274 C 
ENDROOT
BRANCH   1   2
ATOM      2  O   UNL A   1      34.641  22.129  25.014  1.00  0.00    -0.462 OA
BRANCH   2   3
ATOM      3  C   UNL A   1      33.829  23.040  25.606  1.00  0.00     0.310 C 
ATOM      4  O   UNL A   1      34.216  23.940  26.342  1.00  0.00    -0.252 OA
BRANCH   3   5
ATOM      5  C   UNL A   1      32.358  22.841  25.315  1.00  0.00     0.118 C 
BRANCH   5   6
ATOM      6  C   UNL A   1      31.849  23.548  24.048  1.00  0.00     0.020 C 
BRANCH   6   7
ATOM      7  C   UNL A   1      32.957  24.052  23.089  1.00  0.00    -0.017 C 
ATOM      8  C   UNL A   1      33.184  23.137  21.881  1.00  0.00     0.007 C 
ATOM      9  C   UNL A   1      32.611  25.457  22.586  1.00  0.00     0.007 C 
ENDBRANCH   6   7
ENDBRANCH   5   6
BRANCH   5  10
ATOM     10  C   UNL A   1      32.004  21.361  25.442  1.00  0.00     0.131 C 
BRANCH  10  11
ATOM     11  N   UNL A   1      31.998  20.634  24.191  1.00  0.00    -0.355 N 
ATOM     12  C   UNL A   1      32.458  19.417  23.820  1.00  0.00     0.225 C 
ATOM     13  H   UNL A   1      31.570  21.128  23.455  1.00  0.00     0.163 HD
ATOM     14  O   UNL A   1      32.254  19.118  22.634  1.00  0.00    -0.275 OA
BRANCH  12  15
ATOM     15  C   UNL A   1      33.247  18.434  24.680  1.00  0.00     0.106 C 
ATOM     16  C   UNL A   1      34.560  17.819  24.266  1.00  0.00     0.044 C 
ATOM     17  C   UNL A   1      32.383  17.249  25.069  1.00  0.00     0.173 C 
ATOM     18  C   UNL A   1      34.228  16.378  23.936  1.00  0.00     0.161 C 
ATOM     19  O   UNL A   1      33.022  16.052  24.625  1.00  0.00    -0.381 OA
ENDBRANCH  12  15
ENDBRANCH  10  11
ENDBRANCH   5  10
ENDBRANCH   3   5
ENDBRANCH   2   3
ENDBRANCH   1   2
BRANCH   1  20
ATOM     20  C   UNL A   1      36.663  20.694  25.140  1.00  0.00     0.275 C 
BRANCH  20  21
ATOM     21  O   UNL A   1      37.902  21.411  24.981  1.00  0.00    -0.458 OA
BRANCH  21  22
ATOM     22  C   UNL A   1      38.879  21.065  25.852  1.00  0.00     0.338 C 
ATOM     23  O   UNL A   1      39.338  19.949  26.031  1.00  0.00    -0.246 OA
BRANCH  22  24
ATOM     24  C   UNL A   1      39.451  22.265  26.484  1.00  0.00     0.060 A 
ATOM     25  C   UNL A   1      38.976  23.510  26.062  1.00  0.00     0.016 A 
ATOM     26  C   UNL A   1      40.506  22.181  27.392  1.00  0.00     0.016 A 
ATOM     27  C   UNL A   1      39.553  24.683  26.530  1.00  0.00     0.010 A 
ATOM     28  C   UNL A   1      41.099  23.361  27.852  1.00  0.00     0.010 A 
ATOM     29  C   UNL A   1      40.639  24.613  27.406  1.00  0.00    -0.014 A 
BRANCH  29  30
ATOM     30  C   UNL A   1      41.365  25.853  27.761  1.00  0.00     0.031 A 
ATOM     31  C   UNL A   1      40.644  26.925  28.524  1.00  0.00     0.074 A 
ATOM     32  C   UNL A   1      42.653  26.007  27.412  1.00  0.00     0.049 A 
ATOM     33  N   UNL A   1      41.051  28.122  28.851  1.00  0.00    -0.248 NA
ATOM     34  C   UNL A   1      39.281  26.604  28.982  1.00  0.00     0.031 C 
ATOM     35  C   UNL A   1      43.461  25.013  26.706  1.00  0.00     0.029 A 
ATOM     36  N   UNL A   1      43.501  27.072  27.582  1.00  0.00    -0.354 N 
ATOM     37  C   UNL A   1      39.982  28.716  29.508  1.00  0.00     0.074 A 
ATOM     38  C   UNL A   1      38.910  27.746  29.545  1.00  0.00     0.031 C 
ATOM     39  C   UNL A   1      44.680  25.528  26.474  1.00  0.00     0.029 A 
ATOM     40  C   UNL A   1      44.724  26.897  26.981  1.00  0.00     0.049 A 
ATOM     41  H   UNL A   1      43.256  27.882  28.086  1.00  0.00     0.167 HD
ATOM     42  C   UNL A   1      39.905  29.959  30.040  1.00  0.00     0.034 A 
ATOM     43  C   UNL A   1      45.749  27.759  26.829  1.00  0.00     0.034 A 
ATOM     44  C   UNL A   1      40.987  30.905  30.030  1.00  0.00     0.049 A 
ATOM     45  C   UNL A   1      45.630  29.144  27.410  1.00  0.00     0.074 A 
ATOM     46  C   UNL A   1      41.021  32.180  30.564  1.00  0.00     0.029 A 
ATOM     47  N   UNL A   1      42.227  30.678  29.452  1.00  0.00    -0.354 N 
ATOM     48  N   UNL A   1      44.643  29.668  28.097  1.00  0.00    -0.248 NA
ATOM     49  C   UNL A   1      46.772  30.048  27.216  1.00  0.00     0.031 C 
ATOM     50  C   UNL A   1      42.281  32.729  30.301  1.00  0.00     0.029 A 
ATOM     51  C   UNL A   1      43.035  31.791  29.614  1.00  0.00     0.049 A 
ATOM     52  H   UNL A   1      42.494  29.849  28.995  1.00  0.00     0.167 HD
ATOM     53  C   UNL A   1      45.055  30.951  28.442  1.00  0.00     0.074 A 
ATOM     54  C   UNL A   1      46.391  31.116  27.904  1.00  0.00     0.031 C 
ATOM     55  C   UNL A   1      44.385  31.911  29.124  1.00  0.00     0.034 A 
BRANCH  42  56
ATOM     56  C   UNL A   1      38.611  30.354  30.694  1.00  0.00     0.023 A 
ATOM     57  C   UNL A   1      38.385  30.027  32.046  1.00  0.00     0.012 A 
ATOM     58  C   UNL A   1      37.634  31.079  29.984  1.00  0.00     0.148 A 
ATOM     59  C   UNL A   1      37.194  30.391  32.675  1.00  0.00     0.002 A 
ATOM     60  C   UNL A   1      36.464  31.470  30.628  1.00  0.00     0.091 A 
ATOM     61  F   UNL A   1      37.853  31.353  28.691  1.00  0.00    -0.205 F 
ATOM     62  C   UNL A   1      36.240  31.120  31.969  1.00  0.00     0.022 A 
BRANCH  60  63
ATOM     63  S   UNL A   1      35.209  32.465  29.816  1.00  0.00     0.127 S 
ATOM     64  O   UNL A   1      34.740  31.556  28.771  1.00  0.00    -0.237 OA
ATOM     65  O   UNL A   1      34.249  32.698  30.896  1.00  0.00    -0.237 OA
ATOM     66  O   UNL A   1      35.893  33.662  29.349  1.00  0.00    -0.744 OA
ENDBRANCH  60  63
ENDBRANCH  42  56
BRANCH  43  67
ATOM     67  C   UNL A   1      46.983  27.325  26.118  1.00  0.00     0.023 A 
ATOM     68  C   UNL A   1      47.155  27.663  24.762  1.00  0.00     0.012 A 
ATOM     69  C   UNL A   1      48.002  26.615  26.784  1.00  0.00     0.148 A 
ATOM     70  C   UNL A   1      48.310  27.284  24.076  1.00  0.00     0.002 A 
ATOM     71  C   UNL A   1      49.172  26.287  26.109  1.00  0.00     0.091 A 
ATOM     72  F   UNL A   1      47.809  26.283  28.068  1.00  0.00    -0.205 F 
ATOM     73  C   UNL A   1      49.322  26.608  24.752  1.00  0.00     0.022 A 
BRANCH  71  74
ATOM     74  S   UNL A   1      50.577  25.531  26.936  1.00  0.00     0.127 S 
ATOM     75  O   UNL A   1      51.504  25.331  25.827  1.00  0.00    -0.237 OA
ATOM     76  O   UNL A   1      50.967  26.573  27.887  1.00  0.00    -0.237 OA
ATOM     77  O   UNL A   1      50.057  24.320  27.557  1.00  0.00    -0.744 OA
ENDBRANCH  71  74
ENDBRANCH  43  67
BRANCH  55  78
ATOM     78  C   UNL A   1      45.089  33.220  29.359  1.00  0.00     0.023 A 
ATOM     79  C   UNL A   1      45.872  33.389  30.517  1.00  0.00     0.012 A 
ATOM     80  C   UNL A   1      45.046  34.245  28.393  1.00  0.00     0.148 A 
ATOM     81  C   UNL A   1      46.586  34.570  30.721  1.00  0.00     0.002 A 
ATOM     82  C   UNL A   1      45.794  35.402  28.583  1.00  0.00     0.091 A 
ATOM     83  F   UNL A   1      44.277  34.072  27.308  1.00  0.00    -0.205 F 
ATOM     84  C   UNL A   1      46.557  35.569  29.750  1.00  0.00     0.022 A 
BRANCH  82  85
ATOM     85  S   UNL A   1      45.884  36.695  27.340  1.00  0.00     0.127 S 
ATOM     86  O   UNL A   1      46.125  35.922  26.123  1.00  0.00    -0.237 OA
ATOM     87  O   UNL A   1      44.555  37.304  27.422  1.00  0.00    -0.237 OA
ATOM     88  O   UNL A   1      46.972  37.571  27.756  1.00  0.00    -0.744 OA
ENDBRANCH  82  85
ENDBRANCH  55  78
ENDBRANCH  29  30
ENDBRANCH  22  24
ENDBRANCH  21  22
ENDBRANCH  20  21
ENDBRANCH   1  20
TORSDOF 19
ENDMDL
MODEL 2
REMARK VINA RESULT:     -10.6      1.255      3.064
REMARK SMILES CC(C)C[C@@H](CNC(=O)[C@@H]1CCOC1)C(=O)OCCOC(=O)c1ccc(-c2c3nc(c(-c4cccc(S(=O)(=O)[O-])c4F)c4ccc([nH]4)c(-c4cccc(S(=O)(=O)[O-])c4F)c4nc(c(-c5cccc(S(=O)(=O)[O-])c5F)c5ccc2[nH]5)C=C4)C=C3)cc1
REMARK SMILES IDX 18 1 17 2 15 3 16 4 5 5 4 6 2 7 1 8 3 9 6 10 7 11 8 12 9 14
REMARK SMILES IDX 10 15 11 16 14 17 12 18 13 19 19 20 20 21 21 22 22 23 23 24
REMARK SMILES IDX 24 25 85 26 25 27 84 28 26 29 27 30 28 31 78 32 29 33 83 34
REMARK SMILES IDX 77 35 79 36 30 37 82 38 76 39 75 40 31 42 63 43 43 44 62 45
REMARK SMILES IDX 44 46 47 47 61 48 80 49 45 50 46 51 60 53 81 54 48 55 32 56
REMARK SMILES IDX 33 57 41 58 34 59 36 60 42 61 35 62 37 63 38 64 39 65 40 66
REMARK SMILES IDX 64 67 65 68 73 69 66 70 68 71 74 72 67 73 69 74 70 75 71 76
REMARK SMILES IDX 72 77 49 78 50 79 58 80 51 81 53 82 59 83 52 84 54 85 55 86
REMARK SMILES IDX 56 87 57 88
REMARK H PARENT 7 13 79 41 47 52
REMARK Flexibility Score: inf
ROOT
ATOM      1  C   UNL A   1      36.490  22.842  23.710  1.00  0.00     0.274 C 
ENDROOT
BRANCH   1   2
ATOM      2  O   UNL A   1      35.150  22.683  23.199  1.00  0.00    -0.462 OA
BRANCH   2   3
ATOM      3  C   UNL A   1      34.180  22.622  24.145  1.00  0.00     0.310 C 
ATOM      4  O   UNL A   1      34.308  23.021  25.297  1.00  0.00    -0.252 OA
BRANCH   3   5
ATOM      5  C   UNL A   1      32.896  21.975  23.676  1.00  0.00     0.118 C 
BRANCH   5   6
ATOM      6  C   UNL A   1      32.273  20.980  24.670  1.00  0.00     0.020 C 
BRANCH   6   7
ATOM      7  C   UNL A   1      32.565  19.487  24.375  1.00  0.00    -0.017 C 
ATOM      8  C   UNL A   1      32.301  19.089  22.919  1.00  0.00     0.007 C 
ATOM      9  C   UNL A   1      34.022  19.164  24.720  1.00  0.00     0.007 C 
ENDBRANCH   6   7
ENDBRANCH   5   6
BRANCH   5  10
ATOM     10  C   UNL A   1      31.956  23.042  23.121  1.00  0.00     0.131 C 
BRANCH  10  11
ATOM     11  N   UNL A   1      32.525  23.858  22.070  1.00  0.00    -0.355 N 
ATOM     12  C   UNL A   1      32.760  25.184  21.946  1.00  0.00     0.225 C 
ATOM     13  H   UNL A   1      32.799  23.339  21.279  1.00  0.00     0.163 HD
ATOM     14  O   UNL A   1      33.290  25.526  20.878  1.00  0.00    -0.275 OA
BRANCH  12  15
ATOM     15  C   UNL A   1      32.379  26.279  22.938  1.00  0.00     0.106 C 
ATOM     16  C   UNL A   1      32.232  27.734  22.570  1.00  0.00     0.044 C 
ATOM     17  C   UNL A   1      33.328  26.284  24.122  1.00  0.00     0.173 C 
ATOM     18  C   UNL A   1      33.449  28.411  23.168  1.00  0.00     0.161 C 
ATOM     19  O   UNL A   1      33.919  27.580  24.229  1.00  0.00    -0.381 OA
ENDBRANCH  12  15
ENDBRANCH  10  11
ENDBRANCH   5  10
ENDBRANCH   3   5
ENDBRANCH   2   3
ENDBRANCH   1   2
BRANCH   1  20
ATOM     20  C   UNL A   1      37.095  21.528  24.222  1.00  0.00     0.275 C 
BRANCH  20  21
ATOM     21  O   UNL A   1      37.372  21.556  25.634  1.00  0.00    -0.458 OA
BRANCH  21  22
ATOM     22  C   UNL A   1      38.656  21.284  25.971  1.00  0.00     0.338 C 
ATOM     23  O   UNL A   1      39.284  20.274  25.701  1.00  0.00    -0.246 OA
BRANCH  22  24
ATOM     24  C   UNL A   1      39.281  22.459  26.600  1.00  0.00     0.060 A 
ATOM     25  C   UNL A   1      38.778  23.720  26.264  1.00  0.00     0.016 A 
ATOM     26  C   UNL A   1      40.403  22.340  27.417  1.00  0.00     0.016 A 
ATOM     27  C   UNL A   1      39.395  24.873  26.729  1.00  0.00     0.010 A 
ATOM     28  C   UNL A   1      41.036  23.501  27.874  1.00  0.00     0.010 A 
ATOM     29  C   UNL A   1      40.546  24.770  27.513  1.00  0.00    -0.014 A 
BRANCH  29  30
ATOM     30  C   UNL A   1      41.303  25.994  27.856  1.00  0.00     0.031 A 
ATOM     31  C   UNL A   1      40.623  27.072  28.649  1.00  0.00     0.074 A 
ATOM     32  C   UNL A   1      42.583  26.130  27.470  1.00  0.00     0.049 A 
ATOM     33  N   UNL A   1      41.059  28.259  28.973  1.00  0.00    -0.248 NA
ATOM     34  C   UNL A   1      39.269  26.769  29.145  1.00  0.00     0.031 C 
ATOM     35  C   UNL A   1      43.353  25.130  26.732  1.00  0.00     0.029 A 
ATOM     36  N   UNL A   1      43.453  27.180  27.624  1.00  0.00    -0.354 N 
ATOM     37  C   UNL A   1      40.020  28.865  29.667  1.00  0.00     0.074 A 
ATOM     38  C   UNL A   1      38.934  27.912  29.728  1.00  0.00     0.031 C 
ATOM     39  C   UNL A   1      44.573  25.627  26.468  1.00  0.00     0.029 A 
ATOM     40  C   UNL A   1      44.655  26.991  26.984  1.00  0.00     0.049 A 
ATOM     41  H   UNL A   1      43.236  27.990  28.140  1.00  0.00     0.167 HD
ATOM     42  C   UNL A   1      39.979  30.104  30.210  1.00  0.00     0.034 A 
ATOM     43  C   UNL A   1      45.688  27.838  26.809  1.00  0.00     0.034 A 
ATOM     44  C   UNL A   1      41.076  31.032  30.176  1.00  0.00     0.049 A 
ATOM     45  C   UNL A   1      45.609  29.219  27.405  1.00  0.00     0.074 A 
ATOM     46  C   UNL A   1      41.147  32.303  30.719  1.00  0.00     0.029 A 
ATOM     47  N   UNL A   1      42.294  30.791  29.559  1.00  0.00    -0.354 N 
ATOM     48  N   UNL A   1      44.652  29.753  28.125  1.00  0.00    -0.248 NA
ATOM     49  C   UNL A   1      46.760  30.106  27.183  1.00  0.00     0.031 C 
ATOM     50  C   UNL A   1      42.407  32.833  30.423  1.00  0.00     0.029 A 
ATOM     51  C   UNL A   1      43.125  31.889  29.706  1.00  0.00     0.049 A 
ATOM     52  H   UNL A   1      42.534  29.961  29.088  1.00  0.00     0.167 HD
ATOM     53  C   UNL A   1      45.095  31.026  28.467  1.00  0.00     0.074 A 
ATOM     54  C   UNL A   1      46.417  31.175  27.891  1.00  0.00     0.031 C 
ATOM     55  C   UNL A   1      44.461  31.991  29.176  1.00  0.00     0.034 A 
BRANCH  42  56
ATOM     56  C   UNL A   1      38.711  30.515  30.906  1.00  0.00     0.023 A 
ATOM     57  C   UNL A   1      38.538  30.215  32.272  1.00  0.00     0.012 A 
ATOM     58  C   UNL A   1      37.708  31.227  30.220  1.00  0.00     0.148 A 
ATOM     59  C   UNL A   1      37.372  30.594  32.939  1.00  0.00     0.002 A 
ATOM     60  C   UNL A   1      36.565  31.632  30.900  1.00  0.00     0.091 A 
ATOM     61  F   UNL A   1      37.878  31.475  28.914  1.00  0.00    -0.205 F 
ATOM     62  C   UNL A   1      36.393  31.310  32.256  1.00  0.00     0.022 A 
BRANCH  60  63
ATOM     63  S   UNL A   1      35.281  32.614  30.118  1.00  0.00     0.127 S 
ATOM     64  O   UNL A   1      36.025  33.806  29.712  1.00  0.00    -0.237 OA
ATOM     65  O   UNL A   1      34.861  31.753  29.011  1.00  0.00    -0.237 OA
ATOM     66  O   UNL A   1      34.264  32.823  31.138  1.00  0.00    -0.744 OA
ENDBRANCH  60  63
ENDBRANCH  42  56
BRANCH  43  67
ATOM     67  C   UNL A   1      46.894  27.390  26.057  1.00  0.00     0.023 A 
ATOM     68  C   UNL A   1      46.980  27.641  24.675  1.00  0.00     0.012 A 
ATOM     69  C   UNL A   1      47.968  26.752  26.709  1.00  0.00     0.148 A 
ATOM     70  C   UNL A   1      48.106  27.248  23.950  1.00  0.00     0.002 A 
ATOM     71  C   UNL A   1      49.108  26.411  25.991  1.00  0.00     0.091 A 
ATOM     72  F   UNL A   1      47.857  26.500  28.021  1.00  0.00    -0.205 F 
ATOM     73  C   UNL A   1      49.173  26.645  24.610  1.00  0.00     0.022 A 
BRANCH  71  74
ATOM     74  S   UNL A   1      50.578  25.747  26.783  1.00  0.00     0.127 S 
ATOM     75  O   UNL A   1      50.089  24.474  27.304  1.00  0.00    -0.237 OA
ATOM     76  O   UNL A   1      51.507  25.637  25.657  1.00  0.00    -0.237 OA
ATOM     77  O   UNL A   1      50.964  26.736  27.781  1.00  0.00    -0.744 OA
ENDBRANCH  71  74
ENDBRANCH  43  67
BRANCH  55  78
ATOM     78  C   UNL A   1      45.193  33.287  29.401  1.00  0.00     0.023 A 
ATOM     79  C   UNL A   1      46.178  33.364  30.405  1.00  0.00     0.012 A 
ATOM     80  C   UNL A   1      44.970  34.396  28.561  1.00  0.00     0.148 A 
ATOM     81  C   UNL A   1      46.914  34.534  30.585  1.00  0.00     0.002 A 
ATOM     82  C   UNL A   1      45.736  35.545  28.719  1.00  0.00     0.091 A 
ATOM     83  F   UNL A   1      44.013  34.309  27.625  1.00  0.00    -0.205 F 
ATOM     84  C   UNL A   1      46.702  35.618  29.736  1.00  0.00     0.022 A 
BRANCH  82  85
ATOM     85  S   UNL A   1      45.591  36.950  27.609  1.00  0.00     0.127 S 
ATOM     86  O   UNL A   1      46.117  36.399  26.361  1.00  0.00    -0.237 OA
ATOM     87  O   UNL A   1      44.149  37.199  27.605  1.00  0.00    -0.237 OA
ATOM     88  O   UNL A   1      46.383  38.014  28.211  1.00  0.00    -0.744 OA
ENDBRANCH  82  85
ENDBRANCH  55  78
ENDBRANCH  29  30
ENDBRANCH  22  24
ENDBRANCH  21  22
ENDBRANCH  20  21
ENDBRANCH   1  20
TORSDOF 19
ENDMDL
MODEL 3
REMARK VINA RESULT:     -10.5      2.104      3.503
REMARK SMILES CC(C)C[C@@H](CNC(=O)[C@@H]1CCOC1)C(=O)OCCOC(=O)c1ccc(-c2c3nc(c(-c4cccc(S(=O)(=O)[O-])c4F)c4ccc([nH]4)c(-c4cccc(S(=O)(=O)[O-])c4F)c4nc(c(-c5cccc(S(=O)(=O)[O-])c5F)c5ccc2[nH]5)C=C4)C=C3)cc1
REMARK SMILES IDX 18 1 17 2 15 3 16 4 5 5 4 6 2 7 1 8 3 9 6 10 7 11 8 12 9 14
REMARK SMILES IDX 10 15 11 16 14 17 12 18 13 19 19 20 20 21 21 22 22 23 23 24
REMARK SMILES IDX 24 25 85 26 25 27 84 28 26 29 27 30 28 31 78 32 29 33 83 34
REMARK SMILES IDX 77 35 79 36 30 37 82 38 76 39 75 40 31 42 63 43 43 44 62 45
REMARK SMILES IDX 44 46 47 47 61 48 80 49 45 50 46 51 60 53 81 54 48 55 32 56
REMARK SMILES IDX 33 57 41 58 34 59 36 60 42 61 35 62 37 63 38 64 39 65 40 66
REMARK SMILES IDX 64 67 65 68 73 69 66 70 68 71 74 72 67 73 69 74 70 75 71 76
REMARK SMILES IDX 72 77 49 78 50 79 58 80 51 81 53 82 59 83 52 84 54 85 55 86
REMARK SMILES IDX 56 87 57 88
REMARK H PARENT 7 13 79 41 47 52
REMARK Flexibility Score: inf
ROOT
ATOM      1  C   UNL A   1      35.421  21.335  25.790  1.00  0.00     0.274 C 
ENDROOT
BRANCH   1   2
ATOM      2  O   UNL A   1      34.980  22.646  25.377  1.00  0.00    -0.462 OA
BRANCH   2   3
ATOM      3  C   UNL A   1      34.185  23.289  26.268  1.00  0.00     0.310 C 
ATOM      4  O   UNL A   1      34.186  23.082  27.475  1.00  0.00    -0.252 OA
BRANCH   3   5
ATOM      5  C   UNL A   1      33.238  24.292  25.643  1.00  0.00     0.118 C 
BRANCH   5   6
ATOM      6  C   UNL A   1      32.219  24.909  26.615  1.00  0.00     0.020 C 
BRANCH   6   7
ATOM      7  C   UNL A   1      30.737  24.569  26.316  1.00  0.00    -0.017 C 
ATOM      8  C   UNL A   1      30.245  25.113  24.971  1.00  0.00     0.007 C 
ATOM      9  C   UNL A   1      30.537  23.051  26.340  1.00  0.00     0.007 C 
ENDBRANCH   6   7
ENDBRANCH   5   6
BRANCH   5  10
ATOM     10  C   UNL A   1      34.028  25.278  24.787  1.00  0.00     0.131 C 
BRANCH  10  11
ATOM     11  N   UNL A   1      33.838  25.124  23.360  1.00  0.00    -0.355 N 
ATOM     12  C   UNL A   1      33.565  25.991  22.359  1.00  0.00     0.225 C 
ATOM     13  H   UNL A   1      33.926  24.192  23.055  1.00  0.00     0.163 HD
ATOM     14  O   UNL A   1      33.487  25.482  21.230  1.00  0.00    -0.275 OA
BRANCH  12  15
ATOM     15  C   UNL A   1      33.279  27.484  22.492  1.00  0.00     0.106 C 
ATOM     16  C   UNL A   1      34.168  28.448  23.237  1.00  0.00     0.044 C 
ATOM     17  C   UNL A   1      31.899  27.716  23.076  1.00  0.00     0.173 C 
ATOM     18  C   UNL A   1      33.409  28.773  24.507  1.00  0.00     0.161 C 
ATOM     19  O   UNL A   1      32.030  28.506  24.258  1.00  0.00    -0.381 OA
ENDBRANCH  12  15
ENDBRANCH  10  11
ENDBRANCH   5  10
ENDBRANCH   3   5
ENDBRANCH   2   3
ENDBRANCH   1   2
BRANCH   1  20
ATOM     20  C   UNL A   1      36.540  20.774  24.904  1.00  0.00     0.275 C 
BRANCH  20  21
ATOM     21  O   UNL A   1      37.716  21.606  24.900  1.00  0.00    -0.458 OA
BRANCH  21  22
ATOM     22  C   UNL A   1      38.698  21.212  25.746  1.00  0.00     0.338 C 
ATOM     23  O   UNL A   1      39.134  20.081  25.885  1.00  0.00    -0.246 OA
BRANCH  22  24
ATOM     24  C   UNL A   1      39.308  22.379  26.402  1.00  0.00     0.060 A 
ATOM     25  C   UNL A   1      38.802  23.643  26.082  1.00  0.00     0.016 A 
ATOM     26  C   UNL A   1      40.423  22.253  27.230  1.00  0.00     0.016 A 
ATOM     27  C   UNL A   1      39.406  24.792  26.574  1.00  0.00     0.010 A 
ATOM     28  C   UNL A   1      41.043  23.410  27.713  1.00  0.00     0.010 A 
ATOM     29  C   UNL A   1      40.550  24.682  27.369  1.00  0.00    -0.014 A 
BRANCH  29  30
ATOM     30  C   UNL A   1      41.295  25.905  27.741  1.00  0.00     0.031 A 
ATOM     31  C   UNL A   1      40.591  26.976  28.521  1.00  0.00     0.074 A 
ATOM     32  C   UNL A   1      42.585  26.045  27.392  1.00  0.00     0.049 A 
ATOM     33  N   UNL A   1      41.017  28.162  28.866  1.00  0.00    -0.248 NA
ATOM     34  C   UNL A   1      39.224  26.669  28.976  1.00  0.00     0.031 C 
ATOM     35  C   UNL A   1      43.376  25.050  26.670  1.00  0.00     0.029 A 
ATOM     36  N   UNL A   1      43.448  27.094  27.577  1.00  0.00    -0.354 N 
ATOM     37  C   UNL A   1      39.957  28.762  29.533  1.00  0.00     0.074 A 
ATOM     38  C   UNL A   1      38.871  27.808  29.557  1.00  0.00     0.031 C 
ATOM     39  C   UNL A   1      44.603  25.550  26.444  1.00  0.00     0.029 A 
ATOM     40  C   UNL A   1      44.668  26.911  26.971  1.00  0.00     0.049 A 
ATOM     41  H   UNL A   1      43.216  27.901  28.093  1.00  0.00     0.167 HD
ATOM     42  C   UNL A   1      39.900  29.998  30.084  1.00  0.00     0.034 A 
ATOM     43  C   UNL A   1      45.705  27.759  26.831  1.00  0.00     0.034 A 
ATOM     44  C   UNL A   1      40.996  30.927  30.086  1.00  0.00     0.049 A 
ATOM     45  C   UNL A   1      45.608  29.137  27.433  1.00  0.00     0.074 A 
ATOM     46  C   UNL A   1      41.049  32.194  30.639  1.00  0.00     0.029 A 
ATOM     47  N   UNL A   1      42.231  30.691  29.503  1.00  0.00    -0.354 N 
ATOM     48  N   UNL A   1      44.630  29.665  28.129  1.00  0.00    -0.248 NA
ATOM     49  C   UNL A   1      46.764  30.026  27.250  1.00  0.00     0.031 C 
ATOM     50  C   UNL A   1      42.317  32.728  30.382  1.00  0.00     0.029 A 
ATOM     51  C   UNL A   1      43.056  31.789  29.680  1.00  0.00     0.049 A 
ATOM     52  H   UNL A   1      42.486  29.865  29.033  1.00  0.00     0.167 HD
ATOM     53  C   UNL A   1      45.062  30.936  28.492  1.00  0.00     0.074 A 
ATOM     54  C   UNL A   1      46.400  31.090  27.955  1.00  0.00     0.031 C 
ATOM     55  C   UNL A   1      44.407  31.896  29.189  1.00  0.00     0.034 A 
BRANCH  42  56
ATOM     56  C   UNL A   1      38.612  30.403  30.746  1.00  0.00     0.023 A 
ATOM     57  C   UNL A   1      38.386  30.064  32.095  1.00  0.00     0.012 A 
ATOM     58  C   UNL A   1      37.642  31.147  30.046  1.00  0.00     0.148 A 
ATOM     59  C   UNL A   1      37.201  30.436  32.730  1.00  0.00     0.002 A 
ATOM     60  C   UNL A   1      36.480  31.546  30.697  1.00  0.00     0.091 A 
ATOM     61  F   UNL A   1      37.862  31.433  28.755  1.00  0.00    -0.205 F 
ATOM     62  C   UNL A   1      36.255  31.185  32.035  1.00  0.00     0.022 A 
BRANCH  60  63
ATOM     63  S   UNL A   1      35.236  32.566  29.900  1.00  0.00     0.127 S 
ATOM     64  O   UNL A   1      34.706  31.651  28.890  1.00  0.00    -0.237 OA
ATOM     65  O   UNL A   1      34.316  32.855  31.001  1.00  0.00    -0.237 OA
ATOM     66  O   UNL A   1      35.945  33.729  29.387  1.00  0.00    -0.744 OA
ENDBRANCH  60  63
ENDBRANCH  42  56
BRANCH  43  67
ATOM     67  C   UNL A   1      46.932  27.318  26.111  1.00  0.00     0.023 A 
ATOM     68  C   UNL A   1      47.846  26.467  26.760  1.00  0.00     0.012 A 
ATOM     69  C   UNL A   1      47.179  27.703  24.779  1.00  0.00     0.148 A 
ATOM     70  C   UNL A   1      48.996  26.024  26.104  1.00  0.00     0.002 A 
ATOM     71  C   UNL A   1      48.298  27.216  24.113  1.00  0.00     0.091 A 
ATOM     72  F   UNL A   1      46.309  28.533  24.185  1.00  0.00    -0.205 F 
ATOM     73  C   UNL A   1      49.214  26.388  24.777  1.00  0.00     0.022 A 
BRANCH  71  74
ATOM     74  S   UNL A   1      48.590  27.531  22.368  1.00  0.00     0.127 S 
ATOM     75  O   UNL A   1      47.407  28.305  22.002  1.00  0.00    -0.237 OA
ATOM     76  O   UNL A   1      49.840  28.292  22.401  1.00  0.00    -0.237 OA
ATOM     77  O   UNL A   1      48.707  26.217  21.748  1.00  0.00    -0.744 OA
ENDBRANCH  71  74
ENDBRANCH  43  67
BRANCH  55  78
ATOM     78  C   UNL A   1      45.130  33.191  29.443  1.00  0.00     0.023 A 
ATOM     79  C   UNL A   1      45.937  33.323  30.590  1.00  0.00     0.012 A 
ATOM     80  C   UNL A   1      45.083  34.239  28.503  1.00  0.00     0.148 A 
ATOM     81  C   UNL A   1      46.668  34.490  30.810  1.00  0.00     0.002 A 
ATOM     82  C   UNL A   1      45.848  35.382  28.707  1.00  0.00     0.091 A 
ATOM     83  F   UNL A   1      44.293  34.102  27.428  1.00  0.00    -0.205 F 
ATOM     84  C   UNL A   1      46.634  35.512  29.863  1.00  0.00     0.022 A 
BRANCH  82  85
ATOM     85  S   UNL A   1      45.932  36.704  27.493  1.00  0.00     0.127 S 
ATOM     86  O   UNL A   1      44.555  37.195  27.492  1.00  0.00    -0.237 OA
ATOM     87  O   UNL A   1      46.905  37.619  28.093  1.00  0.00    -0.237 OA
ATOM     88  O   UNL A   1      46.380  36.079  26.256  1.00  0.00    -0.744 OA
ENDBRANCH  82  85
ENDBRANCH  55  78
ENDBRANCH  29  30
ENDBRANCH  22  24
ENDBRANCH  21  22
ENDBRANCH  20  21
ENDBRANCH   1  20
TORSDOF 19
ENDMDL
