MODEL 1
REMARK VINA RESULT:     -10.7      0.000      0.000
REMARK SMILES O=C(OCCOC(=O)[C@@H]1C=C[C@H](NC(=O)[C@@H]2CCSC2)C1)c1ccc(-c2c3nc(c(-c4cccc(S(=O)(=O)[O-])c4F)c4ccc([nH]4)c(-c4cccc(S(=O)(=O)[O-])c4F)c4nc(c(-c5cccc(S(=O)(=O)[O-])c5F)c5ccc2[nH]5)C=C4)C=C3)cc1
REMARK SMILES IDX 4 1 3 2 2 3 1 4 22 5 23 6 84 7 24 8 83 9 25 10 26 11 27 12
REMARK SMILES IDX 77 13 28 14 82 15 76 16 78 17 29 18 81 19 75 20 74 21 30 23
REMARK SMILES IDX 62 24 42 25 61 26 43 27 46 28 60 29 79 30 44 31 45 32 59 34
REMARK SMILES IDX 80 35 47 36 31 37 32 38 40 39 33 40 35 41 41 42 34 43 36 44
REMARK SMILES IDX 37 45 38 46 39 47 63 48 64 49 72 50 65 51 67 52 73 53 66 54
REMARK SMILES IDX 68 55 69 56 70 57 71 58 48 59 49 60 57 61 50 62 52 63 58 64
REMARK SMILES IDX 51 65 53 66 54 67 55 68 56 69 5 70 6 71 7 72 8 73 9 74 10 75
REMARK SMILES IDX 21 76 11 77 12 78 13 79 14 80 15 82 16 83 17 84 20 85 18 86
REMARK SMILES IDX 19 87
REMARK H PARENT 78 22 46 33 13 81
REMARK Flexibility Score: inf
ROOT
ATOM      1  C   UNL A   1      40.369  20.582  26.857  1.00  0.00     0.275 C 
ENDROOT
BRANCH   1   2
ATOM      2  O   UNL A   1      39.968  21.746  26.119  1.00  0.00    -0.458 OA
BRANCH   2   3
ATOM      3  C   UNL A   1      39.035  22.683  26.407  1.00  0.00     0.338 C 
ATOM      4  O   UNL A   1      37.864  22.426  26.122  1.00  0.00    -0.246 OA
BRANCH   3   5
ATOM      5  C   UNL A   1      39.332  24.045  26.975  1.00  0.00     0.060 A 
ATOM      6  C   UNL A   1      39.106  24.485  28.289  1.00  0.00     0.016 A 
ATOM      7  C   UNL A   1      39.959  24.944  26.094  1.00  0.00     0.016 A 
ATOM      8  C   UNL A   1      39.589  25.730  28.748  1.00  0.00     0.010 A 
ATOM      9  C   UNL A   1      40.458  26.172  26.551  1.00  0.00     0.010 A 
ATOM     10  C   UNL A   1      40.292  26.575  27.891  1.00  0.00    -0.014 A 
BRANCH  10  11
ATOM     11  C   UNL A   1      40.713  27.958  28.245  1.00  0.00     0.031 A 
ATOM     12  C   UNL A   1      42.164  28.164  28.529  1.00  0.00     0.074 A 
ATOM     13  C   UNL A   1      39.862  28.986  28.441  1.00  0.00     0.049 A 
ATOM     14  N   UNL A   1      42.756  29.251  28.926  1.00  0.00    -0.248 NA
ATOM     15  C   UNL A   1      43.069  27.029  28.272  1.00  0.00     0.031 C 
ATOM     16  C   UNL A   1      38.488  29.046  27.990  1.00  0.00     0.029 A 
ATOM     17  N   UNL A   1      40.001  30.166  29.134  1.00  0.00    -0.354 N 
ATOM     18  C   UNL A   1      44.103  28.949  28.927  1.00  0.00     0.074 A 
ATOM     19  C   UNL A   1      44.242  27.553  28.581  1.00  0.00     0.031 C 
ATOM     20  C   UNL A   1      37.832  30.042  28.609  1.00  0.00     0.029 A 
ATOM     21  C   UNL A   1      38.794  30.785  29.406  1.00  0.00     0.049 A 
ATOM     22  H   UNL A   1      40.873  30.534  29.408  1.00  0.00     0.167 HD
ATOM     23  C   UNL A   1      45.131  29.795  29.128  1.00  0.00     0.034 A 
ATOM     24  C   UNL A   1      38.503  31.864  30.161  1.00  0.00     0.034 A 
ATOM     25  C   UNL A   1      44.966  31.175  29.470  1.00  0.00     0.049 A 
ATOM     26  C   UNL A   1      39.667  32.734  30.543  1.00  0.00     0.074 A 
ATOM     27  C   UNL A   1      45.939  32.140  29.631  1.00  0.00     0.029 A 
ATOM     28  N   UNL A   1      43.747  31.774  29.752  1.00  0.00    -0.354 N 
ATOM     29  N   UNL A   1      40.943  32.513  30.337  1.00  0.00    -0.248 NA
ATOM     30  C   UNL A   1      39.367  34.054  31.111  1.00  0.00     0.031 C 
ATOM     31  C   UNL A   1      45.312  33.307  30.079  1.00  0.00     0.029 A 
ATOM     32  C   UNL A   1      43.946  33.079  30.154  1.00  0.00     0.049 A 
ATOM     33  H   UNL A   1      42.869  31.333  29.675  1.00  0.00     0.167 HD
ATOM     34  C   UNL A   1      41.590  33.694  30.657  1.00  0.00     0.074 A 
ATOM     35  C   UNL A   1      40.565  34.625  31.092  1.00  0.00     0.031 C 
ATOM     36  C   UNL A   1      42.910  33.988  30.574  1.00  0.00     0.034 A 
BRANCH  23  37
ATOM     37  C   UNL A   1      46.503  29.226  28.971  1.00  0.00     0.023 A 
ATOM     38  C   UNL A   1      47.251  28.860  30.109  1.00  0.00     0.012 A 
ATOM     39  C   UNL A   1      47.052  29.072  27.690  1.00  0.00     0.148 A 
ATOM     40  C   UNL A   1      48.547  28.370  29.970  1.00  0.00     0.002 A 
ATOM     41  C   UNL A   1      48.326  28.542  27.556  1.00  0.00     0.091 A 
ATOM     42  F   UNL A   1      46.327  29.468  26.634  1.00  0.00    -0.205 F 
ATOM     43  C   UNL A   1      49.080  28.201  28.694  1.00  0.00     0.022 A 
BRANCH  41  44
ATOM     44  S   UNL A   1      49.075  28.238  25.956  1.00  0.00     0.127 S 
ATOM     45  O   UNL A   1      50.063  29.315  25.886  1.00  0.00    -0.237 OA
ATOM     46  O   UNL A   1      49.640  26.901  26.142  1.00  0.00    -0.237 OA
ATOM     47  O   UNL A   1      48.001  28.325  24.981  1.00  0.00    -0.744 OA
ENDBRANCH  41  44
ENDBRANCH  23  37
BRANCH  24  48
ATOM     48  C   UNL A   1      37.094  32.276  30.440  1.00  0.00     0.023 A 
ATOM     49  C   UNL A   1      36.485  31.927  31.661  1.00  0.00     0.012 A 
ATOM     50  C   UNL A   1      36.337  32.990  29.485  1.00  0.00     0.148 A 
ATOM     51  C   UNL A   1      35.143  32.233  31.908  1.00  0.00     0.002 A 
ATOM     52  C   UNL A   1      35.008  33.319  29.749  1.00  0.00     0.091 A 
ATOM     53  F   UNL A   1      36.921  33.310  28.320  1.00  0.00    -0.205 F 
ATOM     54  C   UNL A   1      34.406  32.929  30.955  1.00  0.00     0.022 A 
BRANCH  52  55
ATOM     55  S   UNL A   1      34.006  34.294  28.617  1.00  0.00     0.127 S 
ATOM     56  O   UNL A   1      34.859  35.458  28.386  1.00  0.00    -0.237 OA
ATOM     57  O   UNL A   1      33.872  33.393  27.471  1.00  0.00    -0.237 OA
ATOM     58  O   UNL A   1      32.759  34.545  29.324  1.00  0.00    -0.744 OA
ENDBRANCH  52  55
ENDBRANCH  24  48
BRANCH  36  59
ATOM     59  C   UNL A   1      43.334  35.367  30.983  1.00  0.00     0.023 A 
ATOM     60  C   UNL A   1      43.768  35.592  32.304  1.00  0.00     0.012 A 
ATOM     61  C   UNL A   1      43.406  36.406  30.036  1.00  0.00     0.148 A 
ATOM     62  C   UNL A   1      44.247  36.842  32.683  1.00  0.00     0.002 A 
ATOM     63  C   UNL A   1      43.940  37.631  30.406  1.00  0.00     0.091 A 
ATOM     64  F   UNL A   1      42.971  36.167  28.790  1.00  0.00    -0.205 F 
ATOM     65  C   UNL A   1      44.348  37.855  31.732  1.00  0.00     0.022 A 
BRANCH  63  66
ATOM     66  S   UNL A   1      44.217  38.958  29.229  1.00  0.00     0.127 S 
ATOM     67  O   UNL A   1      42.866  39.190  28.720  1.00  0.00    -0.237 OA
ATOM     68  O   UNL A   1      44.739  40.021  30.087  1.00  0.00    -0.237 OA
ATOM     69  O   UNL A   1      45.167  38.442  28.253  1.00  0.00    -0.744 OA
ENDBRANCH  63  66
ENDBRANCH  36  59
ENDBRANCH  10  11
ENDBRANCH   3   5
ENDBRANCH   2   3
ENDBRANCH   1   2
BRANCH   1  70
ATOM     70  C   UNL A   1      41.870  20.468  27.134  1.00  0.00     0.274 C 
BRANCH  70  71
ATOM     71  O   UNL A   1      42.616  20.047  25.983  1.00  0.00    -0.462 OA
BRANCH  71  72
ATOM     72  C   UNL A   1      43.312  18.876  26.070  1.00  0.00     0.312 C 
ATOM     73  O   UNL A   1      43.168  18.065  26.979  1.00  0.00    -0.252 OA
BRANCH  72  74
ATOM     74  C   UNL A   1      44.294  18.671  24.904  1.00  0.00     0.124 C 
ATOM     75  C   UNL A   1      45.648  18.231  25.382  1.00  0.00    -0.014 C 
ATOM     76  C   UNL A   1      44.698  19.924  24.129  1.00  0.00     0.048 C 
ATOM     77  C   UNL A   1      46.535  19.235  25.335  1.00  0.00    -0.006 C 
ATOM     78  C   UNL A   1      45.933  20.490  24.826  1.00  0.00     0.106 C 
BRANCH  78  79
ATOM     79  N   UNL A   1      45.468  21.426  25.850  1.00  0.00    -0.350 N 
ATOM     80  C   UNL A   1      44.725  22.565  25.822  1.00  0.00     0.224 C 
ATOM     81  H   UNL A   1      45.756  21.178  26.757  1.00  0.00     0.164 HD
ATOM     82  O   UNL A   1      44.029  22.818  26.807  1.00  0.00    -0.275 OA
BRANCH  80  83
ATOM     83  C   UNL A   1      44.957  23.563  24.712  1.00  0.00     0.089 C 
ATOM     84  C   UNL A   1      46.469  23.753  24.575  1.00  0.00     0.025 C 
ATOM     85  C   UNL A   1      44.384  24.946  25.009  1.00  0.00     0.083 C 
ATOM     86  C   UNL A   1      46.923  24.579  25.766  1.00  0.00     0.070 C 
ATOM     87  S   UNL A   1      45.696  25.900  25.855  1.00  0.00    -0.161 SA
ENDBRANCH  80  83
ENDBRANCH  78  79
ENDBRANCH  72  74
ENDBRANCH  71  72
ENDBRANCH  70  71
ENDBRANCH   1  70
TORSDOF 16
ENDMDL
MODEL 2
REMARK VINA RESULT:     -10.6      5.832     11.896
REMARK SMILES O=C(OCCOC(=O)[C@@H]1C=C[C@H](NC(=O)[C@@H]2CCSC2)C1)c1ccc(-c2c3nc(c(-c4cccc(S(=O)(=O)[O-])c4F)c4ccc([nH]4)c(-c4cccc(S(=O)(=O)[O-])c4F)c4nc(c(-c5cccc(S(=O)(=O)[O-])c5F)c5ccc2[nH]5)C=C4)C=C3)cc1
REMARK SMILES IDX 4 1 3 2 2 3 1 4 22 5 23 6 84 7 24 8 83 9 25 10 26 11 27 12
REMARK SMILES IDX 77 13 28 14 82 15 76 16 78 17 29 18 81 19 75 20 74 21 30 23
REMARK SMILES IDX 62 24 42 25 61 26 43 27 46 28 60 29 79 30 44 31 45 32 59 34
REMARK SMILES IDX 80 35 47 36 31 37 32 38 40 39 33 40 35 41 41 42 34 43 36 44
REMARK SMILES IDX 37 45 38 46 39 47 63 48 64 49 72 50 65 51 67 52 73 53 66 54
REMARK SMILES IDX 68 55 69 56 70 57 71 58 48 59 49 60 57 61 50 62 52 63 58 64
REMARK SMILES IDX 51 65 53 66 54 67 55 68 56 69 5 70 6 71 7 72 8 73 9 74 10 75
REMARK SMILES IDX 21 76 11 77 12 78 13 79 14 80 15 82 16 83 17 84 20 85 18 86
REMARK SMILES IDX 19 87
REMARK H PARENT 78 22 46 33 13 81
REMARK Flexibility Score: inf
ROOT
ATOM      1  C   UNL A   1      32.059  32.776  27.089  1.00  0.00     0.275 C 
ENDROOT
BRANCH   1   2
ATOM      2  O   UNL A   1      32.809  33.714  27.875  1.00  0.00    -0.458 OA
BRANCH   2   3
ATOM      3  C   UNL A   1      34.145  33.912  27.960  1.00  0.00     0.338 C 
ATOM      4  O   UNL A   1      34.634  34.799  27.259  1.00  0.00    -0.246 OA
BRANCH   3   5
ATOM      5  C   UNL A   1      35.086  33.078  28.788  1.00  0.00     0.060 A 
ATOM      6  C   UNL A   1      34.750  32.206  29.835  1.00  0.00     0.016 A 
ATOM      7  C   UNL A   1      36.441  33.148  28.418  1.00  0.00     0.016 A 
ATOM      8  C   UNL A   1      35.706  31.346  30.420  1.00  0.00     0.010 A 
ATOM      9  C   UNL A   1      37.388  32.282  28.981  1.00  0.00     0.010 A 
ATOM     10  C   UNL A   1      37.029  31.357  29.981  1.00  0.00    -0.014 A 
BRANCH  10  11
ATOM     11  C   UNL A   1      38.128  30.591  30.630  1.00  0.00     0.031 A 
ATOM     12  C   UNL A   1      38.651  31.133  31.918  1.00  0.00     0.074 A 
ATOM     13  C   UNL A   1      38.749  29.531  30.072  1.00  0.00     0.049 A 
ATOM     14  N   UNL A   1      39.646  30.690  32.629  1.00  0.00    -0.248 NA
ATOM     15  C   UNL A   1      37.929  32.271  32.514  1.00  0.00     0.031 C 
ATOM     16  C   UNL A   1      38.241  28.732  28.978  1.00  0.00     0.029 A 
ATOM     17  N   UNL A   1      39.984  28.972  30.303  1.00  0.00    -0.354 N 
ATOM     18  C   UNL A   1      39.645  31.461  33.773  1.00  0.00     0.074 A 
ATOM     19  C   UNL A   1      38.613  32.462  33.628  1.00  0.00     0.031 C 
ATOM     20  C   UNL A   1      39.218  27.971  28.458  1.00  0.00     0.029 A 
ATOM     21  C   UNL A   1      40.401  28.131  29.287  1.00  0.00     0.049 A 
ATOM     22  H   UNL A   1      40.517  29.152  31.112  1.00  0.00     0.167 HD
ATOM     23  C   UNL A   1      40.398  31.290  34.876  1.00  0.00     0.034 A 
ATOM     24  C   UNL A   1      41.580  27.511  29.080  1.00  0.00     0.034 A 
ATOM     25  C   UNL A   1      41.414  30.290  34.994  1.00  0.00     0.049 A 
ATOM     26  C   UNL A   1      42.513  27.459  30.257  1.00  0.00     0.074 A 
ATOM     27  C   UNL A   1      42.192  29.983  36.091  1.00  0.00     0.029 A 
ATOM     28  N   UNL A   1      41.827  29.464  33.958  1.00  0.00    -0.354 N 
ATOM     29  N   UNL A   1      42.376  28.042  31.423  1.00  0.00    -0.248 NA
ATOM     30  C   UNL A   1      43.668  26.557  30.164  1.00  0.00     0.031 C 
ATOM     31  C   UNL A   1      43.124  29.018  35.698  1.00  0.00     0.029 A 
ATOM     32  C   UNL A   1      42.897  28.694  34.368  1.00  0.00     0.049 A 
ATOM     33  H   UNL A   1      41.416  29.431  33.063  1.00  0.00     0.167 HD
ATOM     34  C   UNL A   1      43.364  27.509  32.233  1.00  0.00     0.074 A 
ATOM     35  C   UNL A   1      44.109  26.569  31.416  1.00  0.00     0.031 C 
ATOM     36  C   UNL A   1      43.616  27.759  33.541  1.00  0.00     0.034 A 
BRANCH  23  37
ATOM     37  C   UNL A   1      40.123  32.210  36.020  1.00  0.00     0.023 A 
ATOM     38  C   UNL A   1      40.938  33.342  36.229  1.00  0.00     0.012 A 
ATOM     39  C   UNL A   1      39.062  31.937  36.896  1.00  0.00     0.148 A 
ATOM     40  C   UNL A   1      40.714  34.178  37.319  1.00  0.00     0.002 A 
ATOM     41  C   UNL A   1      38.816  32.798  37.953  1.00  0.00     0.091 A 
ATOM     42  F   UNL A   1      38.334  30.831  36.690  1.00  0.00    -0.205 F 
ATOM     43  C   UNL A   1      39.647  33.912  38.175  1.00  0.00     0.022 A 
BRANCH  41  44
ATOM     44  S   UNL A   1      37.437  32.570  39.075  1.00  0.00     0.127 S 
ATOM     45  O   UNL A   1      37.632  33.679  40.010  1.00  0.00    -0.237 OA
ATOM     46  O   UNL A   1      36.293  32.724  38.175  1.00  0.00    -0.237 OA
ATOM     47  O   UNL A   1      37.597  31.246  39.652  1.00  0.00    -0.744 OA
ENDBRANCH  41  44
ENDBRANCH  23  37
BRANCH  24  48
ATOM     48  C   UNL A   1      41.866  26.758  27.821  1.00  0.00     0.023 A 
ATOM     49  C   UNL A   1      42.290  27.445  26.668  1.00  0.00     0.012 A 
ATOM     50  C   UNL A   1      41.691  25.358  27.750  1.00  0.00     0.148 A 
ATOM     51  C   UNL A   1      42.484  26.769  25.459  1.00  0.00     0.002 A 
ATOM     52  C   UNL A   1      41.916  24.685  26.550  1.00  0.00     0.091 A 
ATOM     53  F   UNL A   1      41.278  24.712  28.851  1.00  0.00    -0.205 F 
ATOM     54  C   UNL A   1      42.299  25.391  25.400  1.00  0.00     0.022 A 
BRANCH  52  55
ATOM     55  S   UNL A   1      41.790  22.896  26.403  1.00  0.00     0.127 S 
ATOM     56  O   UNL A   1      40.345  22.690  26.452  1.00  0.00    -0.237 OA
ATOM     57  O   UNL A   1      42.402  22.651  25.096  1.00  0.00    -0.237 OA
ATOM     58  O   UNL A   1      42.551  22.363  27.524  1.00  0.00    -0.744 OA
ENDBRANCH  52  55
ENDBRANCH  24  48
BRANCH  36  59
ATOM     59  C   UNL A   1      44.759  27.023  34.173  1.00  0.00     0.023 A 
ATOM     60  C   UNL A   1      46.054  27.573  34.109  1.00  0.00     0.012 A 
ATOM     61  C   UNL A   1      44.532  25.852  34.921  1.00  0.00     0.148 A 
ATOM     62  C   UNL A   1      47.114  26.952  34.762  1.00  0.00     0.002 A 
ATOM     63  C   UNL A   1      45.582  25.273  35.617  1.00  0.00     0.091 A 
ATOM     64  F   UNL A   1      43.292  25.343  34.951  1.00  0.00    -0.205 F 
ATOM     65  C   UNL A   1      46.876  25.814  35.528  1.00  0.00     0.022 A 
BRANCH  63  66
ATOM     66  S   UNL A   1      45.354  23.876  36.720  1.00  0.00     0.127 S 
ATOM     67  O   UNL A   1      46.728  23.599  37.137  1.00  0.00    -0.237 OA
ATOM     68  O   UNL A   1      44.502  24.447  37.763  1.00  0.00    -0.237 OA
ATOM     69  O   UNL A   1      44.725  22.829  35.925  1.00  0.00    -0.744 OA
ENDBRANCH  63  66
ENDBRANCH  36  59
ENDBRANCH  10  11
ENDBRANCH   3   5
ENDBRANCH   2   3
ENDBRANCH   1   2
BRANCH   1  70
ATOM     70  C   UNL A   1      32.694  31.392  26.940  1.00  0.00     0.274 C 
BRANCH  70  71
ATOM     71  O   UNL A   1      31.735  30.370  26.632  1.00  0.00    -0.462 OA
BRANCH  71  72
ATOM     72  C   UNL A   1      31.796  29.794  25.397  1.00  0.00     0.312 C 
ATOM     73  O   UNL A   1      30.813  29.581  24.695  1.00  0.00    -0.252 OA
BRANCH  72  74
ATOM     74  C   UNL A   1      33.232  29.445  24.966  1.00  0.00     0.124 C 
ATOM     75  C   UNL A   1      33.311  29.104  23.505  1.00  0.00    -0.014 C 
ATOM     76  C   UNL A   1      33.824  28.165  25.554  1.00  0.00     0.048 C 
ATOM     77  C   UNL A   1      33.434  27.782  23.316  1.00  0.00    -0.006 C 
ATOM     78  C   UNL A   1      33.457  27.034  24.595  1.00  0.00     0.106 C 
BRANCH  78  79
ATOM     79  N   UNL A   1      32.171  26.489  25.030  1.00  0.00    -0.350 N 
ATOM     80  C   UNL A   1      31.797  25.602  25.990  1.00  0.00     0.224 C 
ATOM     81  H   UNL A   1      31.410  26.842  24.515  1.00  0.00     0.164 HD
ATOM     82  O   UNL A   1      30.689  25.752  26.508  1.00  0.00    -0.275 OA
BRANCH  80  83
ATOM     83  C   UNL A   1      32.637  24.365  26.211  1.00  0.00     0.089 C 
ATOM     84  C   UNL A   1      32.909  23.745  24.839  1.00  0.00     0.025 C 
ATOM     85  C   UNL A   1      31.927  23.288  27.026  1.00  0.00     0.083 C 
ATOM     86  C   UNL A   1      31.614  23.101  24.377  1.00  0.00     0.070 C 
ATOM     87  S   UNL A   1      31.039  22.215  25.840  1.00  0.00    -0.161 SA
ENDBRANCH  80  83
ENDBRANCH  78  79
ENDBRANCH  72  74
ENDBRANCH  71  72
ENDBRANCH  70  71
ENDBRANCH   1  70
TORSDOF 16
ENDMDL
MODEL 3
REMARK VINA RESULT:     -10.6      5.996     10.376
REMARK SMILES O=C(OCCOC(=O)[C@@H]1C=C[C@H](NC(=O)[C@@H]2CCSC2)C1)c1ccc(-c2c3nc(c(-c4cccc(S(=O)(=O)[O-])c4F)c4ccc([nH]4)c(-c4cccc(S(=O)(=O)[O-])c4F)c4nc(c(-c5cccc(S(=O)(=O)[O-])c5F)c5ccc2[nH]5)C=C4)C=C3)cc1
REMARK SMILES IDX 4 1 3 2 2 3 1 4 22 5 23 6 84 7 24 8 83 9 25 10 26 11 27 12
REMARK SMILES IDX 77 13 28 14 82 15 76 16 78 17 29 18 81 19 75 20 74 21 30 23
REMARK SMILES IDX 62 24 42 25 61 26 43 27 46 28 60 29 79 30 44 31 45 32 59 34
REMARK SMILES IDX 80 35 47 36 31 37 32 38 40 39 33 40 35 41 41 42 34 43 36 44
REMARK SMILES IDX 37 45 38 46 39 47 63 48 64 49 72 50 65 51 67 52 73 53 66 54
REMARK SMILES IDX 68 55 69 56 70 57 71 58 48 59 49 60 57 61 50 62 52 63 58 64
REMARK SMILES IDX 51 65 53 66 54 67 55 68 56 69 5 70 6 71 7 72 8 73 9 74 10 75
REMARK SMILES IDX 21 76 11 77 12 78 13 79 14 80 15 82 16 83 17 84 20 85 18 86
REMARK SMILES IDX 19 87
REMARK H PARENT 78 22 46 33 13 81
REMARK Flexibility Score: inf
ROOT
ATOM      1  C   UNL A   1      31.405  32.025  26.948  1.00  0.00     0.275 C 
ENDROOT
BRANCH   1   2
ATOM      2  O   UNL A   1      32.298  33.148  26.913  1.00  0.00    -0.458 OA
BRANCH   2   3
ATOM      3  C   UNL A   1      32.988  33.747  27.911  1.00  0.00     0.338 C 
ATOM      4  O   UNL A   1      32.521  34.786  28.382  1.00  0.00    -0.246 OA
BRANCH   3   5
ATOM      5  C   UNL A   1      34.321  33.282  28.435  1.00  0.00     0.060 A 
ATOM      6  C   UNL A   1      35.592  33.692  28.004  1.00  0.00     0.016 A 
ATOM      7  C   UNL A   1      34.266  32.381  29.514  1.00  0.00     0.016 A 
ATOM      8  C   UNL A   1      36.766  33.313  28.692  1.00  0.00     0.010 A 
ATOM      9  C   UNL A   1      35.426  32.020  30.212  1.00  0.00     0.010 A 
ATOM     10  C   UNL A   1      36.693  32.495  29.818  1.00  0.00    -0.014 A 
BRANCH  10  11
ATOM     11  C   UNL A   1      37.881  31.935  30.520  1.00  0.00     0.031 A 
ATOM     12  C   UNL A   1      38.521  30.738  29.900  1.00  0.00     0.074 A 
ATOM     13  C   UNL A   1      38.326  32.361  31.720  1.00  0.00     0.049 A 
ATOM     14  N   UNL A   1      39.512  30.032  30.358  1.00  0.00    -0.248 NA
ATOM     15  C   UNL A   1      38.030  30.321  28.574  1.00  0.00     0.031 C 
ATOM     16  C   UNL A   1      38.002  33.625  32.344  1.00  0.00     0.029 A 
ATOM     17  N   UNL A   1      39.103  31.747  32.674  1.00  0.00    -0.354 N 
ATOM     18  C   UNL A   1      39.794  29.118  29.364  1.00  0.00     0.074 A 
ATOM     19  C   UNL A   1      38.816  29.291  28.315  1.00  0.00     0.031 C 
ATOM     20  C   UNL A   1      38.337  33.609  33.644  1.00  0.00     0.029 A 
ATOM     21  C   UNL A   1      39.037  32.363  33.912  1.00  0.00     0.049 A 
ATOM     22  H   UNL A   1      39.652  30.949  32.494  1.00  0.00     0.167 HD
ATOM     23  C   UNL A   1      40.833  28.262  29.310  1.00  0.00     0.034 A 
ATOM     24  C   UNL A   1      39.534  31.997  35.110  1.00  0.00     0.034 A 
ATOM     25  C   UNL A   1      41.789  28.110  30.363  1.00  0.00     0.049 A 
ATOM     26  C   UNL A   1      40.578  30.916  35.088  1.00  0.00     0.074 A 
ATOM     27  C   UNL A   1      42.921  27.320  30.386  1.00  0.00     0.029 A 
ATOM     28  N   UNL A   1      41.698  28.728  31.602  1.00  0.00    -0.354 N 
ATOM     29  N   UNL A   1      40.979  30.201  34.064  1.00  0.00    -0.248 NA
ATOM     30  C   UNL A   1      41.344  30.691  36.319  1.00  0.00     0.031 C 
ATOM     31  C   UNL A   1      43.476  27.407  31.666  1.00  0.00     0.029 A 
ATOM     32  C   UNL A   1      42.714  28.285  32.424  1.00  0.00     0.049 A 
ATOM     33  H   UNL A   1      41.011  29.386  31.856  1.00  0.00     0.167 HD
ATOM     34  C   UNL A   1      42.100  29.514  34.496  1.00  0.00     0.074 A 
ATOM     35  C   UNL A   1      42.304  29.883  35.885  1.00  0.00     0.031 C 
ATOM     36  C   UNL A   1      42.902  28.673  33.799  1.00  0.00     0.034 A 
BRANCH  23  37
ATOM     37  C   UNL A   1      40.962  27.449  28.063  1.00  0.00     0.023 A 
ATOM     38  C   UNL A   1      41.536  28.014  26.906  1.00  0.00     0.012 A 
ATOM     39  C   UNL A   1      40.496  26.126  28.042  1.00  0.00     0.148 A 
ATOM     40  C   UNL A   1      41.619  27.275  25.729  1.00  0.00     0.002 A 
ATOM     41  C   UNL A   1      40.622  25.381  26.881  1.00  0.00     0.091 A 
ATOM     42  F   UNL A   1      39.920  25.636  29.148  1.00  0.00    -0.205 F 
ATOM     43  C   UNL A   1      41.172  25.955  25.720  1.00  0.00     0.022 A 
BRANCH  41  44
ATOM     44  S   UNL A   1      40.126  23.661  26.786  1.00  0.00     0.127 S 
ATOM     45  O   UNL A   1      38.780  23.774  26.224  1.00  0.00    -0.237 OA
ATOM     46  O   UNL A   1      41.127  23.112  25.870  1.00  0.00    -0.237 OA
ATOM     47  O   UNL A   1      40.183  23.146  28.145  1.00  0.00    -0.744 OA
ENDBRANCH  41  44
ENDBRANCH  23  37
BRANCH  24  48
ATOM     48  C   UNL A   1      39.212  32.747  36.361  1.00  0.00     0.023 A 
ATOM     49  C   UNL A   1      39.813  33.996  36.610  1.00  0.00     0.012 A 
ATOM     50  C   UNL A   1      38.332  32.215  37.328  1.00  0.00     0.148 A 
ATOM     51  C   UNL A   1      39.588  34.676  37.811  1.00  0.00     0.002 A 
ATOM     52  C   UNL A   1      38.087  32.912  38.511  1.00  0.00     0.091 A 
ATOM     53  F   UNL A   1      37.771  31.020  37.089  1.00  0.00    -0.205 F 
ATOM     54  C   UNL A   1      38.725  34.136  38.759  1.00  0.00     0.022 A 
BRANCH  52  55
ATOM     55  S   UNL A   1      36.918  32.336  39.752  1.00  0.00     0.127 S 
ATOM     56  O   UNL A   1      37.029  33.373  40.775  1.00  0.00    -0.237 OA
ATOM     57  O   UNL A   1      35.657  32.337  39.010  1.00  0.00    -0.237 OA
ATOM     58  O   UNL A   1      37.383  31.010  40.133  1.00  0.00    -0.744 OA
ENDBRANCH  52  55
ENDBRANCH  24  48
BRANCH  36  59
ATOM     59  C   UNL A   1      44.066  28.070  34.528  1.00  0.00     0.023 A 
ATOM     60  C   UNL A   1      45.268  28.797  34.628  1.00  0.00     0.012 A 
ATOM     61  C   UNL A   1      43.932  26.842  35.202  1.00  0.00     0.148 A 
ATOM     62  C   UNL A   1      46.332  28.296  35.371  1.00  0.00     0.002 A 
ATOM     63  C   UNL A   1      44.975  26.379  35.989  1.00  0.00     0.091 A 
ATOM     64  F   UNL A   1      42.781  26.166  35.076  1.00  0.00    -0.205 F 
ATOM     65  C   UNL A   1      46.180  27.097  36.064  1.00  0.00     0.022 A 
BRANCH  63  66
ATOM     66  S   UNL A   1      44.835  24.908  37.008  1.00  0.00     0.127 S 
ATOM     67  O   UNL A   1      43.579  25.154  37.715  1.00  0.00    -0.237 OA
ATOM     68  O   UNL A   1      44.774  23.846  36.004  1.00  0.00    -0.237 OA
ATOM     69  O   UNL A   1      46.024  24.882  37.849  1.00  0.00    -0.744 OA
ENDBRANCH  63  66
ENDBRANCH  36  59
ENDBRANCH  10  11
ENDBRANCH   3   5
ENDBRANCH   2   3
ENDBRANCH   1   2
BRANCH   1  70
ATOM     70  C   UNL A   1      32.075  30.653  26.864  1.00  0.00     0.274 C 
BRANCH  70  71
ATOM     71  O   UNL A   1      31.812  29.981  25.623  1.00  0.00    -0.462 OA
BRANCH  71  72
ATOM     72  C   UNL A   1      32.833  29.278  25.053  1.00  0.00     0.312 C 
ATOM     73  O   UNL A   1      33.682  28.668  25.695  1.00  0.00    -0.252 OA
BRANCH  72  74
ATOM     74  C   UNL A   1      32.808  29.320  23.515  1.00  0.00     0.124 C 
ATOM     75  C   UNL A   1      31.565  28.688  22.957  1.00  0.00    -0.014 C 
ATOM     76  C   UNL A   1      33.861  28.479  22.796  1.00  0.00     0.048 C 
ATOM     77  C   UNL A   1      31.818  27.472  22.452  1.00  0.00    -0.006 C 
ATOM     78  C   UNL A   1      33.245  27.097  22.585  1.00  0.00     0.106 C 
BRANCH  78  79
ATOM     79  N   UNL A   1      33.578  26.285  23.755  1.00  0.00    -0.350 N 
ATOM     80  C   UNL A   1      34.081  25.033  23.925  1.00  0.00     0.224 C 
ATOM     81  H   UNL A   1      33.397  26.746  24.606  1.00  0.00     0.164 HD
ATOM     82  O   UNL A   1      34.771  24.824  24.925  1.00  0.00    -0.275 OA
BRANCH  80  83
ATOM     83  C   UNL A   1      33.593  23.920  23.028  1.00  0.00     0.089 C 
ATOM     84  C   UNL A   1      32.074  23.829  23.194  1.00  0.00     0.025 C 
ATOM     85  C   UNL A   1      34.140  22.548  23.409  1.00  0.00     0.083 C 
ATOM     86  C   UNL A   1      31.813  23.201  24.552  1.00  0.00     0.070 C 
ATOM     87  S   UNL A   1      32.965  21.813  24.603  1.00  0.00    -0.161 SA
ENDBRANCH  80  83
ENDBRANCH  78  79
ENDBRANCH  72  74
ENDBRANCH  71  72
ENDBRANCH  70  71
ENDBRANCH   1  70
TORSDOF 16
ENDMDL
