MODEL 1
REMARK VINA RESULT:     -11.6      0.000      0.000
REMARK SMILES COc1ccc(C(=O)Nc2cc(C(=O)OCCOC(=O)c3ccc(-c4c5nc(c(-c6cccc(S(=O)(=O)[O-])c6F)c6ccc([nH]6)c(-c6cccc(S(=O)(=O)[O-])c6F)c6nc(c(-c7cccc(S(=O)(=O)[O-])c7F)c7ccc4[nH]7)C=C6)C=C5)cc3)c(Cl)cc2Cl)cc1Cl
REMARK SMILES IDX 16 1 15 2 13 3 14 4 12 5 10 6 11 7 87 8 86 9 88 10 84 11
REMARK SMILES IDX 85 12 9 13 7 14 8 15 6 17 3 18 4 19 90 20 5 21 89 22 91 23
REMARK SMILES IDX 2 24 1 25 17 26 18 27 19 28 20 29 21 30 22 31 83 32 23 33
REMARK SMILES IDX 82 34 24 35 25 36 26 37 76 38 27 39 81 40 75 41 77 42 28 43
REMARK SMILES IDX 80 44 74 45 73 46 29 48 61 49 41 50 60 51 42 52 45 53 59 54
REMARK SMILES IDX 78 55 43 56 44 57 58 59 79 60 46 61 30 62 31 63 39 64 32 65
REMARK SMILES IDX 34 66 40 67 33 68 35 69 36 70 37 71 38 72 62 73 63 74 71 75
REMARK SMILES IDX 64 76 66 77 72 78 65 79 67 80 68 81 69 82 70 83 47 84 48 85
REMARK SMILES IDX 56 86 49 87 51 88 57 89 50 90 52 91 53 92 54 93 55 94
REMARK H PARENT 9 16 77 47 45 58
REMARK Flexibility Score: inf
ROOT
ATOM      1  C   UNL A   1      33.108  31.273  27.279  1.00  0.00     0.275 C 
ENDROOT
BRANCH   1   2
ATOM      2  O   UNL A   1      32.798  30.448  26.135  1.00  0.00    -0.458 OA
BRANCH   2   3
ATOM      3  C   UNL A   1      33.469  29.278  26.036  1.00  0.00     0.339 C 
ATOM      4  O   UNL A   1      34.621  29.066  26.384  1.00  0.00    -0.246 OA
BRANCH   3   5
ATOM      5  C   UNL A   1      32.601  28.193  25.530  1.00  0.00     0.080 A 
ATOM      6  C   UNL A   1      31.921  26.879  23.589  1.00  0.00     0.061 A 
ATOM      7  C   UNL A   1      32.729  27.853  24.174  1.00  0.00     0.045 A 
ATOM      8  C   UNL A   1      30.884  26.319  24.340  1.00  0.00     0.066 A 
ATOM      9  C   UNL A   1      30.756  26.636  25.694  1.00  0.00     0.044 A 
ATOM     10  Cl  UNL A   1      29.816  25.149  23.655  1.00  0.00    -0.082 Cl
ATOM     11  C   UNL A   1      31.620  27.563  26.297  1.00  0.00     0.057 A 
ATOM     12  Cl  UNL A   1      31.358  27.917  27.965  1.00  0.00    -0.083 Cl
BRANCH   6  13
ATOM     13  N   UNL A   1      32.154  26.464  22.269  1.00  0.00    -0.321 N 
ATOM     14  C   UNL A   1      32.984  25.471  21.783  1.00  0.00     0.255 C 
ATOM     15  O   UNL A   1      33.268  25.490  20.586  1.00  0.00    -0.269 OA
ATOM     16  H   UNL A   1      31.647  26.955  21.583  1.00  0.00     0.170 HD
BRANCH  14  17
ATOM     17  C   UNL A   1      33.406  24.291  22.609  1.00  0.00     0.041 A 
ATOM     18  C   UNL A   1      34.000  22.043  24.250  1.00  0.00     0.137 A 
ATOM     19  C   UNL A   1      32.947  22.018  23.332  1.00  0.00     0.049 A 
ATOM     20  C   UNL A   1      34.705  23.237  24.405  1.00  0.00     0.083 A 
ATOM     21  C   UNL A   1      32.662  23.112  22.504  1.00  0.00     0.018 A 
ATOM     22  C   UNL A   1      34.389  24.348  23.603  1.00  0.00     0.038 A 
ATOM     23  Cl  UNL A   1      35.900  23.512  25.626  1.00  0.00    -0.080 Cl
BRANCH  18  24
ATOM     24  O   UNL A   1      34.126  20.880  24.957  1.00  0.00    -0.495 OA
ATOM     25  C   UNL A   1      32.934  20.228  25.371  1.00  0.00     0.278 C 
ENDBRANCH  18  24
ENDBRANCH  14  17
ENDBRANCH   6  13
ENDBRANCH   3   5
ENDBRANCH   2   3
ENDBRANCH   1   2
BRANCH   1  26
ATOM     26  C   UNL A   1      32.411  32.636  27.209  1.00  0.00     0.275 C 
BRANCH  26  27
ATOM     27  O   UNL A   1      33.357  33.721  27.205  1.00  0.00    -0.458 OA
BRANCH  27  28
ATOM     28  C   UNL A   1      33.403  34.417  28.361  1.00  0.00     0.338 C 
ATOM     29  O   UNL A   1      32.623  35.282  28.725  1.00  0.00    -0.246 OA
BRANCH  28  30
ATOM     30  C   UNL A   1      34.464  33.917  29.244  1.00  0.00     0.060 A 
ATOM     31  C   UNL A   1      35.772  34.156  28.843  1.00  0.00     0.016 A 
ATOM     32  C   UNL A   1      34.206  33.061  30.310  1.00  0.00     0.016 A 
ATOM     33  C   UNL A   1      36.818  33.424  29.389  1.00  0.00     0.010 A 
ATOM     34  C   UNL A   1      35.280  32.425  30.951  1.00  0.00     0.010 A 
ATOM     35  C   UNL A   1      36.594  32.548  30.462  1.00  0.00    -0.014 A 
BRANCH  35  36
ATOM     36  C   UNL A   1      37.745  31.801  31.052  1.00  0.00     0.031 A 
ATOM     37  C   UNL A   1      38.243  32.082  32.450  1.00  0.00     0.074 A 
ATOM     38  C   UNL A   1      38.333  30.820  30.336  1.00  0.00     0.049 A 
ATOM     39  N   UNL A   1      39.153  31.448  33.149  1.00  0.00    -0.248 NA
ATOM     40  C   UNL A   1      37.627  33.201  33.175  1.00  0.00     0.031 C 
ATOM     41  C   UNL A   1      37.965  30.432  28.972  1.00  0.00     0.029 A 
ATOM     42  N   UNL A   1      39.373  29.978  30.647  1.00  0.00    -0.354 N 
ATOM     43  C   UNL A   1      39.192  32.072  34.392  1.00  0.00     0.074 A 
ATOM     44  C   UNL A   1      38.224  33.142  34.356  1.00  0.00     0.031 C 
ATOM     45  C   UNL A   1      38.758  29.432  28.567  1.00  0.00     0.029 A 
ATOM     46  C   UNL A   1      39.742  29.159  29.606  1.00  0.00     0.049 A 
ATOM     47  H   UNL A   1      39.810  29.963  31.529  1.00  0.00     0.167 HD
ATOM     48  C   UNL A   1      39.967  31.793  35.467  1.00  0.00     0.034 A 
ATOM     49  C   UNL A   1      40.786  28.317  29.472  1.00  0.00     0.034 A 
ATOM     50  C   UNL A   1      41.009  30.804  35.480  1.00  0.00     0.049 A 
ATOM     51  C   UNL A   1      41.730  28.136  30.625  1.00  0.00     0.074 A 
ATOM     52  C   UNL A   1      41.872  30.478  36.511  1.00  0.00     0.029 A 
ATOM     53  N   UNL A   1      41.367  30.023  34.394  1.00  0.00    -0.354 N 
ATOM     54  N   UNL A   1      41.662  28.639  31.832  1.00  0.00    -0.248 NA
ATOM     55  C   UNL A   1      42.889  27.261  30.401  1.00  0.00     0.031 C 
ATOM     56  C   UNL A   1      42.790  29.539  36.028  1.00  0.00     0.029 A 
ATOM     57  C   UNL A   1      42.473  29.253  34.710  1.00  0.00     0.049 A 
ATOM     58  H   UNL A   1      40.904  30.017  33.525  1.00  0.00     0.167 HD
ATOM     59  C   UNL A   1      42.753  28.125  32.522  1.00  0.00     0.074 A 
ATOM     60  C   UNL A   1      43.456  27.255  31.601  1.00  0.00     0.031 C 
ATOM     61  C   UNL A   1      43.143  28.364  33.797  1.00  0.00     0.034 A 
BRANCH  48  62
ATOM     62  C   UNL A   1      39.729  32.590  36.723  1.00  0.00     0.023 A 
ATOM     63  C   UNL A   1      40.498  33.747  36.963  1.00  0.00     0.012 A 
ATOM     64  C   UNL A   1      38.719  32.226  37.634  1.00  0.00     0.148 A 
ATOM     65  C   UNL A   1      40.272  34.523  38.101  1.00  0.00     0.002 A 
ATOM     66  C   UNL A   1      38.484  33.018  38.752  1.00  0.00     0.091 A 
ATOM     67  F   UNL A   1      38.020  31.107  37.398  1.00  0.00    -0.205 F 
ATOM     68  C   UNL A   1      39.262  34.164  38.990  1.00  0.00     0.022 A 
BRANCH  66  69
ATOM     69  S   UNL A   1      37.181  32.661  39.936  1.00  0.00     0.127 S 
ATOM     70  O   UNL A   1      37.601  31.357  40.450  1.00  0.00    -0.237 OA
ATOM     71  O   UNL A   1      37.317  33.763  40.888  1.00  0.00    -0.237 OA
ATOM     72  O   UNL A   1      35.938  32.661  39.178  1.00  0.00    -0.744 OA
ENDBRANCH  66  69
ENDBRANCH  48  62
BRANCH  49  73
ATOM     73  C   UNL A   1      40.989  27.607  28.178  1.00  0.00     0.023 A 
ATOM     74  C   UNL A   1      41.518  28.297  27.073  1.00  0.00     0.012 A 
ATOM     75  C   UNL A   1      40.717  26.228  28.063  1.00  0.00     0.148 A 
ATOM     76  C   UNL A   1      41.767  27.626  25.874  1.00  0.00     0.002 A 
ATOM     77  C   UNL A   1      41.030  25.554  26.890  1.00  0.00     0.091 A 
ATOM     78  F   UNL A   1      40.181  25.594  29.116  1.00  0.00    -0.205 F 
ATOM     79  C   UNL A   1      41.540  26.254  25.788  1.00  0.00     0.022 A 
BRANCH  77  80
ATOM     80  S   UNL A   1      40.918  23.765  26.765  1.00  0.00     0.127 S 
ATOM     81  O   UNL A   1      39.502  23.573  26.462  1.00  0.00    -0.237 OA
ATOM     82  O   UNL A   1      41.831  23.476  25.659  1.00  0.00    -0.237 OA
ATOM     83  O   UNL A   1      41.369  23.258  28.055  1.00  0.00    -0.744 OA
ENDBRANCH  77  80
ENDBRANCH  49  73
BRANCH  61  84
ATOM     84  C   UNL A   1      44.384  27.668  34.288  1.00  0.00     0.023 A 
ATOM     85  C   UNL A   1      45.642  28.278  34.116  1.00  0.00     0.012 A 
ATOM     86  C   UNL A   1      44.293  26.449  34.988  1.00  0.00     0.148 A 
ATOM     87  C   UNL A   1      46.795  27.672  34.611  1.00  0.00     0.002 A 
ATOM     88  C   UNL A   1      45.442  25.875  35.520  1.00  0.00     0.091 A 
ATOM     89  F   UNL A   1      43.090  25.874  35.121  1.00  0.00    -0.205 F 
ATOM     90  C   UNL A   1      46.694  26.479  35.323  1.00  0.00     0.022 A 
BRANCH  88  91
ATOM     91  S   UNL A   1      45.388  24.394  36.534  1.00  0.00     0.127 S 
ATOM     92  O   UNL A   1      46.798  24.212  36.871  1.00  0.00    -0.237 OA
ATOM     93  O   UNL A   1      44.541  24.811  37.653  1.00  0.00    -0.237 OA
ATOM     94  O   UNL A   1      44.804  23.357  35.694  1.00  0.00    -0.744 OA
ENDBRANCH  88  91
ENDBRANCH  61  84
ENDBRANCH  35  36
ENDBRANCH  28  30
ENDBRANCH  27  28
ENDBRANCH  26  27
ENDBRANCH   1  26
TORSDOF 17
ENDMDL
MODEL 2
REMARK VINA RESULT:     -11.5      1.468      7.644
REMARK SMILES COc1ccc(C(=O)Nc2cc(C(=O)OCCOC(=O)c3ccc(-c4c5nc(c(-c6cccc(S(=O)(=O)[O-])c6F)c6ccc([nH]6)c(-c6cccc(S(=O)(=O)[O-])c6F)c6nc(c(-c7cccc(S(=O)(=O)[O-])c7F)c7ccc4[nH]7)C=C6)C=C5)cc3)c(Cl)cc2Cl)cc1Cl
REMARK SMILES IDX 16 1 15 2 13 3 14 4 12 5 10 6 11 7 87 8 86 9 88 10 84 11
REMARK SMILES IDX 85 12 9 13 7 14 8 15 6 17 3 18 4 19 90 20 5 21 89 22 91 23
REMARK SMILES IDX 2 24 1 25 17 26 18 27 19 28 20 29 21 30 22 31 83 32 23 33
REMARK SMILES IDX 82 34 24 35 25 36 26 37 76 38 27 39 81 40 75 41 77 42 28 43
REMARK SMILES IDX 80 44 74 45 73 46 29 48 61 49 41 50 60 51 42 52 45 53 59 54
REMARK SMILES IDX 78 55 43 56 44 57 58 59 79 60 46 61 30 62 31 63 39 64 32 65
REMARK SMILES IDX 34 66 40 67 33 68 35 69 36 70 37 71 38 72 62 73 63 74 71 75
REMARK SMILES IDX 64 76 66 77 72 78 65 79 67 80 68 81 69 82 70 83 47 84 48 85
REMARK SMILES IDX 56 86 49 87 51 88 57 89 50 90 52 91 53 92 54 93 55 94
REMARK H PARENT 9 16 77 47 45 58
REMARK Flexibility Score: inf
ROOT
ATOM      1  C   UNL A   1      33.283  31.244  27.367  1.00  0.00     0.275 C 
ENDROOT
BRANCH   1   2
ATOM      2  O   UNL A   1      32.923  30.450  26.216  1.00  0.00    -0.458 OA
BRANCH   2   3
ATOM      3  C   UNL A   1      33.566  29.269  26.073  1.00  0.00     0.339 C 
ATOM      4  O   UNL A   1      34.725  29.029  26.375  1.00  0.00    -0.246 OA
BRANCH   3   5
ATOM      5  C   UNL A   1      32.659  28.211  25.581  1.00  0.00     0.080 A 
ATOM      6  C   UNL A   1      31.964  26.863  23.668  1.00  0.00     0.061 A 
ATOM      7  C   UNL A   1      32.805  27.817  24.241  1.00  0.00     0.045 A 
ATOM      8  C   UNL A   1      30.882  26.381  24.409  1.00  0.00     0.066 A 
ATOM      9  C   UNL A   1      30.735  26.752  25.748  1.00  0.00     0.044 A 
ATOM     10  Cl  UNL A   1      29.776  25.240  23.735  1.00  0.00    -0.082 Cl
ATOM     11  C   UNL A   1      31.628  27.656  26.342  1.00  0.00     0.057 A 
ATOM     12  Cl  UNL A   1      31.341  28.081  27.989  1.00  0.00    -0.083 Cl
BRANCH   6  13
ATOM     13  N   UNL A   1      32.211  26.391  22.370  1.00  0.00    -0.321 N 
ATOM     14  C   UNL A   1      33.028  25.363  21.938  1.00  0.00     0.255 C 
ATOM     15  O   UNL A   1      33.332  25.328  20.746  1.00  0.00    -0.269 OA
ATOM     16  H   UNL A   1      31.725  26.864  21.657  1.00  0.00     0.170 HD
BRANCH  14  17
ATOM     17  C   UNL A   1      33.413  24.209  22.817  1.00  0.00     0.041 A 
ATOM     18  C   UNL A   1      33.940  22.028  24.568  1.00  0.00     0.137 A 
ATOM     19  C   UNL A   1      32.853  22.012  23.688  1.00  0.00     0.049 A 
ATOM     20  C   UNL A   1      34.716  23.186  24.628  1.00  0.00     0.083 A 
ATOM     21  C   UNL A   1      32.600  23.073  22.808  1.00  0.00     0.018 A 
ATOM     22  C   UNL A   1      34.434  24.266  23.773  1.00  0.00     0.038 A 
ATOM     23  Cl  UNL A   1      35.970  23.459  25.789  1.00  0.00    -0.080 Cl
BRANCH  18  24
ATOM     24  O   UNL A   1      34.026  20.901  25.337  1.00  0.00    -0.495 OA
ATOM     25  C   UNL A   1      34.180  19.657  24.669  1.00  0.00     0.278 C 
ENDBRANCH  18  24
ENDBRANCH  14  17
ENDBRANCH   6  13
ENDBRANCH   3   5
ENDBRANCH   2   3
ENDBRANCH   1   2
BRANCH   1  26
ATOM     26  C   UNL A   1      32.587  32.609  27.363  1.00  0.00     0.275 C 
BRANCH  26  27
ATOM     27  O   UNL A   1      33.529  33.690  27.507  1.00  0.00    -0.458 OA
BRANCH  27  28
ATOM     28  C   UNL A   1      33.419  34.365  28.671  1.00  0.00     0.338 C 
ATOM     29  O   UNL A   1      32.512  35.111  29.001  1.00  0.00    -0.246 OA
BRANCH  28  30
ATOM     30  C   UNL A   1      34.491  33.997  29.604  1.00  0.00     0.060 A 
ATOM     31  C   UNL A   1      35.787  34.315  29.221  1.00  0.00     0.016 A 
ATOM     32  C   UNL A   1      34.270  33.182  30.710  1.00  0.00     0.016 A 
ATOM     33  C   UNL A   1      36.871  33.697  29.831  1.00  0.00     0.010 A 
ATOM     34  C   UNL A   1      35.371  32.667  31.410  1.00  0.00     0.010 A 
ATOM     35  C   UNL A   1      36.686  32.865  30.945  1.00  0.00    -0.014 A 
BRANCH  35  36
ATOM     36  C   UNL A   1      37.874  32.243  31.603  1.00  0.00     0.031 A 
ATOM     37  C   UNL A   1      38.594  31.063  30.993  1.00  0.00     0.074 A 
ATOM     38  C   UNL A   1      38.344  32.771  32.752  1.00  0.00     0.049 A 
ATOM     39  N   UNL A   1      39.703  30.481  31.377  1.00  0.00    -0.248 NA
ATOM     40  C   UNL A   1      38.014  30.471  29.780  1.00  0.00     0.031 C 
ATOM     41  C   UNL A   1      37.756  33.909  33.463  1.00  0.00     0.029 A 
ATOM     42  N   UNL A   1      39.415  32.413  33.534  1.00  0.00    -0.354 N 
ATOM     43  C   UNL A   1      39.962  29.484  30.442  1.00  0.00     0.074 A 
ATOM     44  C   UNL A   1      38.892  29.528  29.473  1.00  0.00     0.031 C 
ATOM     45  C   UNL A   1      38.472  34.158  34.567  1.00  0.00     0.029 A 
ATOM     46  C   UNL A   1      39.520  33.153  34.688  1.00  0.00     0.049 A 
ATOM     47  H   UNL A   1      40.047  31.698  33.291  1.00  0.00     0.167 HD
ATOM     48  C   UNL A   1      40.988  28.601  30.391  1.00  0.00     0.034 A 
ATOM     49  C   UNL A   1      40.329  33.014  35.756  1.00  0.00     0.034 A 
ATOM     50  C   UNL A   1      41.998  28.474  31.404  1.00  0.00     0.049 A 
ATOM     51  C   UNL A   1      41.364  31.927  35.751  1.00  0.00     0.074 A 
ATOM     52  C   UNL A   1      43.055  27.582  31.459  1.00  0.00     0.029 A 
ATOM     53  N   UNL A   1      42.043  29.222  32.569  1.00  0.00    -0.354 N 
ATOM     54  N   UNL A   1      41.671  31.087  34.795  1.00  0.00    -0.248 NA
ATOM     55  C   UNL A   1      42.172  31.775  36.969  1.00  0.00     0.031 C 
ATOM     56  C   UNL A   1      43.705  27.755  32.686  1.00  0.00     0.029 A 
ATOM     57  C   UNL A   1      43.077  28.778  33.376  1.00  0.00     0.049 A 
ATOM     58  H   UNL A   1      41.431  29.960  32.791  1.00  0.00     0.167 HD
ATOM     59  C   UNL A   1      42.724  30.322  35.282  1.00  0.00     0.074 A 
ATOM     60  C   UNL A   1      43.014  30.812  36.614  1.00  0.00     0.031 C 
ATOM     61  C   UNL A   1      43.379  29.297  34.684  1.00  0.00     0.034 A 
BRANCH  48  62
ATOM     62  C   UNL A   1      41.057  27.681  29.201  1.00  0.00     0.023 A 
ATOM     63  C   UNL A   1      40.270  26.512  29.184  1.00  0.00     0.012 A 
ATOM     64  C   UNL A   1      41.858  27.995  28.085  1.00  0.00     0.148 A 
ATOM     65  C   UNL A   1      40.289  25.662  28.077  1.00  0.00     0.002 A 
ATOM     66  C   UNL A   1      41.852  27.156  26.977  1.00  0.00     0.091 A 
ATOM     67  F   UNL A   1      42.618  29.097  28.136  1.00  0.00    -0.205 F 
ATOM     68  C   UNL A   1      41.072  25.988  26.972  1.00  0.00     0.022 A 
BRANCH  66  69
ATOM     69  S   UNL A   1      42.797  27.508  25.491  1.00  0.00     0.127 S 
ATOM     70  O   UNL A   1      42.552  26.305  24.695  1.00  0.00    -0.237 OA
ATOM     71  O   UNL A   1      42.144  28.715  24.986  1.00  0.00    -0.237 OA
ATOM     72  O   UNL A   1      44.174  27.697  25.925  1.00  0.00    -0.744 OA
ENDBRANCH  66  69
ENDBRANCH  48  62
BRANCH  49  73
ATOM     73  C   UNL A   1      40.162  33.927  36.922  1.00  0.00     0.023 A 
ATOM     74  C   UNL A   1      40.594  35.262  36.836  1.00  0.00     0.012 A 
ATOM     75  C   UNL A   1      39.514  33.487  38.095  1.00  0.00     0.148 A 
ATOM     76  C   UNL A   1      40.389  36.141  37.901  1.00  0.00     0.002 A 
ATOM     77  C   UNL A   1      39.254  34.384  39.122  1.00  0.00     0.091 A 
ATOM     78  F   UNL A   1      39.140  32.202  38.172  1.00  0.00    -0.205 F 
ATOM     79  C   UNL A   1      39.704  35.708  39.035  1.00  0.00     0.022 A 
BRANCH  77  80
ATOM     80  S   UNL A   1      38.237  33.939  40.535  1.00  0.00     0.127 S 
ATOM     81  O   UNL A   1      37.088  33.308  39.891  1.00  0.00    -0.237 OA
ATOM     82  O   UNL A   1      39.112  33.025  41.269  1.00  0.00    -0.237 OA
ATOM     83  O   UNL A   1      37.970  35.192  41.230  1.00  0.00    -0.744 OA
ENDBRANCH  77  80
ENDBRANCH  49  73
BRANCH  61  84
ATOM     84  C   UNL A   1      44.489  28.636  35.456  1.00  0.00     0.023 A 
ATOM     85  C   UNL A   1      45.814  29.088  35.299  1.00  0.00     0.012 A 
ATOM     86  C   UNL A   1      44.208  27.623  36.393  1.00  0.00     0.148 A 
ATOM     87  C   UNL A   1      46.847  28.523  36.046  1.00  0.00     0.002 A 
ATOM     88  C   UNL A   1      45.236  27.098  37.167  1.00  0.00     0.091 A 
ATOM     89  F   UNL A   1      42.944  27.191  36.510  1.00  0.00    -0.205 F 
ATOM     90  C   UNL A   1      46.557  27.538  36.987  1.00  0.00     0.022 A 
BRANCH  88  91
ATOM     91  S   UNL A   1      44.934  25.899  38.470  1.00  0.00     0.127 S 
ATOM     92  O   UNL A   1      43.926  26.584  39.277  1.00  0.00    -0.237 OA
ATOM     93  O   UNL A   1      44.435  24.744  37.722  1.00  0.00    -0.237 OA
ATOM     94  O   UNL A   1      46.219  25.684  39.119  1.00  0.00    -0.744 OA
ENDBRANCH  88  91
ENDBRANCH  61  84
ENDBRANCH  35  36
ENDBRANCH  28  30
ENDBRANCH  27  28
ENDBRANCH  26  27
ENDBRANCH   1  26
TORSDOF 17
ENDMDL
MODEL 3
REMARK VINA RESULT:     -10.8      5.196     10.517
REMARK SMILES COc1ccc(C(=O)Nc2cc(C(=O)OCCOC(=O)c3ccc(-c4c5nc(c(-c6cccc(S(=O)(=O)[O-])c6F)c6ccc([nH]6)c(-c6cccc(S(=O)(=O)[O-])c6F)c6nc(c(-c7cccc(S(=O)(=O)[O-])c7F)c7ccc4[nH]7)C=C6)C=C5)cc3)c(Cl)cc2Cl)cc1Cl
REMARK SMILES IDX 16 1 15 2 13 3 14 4 12 5 10 6 11 7 87 8 86 9 88 10 84 11
REMARK SMILES IDX 85 12 9 13 7 14 8 15 6 17 3 18 4 19 90 20 5 21 89 22 91 23
REMARK SMILES IDX 2 24 1 25 17 26 18 27 19 28 20 29 21 30 22 31 83 32 23 33
REMARK SMILES IDX 82 34 24 35 25 36 26 37 76 38 27 39 81 40 75 41 77 42 28 43
REMARK SMILES IDX 80 44 74 45 73 46 29 48 61 49 41 50 60 51 42 52 45 53 59 54
REMARK SMILES IDX 78 55 43 56 44 57 58 59 79 60 46 61 30 62 31 63 39 64 32 65
REMARK SMILES IDX 34 66 40 67 33 68 35 69 36 70 37 71 38 72 62 73 63 74 71 75
REMARK SMILES IDX 64 76 66 77 72 78 65 79 67 80 68 81 69 82 70 83 47 84 48 85
REMARK SMILES IDX 56 86 49 87 51 88 57 89 50 90 52 91 53 92 54 93 55 94
REMARK H PARENT 9 16 77 47 45 58
REMARK Flexibility Score: inf
ROOT
ATOM      1  C   UNL A   1      36.612  22.210  24.746  1.00  0.00     0.275 C 
ENDROOT
BRANCH   1   2
ATOM      2  O   UNL A   1      35.401  22.467  25.489  1.00  0.00    -0.458 OA
BRANCH   2   3
ATOM      3  C   UNL A   1      34.263  21.931  24.992  1.00  0.00     0.339 C 
ATOM      4  O   UNL A   1      34.150  20.851  24.432  1.00  0.00    -0.246 OA
BRANCH   3   5
ATOM      5  C   UNL A   1      33.086  22.774  25.292  1.00  0.00     0.080 A 
ATOM      6  C   UNL A   1      31.619  24.561  24.510  1.00  0.00     0.061 A 
ATOM      7  C   UNL A   1      32.686  23.687  24.303  1.00  0.00     0.045 A 
ATOM      8  C   UNL A   1      31.018  24.610  25.769  1.00  0.00     0.066 A 
ATOM      9  C   UNL A   1      31.396  23.697  26.757  1.00  0.00     0.044 A 
ATOM     10  Cl  UNL A   1      29.730  25.710  26.103  1.00  0.00    -0.082 Cl
ATOM     11  C   UNL A   1      32.420  22.768  26.519  1.00  0.00     0.057 A 
ATOM     12  Cl  UNL A   1      32.840  21.708  27.813  1.00  0.00    -0.083 Cl
BRANCH   6  13
ATOM     13  N   UNL A   1      31.154  25.371  23.462  1.00  0.00    -0.321 N 
ATOM     14  C   UNL A   1      31.090  26.749  23.365  1.00  0.00     0.255 C 
ATOM     15  O   UNL A   1      30.364  27.234  22.498  1.00  0.00    -0.269 OA
ATOM     16  H   UNL A   1      30.824  24.883  22.674  1.00  0.00     0.170 HD
BRANCH  14  17
ATOM     17  C   UNL A   1      31.988  27.660  24.151  1.00  0.00     0.041 A 
ATOM     18  C   UNL A   1      33.749  29.211  25.760  1.00  0.00     0.137 A 
ATOM     19  C   UNL A   1      34.188  28.061  25.099  1.00  0.00     0.049 A 
ATOM     20  C   UNL A   1      32.394  29.535  25.680  1.00  0.00     0.083 A 
ATOM     21  C   UNL A   1      33.332  27.304  24.287  1.00  0.00     0.018 A 
ATOM     22  C   UNL A   1      31.528  28.750  24.899  1.00  0.00     0.038 A 
ATOM     23  Cl  UNL A   1      31.640  30.801  26.588  1.00  0.00    -0.080 Cl
BRANCH  18  24
ATOM     24  O   UNL A   1      34.730  29.819  26.493  1.00  0.00    -0.495 OA
ATOM     25  C   UNL A   1      35.039  29.266  27.765  1.00  0.00     0.278 C 
ENDBRANCH  18  24
ENDBRANCH  14  17
ENDBRANCH   6  13
ENDBRANCH   3   5
ENDBRANCH   2   3
ENDBRANCH   1   2
BRANCH   1  26
ATOM     26  C   UNL A   1      37.466  21.121  25.402  1.00  0.00     0.275 C 
BRANCH  26  27
ATOM     27  O   UNL A   1      38.874  21.362  25.218  1.00  0.00    -0.458 OA
BRANCH  27  28
ATOM     28  C   UNL A   1      39.618  21.160  26.326  1.00  0.00     0.338 C 
ATOM     29  O   UNL A   1      40.073  20.098  26.718  1.00  0.00    -0.246 OA
BRANCH  28  30
ATOM     30  C   UNL A   1      39.953  22.430  26.982  1.00  0.00     0.060 A 
ATOM     31  C   UNL A   1      39.402  23.579  26.433  1.00  0.00     0.016 A 
ATOM     32  C   UNL A   1      40.937  22.526  27.962  1.00  0.00     0.016 A 
ATOM     33  C   UNL A   1      39.936  24.826  26.733  1.00  0.00     0.010 A 
ATOM     34  C   UNL A   1      41.380  23.796  28.363  1.00  0.00     0.010 A 
ATOM     35  C   UNL A   1      40.932  24.961  27.711  1.00  0.00    -0.014 A 
BRANCH  35  36
ATOM     36  C   UNL A   1      41.462  26.319  28.038  1.00  0.00     0.031 A 
ATOM     37  C   UNL A   1      42.893  26.706  27.747  1.00  0.00     0.074 A 
ATOM     38  C   UNL A   1      40.632  27.241  28.569  1.00  0.00     0.049 A 
ATOM     39  N   UNL A   1      43.476  27.874  27.865  1.00  0.00    -0.248 NA
ATOM     40  C   UNL A   1      43.785  25.658  27.234  1.00  0.00     0.031 C 
ATOM     41  C   UNL A   1      39.224  27.017  28.906  1.00  0.00     0.029 A 
ATOM     42  N   UNL A   1      40.854  28.547  28.932  1.00  0.00    -0.354 N 
ATOM     43  C   UNL A   1      44.781  27.703  27.414  1.00  0.00     0.074 A 
ATOM     44  C   UNL A   1      44.916  26.318  27.029  1.00  0.00     0.031 C 
ATOM     45  C   UNL A   1      38.709  28.142  29.421  1.00  0.00     0.029 A 
ATOM     46  C   UNL A   1      39.764  29.141  29.524  1.00  0.00     0.049 A 
ATOM     47  H   UNL A   1      41.709  29.012  28.783  1.00  0.00     0.167 HD
ATOM     48  C   UNL A   1      45.786  28.608  27.336  1.00  0.00     0.034 A 
ATOM     49  C   UNL A   1      39.632  30.335  30.134  1.00  0.00     0.034 A 
ATOM     50  C   UNL A   1      45.699  29.958  27.816  1.00  0.00     0.049 A 
ATOM     51  C   UNL A   1      40.807  31.268  30.175  1.00  0.00     0.074 A 
ATOM     52  C   UNL A   1      46.678  30.936  27.814  1.00  0.00     0.029 A 
ATOM     53  N   UNL A   1      44.588  30.504  28.437  1.00  0.00    -0.354 N 
ATOM     54  N   UNL A   1      41.986  31.131  29.623  1.00  0.00    -0.248 NA
ATOM     55  C   UNL A   1      40.629  32.526  30.912  1.00  0.00     0.031 C 
ATOM     56  C   UNL A   1      46.175  32.055  28.487  1.00  0.00     0.029 A 
ATOM     57  C   UNL A   1      44.872  31.787  28.872  1.00  0.00     0.049 A 
ATOM     58  H   UNL A   1      43.724  30.046  28.552  1.00  0.00     0.167 HD
ATOM     59  C   UNL A   1      42.686  32.293  29.923  1.00  0.00     0.074 A 
ATOM     60  C   UNL A   1      41.789  33.133  30.691  1.00  0.00     0.031 C 
ATOM     61  C   UNL A   1      43.960  32.627  29.604  1.00  0.00     0.034 A 
BRANCH  48  62
ATOM     62  C   UNL A   1      47.084  28.155  26.720  1.00  0.00     0.023 A 
ATOM     63  C   UNL A   1      48.159  27.799  27.559  1.00  0.00     0.012 A 
ATOM     64  C   UNL A   1      47.224  28.035  25.324  1.00  0.00     0.148 A 
ATOM     65  C   UNL A   1      49.361  27.341  27.015  1.00  0.00     0.002 A 
ATOM     66  C   UNL A   1      48.415  27.556  24.791  1.00  0.00     0.091 A 
ATOM     67  F   UNL A   1      46.198  28.407  24.547  1.00  0.00    -0.205 F 
ATOM     68  C   UNL A   1      49.485  27.212  25.633  1.00  0.00     0.022 A 
BRANCH  66  69
ATOM     69  S   UNL A   1      48.661  27.319  23.027  1.00  0.00     0.127 S 
ATOM     70  O   UNL A   1      47.750  28.316  22.467  1.00  0.00    -0.237 OA
ATOM     71  O   UNL A   1      50.080  27.633  22.868  1.00  0.00    -0.237 OA
ATOM     72  O   UNL A   1      48.309  25.932  22.755  1.00  0.00    -0.744 OA
ENDBRANCH  66  69
ENDBRANCH  48  62
BRANCH  49  73
ATOM     73  C   UNL A   1      38.332  30.689  30.771  1.00  0.00     0.023 A 
ATOM     74  C   UNL A   1      38.086  30.334  32.109  1.00  0.00     0.012 A 
ATOM     75  C   UNL A   1      37.365  31.438  30.068  1.00  0.00     0.148 A 
ATOM     76  C   UNL A   1      36.895  30.712  32.733  1.00  0.00     0.002 A 
ATOM     77  C   UNL A   1      36.215  31.868  30.715  1.00  0.00     0.091 A 
ATOM     78  F   UNL A   1      37.603  31.739  28.784  1.00  0.00    -0.205 F 
ATOM     79  C   UNL A   1      35.969  31.493  32.043  1.00  0.00     0.022 A 
BRANCH  77  80
ATOM     80  S   UNL A   1      35.062  33.009  29.943  1.00  0.00     0.127 S 
ATOM     81  O   UNL A   1      34.473  32.178  28.896  1.00  0.00    -0.237 OA
ATOM     82  O   UNL A   1      34.164  33.337  31.050  1.00  0.00    -0.237 OA
ATOM     83  O   UNL A   1      35.874  34.130  29.486  1.00  0.00    -0.744 OA
ENDBRANCH  77  80
ENDBRANCH  49  73
BRANCH  61  84
ATOM     84  C   UNL A   1      44.468  33.964  30.070  1.00  0.00     0.023 A 
ATOM     85  C   UNL A   1      45.157  34.062  31.295  1.00  0.00     0.012 A 
ATOM     86  C   UNL A   1      44.330  35.107  29.259  1.00  0.00     0.148 A 
ATOM     87  C   UNL A   1      45.680  35.283  31.717  1.00  0.00     0.002 A 
ATOM     88  C   UNL A   1      44.895  36.310  29.664  1.00  0.00     0.091 A 
ATOM     89  F   UNL A   1      43.650  34.998  28.108  1.00  0.00    -0.205 F 
ATOM     90  C   UNL A   1      45.560  36.403  30.897  1.00  0.00     0.022 A 
BRANCH  88  91
ATOM     91  S   UNL A   1      44.873  37.774  28.624  1.00  0.00     0.127 S 
ATOM     92  O   UNL A   1      43.472  38.181  28.712  1.00  0.00    -0.237 OA
ATOM     93  O   UNL A   1      45.811  38.662  29.313  1.00  0.00    -0.237 OA
ATOM     94  O   UNL A   1      45.318  37.336  27.309  1.00  0.00    -0.744 OA
ENDBRANCH  88  91
ENDBRANCH  61  84
ENDBRANCH  35  36
ENDBRANCH  28  30
ENDBRANCH  27  28
ENDBRANCH  26  27
ENDBRANCH   1  26
TORSDOF 17
ENDMDL
