MODEL 1
REMARK VINA RESULT:     -12.0      0.000      0.000
REMARK SMILES C[C@H]1Cc2ccc(C3CC3)cc2[C@H](C(=O)OCCOC(=O)c2ccc(-c3c4nc(c(-c5cccc(S(=O)(=O)[O-])c5F)c5ccc([nH]5)c(-c5cccc(S(=O)(=O)[O-])c5F)c5nc(c(-c6cccc(S(=O)(=O)[O-])c6F)c6ccc3[nH]6)C=C5)C=C4)cc2)[NH2+]1
REMARK SMILES IDX 18 1 17 2 16 3 14 4 15 5 13 6 1 7 2 8 3 9 85 10 4 11 5 14
REMARK SMILES IDX 12 15 6 16 11 17 7 18 8 19 9 20 10 21 19 22 20 23 21 24
REMARK SMILES IDX 22 25 23 26 84 27 24 28 83 29 25 30 26 31 27 32 77 33 28 34
REMARK SMILES IDX 82 35 76 36 78 37 29 38 81 39 75 40 74 41 30 43 62 44 42 45
REMARK SMILES IDX 61 46 43 47 46 48 60 49 79 50 44 51 45 52 59 54 80 55 47 56
REMARK SMILES IDX 31 57 32 58 40 59 33 60 35 61 41 62 34 63 36 64 37 65 38 66
REMARK SMILES IDX 39 67 63 68 64 69 72 70 65 71 67 72 73 73 66 74 68 75 69 76
REMARK SMILES IDX 70 77 71 78 48 79 49 80 57 81 50 82 52 83 58 84 51 85 53 86
REMARK SMILES IDX 54 87 55 88 56 89
REMARK H PARENT 85 12 85 13 78 42 46 53
REMARK Flexibility Score: inf
ROOT
ATOM      1  C   UNL A   1      31.781  30.057  26.749  1.00  0.00     0.275 C 
ENDROOT
BRANCH   1   2
ATOM      2  C   UNL A   1      31.743  28.805  27.619  1.00  0.00     0.274 C 
BRANCH   2   3
ATOM      3  O   UNL A   1      32.652  27.801  27.119  1.00  0.00    -0.457 OA
BRANCH   3   4
ATOM      4  C   UNL A   1      32.152  26.939  26.178  1.00  0.00     0.369 C 
ATOM      5  O   UNL A   1      31.296  26.093  26.408  1.00  0.00    -0.245 OA
BRANCH   4   6
ATOM      6  C   UNL A   1      32.844  27.168  24.809  1.00  0.00     0.325 C 
ATOM      7  C   UNL A   1      30.189  28.229  22.320  1.00  0.00     0.075 C 
ATOM      8  C   UNL A   1      30.945  27.271  23.244  1.00  0.00     0.184 C 
ATOM      9  C   UNL A   1      31.442  26.058  22.441  1.00  0.00     0.100 C 
ATOM     10  N   UNL A   1      32.039  28.008  23.893  1.00  0.00    -0.328 N 
ATOM     11  C   UNL A   1      32.505  25.264  23.155  1.00  0.00    -0.032 A 
ATOM     12  H   UNL A   1      31.638  28.779  24.427  1.00  0.00     0.347 HD
ATOM     13  H   UNL A   1      32.662  28.337  23.155  1.00  0.00     0.347 HD
ATOM     14  C   UNL A   1      32.823  23.977  22.719  1.00  0.00     0.005 A 
ATOM     15  C   UNL A   1      33.232  25.830  24.208  1.00  0.00     0.025 A 
ATOM     16  C   UNL A   1      33.870  23.268  23.315  1.00  0.00     0.004 A 
ATOM     17  C   UNL A   1      34.294  25.106  24.782  1.00  0.00     0.014 A 
ATOM     18  C   UNL A   1      34.648  23.820  24.347  1.00  0.00    -0.044 A 
BRANCH  18  19
ATOM     19  C   UNL A   1      35.797  23.027  24.938  1.00  0.00     0.019 C 
ATOM     20  C   UNL A   1      36.073  21.590  24.566  1.00  0.00     0.009 C 
ATOM     21  C   UNL A   1      36.986  22.676  24.076  1.00  0.00     0.009 C 
ENDBRANCH  18  19
ENDBRANCH   4   6
ENDBRANCH   3   4
ENDBRANCH   2   3
ENDBRANCH   1   2
BRANCH   1  22
ATOM     22  O   UNL A   1      33.150  30.439  26.549  1.00  0.00    -0.458 OA
BRANCH  22  23
ATOM     23  C   UNL A   1      33.609  31.457  27.305  1.00  0.00     0.338 C 
ATOM     24  O   UNL A   1      33.021  32.485  27.614  1.00  0.00    -0.246 OA
BRANCH  23  25
ATOM     25  C   UNL A   1      34.948  31.097  27.790  1.00  0.00     0.060 A 
ATOM     26  C   UNL A   1      35.924  32.059  28.024  1.00  0.00     0.016 A 
ATOM     27  C   UNL A   1      35.194  29.761  28.098  1.00  0.00     0.016 A 
ATOM     28  C   UNL A   1      37.158  31.661  28.556  1.00  0.00     0.010 A 
ATOM     29  C   UNL A   1      36.389  29.382  28.697  1.00  0.00     0.010 A 
ATOM     30  C   UNL A   1      37.394  30.321  28.929  1.00  0.00    -0.014 A 
BRANCH  30  31
ATOM     31  C   UNL A   1      38.635  29.909  29.643  1.00  0.00     0.031 A 
ATOM     32  C   UNL A   1      38.974  30.423  31.022  1.00  0.00     0.074 A 
ATOM     33  C   UNL A   1      39.535  29.148  28.988  1.00  0.00     0.049 A 
ATOM     34  N   UNL A   1      40.008  30.134  31.772  1.00  0.00    -0.248 NA
ATOM     35  C   UNL A   1      38.075  31.425  31.620  1.00  0.00     0.031 C 
ATOM     36  C   UNL A   1      39.435  28.736  27.584  1.00  0.00     0.029 A 
ATOM     37  N   UNL A   1      40.716  28.588  29.411  1.00  0.00    -0.354 N 
ATOM     38  C   UNL A   1      39.910  30.946  32.895  1.00  0.00     0.074 A 
ATOM     39  C   UNL A   1      38.737  31.770  32.716  1.00  0.00     0.031 C 
ATOM     40  C   UNL A   1      40.474  27.944  27.282  1.00  0.00     0.029 A 
ATOM     41  C   UNL A   1      41.318  27.794  28.463  1.00  0.00     0.049 A 
ATOM     42  H   UNL A   1      41.094  28.742  30.306  1.00  0.00     0.167 HD
ATOM     43  C   UNL A   1      40.697  30.971  33.998  1.00  0.00     0.034 A 
ATOM     44  C   UNL A   1      42.399  26.996  28.545  1.00  0.00     0.034 A 
ATOM     45  C   UNL A   1      41.794  30.070  34.225  1.00  0.00     0.049 A 
ATOM     46  C   UNL A   1      43.127  26.876  29.853  1.00  0.00     0.074 A 
ATOM     47  C   UNL A   1      42.556  29.913  35.370  1.00  0.00     0.029 A 
ATOM     48  N   UNL A   1      42.268  29.155  33.300  1.00  0.00    -0.354 N 
ATOM     49  N   UNL A   1      42.902  27.512  30.976  1.00  0.00    -0.248 NA
ATOM     50  C   UNL A   1      44.225  25.900  29.922  1.00  0.00     0.031 C 
ATOM     51  C   UNL A   1      43.476  28.885  35.145  1.00  0.00     0.029 A 
ATOM     52  C   UNL A   1      43.293  28.411  33.856  1.00  0.00     0.049 A 
ATOM     53  H   UNL A   1      41.927  29.049  32.383  1.00  0.00     0.167 HD
ATOM     54  C   UNL A   1      43.814  27.002  31.889  1.00  0.00     0.074 A 
ATOM     55  C   UNL A   1      44.582  25.988  31.197  1.00  0.00     0.031 C 
ATOM     56  C   UNL A   1      44.007  27.360  33.181  1.00  0.00     0.034 A 
BRANCH  43  57
ATOM     57  C   UNL A   1      40.326  31.910  35.116  1.00  0.00     0.023 A 
ATOM     58  C   UNL A   1      40.945  33.175  35.169  1.00  0.00     0.012 A 
ATOM     59  C   UNL A   1      39.302  31.602  36.034  1.00  0.00     0.148 A 
ATOM     60  C   UNL A   1      40.571  34.112  36.130  1.00  0.00     0.002 A 
ATOM     61  C   UNL A   1      38.910  32.553  36.969  1.00  0.00     0.091 A 
ATOM     62  F   UNL A   1      38.727  30.392  35.968  1.00  0.00    -0.205 F 
ATOM     63  C   UNL A   1      39.548  33.805  37.022  1.00  0.00     0.022 A 
BRANCH  61  64
ATOM     64  S   UNL A   1      37.558  32.295  38.126  1.00  0.00     0.127 S 
ATOM     65  O   UNL A   1      36.493  33.091  37.517  1.00  0.00    -0.237 OA
ATOM     66  O   UNL A   1      37.359  30.848  38.046  1.00  0.00    -0.237 OA
ATOM     67  O   UNL A   1      38.032  32.778  39.415  1.00  0.00    -0.744 OA
ENDBRANCH  61  64
ENDBRANCH  43  57
BRANCH  44  68
ATOM     68  C   UNL A   1      42.740  26.126  27.389  1.00  0.00     0.023 A 
ATOM     69  C   UNL A   1      43.627  26.621  26.412  1.00  0.00     0.012 A 
ATOM     70  C   UNL A   1      42.280  24.799  27.298  1.00  0.00     0.148 A 
ATOM     71  C   UNL A   1      44.042  25.814  25.355  1.00  0.00     0.002 A 
ATOM     72  C   UNL A   1      42.724  23.988  26.260  1.00  0.00     0.091 A 
ATOM     73  F   UNL A   1      41.439  24.354  28.242  1.00  0.00    -0.205 F 
ATOM     74  C   UNL A   1      43.598  24.495  25.283  1.00  0.00     0.022 A 
BRANCH  72  75
ATOM     75  S   UNL A   1      42.297  22.248  26.136  1.00  0.00     0.127 S 
ATOM     76  O   UNL A   1      40.852  22.311  25.931  1.00  0.00    -0.237 OA
ATOM     77  O   UNL A   1      43.067  21.831  24.964  1.00  0.00    -0.237 OA
ATOM     78  O   UNL A   1      42.729  21.645  27.389  1.00  0.00    -0.744 OA
ENDBRANCH  72  75
ENDBRANCH  44  68
BRANCH  56  79
ATOM     79  C   UNL A   1      45.085  26.659  33.958  1.00  0.00     0.023 A 
ATOM     80  C   UNL A   1      46.405  27.142  33.884  1.00  0.00     0.012 A 
ATOM     81  C   UNL A   1      44.770  25.618  34.851  1.00  0.00     0.148 A 
ATOM     82  C   UNL A   1      47.402  26.595  34.689  1.00  0.00     0.002 A 
ATOM     83  C   UNL A   1      45.764  25.095  35.671  1.00  0.00     0.091 A 
ATOM     84  F   UNL A   1      43.507  25.170  34.891  1.00  0.00    -0.205 F 
ATOM     85  C   UNL A   1      47.080  25.581  35.589  1.00  0.00     0.022 A 
BRANCH  83  86
ATOM     86  S   UNL A   1      45.436  23.836  36.910  1.00  0.00     0.127 S 
ATOM     87  O   UNL A   1      44.850  22.769  36.102  1.00  0.00    -0.237 OA
ATOM     88  O   UNL A   1      46.775  23.550  37.423  1.00  0.00    -0.237 OA
ATOM     89  O   UNL A   1      44.534  24.449  37.877  1.00  0.00    -0.744 OA
ENDBRANCH  83  86
ENDBRANCH  56  79
ENDBRANCH  30  31
ENDBRANCH  23  25
ENDBRANCH  22  23
ENDBRANCH   1  22
TORSDOF 15
ENDMDL
MODEL 2
REMARK VINA RESULT:     -12.0      1.460      3.073
REMARK SMILES C[C@H]1Cc2ccc(C3CC3)cc2[C@H](C(=O)OCCOC(=O)c2ccc(-c3c4nc(c(-c5cccc(S(=O)(=O)[O-])c5F)c5ccc([nH]5)c(-c5cccc(S(=O)(=O)[O-])c5F)c5nc(c(-c6cccc(S(=O)(=O)[O-])c6F)c6ccc3[nH]6)C=C5)C=C4)cc2)[NH2+]1
REMARK SMILES IDX 18 1 17 2 16 3 14 4 15 5 13 6 1 7 2 8 3 9 85 10 4 11 5 14
REMARK SMILES IDX 12 15 6 16 11 17 7 18 8 19 9 20 10 21 19 22 20 23 21 24
REMARK SMILES IDX 22 25 23 26 84 27 24 28 83 29 25 30 26 31 27 32 77 33 28 34
REMARK SMILES IDX 82 35 76 36 78 37 29 38 81 39 75 40 74 41 30 43 62 44 42 45
REMARK SMILES IDX 61 46 43 47 46 48 60 49 79 50 44 51 45 52 59 54 80 55 47 56
REMARK SMILES IDX 31 57 32 58 40 59 33 60 35 61 41 62 34 63 36 64 37 65 38 66
REMARK SMILES IDX 39 67 63 68 64 69 72 70 65 71 67 72 73 73 66 74 68 75 69 76
REMARK SMILES IDX 70 77 71 78 48 79 49 80 57 81 50 82 52 83 58 84 51 85 53 86
REMARK SMILES IDX 54 87 55 88 56 89
REMARK H PARENT 85 12 85 13 78 42 46 53
REMARK Flexibility Score: inf
ROOT
ATOM      1  C   UNL A   1      31.504  29.451  26.247  1.00  0.00     0.275 C 
ENDROOT
BRANCH   1   2
ATOM      2  C   UNL A   1      31.465  28.208  27.131  1.00  0.00     0.274 C 
BRANCH   2   3
ATOM      3  O   UNL A   1      31.888  27.039  26.398  1.00  0.00    -0.457 OA
BRANCH   3   4
ATOM      4  C   UNL A   1      30.900  26.178  25.997  1.00  0.00     0.369 C 
ATOM      5  O   UNL A   1      29.985  25.801  26.719  1.00  0.00    -0.245 OA
BRANCH   4   6
ATOM      6  C   UNL A   1      31.127  25.734  24.529  1.00  0.00     0.325 C 
ATOM      7  C   UNL A   1      34.776  24.779  24.148  1.00  0.00     0.075 C 
ATOM      8  C   UNL A   1      33.582  25.720  24.333  1.00  0.00     0.184 C 
ATOM      9  C   UNL A   1      33.575  26.778  23.218  1.00  0.00     0.100 C 
ATOM     10  N   UNL A   1      32.351  24.917  24.360  1.00  0.00    -0.328 N 
ATOM     11  C   UNL A   1      32.258  27.498  23.084  1.00  0.00    -0.032 A 
ATOM     12  H   UNL A   1      32.411  24.257  25.136  1.00  0.00     0.347 HD
ATOM     13  H   UNL A   1      32.278  24.443  23.460  1.00  0.00     0.347 HD
ATOM     14  C   UNL A   1      32.184  28.686  22.358  1.00  0.00     0.005 A 
ATOM     15  C   UNL A   1      31.088  26.948  23.621  1.00  0.00     0.025 A 
ATOM     16  C   UNL A   1      30.952  29.313  22.150  1.00  0.00     0.004 A 
ATOM     17  C   UNL A   1      29.855  27.585  23.385  1.00  0.00     0.014 A 
ATOM     18  C   UNL A   1      29.751  28.769  22.638  1.00  0.00    -0.044 A 
BRANCH  18  19
ATOM     19  C   UNL A   1      28.434  29.464  22.357  1.00  0.00     0.019 C 
ATOM     20  C   UNL A   1      27.156  29.115  23.081  1.00  0.00     0.009 C 
ATOM     21  C   UNL A   1      27.853  30.410  23.383  1.00  0.00     0.009 C 
ENDBRANCH  18  19
ENDBRANCH   4   6
ENDBRANCH   3   4
ENDBRANCH   2   3
ENDBRANCH   1   2
BRANCH   1  22
ATOM     22  O   UNL A   1      32.862  29.904  26.149  1.00  0.00    -0.458 OA
BRANCH  22  23
ATOM     23  C   UNL A   1      33.194  30.982  26.889  1.00  0.00     0.338 C 
ATOM     24  O   UNL A   1      32.505  31.963  27.134  1.00  0.00    -0.246 OA
BRANCH  23  25
ATOM     25  C   UNL A   1      34.533  30.756  27.448  1.00  0.00     0.060 A 
ATOM     26  C   UNL A   1      35.349  31.811  27.839  1.00  0.00     0.016 A 
ATOM     27  C   UNL A   1      34.939  29.441  27.661  1.00  0.00     0.016 A 
ATOM     28  C   UNL A   1      36.587  31.530  28.433  1.00  0.00     0.010 A 
ATOM     29  C   UNL A   1      36.132  29.167  28.320  1.00  0.00     0.010 A 
ATOM     30  C   UNL A   1      36.979  30.204  28.710  1.00  0.00    -0.014 A 
BRANCH  30  31
ATOM     31  C   UNL A   1      38.214  29.893  29.484  1.00  0.00     0.031 A 
ATOM     32  C   UNL A   1      38.418  30.384  30.897  1.00  0.00     0.074 A 
ATOM     33  C   UNL A   1      39.225  29.254  28.860  1.00  0.00     0.049 A 
ATOM     34  N   UNL A   1      39.432  30.172  31.699  1.00  0.00    -0.248 NA
ATOM     35  C   UNL A   1      37.387  31.265  31.473  1.00  0.00     0.031 C 
ATOM     36  C   UNL A   1      39.248  28.890  27.440  1.00  0.00     0.029 A 
ATOM     37  N   UNL A   1      40.431  28.802  29.335  1.00  0.00    -0.354 N 
ATOM     38  C   UNL A   1      39.186  30.925  32.841  1.00  0.00     0.074 A 
ATOM     39  C   UNL A   1      37.945  31.631  32.619  1.00  0.00     0.031 C 
ATOM     40  C   UNL A   1      40.380  28.221  27.175  1.00  0.00     0.029 A 
ATOM     41  C   UNL A   1      41.165  28.111  28.400  1.00  0.00     0.049 A 
ATOM     42  H   UNL A   1      40.740  28.957  30.256  1.00  0.00     0.167 HD
ATOM     43  C   UNL A   1      39.902  30.986  33.990  1.00  0.00     0.034 A 
ATOM     44  C   UNL A   1      42.318  27.425  28.520  1.00  0.00     0.034 A 
ATOM     45  C   UNL A   1      41.072  30.194  34.253  1.00  0.00     0.049 A 
ATOM     46  C   UNL A   1      42.978  27.328  29.865  1.00  0.00     0.074 A 
ATOM     47  C   UNL A   1      41.779  30.071  35.436  1.00  0.00     0.029 A 
ATOM     48  N   UNL A   1      41.691  29.369  33.328  1.00  0.00    -0.354 N 
ATOM     49  N   UNL A   1      42.624  27.893  30.993  1.00  0.00    -0.248 NA
ATOM     50  C   UNL A   1      44.166  26.467  29.968  1.00  0.00     0.031 C 
ATOM     51  C   UNL A   1      42.813  29.151  35.233  1.00  0.00     0.029 A 
ATOM     52  C   UNL A   1      42.754  28.713  33.920  1.00  0.00     0.049 A 
ATOM     53  H   UNL A   1      41.415  29.266  32.389  1.00  0.00     0.167 HD
ATOM     54  C   UNL A   1      43.531  27.443  31.943  1.00  0.00     0.074 A 
ATOM     55  C   UNL A   1      44.439  26.541  31.265  1.00  0.00     0.031 C 
ATOM     56  C   UNL A   1      43.612  27.768  33.255  1.00  0.00     0.034 A 
BRANCH  43  57
ATOM     57  C   UNL A   1      39.371  31.838  35.114  1.00  0.00     0.023 A 
ATOM     58  C   UNL A   1      38.492  31.252  36.047  1.00  0.00     0.012 A 
ATOM     59  C   UNL A   1      39.818  33.158  35.318  1.00  0.00     0.148 A 
ATOM     60  C   UNL A   1      38.044  31.972  37.153  1.00  0.00     0.002 A 
ATOM     61  C   UNL A   1      39.395  33.859  36.442  1.00  0.00     0.091 A 
ATOM     62  F   UNL A   1      40.653  33.697  34.418  1.00  0.00    -0.205 F 
ATOM     63  C   UNL A   1      38.504  33.270  37.356  1.00  0.00     0.022 A 
BRANCH  61  64
ATOM     64  S   UNL A   1      39.972  35.514  36.842  1.00  0.00     0.127 S 
ATOM     65  O   UNL A   1      39.296  35.763  38.115  1.00  0.00    -0.237 OA
ATOM     66  O   UNL A   1      41.417  35.317  36.949  1.00  0.00    -0.237 OA
ATOM     67  O   UNL A   1      39.550  36.367  35.740  1.00  0.00    -0.744 OA
ENDBRANCH  61  64
ENDBRANCH  43  57
BRANCH  44  68
ATOM     68  C   UNL A   1      42.813  26.640  27.359  1.00  0.00     0.023 A 
ATOM     69  C   UNL A   1      43.741  27.243  26.486  1.00  0.00     0.012 A 
ATOM     70  C   UNL A   1      42.455  25.293  27.167  1.00  0.00     0.148 A 
ATOM     71  C   UNL A   1      44.297  26.521  25.432  1.00  0.00     0.002 A 
ATOM     72  C   UNL A   1      43.040  24.568  26.134  1.00  0.00     0.091 A 
ATOM     73  F   UNL A   1      41.573  24.745  28.014  1.00  0.00    -0.205 F 
ATOM     74  C   UNL A   1      43.954  25.182  25.261  1.00  0.00     0.022 A 
BRANCH  72  75
ATOM     75  S   UNL A   1      42.746  22.812  25.893  1.00  0.00     0.127 S 
ATOM     76  O   UNL A   1      41.297  22.728  26.058  1.00  0.00    -0.237 OA
ATOM     77  O   UNL A   1      43.223  22.613  24.524  1.00  0.00    -0.237 OA
ATOM     78  O   UNL A   1      43.536  22.136  26.913  1.00  0.00    -0.744 OA
ENDBRANCH  72  75
ENDBRANCH  44  68
BRANCH  56  79
ATOM     79  C   UNL A   1      44.711  27.150  34.072  1.00  0.00     0.023 A 
ATOM     80  C   UNL A   1      45.919  27.853  34.235  1.00  0.00     0.012 A 
ATOM     81  C   UNL A   1      44.499  25.950  34.778  1.00  0.00     0.148 A 
ATOM     82  C   UNL A   1      46.908  27.368  35.088  1.00  0.00     0.002 A 
ATOM     83  C   UNL A   1      45.479  25.486  35.648  1.00  0.00     0.091 A 
ATOM     84  F   UNL A   1      43.343  25.296  34.594  1.00  0.00    -0.205 F 
ATOM     85  C   UNL A   1      46.683  26.192  35.802  1.00  0.00     0.022 A 
BRANCH  83  86
ATOM     86  S   UNL A   1      45.257  24.021  36.664  1.00  0.00     0.127 S 
ATOM     87  O   UNL A   1      46.638  23.596  36.879  1.00  0.00    -0.237 OA
ATOM     88  O   UNL A   1      44.592  24.563  37.849  1.00  0.00    -0.237 OA
ATOM     89  O   UNL A   1      44.441  23.105  35.878  1.00  0.00    -0.744 OA
ENDBRANCH  83  86
ENDBRANCH  56  79
ENDBRANCH  30  31
ENDBRANCH  23  25
ENDBRANCH  22  23
ENDBRANCH   1  22
TORSDOF 15
ENDMDL
MODEL 3
REMARK VINA RESULT:     -12.0      5.175     10.207
REMARK SMILES C[C@H]1Cc2ccc(C3CC3)cc2[C@H](C(=O)OCCOC(=O)c2ccc(-c3c4nc(c(-c5cccc(S(=O)(=O)[O-])c5F)c5ccc([nH]5)c(-c5cccc(S(=O)(=O)[O-])c5F)c5nc(c(-c6cccc(S(=O)(=O)[O-])c6F)c6ccc3[nH]6)C=C5)C=C4)cc2)[NH2+]1
REMARK SMILES IDX 18 1 17 2 16 3 14 4 15 5 13 6 1 7 2 8 3 9 85 10 4 11 5 14
REMARK SMILES IDX 12 15 6 16 11 17 7 18 8 19 9 20 10 21 19 22 20 23 21 24
REMARK SMILES IDX 22 25 23 26 84 27 24 28 83 29 25 30 26 31 27 32 77 33 28 34
REMARK SMILES IDX 82 35 76 36 78 37 29 38 81 39 75 40 74 41 30 43 62 44 42 45
REMARK SMILES IDX 61 46 43 47 46 48 60 49 79 50 44 51 45 52 59 54 80 55 47 56
REMARK SMILES IDX 31 57 32 58 40 59 33 60 35 61 41 62 34 63 36 64 37 65 38 66
REMARK SMILES IDX 39 67 63 68 64 69 72 70 65 71 67 72 73 73 66 74 68 75 69 76
REMARK SMILES IDX 70 77 71 78 48 79 49 80 57 81 50 82 52 83 58 84 51 85 53 86
REMARK SMILES IDX 54 87 55 88 56 89
REMARK H PARENT 85 12 85 13 78 42 46 53
REMARK Flexibility Score: inf
ROOT
ATOM      1  C   UNL A   1      37.296  21.479  24.441  1.00  0.00     0.275 C 
ENDROOT
BRANCH   1   2
ATOM      2  C   UNL A   1      36.870  22.593  23.490  1.00  0.00     0.274 C 
BRANCH   2   3
ATOM      3  O   UNL A   1      36.319  23.712  24.218  1.00  0.00    -0.457 OA
BRANCH   3   4
ATOM      4  C   UNL A   1      34.970  23.919  24.090  1.00  0.00     0.369 C 
ATOM      5  O   UNL A   1      34.436  24.351  23.076  1.00  0.00    -0.245 OA
BRANCH   4   6
ATOM      6  C   UNL A   1      34.238  23.564  25.410  1.00  0.00     0.325 C 
ATOM      7  C   UNL A   1      32.150  20.462  24.791  1.00  0.00     0.075 C 
ATOM      8  C   UNL A   1      32.541  21.938  24.676  1.00  0.00     0.184 C 
ATOM      9  C   UNL A   1      31.377  22.822  25.151  1.00  0.00     0.100 C 
ATOM     10  N   UNL A   1      33.773  22.158  25.448  1.00  0.00    -0.328 N 
ATOM     11  C   UNL A   1      31.785  24.243  25.440  1.00  0.00    -0.032 A 
ATOM     12  H   UNL A   1      34.507  21.563  25.064  1.00  0.00     0.347 HD
ATOM     13  H   UNL A   1      33.566  21.932  26.421  1.00  0.00     0.347 HD
ATOM     14  C   UNL A   1      30.813  25.236  25.563  1.00  0.00     0.005 A 
ATOM     15  C   UNL A   1      33.129  24.569  25.660  1.00  0.00     0.025 A 
ATOM     16  C   UNL A   1      31.174  26.539  25.921  1.00  0.00     0.004 A 
ATOM     17  C   UNL A   1      33.469  25.881  26.037  1.00  0.00     0.014 A 
ATOM     18  C   UNL A   1      32.507  26.892  26.189  1.00  0.00    -0.044 A 
BRANCH  18  19
ATOM     19  C   UNL A   1      32.846  28.308  26.610  1.00  0.00     0.019 C 
ATOM     20  C   UNL A   1      34.214  28.915  26.406  1.00  0.00     0.009 C 
ATOM     21  C   UNL A   1      33.063  29.370  25.557  1.00  0.00     0.009 C 
ENDBRANCH  18  19
ENDBRANCH   4   6
ENDBRANCH   3   4
ENDBRANCH   2   3
ENDBRANCH   1   2
BRANCH   1  22
ATOM     22  O   UNL A   1      37.695  22.065  25.688  1.00  0.00    -0.458 OA
BRANCH  22  23
ATOM     23  C   UNL A   1      38.935  21.767  26.126  1.00  0.00     0.338 C 
ATOM     24  O   UNL A   1      39.550  20.719  25.977  1.00  0.00    -0.246 OA
BRANCH  23  25
ATOM     25  C   UNL A   1      39.492  22.965  26.767  1.00  0.00     0.060 A 
ATOM     26  C   UNL A   1      40.618  22.902  27.581  1.00  0.00     0.016 A 
ATOM     27  C   UNL A   1      38.913  24.195  26.468  1.00  0.00     0.016 A 
ATOM     28  C   UNL A   1      41.146  24.089  28.105  1.00  0.00     0.010 A 
ATOM     29  C   UNL A   1      39.485  25.377  26.926  1.00  0.00     0.010 A 
ATOM     30  C   UNL A   1      40.605  25.345  27.757  1.00  0.00    -0.014 A 
BRANCH  30  31
ATOM     31  C   UNL A   1      41.248  26.622  28.173  1.00  0.00     0.031 A 
ATOM     32  C   UNL A   1      42.694  26.930  27.859  1.00  0.00     0.074 A 
ATOM     33  C   UNL A   1      40.552  27.475  28.952  1.00  0.00     0.049 A 
ATOM     34  N   UNL A   1      43.380  28.010  28.140  1.00  0.00    -0.248 NA
ATOM     35  C   UNL A   1      43.490  25.883  27.196  1.00  0.00     0.031 C 
ATOM     36  C   UNL A   1      39.214  27.223  29.496  1.00  0.00     0.029 A 
ATOM     37  N   UNL A   1      40.871  28.722  29.428  1.00  0.00    -0.354 N 
ATOM     38  C   UNL A   1      44.685  27.754  27.736  1.00  0.00     0.074 A 
ATOM     39  C   UNL A   1      44.709  26.403  27.224  1.00  0.00     0.031 C 
ATOM     40  C   UNL A   1      38.805  28.303  30.179  1.00  0.00     0.029 A 
ATOM     41  C   UNL A   1      39.849  29.322  30.127  1.00  0.00     0.049 A 
ATOM     42  H   UNL A   1      41.747  29.146  29.283  1.00  0.00     0.167 HD
ATOM     43  C   UNL A   1      45.756  28.584  27.745  1.00  0.00     0.034 A 
ATOM     44  C   UNL A   1      39.741  30.566  30.631  1.00  0.00     0.034 A 
ATOM     45  C   UNL A   1      45.703  29.963  28.145  1.00  0.00     0.049 A 
ATOM     46  C   UNL A   1      40.867  31.539  30.432  1.00  0.00     0.074 A 
ATOM     47  C   UNL A   1      46.693  30.926  28.048  1.00  0.00     0.029 A 
ATOM     48  N   UNL A   1      44.592  30.584  28.692  1.00  0.00    -0.354 N 
ATOM     49  N   UNL A   1      42.033  31.338  29.870  1.00  0.00    -0.248 NA
ATOM     50  C   UNL A   1      40.650  32.918  30.893  1.00  0.00     0.031 C 
ATOM     51  C   UNL A   1      46.172  32.136  28.516  1.00  0.00     0.029 A 
ATOM     52  C   UNL A   1      44.862  31.922  28.913  1.00  0.00     0.049 A 
ATOM     53  H   UNL A   1      43.738  30.139  28.894  1.00  0.00     0.167 HD
ATOM     54  C   UNL A   1      42.681  32.565  29.892  1.00  0.00     0.074 A 
ATOM     55  C   UNL A   1      41.771  33.512  30.503  1.00  0.00     0.031 C 
ATOM     56  C   UNL A   1      43.928  32.870  29.461  1.00  0.00     0.034 A 
BRANCH  43  57
ATOM     57  C   UNL A   1      47.056  28.074  27.179  1.00  0.00     0.023 A 
ATOM     58  C   UNL A   1      48.049  27.621  28.072  1.00  0.00     0.012 A 
ATOM     59  C   UNL A   1      47.256  27.933  25.792  1.00  0.00     0.148 A 
ATOM     60  C   UNL A   1      49.232  27.058  27.595  1.00  0.00     0.002 A 
ATOM     61  C   UNL A   1      48.424  27.340  25.324  1.00  0.00     0.091 A 
ATOM     62  F   UNL A   1      46.301  28.373  24.960  1.00  0.00    -0.205 F 
ATOM     63  C   UNL A   1      49.414  26.909  26.224  1.00  0.00     0.022 A 
BRANCH  61  64
ATOM     64  S   UNL A   1      48.740  27.034  23.581  1.00  0.00     0.127 S 
ATOM     65  O   UNL A   1      48.159  28.225  22.962  1.00  0.00    -0.237 OA
ATOM     66  O   UNL A   1      50.201  26.977  23.539  1.00  0.00    -0.237 OA
ATOM     67  O   UNL A   1      48.069  25.781  23.262  1.00  0.00    -0.744 OA
ENDBRANCH  61  64
ENDBRANCH  43  57
BRANCH  44  68
ATOM     68  C   UNL A   1      38.444  30.994  31.217  1.00  0.00     0.023 A 
ATOM     69  C   UNL A   1      38.267  30.884  32.611  1.00  0.00     0.012 A 
ATOM     70  C   UNL A   1      37.438  31.591  30.436  1.00  0.00     0.148 A 
ATOM     71  C   UNL A   1      37.102  31.349  33.218  1.00  0.00     0.002 A 
ATOM     72  C   UNL A   1      36.293  32.085  31.052  1.00  0.00     0.091 A 
ATOM     73  F   UNL A   1      37.635  31.685  29.114  1.00  0.00    -0.205 F 
ATOM     74  C   UNL A   1      36.120  31.957  32.441  1.00  0.00     0.022 A 
BRANCH  72  75
ATOM     75  S   UNL A   1      35.017  32.978  30.157  1.00  0.00     0.127 S 
ATOM     76  O   UNL A   1      34.096  33.337  31.232  1.00  0.00    -0.237 OA
ATOM     77  O   UNL A   1      35.773  34.097  29.593  1.00  0.00    -0.237 OA
ATOM     78  O   UNL A   1      34.498  32.041  29.170  1.00  0.00    -0.744 OA
ENDBRANCH  72  75
ENDBRANCH  44  68
BRANCH  56  79
ATOM     79  C   UNL A   1      44.406  34.286  29.617  1.00  0.00     0.023 A 
ATOM     80  C   UNL A   1      44.901  34.707  30.865  1.00  0.00     0.012 A 
ATOM     81  C   UNL A   1      44.485  35.148  28.506  1.00  0.00     0.148 A 
ATOM     82  C   UNL A   1      45.467  35.972  31.009  1.00  0.00     0.002 A 
ATOM     83  C   UNL A   1      45.076  36.398  28.650  1.00  0.00     0.091 A 
ATOM     84  F   UNL A   1      43.995  34.725  27.332  1.00  0.00    -0.205 F 
ATOM     85  C   UNL A   1      45.565  36.811  29.901  1.00  0.00     0.022 A 
BRANCH  83  86
ATOM     86  S   UNL A   1      45.312  37.524  27.270  1.00  0.00     0.127 S 
ATOM     87  O   UNL A   1      43.934  37.889  26.945  1.00  0.00    -0.237 OA
ATOM     88  O   UNL A   1      46.101  38.596  27.876  1.00  0.00    -0.237 OA
ATOM     89  O   UNL A   1      46.011  36.762  26.244  1.00  0.00    -0.744 OA
ENDBRANCH  83  86
ENDBRANCH  56  79
ENDBRANCH  30  31
ENDBRANCH  23  25
ENDBRANCH  22  23
ENDBRANCH   1  22
TORSDOF 15
ENDMDL
