MODEL 1
REMARK VINA RESULT:     -11.7      0.000      0.000
REMARK SMILES O=C(CCCN1C(=O)/C(=C/c2cc(Br)ccc2O)SC1=S)OCCOC(=O)c1ccc(-c2c3nc(c(-c4cccc(S(=O)(=O)[O-])c4F)c4ccc([nH]4)c(-c4cccc(S(=O)(=O)[O-])c4F)c4nc(c(-c5cccc(S(=O)(=O)[O-])c5F)c5ccc2[nH]5)C=C4)C=C3)cc1
REMARK SMILES IDX 23 1 22 2 2 3 1 4 3 5 4 6 5 7 6 8 7 9 20 10 8 11 9 12 19 13
REMARK SMILES IDX 21 14 10 15 11 16 12 17 17 18 13 19 16 20 14 21 15 22 18 23
REMARK SMILES IDX 24 25 25 26 26 27 27 28 28 29 29 30 90 31 30 32 89 33 31 34
REMARK SMILES IDX 32 35 33 36 83 37 34 38 88 39 82 40 84 41 35 42 87 43 81 44
REMARK SMILES IDX 80 45 36 47 68 48 48 49 67 50 49 51 52 52 66 53 85 54 50 55
REMARK SMILES IDX 51 56 65 58 86 59 53 60 37 61 38 62 46 63 39 64 41 65 47 66
REMARK SMILES IDX 40 67 42 68 43 69 44 70 45 71 69 72 70 73 78 74 71 75 73 76
REMARK SMILES IDX 79 77 72 78 74 79 75 80 76 81 77 82 54 83 55 84 63 85 56 86
REMARK SMILES IDX 58 87 64 88 57 89 59 90 60 91 61 92 62 93
REMARK H PARENT 18 24 84 46 52 57
REMARK Flexibility Score: inf
ROOT
ATOM      1  C   UNL A   1      31.225  31.432  26.409  1.00  0.00     0.274 C 
ENDROOT
BRANCH   1   2
ATOM      2  O   UNL A   1      32.241  30.432  26.190  1.00  0.00    -0.462 OA
BRANCH   2   3
ATOM      3  C   UNL A   1      31.771  29.176  25.959  1.00  0.00     0.305 C 
ATOM      4  O   UNL A   1      31.722  28.304  26.819  1.00  0.00    -0.252 OA
BRANCH   3   5
ATOM      5  C   UNL A   1      31.563  28.897  24.476  1.00  0.00     0.124 C 
BRANCH   5   6
ATOM      6  C   UNL A   1      30.197  28.437  23.955  1.00  0.00     0.034 C 
BRANCH   6   7
ATOM      7  C   UNL A   1      29.929  26.938  23.778  1.00  0.00     0.128 C 
BRANCH   7   8
ATOM      8  N   UNL A   1      30.972  25.973  24.116  1.00  0.00    -0.293 N 
ATOM      9  C   UNL A   1      30.832  25.176  25.249  1.00  0.00     0.266 C 
ATOM     10  C   UNL A   1      31.759  25.387  23.155  1.00  0.00     0.148 C 
ATOM     11  O   UNL A   1      30.184  25.419  26.252  1.00  0.00    -0.268 OA
ATOM     12  C   UNL A   1      31.532  23.880  24.989  1.00  0.00     0.081 C 
ATOM     13  S   UNL A   1      31.591  23.658  23.276  1.00  0.00    -0.054 SA
ATOM     14  S   UNL A   1      32.935  26.072  22.225  1.00  0.00    -0.052 S 
ATOM     15  C   UNL A   1      32.247  23.183  25.879  1.00  0.00     0.033 C 
BRANCH  15  16
ATOM     16  C   UNL A   1      33.215  22.176  25.404  1.00  0.00     0.019 A 
ATOM     17  C   UNL A   1      34.558  22.523  25.235  1.00  0.00     0.027 A 
ATOM     18  C   UNL A   1      32.840  20.820  25.317  1.00  0.00     0.122 A 
ATOM     19  C   UNL A   1      35.501  21.525  24.975  1.00  0.00     0.018 A 
ATOM     20  C   UNL A   1      33.782  19.828  25.052  1.00  0.00     0.048 A 
ATOM     21  Br  UNL A   1      37.325  21.990  24.792  1.00  0.00    -0.051 Br
ATOM     22  C   UNL A   1      35.120  20.186  24.881  1.00  0.00     0.019 A 
BRANCH  18  23
ATOM     23  O   UNL A   1      31.537  20.477  25.563  1.00  0.00    -0.507 OA
ATOM     24  H   UNL A   1      31.013  20.107  24.879  1.00  0.00     0.293 HD
ENDBRANCH  18  23
ENDBRANCH  15  16
ENDBRANCH   7   8
ENDBRANCH   6   7
ENDBRANCH   5   6
ENDBRANCH   3   5
ENDBRANCH   2   3
ENDBRANCH   1   2
BRANCH   1  25
ATOM     25  C   UNL A   1      31.883  32.734  26.881  1.00  0.00     0.275 C 
BRANCH  25  26
ATOM     26  O   UNL A   1      33.017  32.412  27.711  1.00  0.00    -0.458 OA
BRANCH  26  27
ATOM     27  C   UNL A   1      33.947  33.346  27.981  1.00  0.00     0.338 C 
ATOM     28  O   UNL A   1      33.810  34.555  27.935  1.00  0.00    -0.246 OA
BRANCH  27  29
ATOM     29  C   UNL A   1      35.180  32.632  28.391  1.00  0.00     0.060 A 
ATOM     30  C   UNL A   1      35.110  31.287  28.754  1.00  0.00     0.016 A 
ATOM     31  C   UNL A   1      36.413  33.289  28.410  1.00  0.00     0.016 A 
ATOM     32  C   UNL A   1      36.266  30.620  29.190  1.00  0.00     0.010 A 
ATOM     33  C   UNL A   1      37.577  32.602  28.773  1.00  0.00     0.010 A 
ATOM     34  C   UNL A   1      37.509  31.275  29.227  1.00  0.00    -0.014 A 
BRANCH  34  35
ATOM     35  C   UNL A   1      38.699  30.634  29.860  1.00  0.00     0.031 A 
ATOM     36  C   UNL A   1      39.084  31.006  31.274  1.00  0.00     0.074 A 
ATOM     37  C   UNL A   1      39.455  29.737  29.196  1.00  0.00     0.049 A 
ATOM     38  N   UNL A   1      40.028  30.509  32.033  1.00  0.00    -0.248 NA
ATOM     39  C   UNL A   1      38.318  32.089  31.913  1.00  0.00     0.031 C 
ATOM     40  C   UNL A   1      39.264  29.328  27.806  1.00  0.00     0.029 A 
ATOM     41  N   UNL A   1      40.558  29.023  29.605  1.00  0.00    -0.354 N 
ATOM     42  C   UNL A   1      39.976  31.221  33.226  1.00  0.00     0.074 A 
ATOM     43  C   UNL A   1      38.940  32.219  33.075  1.00  0.00     0.031 C 
ATOM     44  C   UNL A   1      40.220  28.440  27.476  1.00  0.00     0.029 A 
ATOM     45  C   UNL A   1      41.093  28.215  28.628  1.00  0.00     0.049 A 
ATOM     46  H   UNL A   1      40.931  29.083  30.515  1.00  0.00     0.167 HD
ATOM     47  C   UNL A   1      40.689  31.042  34.364  1.00  0.00     0.034 A 
ATOM     48  C   UNL A   1      42.156  27.383  28.657  1.00  0.00     0.034 A 
ATOM     49  C   UNL A   1      41.695  30.034  34.547  1.00  0.00     0.049 A 
ATOM     50  C   UNL A   1      42.928  27.192  29.939  1.00  0.00     0.074 A 
ATOM     51  C   UNL A   1      42.394  29.717  35.700  1.00  0.00     0.029 A 
ATOM     52  N   UNL A   1      42.161  29.190  33.553  1.00  0.00    -0.354 N 
ATOM     53  N   UNL A   1      42.719  27.722  31.119  1.00  0.00    -0.248 NA
ATOM     54  C   UNL A   1      44.059  26.247  29.904  1.00  0.00     0.031 C 
ATOM     55  C   UNL A   1      43.301  28.697  35.395  1.00  0.00     0.029 A 
ATOM     56  C   UNL A   1      43.152  28.367  34.059  1.00  0.00     0.049 A 
ATOM     57  H   UNL A   1      41.835  29.179  32.624  1.00  0.00     0.167 HD
ATOM     58  C   UNL A   1      43.662  27.151  31.970  1.00  0.00     0.074 A 
ATOM     59  C   UNL A   1      44.432  26.218  31.177  1.00  0.00     0.031 C 
ATOM     60  C   UNL A   1      43.877  27.391  33.287  1.00  0.00     0.034 A 
BRANCH  47  61
ATOM     61  C   UNL A   1      40.351  31.919  35.541  1.00  0.00     0.023 A 
ATOM     62  C   UNL A   1      41.132  33.067  35.789  1.00  0.00     0.012 A 
ATOM     63  C   UNL A   1      39.233  31.653  36.354  1.00  0.00     0.148 A 
ATOM     64  C   UNL A   1      40.824  33.920  36.847  1.00  0.00     0.002 A 
ATOM     65  C   UNL A   1      38.909  32.530  37.382  1.00  0.00     0.091 A 
ATOM     66  F   UNL A   1      38.516  30.545  36.114  1.00  0.00    -0.205 F 
ATOM     67  C   UNL A   1      39.708  33.658  37.636  1.00  0.00     0.022 A 
BRANCH  65  68
ATOM     68  S   UNL A   1      37.449  32.319  38.408  1.00  0.00     0.127 S 
ATOM     69  O   UNL A   1      37.885  32.918  39.669  1.00  0.00    -0.237 OA
ATOM     70  O   UNL A   1      36.443  33.095  37.681  1.00  0.00    -0.237 OA
ATOM     71  O   UNL A   1      37.193  30.886  38.449  1.00  0.00    -0.744 OA
ENDBRANCH  65  68
ENDBRANCH  47  61
BRANCH  48  72
ATOM     72  C   UNL A   1      42.522  26.599  27.441  1.00  0.00     0.023 A 
ATOM     73  C   UNL A   1      43.175  27.243  26.372  1.00  0.00     0.012 A 
ATOM     74  C   UNL A   1      42.223  25.227  27.336  1.00  0.00     0.148 A 
ATOM     75  C   UNL A   1      43.495  26.545  25.208  1.00  0.00     0.002 A 
ATOM     76  C   UNL A   1      42.591  24.525  26.194  1.00  0.00     0.091 A 
ATOM     77  F   UNL A   1      41.582  24.636  28.355  1.00  0.00    -0.205 F 
ATOM     78  C   UNL A   1      43.212  25.185  25.122  1.00  0.00     0.022 A 
BRANCH  76  79
ATOM     79  S   UNL A   1      42.372  22.748  26.044  1.00  0.00     0.127 S 
ATOM     80  O   UNL A   1      43.140  22.254  27.184  1.00  0.00    -0.237 OA
ATOM     81  O   UNL A   1      40.920  22.610  26.173  1.00  0.00    -0.237 OA
ATOM     82  O   UNL A   1      42.892  22.399  24.729  1.00  0.00    -0.744 OA
ENDBRANCH  76  79
ENDBRANCH  48  72
BRANCH  60  83
ATOM     83  C   UNL A   1      44.969  26.621  33.986  1.00  0.00     0.023 A 
ATOM     84  C   UNL A   1      46.263  27.172  34.076  1.00  0.00     0.012 A 
ATOM     85  C   UNL A   1      44.693  25.402  34.638  1.00  0.00     0.148 A 
ATOM     86  C   UNL A   1      47.269  26.512  34.782  1.00  0.00     0.002 A 
ATOM     87  C   UNL A   1      45.688  24.771  35.377  1.00  0.00     0.091 A 
ATOM     88  F   UNL A   1      43.460  24.883  34.529  1.00  0.00    -0.205 F 
ATOM     89  C   UNL A   1      46.979  25.320  35.442  1.00  0.00     0.022 A 
BRANCH  87  90
ATOM     90  S   UNL A   1      45.383  23.283  36.337  1.00  0.00     0.127 S 
ATOM     91  O   UNL A   1      46.717  22.688  36.399  1.00  0.00    -0.237 OA
ATOM     92  O   UNL A   1      44.897  23.824  37.607  1.00  0.00    -0.237 OA
ATOM     93  O   UNL A   1      44.393  22.519  35.588  1.00  0.00    -0.744 OA
ENDBRANCH  87  90
ENDBRANCH  60  83
ENDBRANCH  34  35
ENDBRANCH  27  29
ENDBRANCH  26  27
ENDBRANCH  25  26
ENDBRANCH   1  25
TORSDOF 19
ENDMDL
MODEL 2
REMARK VINA RESULT:     -11.7      4.973     10.614
REMARK SMILES O=C(CCCN1C(=O)/C(=C/c2cc(Br)ccc2O)SC1=S)OCCOC(=O)c1ccc(-c2c3nc(c(-c4cccc(S(=O)(=O)[O-])c4F)c4ccc([nH]4)c(-c4cccc(S(=O)(=O)[O-])c4F)c4nc(c(-c5cccc(S(=O)(=O)[O-])c5F)c5ccc2[nH]5)C=C4)C=C3)cc1
REMARK SMILES IDX 23 1 22 2 2 3 1 4 3 5 4 6 5 7 6 8 7 9 20 10 8 11 9 12 19 13
REMARK SMILES IDX 21 14 10 15 11 16 12 17 17 18 13 19 16 20 14 21 15 22 18 23
REMARK SMILES IDX 24 25 25 26 26 27 27 28 28 29 29 30 90 31 30 32 89 33 31 34
REMARK SMILES IDX 32 35 33 36 83 37 34 38 88 39 82 40 84 41 35 42 87 43 81 44
REMARK SMILES IDX 80 45 36 47 68 48 48 49 67 50 49 51 52 52 66 53 85 54 50 55
REMARK SMILES IDX 51 56 65 58 86 59 53 60 37 61 38 62 46 63 39 64 41 65 47 66
REMARK SMILES IDX 40 67 42 68 43 69 44 70 45 71 69 72 70 73 78 74 71 75 73 76
REMARK SMILES IDX 79 77 72 78 74 79 75 80 76 81 77 82 54 83 55 84 63 85 56 86
REMARK SMILES IDX 58 87 64 88 57 89 59 90 60 91 61 92 62 93
REMARK H PARENT 18 24 84 46 52 57
REMARK Flexibility Score: inf
ROOT
ATOM      1  C   UNL A   1      36.894  20.972  24.437  1.00  0.00     0.274 C 
ENDROOT
BRANCH   1   2
ATOM      2  O   UNL A   1      35.760  20.260  24.972  1.00  0.00    -0.462 OA
BRANCH   2   3
ATOM      3  C   UNL A   1      34.864  21.031  25.646  1.00  0.00     0.305 C 
ATOM      4  O   UNL A   1      35.188  21.901  26.447  1.00  0.00    -0.252 OA
BRANCH   3   5
ATOM      5  C   UNL A   1      33.435  20.524  25.499  1.00  0.00     0.124 C 
BRANCH   5   6
ATOM      6  C   UNL A   1      32.899  20.094  24.129  1.00  0.00     0.034 C 
BRANCH   6   7
ATOM      7  C   UNL A   1      32.262  21.145  23.211  1.00  0.00     0.128 C 
BRANCH   7   8
ATOM      8  N   UNL A   1      32.258  22.549  23.614  1.00  0.00    -0.293 N 
ATOM      9  C   UNL A   1      32.931  23.490  22.840  1.00  0.00     0.266 C 
ATOM     10  C   UNL A   1      31.218  23.099  24.323  1.00  0.00     0.148 C 
ATOM     11  O   UNL A   1      33.878  23.299  22.096  1.00  0.00    -0.268 OA
ATOM     12  C   UNL A   1      32.216  24.796  22.979  1.00  0.00     0.081 C 
ATOM     13  S   UNL A   1      30.583  24.448  23.423  1.00  0.00    -0.054 SA
ATOM     14  S   UNL A   1      30.777  22.826  25.888  1.00  0.00    -0.052 S 
ATOM     15  C   UNL A   1      32.793  26.002  23.053  1.00  0.00     0.033 C 
BRANCH  15  16
ATOM     16  C   UNL A   1      32.030  27.137  23.605  1.00  0.00     0.019 A 
ATOM     17  C   UNL A   1      32.279  27.580  24.907  1.00  0.00     0.027 A 
ATOM     18  C   UNL A   1      31.204  27.910  22.764  1.00  0.00     0.122 A 
ATOM     19  C   UNL A   1      31.699  28.769  25.354  1.00  0.00     0.018 A 
ATOM     20  C   UNL A   1      30.622  29.093  23.215  1.00  0.00     0.048 A 
ATOM     21  Br  UNL A   1      32.072  29.389  27.101  1.00  0.00    -0.051 Br
ATOM     22  C   UNL A   1      30.873  29.523  24.518  1.00  0.00     0.019 A 
BRANCH  18  23
ATOM     23  O   UNL A   1      31.029  27.515  21.464  1.00  0.00    -0.507 OA
ATOM     24  H   UNL A   1      31.773  27.317  20.931  1.00  0.00     0.293 HD
ENDBRANCH  18  23
ENDBRANCH  15  16
ENDBRANCH   7   8
ENDBRANCH   6   7
ENDBRANCH   5   6
ENDBRANCH   3   5
ENDBRANCH   2   3
ENDBRANCH   1   2
BRANCH   1  25
ATOM     25  C   UNL A   1      38.181  20.433  25.072  1.00  0.00     0.275 C 
BRANCH  25  26
ATOM     26  O   UNL A   1      38.663  21.387  26.040  1.00  0.00    -0.458 OA
BRANCH  26  27
ATOM     27  C   UNL A   1      39.941  21.344  26.457  1.00  0.00     0.338 C 
ATOM     28  O   UNL A   1      40.707  20.400  26.388  1.00  0.00    -0.246 OA
BRANCH  27  29
ATOM     29  C   UNL A   1      40.273  22.687  26.992  1.00  0.00     0.060 A 
ATOM     30  C   UNL A   1      39.569  23.804  26.539  1.00  0.00     0.016 A 
ATOM     31  C   UNL A   1      41.278  22.846  27.949  1.00  0.00     0.016 A 
ATOM     32  C   UNL A   1      39.912  25.082  27.006  1.00  0.00     0.010 A 
ATOM     33  C   UNL A   1      41.569  24.113  28.469  1.00  0.00     0.010 A 
ATOM     34  C   UNL A   1      40.932  25.255  27.958  1.00  0.00    -0.014 A 
BRANCH  34  35
ATOM     35  C   UNL A   1      41.426  26.617  28.318  1.00  0.00     0.031 A 
ATOM     36  C   UNL A   1      42.857  26.997  28.013  1.00  0.00     0.074 A 
ATOM     37  C   UNL A   1      40.630  27.519  28.927  1.00  0.00     0.049 A 
ATOM     38  N   UNL A   1      43.459  28.150  28.169  1.00  0.00    -0.248 NA
ATOM     39  C   UNL A   1      43.730  25.940  27.476  1.00  0.00     0.031 C 
ATOM     40  C   UNL A   1      39.253  27.284  29.357  1.00  0.00     0.029 A 
ATOM     41  N   UNL A   1      40.883  28.817  29.310  1.00  0.00    -0.354 N 
ATOM     42  C   UNL A   1      44.774  27.954  27.762  1.00  0.00     0.074 A 
ATOM     43  C   UNL A   1      44.898  26.560  27.399  1.00  0.00     0.031 C 
ATOM     44  C   UNL A   1      38.784  28.398  29.949  1.00  0.00     0.029 A 
ATOM     45  C   UNL A   1      39.824  29.427  29.943  1.00  0.00     0.049 A 
ATOM     46  H   UNL A   1      41.742  29.269  29.146  1.00  0.00     0.167 HD
ATOM     47  C   UNL A   1      45.783  28.852  27.656  1.00  0.00     0.034 A 
ATOM     48  C   UNL A   1      39.700  30.671  30.452  1.00  0.00     0.034 A 
ATOM     49  C   UNL A   1      45.669  30.248  27.977  1.00  0.00     0.049 A 
ATOM     50  C   UNL A   1      40.833  31.658  30.312  1.00  0.00     0.074 A 
ATOM     51  C   UNL A   1      46.611  31.248  27.803  1.00  0.00     0.029 A 
ATOM     52  N   UNL A   1      44.558  30.841  28.553  1.00  0.00    -0.354 N 
ATOM     53  N   UNL A   1      41.995  31.508  29.726  1.00  0.00    -0.248 NA
ATOM     54  C   UNL A   1      40.616  33.007  30.865  1.00  0.00     0.031 C 
ATOM     55  C   UNL A   1      46.076  32.442  28.297  1.00  0.00     0.029 A 
ATOM     56  C   UNL A   1      44.796  32.188  28.760  1.00  0.00     0.049 A 
ATOM     57  H   UNL A   1      43.723  30.372  28.780  1.00  0.00     0.167 HD
ATOM     58  C   UNL A   1      42.629  32.745  29.806  1.00  0.00     0.074 A 
ATOM     59  C   UNL A   1      41.716  33.642  30.480  1.00  0.00     0.031 C 
ATOM     60  C   UNL A   1      43.864  33.099  29.373  1.00  0.00     0.034 A 
BRANCH  47  61
ATOM     61  C   UNL A   1      47.092  28.364  27.097  1.00  0.00     0.023 A 
ATOM     62  C   UNL A   1      48.160  28.098  27.980  1.00  0.00     0.012 A 
ATOM     63  C   UNL A   1      47.248  28.104  25.723  1.00  0.00     0.148 A 
ATOM     64  C   UNL A   1      49.374  27.610  27.499  1.00  0.00     0.002 A 
ATOM     65  C   UNL A   1      48.448  27.579  25.256  1.00  0.00     0.091 A 
ATOM     66  F   UNL A   1      46.229  28.384  24.898  1.00  0.00    -0.205 F 
ATOM     67  C   UNL A   1      49.514  27.341  26.141  1.00  0.00     0.022 A 
BRANCH  65  68
ATOM     68  S   UNL A   1      48.702  27.130  23.535  1.00  0.00     0.127 S 
ATOM     69  O   UNL A   1      50.154  26.957  23.487  1.00  0.00    -0.237 OA
ATOM     70  O   UNL A   1      47.936  25.888  23.422  1.00  0.00    -0.237 OA
ATOM     71  O   UNL A   1      48.177  28.239  22.751  1.00  0.00    -0.744 OA
ENDBRANCH  65  68
ENDBRANCH  47  61
BRANCH  48  72
ATOM     72  C   UNL A   1      38.417  31.093  31.086  1.00  0.00     0.023 A 
ATOM     73  C   UNL A   1      38.221  30.872  32.464  1.00  0.00     0.012 A 
ATOM     74  C   UNL A   1      37.394  31.702  30.336  1.00  0.00     0.148 A 
ATOM     75  C   UNL A   1      37.017  31.221  33.077  1.00  0.00     0.002 A 
ATOM     76  C   UNL A   1      36.216  32.095  30.964  1.00  0.00     0.091 A 
ATOM     77  F   UNL A   1      37.590  31.885  29.023  1.00  0.00    -0.205 F 
ATOM     78  C   UNL A   1      36.019  31.840  32.330  1.00  0.00     0.022 A 
BRANCH  76  79
ATOM     79  S   UNL A   1      34.925  33.003  30.107  1.00  0.00     0.127 S 
ATOM     80  O   UNL A   1      34.040  33.377  31.208  1.00  0.00    -0.237 OA
ATOM     81  O   UNL A   1      35.676  34.112  29.517  1.00  0.00    -0.237 OA
ATOM     82  O   UNL A   1      34.369  32.072  29.135  1.00  0.00    -0.744 OA
ENDBRANCH  76  79
ENDBRANCH  48  72
BRANCH  60  83
ATOM     83  C   UNL A   1      44.313  34.525  29.576  1.00  0.00     0.023 A 
ATOM     84  C   UNL A   1      45.017  34.873  30.746  1.00  0.00     0.012 A 
ATOM     85  C   UNL A   1      44.128  35.493  28.569  1.00  0.00     0.148 A 
ATOM     86  C   UNL A   1      45.507  36.168  30.922  1.00  0.00     0.002 A 
ATOM     87  C   UNL A   1      44.657  36.769  28.731  1.00  0.00     0.091 A 
ATOM     88  F   UNL A   1      43.442  35.149  27.468  1.00  0.00    -0.205 F 
ATOM     89  C   UNL A   1      45.338  37.111  29.910  1.00  0.00     0.022 A 
BRANCH  87  90
ATOM     90  S   UNL A   1      44.572  38.022  27.444  1.00  0.00     0.127 S 
ATOM     91  O   UNL A   1      44.828  39.246  28.201  1.00  0.00    -0.237 OA
ATOM     92  O   UNL A   1      45.655  37.622  26.546  1.00  0.00    -0.237 OA
ATOM     93  O   UNL A   1      43.238  37.912  26.867  1.00  0.00    -0.744 OA
ENDBRANCH  87  90
ENDBRANCH  60  83
ENDBRANCH  34  35
ENDBRANCH  27  29
ENDBRANCH  26  27
ENDBRANCH  25  26
ENDBRANCH   1  25
TORSDOF 19
ENDMDL
MODEL 3
REMARK VINA RESULT:     -11.6      1.308      1.752
REMARK SMILES O=C(CCCN1C(=O)/C(=C/c2cc(Br)ccc2O)SC1=S)OCCOC(=O)c1ccc(-c2c3nc(c(-c4cccc(S(=O)(=O)[O-])c4F)c4ccc([nH]4)c(-c4cccc(S(=O)(=O)[O-])c4F)c4nc(c(-c5cccc(S(=O)(=O)[O-])c5F)c5ccc2[nH]5)C=C4)C=C3)cc1
REMARK SMILES IDX 23 1 22 2 2 3 1 4 3 5 4 6 5 7 6 8 7 9 20 10 8 11 9 12 19 13
REMARK SMILES IDX 21 14 10 15 11 16 12 17 17 18 13 19 16 20 14 21 15 22 18 23
REMARK SMILES IDX 24 25 25 26 26 27 27 28 28 29 29 30 90 31 30 32 89 33 31 34
REMARK SMILES IDX 32 35 33 36 83 37 34 38 88 39 82 40 84 41 35 42 87 43 81 44
REMARK SMILES IDX 80 45 36 47 68 48 48 49 67 50 49 51 52 52 66 53 85 54 50 55
REMARK SMILES IDX 51 56 65 58 86 59 53 60 37 61 38 62 46 63 39 64 41 65 47 66
REMARK SMILES IDX 40 67 42 68 43 69 44 70 45 71 69 72 70 73 78 74 71 75 73 76
REMARK SMILES IDX 79 77 72 78 74 79 75 80 76 81 77 82 54 83 55 84 63 85 56 86
REMARK SMILES IDX 58 87 64 88 57 89 59 90 60 91 61 92 62 93
REMARK H PARENT 18 24 84 46 52 57
REMARK Flexibility Score: inf
ROOT
ATOM      1  C   UNL A   1      31.799  31.164  26.713  1.00  0.00     0.274 C 
ENDROOT
BRANCH   1   2
ATOM      2  O   UNL A   1      32.890  30.410  26.148  1.00  0.00    -0.462 OA
BRANCH   2   3
ATOM      3  C   UNL A   1      32.555  29.177  25.681  1.00  0.00     0.305 C 
ATOM      4  O   UNL A   1      31.932  28.351  26.339  1.00  0.00    -0.252 OA
BRANCH   3   5
ATOM      5  C   UNL A   1      33.256  28.842  24.371  1.00  0.00     0.124 C 
BRANCH   5   6
ATOM      6  C   UNL A   1      32.467  28.789  23.058  1.00  0.00     0.034 C 
BRANCH   6   7
ATOM      7  C   UNL A   1      31.560  27.585  22.777  1.00  0.00     0.128 C 
BRANCH   7   8
ATOM      8  N   UNL A   1      32.060  26.234  23.012  1.00  0.00    -0.293 N 
ATOM      9  C   UNL A   1      33.109  25.743  22.239  1.00  0.00     0.266 C 
ATOM     10  C   UNL A   1      31.997  25.640  24.249  1.00  0.00     0.148 C 
ATOM     11  O   UNL A   1      33.426  26.087  21.113  1.00  0.00    -0.268 OA
ATOM     12  C   UNL A   1      33.884  24.775  23.076  1.00  0.00     0.081 C 
ATOM     13  S   UNL A   1      33.608  25.185  24.732  1.00  0.00    -0.054 SA
ATOM     14  S   UNL A   1      30.672  25.107  25.072  1.00  0.00    -0.052 S 
ATOM     15  C   UNL A   1      34.431  23.631  22.648  1.00  0.00     0.033 C 
BRANCH  15  16
ATOM     16  C   UNL A   1      34.786  22.587  23.628  1.00  0.00     0.019 A 
ATOM     17  C   UNL A   1      33.838  21.635  24.010  1.00  0.00     0.027 A 
ATOM     18  C   UNL A   1      36.128  22.415  24.023  1.00  0.00     0.122 A 
ATOM     19  C   UNL A   1      34.232  20.540  24.782  1.00  0.00     0.018 A 
ATOM     20  C   UNL A   1      36.517  21.324  24.797  1.00  0.00     0.048 A 
ATOM     21  Br  UNL A   1      32.956  19.228  25.261  1.00  0.00    -0.051 Br
ATOM     22  C   UNL A   1      35.561  20.382  25.177  1.00  0.00     0.019 A 
BRANCH  18  23
ATOM     23  O   UNL A   1      37.068  23.307  23.578  1.00  0.00    -0.507 OA
ATOM     24  H   UNL A   1      37.371  23.990  24.144  1.00  0.00     0.293 HD
ENDBRANCH  18  23
ENDBRANCH  15  16
ENDBRANCH   7   8
ENDBRANCH   6   7
ENDBRANCH   5   6
ENDBRANCH   3   5
ENDBRANCH   2   3
ENDBRANCH   1   2
BRANCH   1  25
ATOM     25  C   UNL A   1      32.188  32.645  26.793  1.00  0.00     0.275 C 
BRANCH  25  26
ATOM     26  O   UNL A   1      32.800  32.901  28.074  1.00  0.00    -0.458 OA
BRANCH  26  27
ATOM     27  C   UNL A   1      33.820  33.772  28.176  1.00  0.00     0.338 C 
ATOM     28  O   UNL A   1      33.779  34.977  28.006  1.00  0.00    -0.246 OA
BRANCH  27  29
ATOM     29  C   UNL A   1      35.019  32.997  28.578  1.00  0.00     0.060 A 
ATOM     30  C   UNL A   1      34.864  31.761  29.206  1.00  0.00     0.016 A 
ATOM     31  C   UNL A   1      36.303  33.490  28.330  1.00  0.00     0.016 A 
ATOM     32  C   UNL A   1      35.995  31.048  29.633  1.00  0.00     0.010 A 
ATOM     33  C   UNL A   1      37.431  32.742  28.689  1.00  0.00     0.010 A 
ATOM     34  C   UNL A   1      37.291  31.540  29.401  1.00  0.00    -0.014 A 
BRANCH  34  35
ATOM     35  C   UNL A   1      38.484  30.883  30.012  1.00  0.00     0.031 A 
ATOM     36  C   UNL A   1      38.922  31.277  31.405  1.00  0.00     0.074 A 
ATOM     37  C   UNL A   1      39.199  29.955  29.345  1.00  0.00     0.049 A 
ATOM     38  N   UNL A   1      39.877  30.773  32.146  1.00  0.00    -0.248 NA
ATOM     39  C   UNL A   1      38.202  32.391  32.043  1.00  0.00     0.031 C 
ATOM     40  C   UNL A   1      38.955  29.521  27.971  1.00  0.00     0.029 A 
ATOM     41  N   UNL A   1      40.296  29.223  29.737  1.00  0.00    -0.354 N 
ATOM     42  C   UNL A   1      39.878  31.511  33.324  1.00  0.00     0.074 A 
ATOM     43  C   UNL A   1      38.862  32.530  33.182  1.00  0.00     0.031 C 
ATOM     44  C   UNL A   1      39.879  28.603  27.632  1.00  0.00     0.029 A 
ATOM     45  C   UNL A   1      40.781  28.381  28.762  1.00  0.00     0.049 A 
ATOM     46  H   UNL A   1      40.698  29.293  30.633  1.00  0.00     0.167 HD
ATOM     47  C   UNL A   1      40.621  31.340  34.444  1.00  0.00     0.034 A 
ATOM     48  C   UNL A   1      41.825  27.525  28.776  1.00  0.00     0.034 A 
ATOM     49  C   UNL A   1      41.609  30.311  34.618  1.00  0.00     0.049 A 
ATOM     50  C   UNL A   1      42.632  27.342  30.039  1.00  0.00     0.074 A 
ATOM     51  C   UNL A   1      42.335  30.002  35.756  1.00  0.00     0.029 A 
ATOM     52  N   UNL A   1      42.024  29.435  33.629  1.00  0.00    -0.354 N 
ATOM     53  N   UNL A   1      42.472  27.903  31.212  1.00  0.00    -0.248 NA
ATOM     54  C   UNL A   1      43.738  26.370  29.990  1.00  0.00     0.031 C 
ATOM     55  C   UNL A   1      43.208  28.954  35.446  1.00  0.00     0.029 A 
ATOM     56  C   UNL A   1      43.010  28.599  34.123  1.00  0.00     0.049 A 
ATOM     57  H   UNL A   1      41.669  29.412  32.711  1.00  0.00     0.167 HD
ATOM     58  C   UNL A   1      43.427  27.327  32.047  1.00  0.00     0.074 A 
ATOM     59  C   UNL A   1      44.150  26.358  31.252  1.00  0.00     0.031 C 
ATOM     60  C   UNL A   1      43.688  27.589  33.351  1.00  0.00     0.034 A 
BRANCH  47  61
ATOM     61  C   UNL A   1      40.341  32.249  35.610  1.00  0.00     0.023 A 
ATOM     62  C   UNL A   1      41.109  33.422  35.767  1.00  0.00     0.012 A 
ATOM     63  C   UNL A   1      39.286  31.987  36.505  1.00  0.00     0.148 A 
ATOM     64  C   UNL A   1      40.850  34.305  36.814  1.00  0.00     0.002 A 
ATOM     65  C   UNL A   1      39.010  32.892  37.523  1.00  0.00     0.091 A 
ATOM     66  F   UNL A   1      38.583  30.855  36.352  1.00  0.00    -0.205 F 
ATOM     67  C   UNL A   1      39.796  34.046  37.685  1.00  0.00     0.022 A 
BRANCH  65  68
ATOM     68  S   UNL A   1      37.627  32.684  38.651  1.00  0.00     0.127 S 
ATOM     69  O   UNL A   1      37.948  33.659  39.693  1.00  0.00    -0.237 OA
ATOM     70  O   UNL A   1      36.484  33.045  37.811  1.00  0.00    -0.237 OA
ATOM     71  O   UNL A   1      37.656  31.289  39.066  1.00  0.00    -0.744 OA
ENDBRANCH  65  68
ENDBRANCH  47  61
BRANCH  48  72
ATOM     72  C   UNL A   1      42.134  26.706  27.568  1.00  0.00     0.023 A 
ATOM     73  C   UNL A   1      42.743  27.318  26.455  1.00  0.00     0.012 A 
ATOM     74  C   UNL A   1      41.826  25.333  27.514  1.00  0.00     0.148 A 
ATOM     75  C   UNL A   1      43.009  26.587  25.297  1.00  0.00     0.002 A 
ATOM     76  C   UNL A   1      42.141  24.598  26.376  1.00  0.00     0.091 A 
ATOM     77  F   UNL A   1      41.229  24.774  28.575  1.00  0.00    -0.205 F 
ATOM     78  C   UNL A   1      42.718  25.226  25.260  1.00  0.00     0.022 A 
BRANCH  76  79
ATOM     79  S   UNL A   1      41.909  22.819  26.284  1.00  0.00     0.127 S 
ATOM     80  O   UNL A   1      42.513  22.505  24.991  1.00  0.00    -0.237 OA
ATOM     81  O   UNL A   1      42.668  22.355  27.447  1.00  0.00    -0.237 OA
ATOM     82  O   UNL A   1      40.472  22.606  26.382  1.00  0.00    -0.744 OA
ENDBRANCH  76  79
ENDBRANCH  48  72
BRANCH  60  83
ATOM     83  C   UNL A   1      44.783  26.808  34.034  1.00  0.00     0.023 A 
ATOM     84  C   UNL A   1      46.116  27.253  33.943  1.00  0.00     0.012 A 
ATOM     85  C   UNL A   1      44.480  25.695  34.844  1.00  0.00     0.148 A 
ATOM     86  C   UNL A   1      47.135  26.588  34.628  1.00  0.00     0.002 A 
ATOM     87  C   UNL A   1      45.493  25.065  35.559  1.00  0.00     0.091 A 
ATOM     88  F   UNL A   1      43.208  25.276  34.907  1.00  0.00    -0.205 F 
ATOM     89  C   UNL A   1      46.822  25.504  35.444  1.00  0.00     0.022 A 
BRANCH  87  90
ATOM     90  S   UNL A   1      45.174  23.720  36.708  1.00  0.00     0.127 S 
ATOM     91  O   UNL A   1      44.303  24.365  37.689  1.00  0.00    -0.237 OA
ATOM     92  O   UNL A   1      44.508  22.734  35.856  1.00  0.00    -0.237 OA
ATOM     93  O   UNL A   1      46.477  23.302  37.208  1.00  0.00    -0.744 OA
ENDBRANCH  87  90
ENDBRANCH  60  83
ENDBRANCH  34  35
ENDBRANCH  27  29
ENDBRANCH  26  27
ENDBRANCH  25  26
ENDBRANCH   1  25
TORSDOF 19
ENDMDL
