MODEL 1
REMARK VINA RESULT:     -12.4      0.000      0.000
REMARK SMILES Cc1cc(/C=C2\C(=O)N(Cc3ccco3)C(=O)N=C2OCCOC(=O)c2ccc(-c3c4nc(c(-c5cccc(S(=O)(=O)[O-])c5F)c5ccc([nH]5)c(-c5cccc(S(=O)(=O)[O-])c5F)c5nc(c(-c6cccc(S(=O)(=O)[O-])c6F)c6ccc3[nH]6)C=C5)C=C4)cc2)c(C)n1-c1ccc(Cl)c(C(=O)[O-])c1
REMARK SMILES IDX 22 1 21 2 20 3 19 4 5 5 6 6 7 7 8 8 9 9 18 10 16 11 17 12
REMARK SMILES IDX 4 13 1 14 2 15 3 16 91 17 89 18 90 19 92 20 93 21 101 22
REMARK SMILES IDX 94 23 97 24 95 25 96 26 98 27 99 28 100 29 10 30 11 31 12 32
REMARK SMILES IDX 15 33 13 34 14 35 23 36 24 37 25 38 26 39 27 40 88 41 28 42
REMARK SMILES IDX 87 43 29 44 30 45 31 46 81 47 32 48 86 49 80 50 82 51 33 52
REMARK SMILES IDX 85 53 79 54 78 55 34 57 66 58 46 59 65 60 47 61 50 62 64 63
REMARK SMILES IDX 83 64 48 65 49 66 63 68 84 69 51 70 35 71 36 72 44 73 37 74
REMARK SMILES IDX 39 75 45 76 38 77 40 78 41 79 42 80 43 81 67 82 68 83 76 84
REMARK SMILES IDX 69 85 71 86 77 87 70 88 72 89 73 90 74 91 75 92 52 93 53 94
REMARK SMILES IDX 61 95 54 96 56 97 62 98 55 99 57 100 58 101 59 102 60 103
REMARK H PARENT 82 56 50 67
REMARK Flexibility Score: inf
ROOT
ATOM      1  C   UNL A   1      39.859  21.847  26.674  1.00  0.00     0.274 C 
ENDROOT
BRANCH   1   2
ATOM      2  C   UNL A   1      38.685  22.902  26.530  1.00  0.00     0.273 C 
BRANCH   2   3
ATOM      3  O   UNL A   1      38.195  23.118  25.128  1.00  0.00    -0.473 OA
BRANCH   3   4
ATOM      4  C   UNL A   1      37.105  22.379  24.817  1.00  0.00     0.231 C 
ATOM      5  C   UNL A   1      35.367  24.265  25.106  1.00  0.00     0.029 C 
ATOM      6  C   UNL A   1      35.741  23.000  24.776  1.00  0.00     0.103 C 
ATOM      7  C   UNL A   1      34.730  21.983  24.340  1.00  0.00     0.267 C 
ATOM      8  O   UNL A   1      33.753  22.261  23.649  1.00  0.00    -0.268 OA
ATOM      9  N   UNL A   1      35.034  20.717  24.785  1.00  0.00    -0.250 N 
ATOM     10  N   UNL A   1      37.326  21.137  24.631  1.00  0.00    -0.156 NA
ATOM     11  C   UNL A   1      36.330  20.234  24.805  1.00  0.00     0.354 C 
ATOM     12  O   UNL A   1      36.612  19.085  25.020  1.00  0.00    -0.245 OA
BRANCH   5  13
ATOM     13  C   UNL A   1      34.029  24.855  25.282  1.00  0.00    -0.003 A 
ATOM     14  C   UNL A   1      30.484  24.971  26.557  1.00  0.00     0.065 C 
ATOM     15  C   UNL A   1      31.851  25.154  25.973  1.00  0.00     0.020 A 
ATOM     16  C   UNL A   1      32.985  24.358  26.124  1.00  0.00     0.031 A 
ATOM     17  N   UNL A   1      32.166  26.155  25.070  1.00  0.00    -0.318 N 
ATOM     18  C   UNL A   1      33.459  25.922  24.586  1.00  0.00     0.027 A 
ATOM     19  C   UNL A   1      34.066  26.828  23.574  1.00  0.00     0.065 C 
BRANCH  17  20
ATOM     20  C   UNL A   1      31.338  27.267  24.707  1.00  0.00     0.046 A 
ATOM     21  C   UNL A   1      30.482  27.161  23.608  1.00  0.00     0.028 A 
ATOM     22  C   UNL A   1      31.489  28.503  25.352  1.00  0.00     0.038 A 
ATOM     23  C   UNL A   1      29.881  28.300  23.076  1.00  0.00     0.023 A 
ATOM     24  C   UNL A   1      30.866  29.663  24.828  1.00  0.00     0.018 A 
ATOM     25  C   UNL A   1      30.088  29.554  23.662  1.00  0.00     0.050 A 
ATOM     26  Cl  UNL A   1      29.352  30.892  22.848  1.00  0.00    -0.084 Cl
BRANCH  24  27
ATOM     27  C   UNL A   1      31.080  30.984  25.490  1.00  0.00     0.073 C 
ATOM     28  O   UNL A   1      30.419  32.000  25.392  1.00  0.00    -0.545 OA
ATOM     29  O   UNL A   1      32.154  30.982  26.304  1.00  0.00    -0.545 OA
ENDBRANCH  24  27
ENDBRANCH  17  20
ENDBRANCH   5  13
BRANCH   9  30
ATOM     30  C   UNL A   1      34.001  19.825  25.258  1.00  0.00     0.206 C 
BRANCH  30  31
ATOM     31  C   UNL A   1      33.439  18.990  24.178  1.00  0.00     0.123 A 
ATOM     32  C   UNL A   1      32.441  19.192  23.247  1.00  0.00     0.047 A 
ATOM     33  O   UNL A   1      34.028  17.779  23.977  1.00  0.00    -0.467 OA
ATOM     34  C   UNL A   1      32.397  18.028  22.454  1.00  0.00     0.042 A 
ATOM     35  C   UNL A   1      33.391  17.206  22.927  1.00  0.00     0.195 A 
ENDBRANCH  30  31
ENDBRANCH   9  30
ENDBRANCH   3   4
ENDBRANCH   2   3
ENDBRANCH   1   2
BRANCH   1  36
ATOM     36  O   UNL A   1      41.041  21.868  25.752  1.00  0.00    -0.458 OA
BRANCH  36  37
ATOM     37  C   UNL A   1      42.266  22.243  26.306  1.00  0.00     0.338 C 
ATOM     38  O   UNL A   1      43.210  21.455  26.337  1.00  0.00    -0.246 OA
BRANCH  37  39
ATOM     39  C   UNL A   1      42.459  23.697  26.852  1.00  0.00     0.060 A 
ATOM     40  C   UNL A   1      41.971  24.024  28.119  1.00  0.00     0.016 A 
ATOM     41  C   UNL A   1      42.754  24.836  26.063  1.00  0.00     0.016 A 
ATOM     42  C   UNL A   1      41.836  25.399  28.573  1.00  0.00     0.010 A 
ATOM     43  C   UNL A   1      42.567  26.242  26.515  1.00  0.00     0.010 A 
ATOM     44  C   UNL A   1      42.087  26.589  27.793  1.00  0.00    -0.014 A 
BRANCH  44  45
ATOM     45  C   UNL A   1      41.346  27.976  28.278  1.00  0.00     0.031 A 
ATOM     46  C   UNL A   1      42.443  28.985  28.187  1.00  0.00     0.074 A 
ATOM     47  C   UNL A   1      40.162  28.535  28.803  1.00  0.00     0.049 A 
ATOM     48  N   UNL A   1      43.621  28.773  28.712  1.00  0.00    -0.248 NA
ATOM     49  C   UNL A   1      42.407  30.115  27.253  1.00  0.00     0.031 C 
ATOM     50  C   UNL A   1      38.925  27.847  29.215  1.00  0.00     0.029 A 
ATOM     51  N   UNL A   1      39.760  29.901  29.101  1.00  0.00    -0.354 N 
ATOM     52  C   UNL A   1      44.269  29.965  28.584  1.00  0.00     0.074 A 
ATOM     53  C   UNL A   1      43.645  30.586  27.431  1.00  0.00     0.031 C 
ATOM     54  C   UNL A   1      37.928  28.722  29.555  1.00  0.00     0.029 A 
ATOM     55  C   UNL A   1      38.375  30.114  29.476  1.00  0.00     0.049 A 
ATOM     56  H   UNL A   1      40.400  30.648  29.050  1.00  0.00     0.167 HD
ATOM     57  C   UNL A   1      44.714  30.547  29.735  1.00  0.00     0.034 A 
ATOM     58  C   UNL A   1      37.646  31.271  29.788  1.00  0.00     0.034 A 
ATOM     59  C   UNL A   1      44.177  31.855  29.978  1.00  0.00     0.049 A 
ATOM     60  C   UNL A   1      38.613  32.299  30.214  1.00  0.00     0.074 A 
ATOM     61  C   UNL A   1      43.863  32.938  29.180  1.00  0.00     0.029 A 
ATOM     62  N   UNL A   1      43.492  32.028  31.159  1.00  0.00    -0.354 N 
ATOM     63  N   UNL A   1      39.078  32.299  31.428  1.00  0.00    -0.248 NA
ATOM     64  C   UNL A   1      38.922  33.495  29.438  1.00  0.00     0.031 C 
ATOM     65  C   UNL A   1      42.655  33.457  29.704  1.00  0.00     0.029 A 
ATOM     66  C   UNL A   1      42.414  32.863  30.936  1.00  0.00     0.049 A 
ATOM     67  H   UNL A   1      43.731  31.622  32.024  1.00  0.00     0.167 HD
ATOM     68  C   UNL A   1      40.098  33.197  31.389  1.00  0.00     0.074 A 
ATOM     69  C   UNL A   1      39.788  34.072  30.276  1.00  0.00     0.031 C 
ATOM     70  C   UNL A   1      41.294  32.755  31.843  1.00  0.00     0.034 A 
BRANCH  57  71
ATOM     71  C   UNL A   1      45.139  29.580  30.817  1.00  0.00     0.023 A 
ATOM     72  C   UNL A   1      44.133  28.936  31.555  1.00  0.00     0.012 A 
ATOM     73  C   UNL A   1      46.489  29.440  31.232  1.00  0.00     0.148 A 
ATOM     74  C   UNL A   1      44.455  28.227  32.715  1.00  0.00     0.002 A 
ATOM     75  C   UNL A   1      46.788  28.831  32.445  1.00  0.00     0.091 A 
ATOM     76  F   UNL A   1      47.461  29.923  30.441  1.00  0.00    -0.205 F 
ATOM     77  C   UNL A   1      45.771  28.210  33.182  1.00  0.00     0.022 A 
BRANCH  75  78
ATOM     78  S   UNL A   1      48.398  29.017  33.236  1.00  0.00     0.127 S 
ATOM     79  O   UNL A   1      49.325  28.675  32.152  1.00  0.00    -0.237 OA
ATOM     80  O   UNL A   1      48.416  30.425  33.618  1.00  0.00    -0.237 OA
ATOM     81  O   UNL A   1      48.424  28.067  34.342  1.00  0.00    -0.744 OA
ENDBRANCH  75  78
ENDBRANCH  57  71
BRANCH  58  82
ATOM     82  C   UNL A   1      36.213  31.859  30.122  1.00  0.00     0.023 A 
ATOM     83  C   UNL A   1      35.827  31.930  31.512  1.00  0.00     0.012 A 
ATOM     84  C   UNL A   1      35.468  32.718  29.278  1.00  0.00     0.148 A 
ATOM     85  C   UNL A   1      34.908  32.855  32.044  1.00  0.00     0.002 A 
ATOM     86  C   UNL A   1      34.494  33.614  29.813  1.00  0.00     0.091 A 
ATOM     87  F   UNL A   1      35.772  32.747  27.975  1.00  0.00    -0.205 F 
ATOM     88  C   UNL A   1      34.246  33.709  31.192  1.00  0.00     0.022 A 
BRANCH  86  89
ATOM     89  S   UNL A   1      33.518  34.763  28.812  1.00  0.00     0.127 S 
ATOM     90  O   UNL A   1      32.761  33.867  27.934  1.00  0.00    -0.237 OA
ATOM     91  O   UNL A   1      32.707  35.438  29.824  1.00  0.00    -0.237 OA
ATOM     92  O   UNL A   1      34.496  35.592  28.121  1.00  0.00    -0.744 OA
ENDBRANCH  86  89
ENDBRANCH  58  82
BRANCH  70  93
ATOM     93  C   UNL A   1      41.298  31.866  33.080  1.00  0.00     0.023 A 
ATOM     94  C   UNL A   1      41.152  30.458  33.073  1.00  0.00     0.012 A 
ATOM     95  C   UNL A   1      41.482  32.485  34.325  1.00  0.00     0.148 A 
ATOM     96  C   UNL A   1      41.146  29.710  34.254  1.00  0.00     0.002 A 
ATOM     97  C   UNL A   1      41.544  31.734  35.496  1.00  0.00     0.091 A 
ATOM     98  F   UNL A   1      41.599  33.822  34.352  1.00  0.00    -0.205 F 
ATOM     99  C   UNL A   1      41.363  30.347  35.470  1.00  0.00     0.022 A 
BRANCH  97 100
ATOM    100  S   UNL A   1      41.923  32.536  37.053  1.00  0.00     0.127 S 
ATOM    101  O   UNL A   1      41.868  31.419  37.992  1.00  0.00    -0.237 OA
ATOM    102  O   UNL A   1      43.259  33.088  36.841  1.00  0.00    -0.237 OA
ATOM    103  O   UNL A   1      40.879  33.545  37.215  1.00  0.00    -0.744 OA
ENDBRANCH  97 100
ENDBRANCH  70  93
ENDBRANCH  44  45
ENDBRANCH  37  39
ENDBRANCH  36  37
ENDBRANCH   1  36
TORSDOF 18
ENDMDL
MODEL 2
REMARK VINA RESULT:     -11.6      2.072      2.611
REMARK SMILES Cc1cc(/C=C2\C(=O)N(Cc3ccco3)C(=O)N=C2OCCOC(=O)c2ccc(-c3c4nc(c(-c5cccc(S(=O)(=O)[O-])c5F)c5ccc([nH]5)c(-c5cccc(S(=O)(=O)[O-])c5F)c5nc(c(-c6cccc(S(=O)(=O)[O-])c6F)c6ccc3[nH]6)C=C5)C=C4)cc2)c(C)n1-c1ccc(Cl)c(C(=O)[O-])c1
REMARK SMILES IDX 22 1 21 2 20 3 19 4 5 5 6 6 7 7 8 8 9 9 18 10 16 11 17 12
REMARK SMILES IDX 4 13 1 14 2 15 3 16 91 17 89 18 90 19 92 20 93 21 101 22
REMARK SMILES IDX 94 23 97 24 95 25 96 26 98 27 99 28 100 29 10 30 11 31 12 32
REMARK SMILES IDX 15 33 13 34 14 35 23 36 24 37 25 38 26 39 27 40 88 41 28 42
REMARK SMILES IDX 87 43 29 44 30 45 31 46 81 47 32 48 86 49 80 50 82 51 33 52
REMARK SMILES IDX 85 53 79 54 78 55 34 57 66 58 46 59 65 60 47 61 50 62 64 63
REMARK SMILES IDX 83 64 48 65 49 66 63 68 84 69 51 70 35 71 36 72 44 73 37 74
REMARK SMILES IDX 39 75 45 76 38 77 40 78 41 79 42 80 43 81 67 82 68 83 76 84
REMARK SMILES IDX 69 85 71 86 77 87 70 88 72 89 73 90 74 91 75 92 52 93 53 94
REMARK SMILES IDX 61 95 54 96 56 97 62 98 55 99 57 100 58 101 59 102 60 103
REMARK H PARENT 82 56 50 67
REMARK Flexibility Score: inf
ROOT
ATOM      1  C   UNL A   1      39.231  22.687  26.988  1.00  0.00     0.274 C 
ENDROOT
BRANCH   1   2
ATOM      2  C   UNL A   1      38.056  23.563  26.384  1.00  0.00     0.273 C 
BRANCH   2   3
ATOM      3  O   UNL A   1      37.805  23.362  24.918  1.00  0.00    -0.473 OA
BRANCH   3   4
ATOM      4  C   UNL A   1      36.632  22.741  24.651  1.00  0.00     0.231 C 
ATOM      5  C   UNL A   1      35.126  24.824  24.883  1.00  0.00     0.029 C 
ATOM      6  C   UNL A   1      35.348  23.512  24.601  1.00  0.00     0.103 C 
ATOM      7  C   UNL A   1      34.220  22.602  24.220  1.00  0.00     0.267 C 
ATOM      8  O   UNL A   1      33.270  22.963  23.530  1.00  0.00    -0.268 OA
ATOM      9  N   UNL A   1      34.385  21.328  24.713  1.00  0.00    -0.250 N 
ATOM     10  N   UNL A   1      36.707  21.476  24.515  1.00  0.00    -0.156 NA
ATOM     11  C   UNL A   1      35.617  20.700  24.738  1.00  0.00     0.354 C 
ATOM     12  O   UNL A   1      35.769  19.537  24.996  1.00  0.00    -0.245 OA
BRANCH   5  13
ATOM     13  C   UNL A   1      33.868  25.571  25.050  1.00  0.00    -0.003 A 
ATOM     14  C   UNL A   1      30.382  26.144  26.363  1.00  0.00     0.065 C 
ATOM     15  C   UNL A   1      31.750  26.145  25.756  1.00  0.00     0.020 A 
ATOM     16  C   UNL A   1      32.788  25.231  25.925  1.00  0.00     0.031 A 
ATOM     17  N   UNL A   1      32.162  27.067  24.808  1.00  0.00    -0.318 N 
ATOM     18  C   UNL A   1      33.412  26.667  24.317  1.00  0.00     0.027 A 
ATOM     19  C   UNL A   1      34.101  27.457  23.261  1.00  0.00     0.065 C 
BRANCH  17  20
ATOM     20  C   UNL A   1      31.461  28.251  24.408  1.00  0.00     0.046 A 
ATOM     21  C   UNL A   1      31.762  29.471  25.018  1.00  0.00     0.028 A 
ATOM     22  C   UNL A   1      30.378  28.167  23.520  1.00  0.00     0.038 A 
ATOM     23  C   UNL A   1      30.917  30.566  24.847  1.00  0.00     0.023 A 
ATOM     24  C   UNL A   1      29.525  29.283  23.327  1.00  0.00     0.018 A 
ATOM     25  C   UNL A   1      29.787  30.473  24.027  1.00  0.00     0.050 A 
ATOM     26  Cl  UNL A   1      28.782  31.880  23.975  1.00  0.00    -0.084 Cl
BRANCH  24  27
ATOM     27  C   UNL A   1      28.343  29.165  22.424  1.00  0.00     0.073 C 
ATOM     28  O   UNL A   1      27.278  28.615  22.632  1.00  0.00    -0.545 OA
ATOM     29  O   UNL A   1      28.536  29.784  21.242  1.00  0.00    -0.545 OA
ENDBRANCH  24  27
ENDBRANCH  17  20
ENDBRANCH   5  13
BRANCH   9  30
ATOM     30  C   UNL A   1      33.265  20.580  25.236  1.00  0.00     0.206 C 
BRANCH  30  31
ATOM     31  C   UNL A   1      32.945  19.395  24.414  1.00  0.00     0.123 A 
ATOM     32  C   UNL A   1      32.936  18.040  24.670  1.00  0.00     0.047 A 
ATOM     33  O   UNL A   1      32.509  19.635  23.147  1.00  0.00    -0.467 OA
ATOM     34  C   UNL A   1      32.501  17.415  23.485  1.00  0.00     0.042 A 
ATOM     35  C   UNL A   1      32.238  18.428  22.594  1.00  0.00     0.195 A 
ENDBRANCH  30  31
ENDBRANCH   9  30
ENDBRANCH   3   4
ENDBRANCH   2   3
ENDBRANCH   1   2
BRANCH   1  36
ATOM     36  O   UNL A   1      40.451  22.359  26.182  1.00  0.00    -0.458 OA
BRANCH  36  37
ATOM     37  C   UNL A   1      41.572  23.168  26.376  1.00  0.00     0.338 C 
ATOM     38  O   UNL A   1      42.593  22.999  25.714  1.00  0.00    -0.246 OA
BRANCH  37  39
ATOM     39  C   UNL A   1      41.515  24.336  27.418  1.00  0.00     0.060 A 
ATOM     40  C   UNL A   1      40.277  24.761  27.905  1.00  0.00     0.016 A 
ATOM     41  C   UNL A   1      42.553  25.268  27.660  1.00  0.00     0.016 A 
ATOM     42  C   UNL A   1      40.109  26.013  28.625  1.00  0.00     0.010 A 
ATOM     43  C   UNL A   1      42.366  26.572  28.354  1.00  0.00     0.010 A 
ATOM     44  C   UNL A   1      41.128  27.011  28.861  1.00  0.00    -0.014 A 
BRANCH  44  45
ATOM     45  C   UNL A   1      40.620  28.546  29.166  1.00  0.00     0.031 A 
ATOM     46  C   UNL A   1      41.866  29.216  29.642  1.00  0.00     0.074 A 
ATOM     47  C   UNL A   1      39.504  29.406  29.233  1.00  0.00     0.049 A 
ATOM     48  N   UNL A   1      42.624  28.690  30.567  1.00  0.00    -0.248 NA
ATOM     49  C   UNL A   1      42.504  30.317  28.911  1.00  0.00     0.031 C 
ATOM     50  C   UNL A   1      38.080  29.080  29.031  1.00  0.00     0.029 A 
ATOM     51  N   UNL A   1      39.365  30.828  29.503  1.00  0.00    -0.354 N 
ATOM     52  C   UNL A   1      43.539  29.659  30.850  1.00  0.00     0.074 A 
ATOM     53  C   UNL A   1      43.629  30.430  29.625  1.00  0.00     0.031 C 
ATOM     54  C   UNL A   1      37.283  30.194  29.042  1.00  0.00     0.029 A 
ATOM     55  C   UNL A   1      38.050  31.411  29.312  1.00  0.00     0.049 A 
ATOM     56  H   UNL A   1      40.130  31.372  29.801  1.00  0.00     0.167 HD
ATOM     57  C   UNL A   1      43.590  30.094  32.142  1.00  0.00     0.034 A 
ATOM     58  C   UNL A   1      37.568  32.722  29.438  1.00  0.00     0.034 A 
ATOM     59  C   UNL A   1      43.343  31.499  32.300  1.00  0.00     0.049 A 
ATOM     60  C   UNL A   1      38.490  33.446  30.334  1.00  0.00     0.074 A 
ATOM     61  C   UNL A   1      43.669  32.628  31.576  1.00  0.00     0.029 A 
ATOM     62  N   UNL A   1      42.292  31.848  33.119  1.00  0.00    -0.354 N 
ATOM     63  N   UNL A   1      38.389  33.315  31.623  1.00  0.00    -0.248 NA
ATOM     64  C   UNL A   1      39.380  34.514  29.892  1.00  0.00     0.031 C 
ATOM     65  C   UNL A   1      42.522  33.456  31.628  1.00  0.00     0.029 A 
ATOM     66  C   UNL A   1      41.650  32.947  32.580  1.00  0.00     0.049 A 
ATOM     67  H   UNL A   1      42.040  31.391  33.953  1.00  0.00     0.167 HD
ATOM     68  C   UNL A   1      39.519  33.900  32.102  1.00  0.00     0.074 A 
ATOM     69  C   UNL A   1      39.930  34.829  31.068  1.00  0.00     0.031 C 
ATOM     70  C   UNL A   1      40.266  33.147  32.942  1.00  0.00     0.034 A 
BRANCH  57  71
ATOM     71  C   UNL A   1      43.270  29.044  33.183  1.00  0.00     0.023 A 
ATOM     72  C   UNL A   1      41.955  28.558  33.243  1.00  0.00     0.012 A 
ATOM     73  C   UNL A   1      44.185  28.674  34.203  1.00  0.00     0.148 A 
ATOM     74  C   UNL A   1      41.541  27.777  34.325  1.00  0.00     0.002 A 
ATOM     75  C   UNL A   1      43.738  27.996  35.331  1.00  0.00     0.091 A 
ATOM     76  F   UNL A   1      45.478  29.010  34.064  1.00  0.00    -0.205 F 
ATOM     77  C   UNL A   1      42.416  27.533  35.386  1.00  0.00     0.022 A 
BRANCH  75  78
ATOM     78  S   UNL A   1      44.721  27.895  36.839  1.00  0.00     0.127 S 
ATOM     79  O   UNL A   1      45.012  29.305  37.122  1.00  0.00    -0.237 OA
ATOM     80  O   UNL A   1      43.806  27.270  37.787  1.00  0.00    -0.237 OA
ATOM     81  O   UNL A   1      45.907  27.115  36.504  1.00  0.00    -0.744 OA
ENDBRANCH  75  78
ENDBRANCH  57  71
BRANCH  58  82
ATOM     82  C   UNL A   1      36.321  33.679  29.236  1.00  0.00     0.023 A 
ATOM     83  C   UNL A   1      35.577  33.556  28.005  1.00  0.00     0.012 A 
ATOM     84  C   UNL A   1      35.600  34.308  30.279  1.00  0.00     0.148 A 
ATOM     85  C   UNL A   1      34.215  33.880  27.855  1.00  0.00     0.002 A 
ATOM     86  C   UNL A   1      34.236  34.689  30.106  1.00  0.00     0.091 A 
ATOM     87  F   UNL A   1      36.195  34.442  31.471  1.00  0.00    -0.205 F 
ATOM     88  C   UNL A   1      33.537  34.439  28.914  1.00  0.00     0.022 A 
BRANCH  86  89
ATOM     89  S   UNL A   1      33.232  35.472  31.393  1.00  0.00     0.127 S 
ATOM     90  O   UNL A   1      34.106  36.542  31.880  1.00  0.00    -0.237 OA
ATOM     91  O   UNL A   1      32.074  35.942  30.634  1.00  0.00    -0.237 OA
ATOM     92  O   UNL A   1      32.974  34.420  32.366  1.00  0.00    -0.744 OA
ENDBRANCH  86  89
ENDBRANCH  58  82
BRANCH  70  93
ATOM     93  C   UNL A   1      39.532  32.287  33.964  1.00  0.00     0.023 A 
ATOM     94  C   UNL A   1      38.997  31.001  33.713  1.00  0.00     0.012 A 
ATOM     95  C   UNL A   1      39.393  32.797  35.263  1.00  0.00     0.148 A 
ATOM     96  C   UNL A   1      38.318  30.278  34.699  1.00  0.00     0.002 A 
ATOM     97  C   UNL A   1      38.776  32.050  36.263  1.00  0.00     0.091 A 
ATOM     98  F   UNL A   1      39.873  34.025  35.512  1.00  0.00    -0.205 F 
ATOM     99  C   UNL A   1      38.223  30.795  35.985  1.00  0.00     0.022 A 
BRANCH  97 100
ATOM    100  S   UNL A   1      38.740  32.667  37.945  1.00  0.00     0.127 S 
ATOM    101  O   UNL A   1      37.993  31.619  38.638  1.00  0.00    -0.237 OA
ATOM    102  O   UNL A   1      40.151  32.752  38.313  1.00  0.00    -0.237 OA
ATOM    103  O   UNL A   1      38.068  33.961  37.852  1.00  0.00    -0.744 OA
ENDBRANCH  97 100
ENDBRANCH  70  93
ENDBRANCH  44  45
ENDBRANCH  37  39
ENDBRANCH  36  37
ENDBRANCH   1  36
TORSDOF 18
ENDMDL
MODEL 3
REMARK VINA RESULT:     -11.5      4.402      8.395
REMARK SMILES Cc1cc(/C=C2\C(=O)N(Cc3ccco3)C(=O)N=C2OCCOC(=O)c2ccc(-c3c4nc(c(-c5cccc(S(=O)(=O)[O-])c5F)c5ccc([nH]5)c(-c5cccc(S(=O)(=O)[O-])c5F)c5nc(c(-c6cccc(S(=O)(=O)[O-])c6F)c6ccc3[nH]6)C=C5)C=C4)cc2)c(C)n1-c1ccc(Cl)c(C(=O)[O-])c1
REMARK SMILES IDX 22 1 21 2 20 3 19 4 5 5 6 6 7 7 8 8 9 9 18 10 16 11 17 12
REMARK SMILES IDX 4 13 1 14 2 15 3 16 91 17 89 18 90 19 92 20 93 21 101 22
REMARK SMILES IDX 94 23 97 24 95 25 96 26 98 27 99 28 100 29 10 30 11 31 12 32
REMARK SMILES IDX 15 33 13 34 14 35 23 36 24 37 25 38 26 39 27 40 88 41 28 42
REMARK SMILES IDX 87 43 29 44 30 45 31 46 81 47 32 48 86 49 80 50 82 51 33 52
REMARK SMILES IDX 85 53 79 54 78 55 34 57 66 58 46 59 65 60 47 61 50 62 64 63
REMARK SMILES IDX 83 64 48 65 49 66 63 68 84 69 51 70 35 71 36 72 44 73 37 74
REMARK SMILES IDX 39 75 45 76 38 77 40 78 41 79 42 80 43 81 67 82 68 83 76 84
REMARK SMILES IDX 69 85 71 86 77 87 70 88 72 89 73 90 74 91 75 92 52 93 53 94
REMARK SMILES IDX 61 95 54 96 56 97 62 98 55 99 57 100 58 101 59 102 60 103
REMARK H PARENT 82 56 50 67
REMARK Flexibility Score: inf
ROOT
ATOM      1  C   UNL A   1      42.932  18.971  25.853  1.00  0.00     0.274 C 
ENDROOT
BRANCH   1   2
ATOM      2  C   UNL A   1      41.484  19.516  26.199  1.00  0.00     0.273 C 
BRANCH   2   3
ATOM      3  O   UNL A   1      41.447  20.913  26.744  1.00  0.00    -0.473 OA
BRANCH   3   4
ATOM      4  C   UNL A   1      40.378  21.629  26.322  1.00  0.00     0.231 C 
ATOM      5  C   UNL A   1      41.150  23.907  27.260  1.00  0.00     0.029 C 
ATOM      6  C   UNL A   1      40.300  23.107  26.561  1.00  0.00     0.103 C 
ATOM      7  C   UNL A   1      39.055  23.661  25.936  1.00  0.00     0.267 C 
ATOM      8  O   UNL A   1      38.998  24.777  25.428  1.00  0.00    -0.268 OA
ATOM      9  N   UNL A   1      38.005  22.773  25.984  1.00  0.00    -0.250 N 
ATOM     10  N   UNL A   1      39.447  20.947  25.780  1.00  0.00    -0.156 NA
ATOM     11  C   UNL A   1      38.175  21.417  25.770  1.00  0.00     0.354 C 
ATOM     12  O   UNL A   1      37.266  20.643  25.632  1.00  0.00    -0.245 OA
BRANCH   5  13
ATOM     13  C   UNL A   1      41.011  25.307  27.695  1.00  0.00    -0.003 A 
ATOM     14  C   UNL A   1      42.166  28.857  28.214  1.00  0.00     0.065 C 
ATOM     15  C   UNL A   1      41.489  27.528  28.082  1.00  0.00     0.020 A 
ATOM     16  C   UNL A   1      41.946  26.365  27.466  1.00  0.00     0.031 A 
ATOM     17  N   UNL A   1      40.274  27.230  28.677  1.00  0.00    -0.318 N 
ATOM     18  C   UNL A   1      40.027  25.861  28.515  1.00  0.00     0.027 A 
ATOM     19  C   UNL A   1      38.796  25.240  29.075  1.00  0.00     0.065 C 
BRANCH  17  20
ATOM     20  C   UNL A   1      39.390  28.156  29.321  1.00  0.00     0.046 A 
ATOM     21  C   UNL A   1      39.446  28.314  30.708  1.00  0.00     0.028 A 
ATOM     22  C   UNL A   1      38.375  28.792  28.590  1.00  0.00     0.038 A 
ATOM     23  C   UNL A   1      38.428  28.991  31.377  1.00  0.00     0.023 A 
ATOM     24  C   UNL A   1      37.346  29.498  29.263  1.00  0.00     0.018 A 
ATOM     25  C   UNL A   1      37.366  29.562  30.667  1.00  0.00     0.050 A 
ATOM     26  Cl  UNL A   1      36.130  30.296  31.630  1.00  0.00    -0.084 Cl
BRANCH  24  27
ATOM     27  C   UNL A   1      36.240  30.122  28.479  1.00  0.00     0.073 C 
ATOM     28  O   UNL A   1      35.342  29.579  27.866  1.00  0.00    -0.545 OA
ATOM     29  O   UNL A   1      36.289  31.469  28.505  1.00  0.00    -0.545 OA
ENDBRANCH  24  27
ENDBRANCH  17  20
ENDBRANCH   5  13
BRANCH   9  30
ATOM     30  C   UNL A   1      36.661  23.221  26.267  1.00  0.00     0.206 C 
BRANCH  30  31
ATOM     31  C   UNL A   1      35.815  23.264  25.057  1.00  0.00     0.123 A 
ATOM     32  C   UNL A   1      36.094  23.284  23.707  1.00  0.00     0.047 A 
ATOM     33  O   UNL A   1      34.469  23.218  25.256  1.00  0.00    -0.467 OA
ATOM     34  C   UNL A   1      34.851  23.283  23.044  1.00  0.00     0.042 A 
ATOM     35  C   UNL A   1      33.894  23.226  24.028  1.00  0.00     0.195 A 
ENDBRANCH  30  31
ENDBRANCH   9  30
ENDBRANCH   3   4
ENDBRANCH   2   3
ENDBRANCH   1   2
BRANCH   1  36
ATOM     36  O   UNL A   1      43.421  18.909  24.438  1.00  0.00    -0.458 OA
BRANCH  36  37
ATOM     37  C   UNL A   1      44.676  19.464  24.179  1.00  0.00     0.338 C 
ATOM     38  O   UNL A   1      45.561  18.798  23.646  1.00  0.00    -0.246 OA
BRANCH  37  39
ATOM     39  C   UNL A   1      44.947  20.966  24.529  1.00  0.00     0.060 A 
ATOM     40  C   UNL A   1      45.942  21.285  25.456  1.00  0.00     0.016 A 
ATOM     41  C   UNL A   1      44.052  22.037  24.288  1.00  0.00     0.016 A 
ATOM     42  C   UNL A   1      46.054  22.604  26.058  1.00  0.00     0.010 A 
ATOM     43  C   UNL A   1      44.142  23.370  24.945  1.00  0.00     0.010 A 
ATOM     44  C   UNL A   1      45.145  23.712  25.872  1.00  0.00    -0.014 A 
BRANCH  44  45
ATOM     45  C   UNL A   1      45.121  24.869  27.042  1.00  0.00     0.031 A 
ATOM     46  C   UNL A   1      45.726  26.047  26.354  1.00  0.00     0.074 A 
ATOM     47  C   UNL A   1      44.845  25.138  28.400  1.00  0.00     0.049 A 
ATOM     48  N   UNL A   1      46.846  25.958  25.688  1.00  0.00    -0.248 NA
ATOM     49  C   UNL A   1      44.979  27.283  26.093  1.00  0.00     0.031 C 
ATOM     50  C   UNL A   1      44.421  24.200  29.455  1.00  0.00     0.029 A 
ATOM     51  N   UNL A   1      44.873  26.358  29.191  1.00  0.00    -0.354 N 
ATOM     52  C   UNL A   1      47.157  27.246  25.370  1.00  0.00     0.074 A 
ATOM     53  C   UNL A   1      45.873  27.920  25.330  1.00  0.00     0.031 C 
ATOM     54  C   UNL A   1      44.117  24.837  30.629  1.00  0.00     0.029 A 
ATOM     55  C   UNL A   1      44.350  26.280  30.543  1.00  0.00     0.049 A 
ATOM     56  H   UNL A   1      45.232  27.200  28.826  1.00  0.00     0.167 HD
ATOM     57  C   UNL A   1      48.357  27.714  25.818  1.00  0.00     0.034 A 
ATOM     58  C   UNL A   1      44.189  27.240  31.552  1.00  0.00     0.034 A 
ATOM     59  C   UNL A   1      48.258  28.864  26.671  1.00  0.00     0.049 A 
ATOM     60  C   UNL A   1      45.131  28.339  31.270  1.00  0.00     0.074 A 
ATOM     61  C   UNL A   1      47.455  29.987  26.696  1.00  0.00     0.029 A 
ATOM     62  N   UNL A   1      48.799  28.742  27.931  1.00  0.00    -0.354 N 
ATOM     63  N   UNL A   1      46.381  28.234  31.608  1.00  0.00    -0.248 NA
ATOM     64  C   UNL A   1      44.719  29.672  30.844  1.00  0.00     0.031 C 
ATOM     65  C   UNL A   1      47.164  30.214  28.062  1.00  0.00     0.029 A 
ATOM     66  C   UNL A   1      47.994  29.411  28.832  1.00  0.00     0.049 A 
ATOM     67  H   UNL A   1      49.626  28.257  28.154  1.00  0.00     0.167 HD
ATOM     68  C   UNL A   1      46.979  29.284  30.985  1.00  0.00     0.074 A 
ATOM     69  C   UNL A   1      45.921  30.252  30.778  1.00  0.00     0.031 C 
ATOM     70  C   UNL A   1      48.049  28.984  30.211  1.00  0.00     0.034 A 
BRANCH  57  71
ATOM     71  C   UNL A   1      49.458  26.680  25.896  1.00  0.00     0.023 A 
ATOM     72  C   UNL A   1      49.535  25.889  27.053  1.00  0.00     0.012 A 
ATOM     73  C   UNL A   1      50.508  26.606  24.945  1.00  0.00     0.148 A 
ATOM     74  C   UNL A   1      50.659  25.094  27.290  1.00  0.00     0.002 A 
ATOM     75  C   UNL A   1      51.671  25.904  25.239  1.00  0.00     0.091 A 
ATOM     76  F   UNL A   1      50.361  27.241  23.770  1.00  0.00    -0.205 F 
ATOM     77  C   UNL A   1      51.741  25.134  26.408  1.00  0.00     0.022 A 
BRANCH  75  78
ATOM     78  S   UNL A   1      53.191  26.136  24.299  1.00  0.00     0.127 S 
ATOM     79  O   UNL A   1      53.870  24.847  24.471  1.00  0.00    -0.237 OA
ATOM     80  O   UNL A   1      52.707  26.382  22.945  1.00  0.00    -0.237 OA
ATOM     81  O   UNL A   1      53.896  27.249  24.925  1.00  0.00    -0.744 OA
ENDBRANCH  75  78
ENDBRANCH  57  71
BRANCH  58  82
ATOM     82  C   UNL A   1      43.613  27.526  33.001  1.00  0.00     0.023 A 
ATOM     83  C   UNL A   1      42.272  28.052  33.095  1.00  0.00     0.012 A 
ATOM     84  C   UNL A   1      44.074  26.920  34.194  1.00  0.00     0.148 A 
ATOM     85  C   UNL A   1      41.414  27.871  34.198  1.00  0.00     0.002 A 
ATOM     86  C   UNL A   1      43.222  26.791  35.332  1.00  0.00     0.091 A 
ATOM     87  F   UNL A   1      45.297  26.376  34.198  1.00  0.00    -0.205 F 
ATOM     88  C   UNL A   1      41.888  27.228  35.318  1.00  0.00     0.022 A 
BRANCH  86  89
ATOM     89  S   UNL A   1      43.721  26.007  36.886  1.00  0.00     0.127 S 
ATOM     90  O   UNL A   1      45.006  26.649  37.176  1.00  0.00    -0.237 OA
ATOM     91  O   UNL A   1      42.638  26.399  37.787  1.00  0.00    -0.237 OA
ATOM     92  O   UNL A   1      43.817  24.586  36.582  1.00  0.00    -0.744 OA
ENDBRANCH  86  89
ENDBRANCH  58  82
BRANCH  70  93
ATOM     93  C   UNL A   1      49.024  27.932  30.728  1.00  0.00     0.023 A 
ATOM     94  C   UNL A   1      48.924  26.541  30.488  1.00  0.00     0.012 A 
ATOM     95  C   UNL A   1      50.119  28.377  31.482  1.00  0.00     0.148 A 
ATOM     96  C   UNL A   1      49.849  25.633  31.012  1.00  0.00     0.002 A 
ATOM     97  C   UNL A   1      51.078  27.480  31.948  1.00  0.00     0.091 A 
ATOM     98  F   UNL A   1      50.216  29.690  31.739  1.00  0.00    -0.205 F 
ATOM     99  C   UNL A   1      50.942  26.105  31.729  1.00  0.00     0.022 A 
BRANCH  97 100
ATOM    100  S   UNL A   1      52.539  28.091  32.785  1.00  0.00     0.127 S 
ATOM    101  O   UNL A   1      53.275  26.857  33.053  1.00  0.00    -0.237 OA
ATOM    102  O   UNL A   1      53.163  28.968  31.797  1.00  0.00    -0.237 OA
ATOM    103  O   UNL A   1      52.029  28.788  33.963  1.00  0.00    -0.744 OA
ENDBRANCH  97 100
ENDBRANCH  70  93
ENDBRANCH  44  45
ENDBRANCH  37  39
ENDBRANCH  36  37
ENDBRANCH   1  36
TORSDOF 18
ENDMDL
