MODEL 1
REMARK VINA RESULT:     -11.2      0.000      0.000
REMARK SMILES Cc1ccc(N(CC(=O)OCCOC(=O)c2ccc(-c3c4nc(c(-c5cccc(S(=O)(=O)[O-])c5F)c5ccc([nH]5)c(-c5cccc(S(=O)(=O)[O-])c5F)c5nc(c(-c6cccc(S(=O)(=O)[O-])c6F)c6ccc3[nH]6)C=C5)C=C4)cc2)C(=O)C[C@H]2C[NH2+]CCO2)cc1
REMARK SMILES IDX 11 1 10 2 8 3 9 4 7 5 6 6 5 7 1 8 2 9 3 10 89 11 4 12 88 13
REMARK SMILES IDX 79 14 80 15 81 16 82 17 83 18 87 19 84 20 86 21 85 22 12 25
REMARK SMILES IDX 13 26 14 27 15 28 16 29 17 30 78 31 18 32 77 33 19 34 20 35
REMARK SMILES IDX 21 36 71 37 22 38 76 39 70 40 72 41 23 42 75 43 69 44 68 45
REMARK SMILES IDX 24 47 56 48 36 49 55 50 37 51 40 52 54 53 73 54 38 55 39 56
REMARK SMILES IDX 53 58 74 59 41 60 25 61 26 62 34 63 27 64 29 65 35 66 28 67
REMARK SMILES IDX 30 68 31 69 32 70 33 71 57 72 58 73 66 74 59 75 61 76 67 77
REMARK SMILES IDX 60 78 62 79 63 80 64 81 65 82 42 83 43 84 51 85 44 86 46 87
REMARK SMILES IDX 52 88 45 89 47 90 48 91 49 92 50 93
REMARK H PARENT 84 23 84 24 72 46 40 57
REMARK Flexibility Score: inf
ROOT
ATOM      1  C   UNL A   1      32.350  29.580  27.138  1.00  0.00     0.274 C 
ENDROOT
BRANCH   1   2
ATOM      2  O   UNL A   1      31.380  28.937  26.285  1.00  0.00    -0.461 OA
BRANCH   2   3
ATOM      3  C   UNL A   1      31.381  27.585  26.155  1.00  0.00     0.326 C 
ATOM      4  O   UNL A   1      31.018  26.815  27.033  1.00  0.00    -0.250 OA
BRANCH   3   5
ATOM      5  C   UNL A   1      31.979  27.200  24.795  1.00  0.00     0.248 C 
BRANCH   5   6
ATOM      6  N   UNL A   1      31.064  26.431  23.935  1.00  0.00    -0.301 N 
BRANCH   6   7
ATOM      7  C   UNL A   1      31.349  25.032  23.802  1.00  0.00     0.044 A 
ATOM      8  C   UNL A   1      32.408  20.848  23.625  1.00  0.00     0.044 C 
ATOM      9  C   UNL A   1      31.994  22.288  23.649  1.00  0.00    -0.051 A 
ATOM     10  C   UNL A   1      31.266  22.778  24.733  1.00  0.00     0.005 A 
ATOM     11  C   UNL A   1      32.341  23.163  22.614  1.00  0.00     0.005 A 
ATOM     12  C   UNL A   1      30.951  24.136  24.810  1.00  0.00     0.026 A 
ATOM     13  C   UNL A   1      32.012  24.520  22.686  1.00  0.00     0.026 A 
ENDBRANCH   6   7
BRANCH   6  14
ATOM     14  C   UNL A   1      29.856  26.945  23.446  1.00  0.00     0.230 C 
ATOM     15  O   UNL A   1      28.758  26.419  23.656  1.00  0.00    -0.274 OA
BRANCH  14  16
ATOM     16  C   UNL A   1      29.879  28.264  22.686  1.00  0.00     0.138 C 
BRANCH  16  17
ATOM     17  C   UNL A   1      28.825  29.295  23.130  1.00  0.00     0.182 C 
ATOM     18  C   UNL A   1      29.308  30.713  23.497  1.00  0.00     0.293 C 
ATOM     19  O   UNL A   1      27.707  29.340  22.236  1.00  0.00    -0.366 OA
ATOM     20  N   UNL A   1      29.605  31.575  22.344  1.00  0.00    -0.342 N 
ATOM     21  C   UNL A   1      27.887  30.193  21.101  1.00  0.00     0.222 C 
ATOM     22  C   UNL A   1      28.431  31.586  21.451  1.00  0.00     0.289 C 
ATOM     23  H   UNL A   1      30.415  31.212  21.842  1.00  0.00     0.346 HD
ATOM     24  H   UNL A   1      29.810  32.523  22.662  1.00  0.00     0.346 HD
ENDBRANCH  16  17
ENDBRANCH  14  16
ENDBRANCH   6  14
ENDBRANCH   5   6
ENDBRANCH   3   5
ENDBRANCH   2   3
ENDBRANCH   1   2
BRANCH   1  25
ATOM     25  C   UNL A   1      33.840  29.412  26.746  1.00  0.00     0.275 C 
BRANCH  25  26
ATOM     26  O   UNL A   1      34.767  29.147  27.823  1.00  0.00    -0.458 OA
BRANCH  26  27
ATOM     27  C   UNL A   1      35.390  30.228  28.383  1.00  0.00     0.338 C 
ATOM     28  O   UNL A   1      34.860  31.274  28.660  1.00  0.00    -0.246 OA
BRANCH  27  29
ATOM     29  C   UNL A   1      36.818  29.904  28.603  1.00  0.00     0.060 A 
ATOM     30  C   UNL A   1      37.728  29.841  27.537  1.00  0.00     0.016 A 
ATOM     31  C   UNL A   1      37.261  29.829  29.919  1.00  0.00     0.016 A 
ATOM     32  C   UNL A   1      39.093  29.739  27.802  1.00  0.00     0.010 A 
ATOM     33  C   UNL A   1      38.590  29.976  30.189  1.00  0.00     0.010 A 
ATOM     34  C   UNL A   1      39.498  29.766  29.136  1.00  0.00    -0.014 A 
BRANCH  34  35
ATOM     35  C   UNL A   1      40.604  28.954  29.634  1.00  0.00     0.031 A 
ATOM     36  C   UNL A   1      40.705  27.531  29.315  1.00  0.00     0.074 A 
ATOM     37  C   UNL A   1      41.682  29.777  29.681  1.00  0.00     0.049 A 
ATOM     38  N   UNL A   1      41.791  26.864  29.468  1.00  0.00    -0.248 NA
ATOM     39  C   UNL A   1      39.601  26.734  28.793  1.00  0.00     0.031 C 
ATOM     40  C   UNL A   1      43.032  29.605  29.176  1.00  0.00     0.029 A 
ATOM     41  N   UNL A   1      41.676  31.107  30.117  1.00  0.00    -0.354 N 
ATOM     42  C   UNL A   1      41.644  25.695  28.756  1.00  0.00     0.074 A 
ATOM     43  C   UNL A   1      40.224  25.577  28.535  1.00  0.00     0.031 C 
ATOM     44  C   UNL A   1      43.770  30.658  29.588  1.00  0.00     0.029 A 
ATOM     45  C   UNL A   1      42.961  31.395  30.553  1.00  0.00     0.049 A 
ATOM     46  H   UNL A   1      40.907  31.721  30.114  1.00  0.00     0.167 HD
ATOM     47  C   UNL A   1      42.773  25.086  28.295  1.00  0.00     0.034 A 
ATOM     48  C   UNL A   1      43.177  31.505  31.902  1.00  0.00     0.034 A 
ATOM     49  C   UNL A   1      43.975  25.783  28.807  1.00  0.00     0.049 A 
ATOM     50  C   UNL A   1      44.025  30.338  32.407  1.00  0.00     0.074 A 
ATOM     51  C   UNL A   1      44.910  26.643  28.258  1.00  0.00     0.029 A 
ATOM     52  N   UNL A   1      44.158  25.863  30.179  1.00  0.00    -0.354 N 
ATOM     53  N   UNL A   1      44.521  29.391  31.657  1.00  0.00    -0.248 NA
ATOM     54  C   UNL A   1      44.263  30.100  33.827  1.00  0.00     0.031 C 
ATOM     55  C   UNL A   1      45.575  27.317  29.339  1.00  0.00     0.029 A 
ATOM     56  C   UNL A   1      45.082  26.831  30.540  1.00  0.00     0.049 A 
ATOM     57  H   UNL A   1      43.683  25.293  30.826  1.00  0.00     0.167 HD
ATOM     58  C   UNL A   1      44.913  28.346  32.443  1.00  0.00     0.074 A 
ATOM     59  C   UNL A   1      44.765  28.856  33.801  1.00  0.00     0.031 C 
ATOM     60  C   UNL A   1      45.263  27.111  31.966  1.00  0.00     0.034 A 
BRANCH  47  61
ATOM     61  C   UNL A   1      42.862  23.984  27.249  1.00  0.00     0.023 A 
ATOM     62  C   UNL A   1      43.498  24.328  26.033  1.00  0.00     0.012 A 
ATOM     63  C   UNL A   1      42.322  22.674  27.310  1.00  0.00     0.148 A 
ATOM     64  C   UNL A   1      43.568  23.457  24.939  1.00  0.00     0.002 A 
ATOM     65  C   UNL A   1      42.432  21.783  26.232  1.00  0.00     0.091 A 
ATOM     66  F   UNL A   1      41.629  22.278  28.378  1.00  0.00    -0.205 F 
ATOM     67  C   UNL A   1      43.041  22.180  25.040  1.00  0.00     0.022 A 
BRANCH  65  68
ATOM     68  S   UNL A   1      41.804  20.091  26.290  1.00  0.00     0.127 S 
ATOM     69  O   UNL A   1      42.233  19.653  27.618  1.00  0.00    -0.237 OA
ATOM     70  O   UNL A   1      40.361  20.286  26.151  1.00  0.00    -0.237 OA
ATOM     71  O   UNL A   1      42.428  19.384  25.178  1.00  0.00    -0.744 OA
ENDBRANCH  65  68
ENDBRANCH  47  61
BRANCH  48  72
ATOM     72  C   UNL A   1      41.961  32.050  32.641  1.00  0.00     0.023 A 
ATOM     73  C   UNL A   1      41.554  33.385  32.367  1.00  0.00     0.012 A 
ATOM     74  C   UNL A   1      41.006  31.185  33.209  1.00  0.00     0.148 A 
ATOM     75  C   UNL A   1      40.218  33.786  32.523  1.00  0.00     0.002 A 
ATOM     76  C   UNL A   1      39.684  31.602  33.378  1.00  0.00     0.091 A 
ATOM     77  F   UNL A   1      41.337  29.916  33.472  1.00  0.00    -0.205 F 
ATOM     78  C   UNL A   1      39.275  32.886  33.009  1.00  0.00     0.022 A 
BRANCH  76  79
ATOM     79  S   UNL A   1      38.474  30.403  33.950  1.00  0.00     0.127 S 
ATOM     80  O   UNL A   1      37.212  30.914  33.419  1.00  0.00    -0.237 OA
ATOM     81  O   UNL A   1      38.933  29.171  33.319  1.00  0.00    -0.237 OA
ATOM     82  O   UNL A   1      38.599  30.499  35.401  1.00  0.00    -0.744 OA
ENDBRANCH  76  79
ENDBRANCH  48  72
BRANCH  60  83
ATOM     83  C   UNL A   1      45.832  26.054  32.887  1.00  0.00     0.023 A 
ATOM     84  C   UNL A   1      47.195  25.704  32.783  1.00  0.00     0.012 A 
ATOM     85  C   UNL A   1      45.035  25.274  33.759  1.00  0.00     0.148 A 
ATOM     86  C   UNL A   1      47.759  24.694  33.563  1.00  0.00     0.002 A 
ATOM     87  C   UNL A   1      45.573  24.183  34.430  1.00  0.00     0.091 A 
ATOM     88  F   UNL A   1      43.760  25.607  33.985  1.00  0.00    -0.205 F 
ATOM     89  C   UNL A   1      46.943  23.916  34.369  1.00  0.00     0.022 A 
BRANCH  87  90
ATOM     90  S   UNL A   1      44.537  22.981  35.274  1.00  0.00     0.127 S 
ATOM     91  O   UNL A   1      44.015  23.773  36.390  1.00  0.00    -0.237 OA
ATOM     92  O   UNL A   1      43.554  22.655  34.244  1.00  0.00    -0.237 OA
ATOM     93  O   UNL A   1      45.422  21.896  35.673  1.00  0.00    -0.744 OA
ENDBRANCH  87  90
ENDBRANCH  60  83
ENDBRANCH  34  35
ENDBRANCH  27  29
ENDBRANCH  26  27
ENDBRANCH  25  26
ENDBRANCH   1  25
TORSDOF 19
ENDMDL
MODEL 2
REMARK VINA RESULT:     -11.2      4.425      9.921
REMARK SMILES Cc1ccc(N(CC(=O)OCCOC(=O)c2ccc(-c3c4nc(c(-c5cccc(S(=O)(=O)[O-])c5F)c5ccc([nH]5)c(-c5cccc(S(=O)(=O)[O-])c5F)c5nc(c(-c6cccc(S(=O)(=O)[O-])c6F)c6ccc3[nH]6)C=C5)C=C4)cc2)C(=O)C[C@H]2C[NH2+]CCO2)cc1
REMARK SMILES IDX 11 1 10 2 8 3 9 4 7 5 6 6 5 7 1 8 2 9 3 10 89 11 4 12 88 13
REMARK SMILES IDX 79 14 80 15 81 16 82 17 83 18 87 19 84 20 86 21 85 22 12 25
REMARK SMILES IDX 13 26 14 27 15 28 16 29 17 30 78 31 18 32 77 33 19 34 20 35
REMARK SMILES IDX 21 36 71 37 22 38 76 39 70 40 72 41 23 42 75 43 69 44 68 45
REMARK SMILES IDX 24 47 56 48 36 49 55 50 37 51 40 52 54 53 73 54 38 55 39 56
REMARK SMILES IDX 53 58 74 59 41 60 25 61 26 62 34 63 27 64 29 65 35 66 28 67
REMARK SMILES IDX 30 68 31 69 32 70 33 71 57 72 58 73 66 74 59 75 61 76 67 77
REMARK SMILES IDX 60 78 62 79 63 80 64 81 65 82 42 83 43 84 51 85 44 86 46 87
REMARK SMILES IDX 52 88 45 89 47 90 48 91 49 92 50 93
REMARK H PARENT 84 23 84 24 72 46 40 57
REMARK Flexibility Score: inf
ROOT
ATOM      1  C   UNL A   1      38.261  20.406  24.878  1.00  0.00     0.274 C 
ENDROOT
BRANCH   1   2
ATOM      2  O   UNL A   1      36.842  20.654  24.790  1.00  0.00    -0.461 OA
BRANCH   2   3
ATOM      3  C   UNL A   1      36.383  21.922  24.635  1.00  0.00     0.326 C 
ATOM      4  O   UNL A   1      36.723  22.664  23.724  1.00  0.00    -0.250 OA
BRANCH   3   5
ATOM      5  C   UNL A   1      35.463  22.283  25.810  1.00  0.00     0.248 C 
BRANCH   5   6
ATOM      6  N   UNL A   1      34.042  22.403  25.441  1.00  0.00    -0.301 N 
BRANCH   6   7
ATOM      7  C   UNL A   1      33.470  23.713  25.553  1.00  0.00     0.044 A 
ATOM      8  C   UNL A   1      31.505  27.555  25.747  1.00  0.00     0.044 C 
ATOM      9  C   UNL A   1      32.229  26.243  25.718  1.00  0.00    -0.051 A 
ATOM     10  C   UNL A   1      31.761  25.180  26.490  1.00  0.00     0.005 A 
ATOM     11  C   UNL A   1      33.358  26.052  24.915  1.00  0.00     0.005 A 
ATOM     12  C   UNL A   1      32.372  23.929  26.405  1.00  0.00     0.026 A 
ATOM     13  C   UNL A   1      33.978  24.800  24.841  1.00  0.00     0.026 A 
ENDBRANCH   6   7
BRANCH   6  14
ATOM     14  C   UNL A   1      33.325  21.382  24.805  1.00  0.00     0.230 C 
ATOM     15  O   UNL A   1      32.799  21.510  23.694  1.00  0.00    -0.274 OA
BRANCH  14  16
ATOM     16  C   UNL A   1      33.255  20.014  25.471  1.00  0.00     0.138 C 
BRANCH  16  17
ATOM     17  C   UNL A   1      33.157  18.818  24.506  1.00  0.00     0.182 C 
ATOM     18  C   UNL A   1      34.443  18.019  24.211  1.00  0.00     0.293 C 
ATOM     19  O   UNL A   1      32.066  17.951  24.834  1.00  0.00    -0.366 OA
ATOM     20  N   UNL A   1      34.833  17.078  25.270  1.00  0.00    -0.342 N 
ATOM     21  C   UNL A   1      32.367  16.968  25.829  1.00  0.00     0.222 C 
ATOM     22  C   UNL A   1      33.680  16.211  25.578  1.00  0.00     0.289 C 
ATOM     23  H   UNL A   1      35.107  17.595  26.106  1.00  0.00     0.346 HD
ATOM     24  H   UNL A   1      35.622  16.511  24.959  1.00  0.00     0.346 HD
ENDBRANCH  16  17
ENDBRANCH  14  16
ENDBRANCH   6  14
ENDBRANCH   5   6
ENDBRANCH   3   5
ENDBRANCH   2   3
ENDBRANCH   1   2
BRANCH   1  25
ATOM     25  C   UNL A   1      38.961  20.835  26.193  1.00  0.00     0.275 C 
BRANCH  25  26
ATOM     26  O   UNL A   1      39.236  22.246  26.348  1.00  0.00    -0.458 OA
BRANCH  26  27
ATOM     27  C   UNL A   1      40.145  22.597  27.308  1.00  0.00     0.338 C 
ATOM     28  O   UNL A   1      40.758  21.829  28.004  1.00  0.00    -0.246 OA
BRANCH  27  29
ATOM     29  C   UNL A   1      40.262  24.073  27.348  1.00  0.00     0.060 A 
ATOM     30  C   UNL A   1      40.861  24.789  26.301  1.00  0.00     0.016 A 
ATOM     31  C   UNL A   1      39.608  24.738  28.380  1.00  0.00     0.016 A 
ATOM     32  C   UNL A   1      40.769  26.180  26.277  1.00  0.00     0.010 A 
ATOM     33  C   UNL A   1      39.303  26.061  28.238  1.00  0.00     0.010 A 
ATOM     34  C   UNL A   1      40.020  26.797  27.279  1.00  0.00    -0.014 A 
BRANCH  34  35
ATOM     35  C   UNL A   1      40.408  28.073  27.871  1.00  0.00     0.031 A 
ATOM     36  C   UNL A   1      39.482  29.204  27.915  1.00  0.00     0.074 A 
ATOM     37  C   UNL A   1      41.253  27.772  28.891  1.00  0.00     0.049 A 
ATOM     38  N   UNL A   1      39.665  30.218  28.679  1.00  0.00    -0.248 NA
ATOM     39  C   UNL A   1      38.269  29.292  27.109  1.00  0.00     0.031 C 
ATOM     40  C   UNL A   1      41.264  28.210  30.275  1.00  0.00     0.029 A 
ATOM     41  N   UNL A   1      42.258  26.801  28.858  1.00  0.00    -0.354 N 
ATOM     42  C   UNL A   1      38.468  30.894  28.737  1.00  0.00     0.074 A 
ATOM     43  C   UNL A   1      37.715  30.405  27.608  1.00  0.00     0.031 C 
ATOM     44  C   UNL A   1      42.385  27.730  30.855  1.00  0.00     0.029 A 
ATOM     45  C   UNL A   1      43.215  27.178  29.789  1.00  0.00     0.049 A 
ATOM     46  H   UNL A   1      42.283  26.001  28.285  1.00  0.00     0.167 HD
ATOM     47  C   UNL A   1      38.215  31.641  29.848  1.00  0.00     0.034 A 
ATOM     48  C   UNL A   1      44.407  27.672  29.327  1.00  0.00     0.034 A 
ATOM     49  C   UNL A   1      39.404  31.669  30.728  1.00  0.00     0.049 A 
ATOM     50  C   UNL A   1      44.529  29.162  29.644  1.00  0.00     0.074 A 
ATOM     51  C   UNL A   1      39.748  31.060  31.923  1.00  0.00     0.029 A 
ATOM     52  N   UNL A   1      40.588  32.186  30.223  1.00  0.00    -0.354 N 
ATOM     53  N   UNL A   1      43.647  29.864  30.305  1.00  0.00    -0.248 NA
ATOM     54  C   UNL A   1      45.610  29.989  29.117  1.00  0.00     0.031 C 
ATOM     55  C   UNL A   1      41.176  31.132  32.058  1.00  0.00     0.029 A 
ATOM     56  C   UNL A   1      41.694  31.826  30.976  1.00  0.00     0.049 A 
ATOM     57  H   UNL A   1      40.635  32.749  29.417  1.00  0.00     0.167 HD
ATOM     58  C   UNL A   1      43.884  31.194  30.109  1.00  0.00     0.074 A 
ATOM     59  C   UNL A   1      45.150  31.221  29.387  1.00  0.00     0.031 C 
ATOM     60  C   UNL A   1      43.019  32.193  30.471  1.00  0.00     0.034 A 
BRANCH  47  61
ATOM     61  C   UNL A   1      36.874  32.218  30.284  1.00  0.00     0.023 A 
ATOM     62  C   UNL A   1      36.424  31.847  31.572  1.00  0.00     0.012 A 
ATOM     63  C   UNL A   1      35.981  33.022  29.531  1.00  0.00     0.148 A 
ATOM     64  C   UNL A   1      35.170  32.212  32.074  1.00  0.00     0.002 A 
ATOM     65  C   UNL A   1      34.743  33.429  30.049  1.00  0.00     0.091 A 
ATOM     66  F   UNL A   1      36.271  33.357  28.273  1.00  0.00    -0.205 F 
ATOM     67  C   UNL A   1      34.330  33.011  31.315  1.00  0.00     0.022 A 
BRANCH  65  68
ATOM     68  S   UNL A   1      33.603  34.495  29.142  1.00  0.00     0.127 S 
ATOM     69  O   UNL A   1      34.483  35.578  28.704  1.00  0.00    -0.237 OA
ATOM     70  O   UNL A   1      33.137  33.618  28.068  1.00  0.00    -0.237 OA
ATOM     71  O   UNL A   1      32.568  34.889  30.092  1.00  0.00    -0.744 OA
ENDBRANCH  65  68
ENDBRANCH  47  61
BRANCH  48  72
ATOM     72  C   UNL A   1      44.815  27.054  27.996  1.00  0.00     0.023 A 
ATOM     73  C   UNL A   1      44.202  27.550  26.813  1.00  0.00     0.012 A 
ATOM     74  C   UNL A   1      46.037  26.369  27.854  1.00  0.00     0.148 A 
ATOM     75  C   UNL A   1      44.855  27.486  25.572  1.00  0.00     0.002 A 
ATOM     76  C   UNL A   1      46.668  26.294  26.611  1.00  0.00     0.091 A 
ATOM     77  F   UNL A   1      46.659  25.896  28.940  1.00  0.00    -0.205 F 
ATOM     78  C   UNL A   1      46.102  26.876  25.474  1.00  0.00     0.022 A 
BRANCH  76  79
ATOM     79  S   UNL A   1      48.303  25.555  26.523  1.00  0.00     0.127 S 
ATOM     80  O   UNL A   1      48.112  24.236  27.123  1.00  0.00    -0.237 OA
ATOM     81  O   UNL A   1      48.557  25.529  25.088  1.00  0.00    -0.237 OA
ATOM     82  O   UNL A   1      49.105  26.471  27.328  1.00  0.00    -0.744 OA
ENDBRANCH  76  79
ENDBRANCH  48  72
BRANCH  60  83
ATOM     83  C   UNL A   1      43.419  33.648  30.358  1.00  0.00     0.023 A 
ATOM     84  C   UNL A   1      43.595  34.411  31.531  1.00  0.00     0.012 A 
ATOM     85  C   UNL A   1      43.483  34.342  29.126  1.00  0.00     0.148 A 
ATOM     86  C   UNL A   1      43.904  35.771  31.488  1.00  0.00     0.002 A 
ATOM     87  C   UNL A   1      43.656  35.719  29.094  1.00  0.00     0.091 A 
ATOM     88  F   UNL A   1      43.427  33.671  27.971  1.00  0.00    -0.205 F 
ATOM     89  C   UNL A   1      43.909  36.431  30.269  1.00  0.00     0.022 A 
BRANCH  87  90
ATOM     90  S   UNL A   1      43.412  36.674  27.590  1.00  0.00     0.127 S 
ATOM     91  O   UNL A   1      43.478  38.046  28.098  1.00  0.00    -0.237 OA
ATOM     92  O   UNL A   1      44.561  36.265  26.785  1.00  0.00    -0.237 OA
ATOM     93  O   UNL A   1      42.106  36.288  27.076  1.00  0.00    -0.744 OA
ENDBRANCH  87  90
ENDBRANCH  60  83
ENDBRANCH  34  35
ENDBRANCH  27  29
ENDBRANCH  26  27
ENDBRANCH  25  26
ENDBRANCH   1  25
TORSDOF 19
ENDMDL
MODEL 3
REMARK VINA RESULT:     -11.1      1.422      3.295
REMARK SMILES Cc1ccc(N(CC(=O)OCCOC(=O)c2ccc(-c3c4nc(c(-c5cccc(S(=O)(=O)[O-])c5F)c5ccc([nH]5)c(-c5cccc(S(=O)(=O)[O-])c5F)c5nc(c(-c6cccc(S(=O)(=O)[O-])c6F)c6ccc3[nH]6)C=C5)C=C4)cc2)C(=O)C[C@H]2C[NH2+]CCO2)cc1
REMARK SMILES IDX 11 1 10 2 8 3 9 4 7 5 6 6 5 7 1 8 2 9 3 10 89 11 4 12 88 13
REMARK SMILES IDX 79 14 80 15 81 16 82 17 83 18 87 19 84 20 86 21 85 22 12 25
REMARK SMILES IDX 13 26 14 27 15 28 16 29 17 30 78 31 18 32 77 33 19 34 20 35
REMARK SMILES IDX 21 36 71 37 22 38 76 39 70 40 72 41 23 42 75 43 69 44 68 45
REMARK SMILES IDX 24 47 56 48 36 49 55 50 37 51 40 52 54 53 73 54 38 55 39 56
REMARK SMILES IDX 53 58 74 59 41 60 25 61 26 62 34 63 27 64 29 65 35 66 28 67
REMARK SMILES IDX 30 68 31 69 32 70 33 71 57 72 58 73 66 74 59 75 61 76 67 77
REMARK SMILES IDX 60 78 62 79 63 80 64 81 65 82 42 83 43 84 51 85 44 86 46 87
REMARK SMILES IDX 52 88 45 89 47 90 48 91 49 92 50 93
REMARK H PARENT 84 23 84 24 72 46 40 57
REMARK Flexibility Score: inf
ROOT
ATOM      1  C   UNL A   1      32.835  28.531  26.595  1.00  0.00     0.274 C 
ENDROOT
BRANCH   1   2
ATOM      2  O   UNL A   1      33.420  28.494  25.277  1.00  0.00    -0.461 OA
BRANCH   2   3
ATOM      3  C   UNL A   1      33.752  27.304  24.714  1.00  0.00     0.326 C 
ATOM      4  O   UNL A   1      34.138  26.333  25.350  1.00  0.00    -0.250 OA
BRANCH   3   5
ATOM      5  C   UNL A   1      33.650  27.410  23.186  1.00  0.00     0.248 C 
BRANCH   5   6
ATOM      6  N   UNL A   1      32.513  26.672  22.610  1.00  0.00    -0.301 N 
BRANCH   6   7
ATOM      7  C   UNL A   1      31.219  27.263  22.793  1.00  0.00     0.044 A 
ATOM      8  C   UNL A   1      27.216  28.849  23.141  1.00  0.00     0.044 C 
ATOM      9  C   UNL A   1      28.621  28.332  23.069  1.00  0.00    -0.051 A 
ATOM     10  C   UNL A   1      28.916  27.066  23.574  1.00  0.00     0.005 A 
ATOM     11  C   UNL A   1      29.645  29.084  22.485  1.00  0.00     0.005 A 
ATOM     12  C   UNL A   1      30.200  26.537  23.434  1.00  0.00     0.026 A 
ATOM     13  C   UNL A   1      30.935  28.558  22.357  1.00  0.00     0.026 A 
ENDBRANCH   6   7
BRANCH   6  14
ATOM     14  C   UNL A   1      32.666  25.584  21.742  1.00  0.00     0.230 C 
ATOM     15  O   UNL A   1      32.356  25.619  20.546  1.00  0.00    -0.274 OA
BRANCH  14  16
ATOM     16  C   UNL A   1      33.322  24.315  22.270  1.00  0.00     0.138 C 
BRANCH  16  17
ATOM     17  C   UNL A   1      32.642  23.689  23.502  1.00  0.00     0.182 C 
ATOM     18  C   UNL A   1      31.627  22.552  23.269  1.00  0.00     0.293 C 
ATOM     19  O   UNL A   1      33.588  23.345  24.520  1.00  0.00    -0.366 OA
ATOM     20  N   UNL A   1      32.231  21.242  22.990  1.00  0.00    -0.342 N 
ATOM     21  C   UNL A   1      34.198  22.061  24.355  1.00  0.00     0.222 C 
ATOM     22  C   UNL A   1      33.200  20.932  24.058  1.00  0.00     0.289 C 
ATOM     23  H   UNL A   1      32.710  21.268  22.089  1.00  0.00     0.346 HD
ATOM     24  H   UNL A   1      31.507  20.523  22.957  1.00  0.00     0.346 HD
ENDBRANCH  16  17
ENDBRANCH  14  16
ENDBRANCH   6  14
ENDBRANCH   5   6
ENDBRANCH   3   5
ENDBRANCH   2   3
ENDBRANCH   1   2
BRANCH   1  25
ATOM     25  C   UNL A   1      33.730  29.070  27.738  1.00  0.00     0.275 C 
BRANCH  25  26
ATOM     26  O   UNL A   1      34.541  30.228  27.434  1.00  0.00    -0.458 OA
BRANCH  26  27
ATOM     27  C   UNL A   1      35.132  30.865  28.491  1.00  0.00     0.338 C 
ATOM     28  O   UNL A   1      34.597  31.666  29.212  1.00  0.00    -0.246 OA
BRANCH  27  29
ATOM     29  C   UNL A   1      36.534  30.401  28.612  1.00  0.00     0.060 A 
ATOM     30  C   UNL A   1      37.242  29.912  27.503  1.00  0.00     0.016 A 
ATOM     31  C   UNL A   1      37.178  30.623  29.824  1.00  0.00     0.016 A 
ATOM     32  C   UNL A   1      38.614  29.681  27.611  1.00  0.00     0.010 A 
ATOM     33  C   UNL A   1      38.542  30.637  29.866  1.00  0.00     0.010 A 
ATOM     34  C   UNL A   1      39.234  30.012  28.815  1.00  0.00    -0.014 A 
BRANCH  34  35
ATOM     35  C   UNL A   1      40.314  29.210  29.383  1.00  0.00     0.031 A 
ATOM     36  C   UNL A   1      40.414  27.775  29.120  1.00  0.00     0.074 A 
ATOM     37  C   UNL A   1      41.397  30.026  29.441  1.00  0.00     0.049 A 
ATOM     38  N   UNL A   1      41.487  27.106  29.339  1.00  0.00    -0.248 NA
ATOM     39  C   UNL A   1      39.322  26.968  28.587  1.00  0.00     0.031 C 
ATOM     40  C   UNL A   1      42.763  29.824  28.993  1.00  0.00     0.029 A 
ATOM     41  N   UNL A   1      41.387  31.370  29.827  1.00  0.00    -0.354 N 
ATOM     42  C   UNL A   1      41.355  25.912  28.666  1.00  0.00     0.074 A 
ATOM     43  C   UNL A   1      39.943  25.797  28.396  1.00  0.00     0.031 C 
ATOM     44  C   UNL A   1      43.495  30.885  29.394  1.00  0.00     0.029 A 
ATOM     45  C   UNL A   1      42.658  31.664  30.300  1.00  0.00     0.049 A 
ATOM     46  H   UNL A   1      40.625  31.991  29.773  1.00  0.00     0.167 HD
ATOM     47  C   UNL A   1      42.495  25.278  28.270  1.00  0.00     0.034 A 
ATOM     48  C   UNL A   1      42.824  31.823  31.651  1.00  0.00     0.034 A 
ATOM     49  C   UNL A   1      43.683  25.984  28.800  1.00  0.00     0.049 A 
ATOM     50  C   UNL A   1      43.642  30.669  32.230  1.00  0.00     0.074 A 
ATOM     51  C   UNL A   1      44.646  26.815  28.256  1.00  0.00     0.029 A 
ATOM     52  N   UNL A   1      43.816  26.113  30.174  1.00  0.00    -0.354 N 
ATOM     53  N   UNL A   1      44.156  29.690  31.534  1.00  0.00    -0.248 NA
ATOM     54  C   UNL A   1      43.824  30.481  33.666  1.00  0.00     0.031 C 
ATOM     55  C   UNL A   1      45.277  27.523  29.336  1.00  0.00     0.029 A 
ATOM     56  C   UNL A   1      44.734  27.086  30.534  1.00  0.00     0.049 A 
ATOM     57  H   UNL A   1      43.312  25.571  30.824  1.00  0.00     0.167 HD
ATOM     58  C   UNL A   1      44.509  28.672  32.373  1.00  0.00     0.074 A 
ATOM     59  C   UNL A   1      44.316  29.233  33.704  1.00  0.00     0.031 C 
ATOM     60  C   UNL A   1      44.865  27.417  31.955  1.00  0.00     0.034 A 
BRANCH  47  61
ATOM     61  C   UNL A   1      42.612  24.137  27.268  1.00  0.00     0.023 A 
ATOM     62  C   UNL A   1      43.289  24.433  26.062  1.00  0.00     0.012 A 
ATOM     63  C   UNL A   1      42.064  22.832  27.361  1.00  0.00     0.148 A 
ATOM     64  C   UNL A   1      43.391  23.522  25.005  1.00  0.00     0.002 A 
ATOM     65  C   UNL A   1      42.205  21.902  26.321  1.00  0.00     0.091 A 
ATOM     66  F   UNL A   1      41.335  22.479  28.420  1.00  0.00    -0.205 F 
ATOM     67  C   UNL A   1      42.855  22.251  25.136  1.00  0.00     0.022 A 
BRANCH  65  68
ATOM     68  S   UNL A   1      41.567  20.215  26.422  1.00  0.00     0.127 S 
ATOM     69  O   UNL A   1      42.144  19.600  25.226  1.00  0.00    -0.237 OA
ATOM     70  O   UNL A   1      42.134  19.739  27.683  1.00  0.00    -0.237 OA
ATOM     71  O   UNL A   1      40.113  20.326  26.417  1.00  0.00    -0.744 OA
ENDBRANCH  65  68
ENDBRANCH  47  61
BRANCH  48  72
ATOM     72  C   UNL A   1      41.587  32.404  32.324  1.00  0.00     0.023 A 
ATOM     73  C   UNL A   1      41.165  33.706  31.938  1.00  0.00     0.012 A 
ATOM     74  C   UNL A   1      40.634  31.572  32.942  1.00  0.00     0.148 A 
ATOM     75  C   UNL A   1      39.820  34.096  32.038  1.00  0.00     0.002 A 
ATOM     76  C   UNL A   1      39.303  31.978  33.054  1.00  0.00     0.091 A 
ATOM     77  F   UNL A   1      40.979  30.332  33.310  1.00  0.00    -0.205 F 
ATOM     78  C   UNL A   1      38.882  33.222  32.577  1.00  0.00     0.022 A 
BRANCH  76  79
ATOM     79  S   UNL A   1      38.101  30.809  33.699  1.00  0.00     0.127 S 
ATOM     80  O   UNL A   1      36.817  31.404  33.331  1.00  0.00    -0.237 OA
ATOM     81  O   UNL A   1      38.427  29.591  32.966  1.00  0.00    -0.237 OA
ATOM     82  O   UNL A   1      38.383  30.825  35.130  1.00  0.00    -0.744 OA
ENDBRANCH  76  79
ENDBRANCH  48  72
BRANCH  60  83
ATOM     83  C   UNL A   1      45.389  26.390  32.935  1.00  0.00     0.023 A 
ATOM     84  C   UNL A   1      46.739  25.987  32.861  1.00  0.00     0.012 A 
ATOM     85  C   UNL A   1      44.559  25.686  33.839  1.00  0.00     0.148 A 
ATOM     86  C   UNL A   1      47.262  25.000  33.697  1.00  0.00     0.002 A 
ATOM     87  C   UNL A   1      45.052  24.615  34.571  1.00  0.00     0.091 A 
ATOM     88  F   UNL A   1      43.296  26.077  34.037  1.00  0.00    -0.205 F 
ATOM     89  C   UNL A   1      46.412  24.295  34.536  1.00  0.00     0.022 A 
BRANCH  87  90
ATOM     90  S   UNL A   1      43.968  23.496  35.469  1.00  0.00     0.127 S 
ATOM     91  O   UNL A   1      44.859  22.361  35.720  1.00  0.00    -0.237 OA
ATOM     92  O   UNL A   1      43.636  24.285  36.653  1.00  0.00    -0.237 OA
ATOM     93  O   UNL A   1      42.861  23.201  34.571  1.00  0.00    -0.744 OA
ENDBRANCH  87  90
ENDBRANCH  60  83
ENDBRANCH  34  35
ENDBRANCH  27  29
ENDBRANCH  26  27
ENDBRANCH  25  26
ENDBRANCH   1  25
TORSDOF 19
ENDMDL
