MODEL 1
REMARK VINA RESULT:     -12.7      0.000      0.000
REMARK SMILES O=C(CCCN1C(=O)c2ccc3c4c(ccc(c24)C1=O)C(=O)NC3=O)OCCOC(=O)c1ccc(-c2c3nc(c(-c4cccc(S(=O)(=O)[O-])c4F)c4ccc([nH]4)c(-c4cccc(S(=O)(=O)[O-])c4F)c4nc(c(-c5cccc(S(=O)(=O)[O-])c5F)c5ccc2[nH]5)C=C4)C=C3)cc1
REMARK SMILES IDX 27 1 26 2 2 3 1 4 3 5 4 6 5 7 6 8 19 9 7 10 20 11 17 12 9 13
REMARK SMILES IDX 8 14 16 15 18 16 10 17 15 18 13 19 11 20 14 21 12 22 21 23
REMARK SMILES IDX 24 24 23 25 22 26 25 27 28 29 29 30 30 31 31 32 32 33 33 34
REMARK SMILES IDX 94 35 34 36 93 37 35 38 36 39 37 40 87 41 38 42 92 43 86 44
REMARK SMILES IDX 88 45 39 46 91 47 85 48 84 49 40 51 72 52 52 53 71 54 53 55
REMARK SMILES IDX 56 56 70 57 89 58 54 59 55 60 69 62 90 63 57 64 41 65 42 66
REMARK SMILES IDX 50 67 43 68 45 69 51 70 44 71 46 72 47 73 48 74 49 75 73 76
REMARK SMILES IDX 74 77 82 78 75 79 77 80 83 81 76 82 78 83 79 84 80 85 81 86
REMARK SMILES IDX 58 87 59 88 67 89 60 90 62 91 68 92 61 93 63 94 64 95 65 96
REMARK SMILES IDX 66 97
REMARK H PARENT 23 28 88 50 56 61
REMARK Flexibility Score: inf
ROOT
ATOM      1  C   UNL A   1      31.887  31.108  26.620  1.00  0.00     0.274 C 
ENDROOT
BRANCH   1   2
ATOM      2  O   UNL A   1      31.145  30.598  25.501  1.00  0.00    -0.462 OA
BRANCH   2   3
ATOM      3  C   UNL A   1      31.644  29.572  24.760  1.00  0.00     0.305 C 
ATOM      4  O   UNL A   1      32.854  29.445  24.602  1.00  0.00    -0.252 OA
BRANCH   3   5
ATOM      5  C   UNL A   1      30.644  28.708  24.024  1.00  0.00     0.124 C 
BRANCH   5   6
ATOM      6  C   UNL A   1      31.089  27.267  23.800  1.00  0.00     0.034 C 
BRANCH   6   7
ATOM      7  C   UNL A   1      31.331  26.430  25.068  1.00  0.00     0.130 C 
BRANCH   7   8
ATOM      8  N   UNL A   1      32.170  25.223  24.967  1.00  0.00    -0.274 N 
ATOM      9  C   UNL A   1      33.546  25.406  25.143  1.00  0.00     0.261 C 
ATOM     10  C   UNL A   1      31.608  24.017  24.549  1.00  0.00     0.261 C 
ATOM     11  O   UNL A   1      34.075  26.493  25.361  1.00  0.00    -0.269 OA
ATOM     12  C   UNL A   1      34.407  24.203  25.110  1.00  0.00     0.049 A 
ATOM     13  C   UNL A   1      32.482  22.817  24.569  1.00  0.00     0.049 A 
ATOM     14  O   UNL A   1      30.443  23.884  24.195  1.00  0.00    -0.269 OA
ATOM     15  C   UNL A   1      35.778  24.331  25.377  1.00  0.00     0.015 A 
ATOM     16  C   UNL A   1      33.843  22.951  24.856  1.00  0.00     0.009 A 
ATOM     17  C   UNL A   1      31.934  21.552  24.314  1.00  0.00     0.015 A 
ATOM     18  C   UNL A   1      36.596  23.204  25.400  1.00  0.00     0.015 A 
ATOM     19  C   UNL A   1      34.671  21.798  24.887  1.00  0.00     0.009 A 
ATOM     20  C   UNL A   1      32.737  20.413  24.361  1.00  0.00     0.015 A 
ATOM     21  C   UNL A   1      36.041  21.944  25.160  1.00  0.00     0.048 A 
ATOM     22  C   UNL A   1      34.101  20.539  24.645  1.00  0.00     0.048 A 
ATOM     23  C   UNL A   1      36.910  20.745  25.197  1.00  0.00     0.258 C 
ATOM     24  C   UNL A   1      34.960  19.332  24.690  1.00  0.00     0.258 C 
ATOM     25  N   UNL A   1      36.292  19.543  24.961  1.00  0.00    -0.288 N 
ATOM     26  O   UNL A   1      38.109  20.832  25.428  1.00  0.00    -0.269 OA
ATOM     27  O   UNL A   1      34.512  18.211  24.498  1.00  0.00    -0.269 OA
ATOM     28  H   UNL A   1      36.865  18.743  24.989  1.00  0.00     0.173 HD
ENDBRANCH   7   8
ENDBRANCH   6   7
ENDBRANCH   5   6
ENDBRANCH   3   5
ENDBRANCH   2   3
ENDBRANCH   1   2
BRANCH   1  29
ATOM     29  C   UNL A   1      31.668  32.605  26.850  1.00  0.00     0.275 C 
BRANCH  29  30
ATOM     30  O   UNL A   1      32.909  33.325  26.787  1.00  0.00    -0.458 OA
BRANCH  30  31
ATOM     31  C   UNL A   1      33.380  33.737  27.998  1.00  0.00     0.338 C 
ATOM     32  O   UNL A   1      32.833  34.515  28.755  1.00  0.00    -0.246 OA
BRANCH  31  33
ATOM     33  C   UNL A   1      34.605  32.983  28.353  1.00  0.00     0.060 A 
ATOM     34  C   UNL A   1      34.448  31.672  28.822  1.00  0.00     0.016 A 
ATOM     35  C   UNL A   1      35.881  33.541  28.248  1.00  0.00     0.016 A 
ATOM     36  C   UNL A   1      35.560  30.936  29.235  1.00  0.00     0.010 A 
ATOM     37  C   UNL A   1      36.996  32.799  28.651  1.00  0.00     0.010 A 
ATOM     38  C   UNL A   1      36.836  31.510  29.188  1.00  0.00    -0.014 A 
BRANCH  38  39
ATOM     39  C   UNL A   1      37.976  30.848  29.869  1.00  0.00     0.031 A 
ATOM     40  C   UNL A   1      38.293  31.247  31.286  1.00  0.00     0.074 A 
ATOM     41  C   UNL A   1      38.732  29.927  29.246  1.00  0.00     0.049 A 
ATOM     42  N   UNL A   1      39.255  30.836  32.068  1.00  0.00    -0.248 NA
ATOM     43  C   UNL A   1      37.409  32.255  31.897  1.00  0.00     0.031 C 
ATOM     44  C   UNL A   1      38.542  29.464  27.874  1.00  0.00     0.029 A 
ATOM     45  N   UNL A   1      39.836  29.239  29.687  1.00  0.00    -0.354 N 
ATOM     46  C   UNL A   1      39.115  31.554  33.248  1.00  0.00     0.074 A 
ATOM     47  C   UNL A   1      37.985  32.441  33.075  1.00  0.00     0.031 C 
ATOM     48  C   UNL A   1      39.515  28.586  27.574  1.00  0.00     0.029 A 
ATOM     49  C   UNL A   1      40.405  28.438  28.725  1.00  0.00     0.049 A 
ATOM     50  H   UNL A   1      40.186  29.311  30.604  1.00  0.00     0.167 HD
ATOM     51  C   UNL A   1      39.843  31.472  34.386  1.00  0.00     0.034 A 
ATOM     52  C   UNL A   1      41.522  27.684  28.767  1.00  0.00     0.034 A 
ATOM     53  C   UNL A   1      40.945  30.572  34.577  1.00  0.00     0.049 A 
ATOM     54  C   UNL A   1      42.318  27.603  30.046  1.00  0.00     0.074 A 
ATOM     55  C   UNL A   1      41.708  30.375  35.713  1.00  0.00     0.029 A 
ATOM     56  N   UNL A   1      41.447  29.723  33.604  1.00  0.00    -0.354 N 
ATOM     57  N   UNL A   1      42.089  28.184  31.199  1.00  0.00    -0.248 NA
ATOM     58  C   UNL A   1      43.507  26.737  30.041  1.00  0.00     0.031 C 
ATOM     59  C   UNL A   1      42.684  29.415  35.422  1.00  0.00     0.029 A 
ATOM     60  C   UNL A   1      42.515  29.004  34.109  1.00  0.00     0.049 A 
ATOM     61  H   UNL A   1      41.095  29.642  32.688  1.00  0.00     0.167 HD
ATOM     62  C   UNL A   1      43.076  27.723  32.065  1.00  0.00     0.074 A 
ATOM     63  C   UNL A   1      43.902  26.807  31.306  1.00  0.00     0.031 C 
ATOM     64  C   UNL A   1      43.287  28.040  33.367  1.00  0.00     0.034 A 
BRANCH  51  65
ATOM     65  C   UNL A   1      39.437  32.362  35.529  1.00  0.00     0.023 A 
ATOM     66  C   UNL A   1      38.585  31.857  36.533  1.00  0.00     0.012 A 
ATOM     67  C   UNL A   1      39.914  33.683  35.624  1.00  0.00     0.148 A 
ATOM     68  C   UNL A   1      38.185  32.666  37.595  1.00  0.00     0.002 A 
ATOM     69  C   UNL A   1      39.542  34.471  36.707  1.00  0.00     0.091 A 
ATOM     70  F   UNL A   1      40.698  34.155  34.643  1.00  0.00    -0.205 F 
ATOM     71  C   UNL A   1      38.670  33.968  37.687  1.00  0.00     0.022 A 
BRANCH  69  72
ATOM     72  S   UNL A   1      40.176  36.134  36.939  1.00  0.00     0.127 S 
ATOM     73  O   UNL A   1      39.404  36.586  38.096  1.00  0.00    -0.237 OA
ATOM     74  O   UNL A   1      41.594  35.896  37.211  1.00  0.00    -0.237 OA
ATOM     75  O   UNL A   1      39.912  36.833  35.689  1.00  0.00    -0.744 OA
ENDBRANCH  69  72
ENDBRANCH  51  65
BRANCH  52  76
ATOM     76  C   UNL A   1      41.926  26.896  27.568  1.00  0.00     0.023 A 
ATOM     77  C   UNL A   1      42.547  27.551  26.487  1.00  0.00     0.012 A 
ATOM     78  C   UNL A   1      41.724  25.503  27.505  1.00  0.00     0.148 A 
ATOM     79  C   UNL A   1      42.941  26.836  25.355  1.00  0.00     0.002 A 
ATOM     80  C   UNL A   1      42.162  24.790  26.395  1.00  0.00     0.091 A 
ATOM     81  F   UNL A   1      41.116  24.903  28.538  1.00  0.00    -0.205 F 
ATOM     82  C   UNL A   1      42.759  25.456  25.313  1.00  0.00     0.022 A 
BRANCH  80  83
ATOM     83  S   UNL A   1      42.074  22.998  26.299  1.00  0.00     0.127 S 
ATOM     84  O   UNL A   1      42.867  22.597  27.458  1.00  0.00    -0.237 OA
ATOM     85  O   UNL A   1      40.634  22.762  26.427  1.00  0.00    -0.237 OA
ATOM     86  O   UNL A   1      42.630  22.642  25.002  1.00  0.00    -0.744 OA
ENDBRANCH  80  83
ENDBRANCH  52  76
BRANCH  64  87
ATOM     87  C   UNL A   1      44.426  27.370  34.089  1.00  0.00     0.023 A 
ATOM     88  C   UNL A   1      45.710  27.947  34.057  1.00  0.00     0.012 A 
ATOM     89  C   UNL A   1      44.195  26.238  34.898  1.00  0.00     0.148 A 
ATOM     90  C   UNL A   1      46.751  27.399  34.806  1.00  0.00     0.002 A 
ATOM     91  C   UNL A   1      45.226  25.723  35.673  1.00  0.00     0.091 A 
ATOM     92  F   UNL A   1      42.969  25.694  34.900  1.00  0.00    -0.205 F 
ATOM     93  C   UNL A   1      46.506  26.297  35.623  1.00  0.00     0.022 A 
BRANCH  91  94
ATOM     94  S   UNL A   1      44.977  24.369  36.830  1.00  0.00     0.127 S 
ATOM     95  O   UNL A   1      46.277  24.305  37.496  1.00  0.00    -0.237 OA
ATOM     96  O   UNL A   1      43.886  24.870  37.667  1.00  0.00    -0.237 OA
ATOM     97  O   UNL A   1      44.631  23.210  36.019  1.00  0.00    -0.744 OA
ENDBRANCH  91  94
ENDBRANCH  64  87
ENDBRANCH  38  39
ENDBRANCH  31  33
ENDBRANCH  30  31
ENDBRANCH  29  30
ENDBRANCH   1  29
TORSDOF 17
ENDMDL
MODEL 2
REMARK VINA RESULT:     -12.6      4.605     10.594
REMARK SMILES O=C(CCCN1C(=O)c2ccc3c4c(ccc(c24)C1=O)C(=O)NC3=O)OCCOC(=O)c1ccc(-c2c3nc(c(-c4cccc(S(=O)(=O)[O-])c4F)c4ccc([nH]4)c(-c4cccc(S(=O)(=O)[O-])c4F)c4nc(c(-c5cccc(S(=O)(=O)[O-])c5F)c5ccc2[nH]5)C=C4)C=C3)cc1
REMARK SMILES IDX 27 1 26 2 2 3 1 4 3 5 4 6 5 7 6 8 19 9 7 10 20 11 17 12 9 13
REMARK SMILES IDX 8 14 16 15 18 16 10 17 15 18 13 19 11 20 14 21 12 22 21 23
REMARK SMILES IDX 24 24 23 25 22 26 25 27 28 29 29 30 30 31 31 32 32 33 33 34
REMARK SMILES IDX 94 35 34 36 93 37 35 38 36 39 37 40 87 41 38 42 92 43 86 44
REMARK SMILES IDX 88 45 39 46 91 47 85 48 84 49 40 51 72 52 52 53 71 54 53 55
REMARK SMILES IDX 56 56 70 57 89 58 54 59 55 60 69 62 90 63 57 64 41 65 42 66
REMARK SMILES IDX 50 67 43 68 45 69 51 70 44 71 46 72 47 73 48 74 49 75 73 76
REMARK SMILES IDX 74 77 82 78 75 79 77 80 83 81 76 82 78 83 79 84 80 85 81 86
REMARK SMILES IDX 58 87 59 88 67 89 60 90 62 91 68 92 61 93 63 94 64 95 65 96
REMARK SMILES IDX 66 97
REMARK H PARENT 23 28 88 50 56 61
REMARK Flexibility Score: inf
ROOT
ATOM      1  C   UNL A   1      36.645  19.487  24.720  1.00  0.00     0.274 C 
ENDROOT
BRANCH   1   2
ATOM      2  O   UNL A   1      36.003  20.754  24.936  1.00  0.00    -0.462 OA
BRANCH   2   3
ATOM      3  C   UNL A   1      34.657  20.871  24.789  1.00  0.00     0.305 C 
ATOM      4  O   UNL A   1      33.910  19.950  25.103  1.00  0.00    -0.252 OA
BRANCH   3   5
ATOM      5  C   UNL A   1      34.149  22.109  24.082  1.00  0.00     0.124 C 
BRANCH   5   6
ATOM      6  C   UNL A   1      32.645  22.127  23.828  1.00  0.00     0.034 C 
BRANCH   6   7
ATOM      7  C   UNL A   1      31.786  22.801  24.912  1.00  0.00     0.130 C 
BRANCH   7   8
ATOM      8  N   UNL A   1      31.691  24.271  24.924  1.00  0.00    -0.274 N 
ATOM      9  C   UNL A   1      30.836  24.847  23.977  1.00  0.00     0.261 C 
ATOM     10  C   UNL A   1      32.550  25.018  25.730  1.00  0.00     0.261 C 
ATOM     11  O   UNL A   1      30.186  24.206  23.155  1.00  0.00    -0.269 OA
ATOM     12  C   UNL A   1      30.672  26.317  24.007  1.00  0.00     0.049 A 
ATOM     13  C   UNL A   1      32.335  26.486  25.775  1.00  0.00     0.049 A 
ATOM     14  O   UNL A   1      33.445  24.539  26.414  1.00  0.00    -0.269 OA
ATOM     15  C   UNL A   1      29.751  26.924  23.139  1.00  0.00     0.015 A 
ATOM     16  C   UNL A   1      31.400  27.080  24.922  1.00  0.00     0.009 A 
ATOM     17  C   UNL A   1      33.059  27.269  26.686  1.00  0.00     0.015 A 
ATOM     18  C   UNL A   1      29.546  28.301  23.186  1.00  0.00     0.015 A 
ATOM     19  C   UNL A   1      31.189  28.483  24.980  1.00  0.00     0.009 A 
ATOM     20  C   UNL A   1      32.843  28.644  26.761  1.00  0.00     0.015 A 
ATOM     21  C   UNL A   1      30.260  29.073  24.107  1.00  0.00     0.048 A 
ATOM     22  C   UNL A   1      31.912  29.247  25.909  1.00  0.00     0.048 A 
ATOM     23  C   UNL A   1      30.033  30.535  24.164  1.00  0.00     0.258 C 
ATOM     24  C   UNL A   1      31.683  30.709  25.981  1.00  0.00     0.258 C 
ATOM     25  N   UNL A   1      30.763  31.226  25.099  1.00  0.00    -0.288 N 
ATOM     26  O   UNL A   1      29.235  31.088  23.417  1.00  0.00    -0.269 OA
ATOM     27  O   UNL A   1      32.279  31.418  26.779  1.00  0.00    -0.269 OA
ATOM     28  H   UNL A   1      30.611  32.197  25.144  1.00  0.00     0.173 HD
ENDBRANCH   7   8
ENDBRANCH   6   7
ENDBRANCH   5   6
ENDBRANCH   3   5
ENDBRANCH   2   3
ENDBRANCH   1   2
BRANCH   1  29
ATOM     29  C   UNL A   1      38.147  19.520  25.014  1.00  0.00     0.275 C 
BRANCH  29  30
ATOM     30  O   UNL A   1      38.514  20.730  25.696  1.00  0.00    -0.458 OA
BRANCH  30  31
ATOM     31  C   UNL A   1      39.761  20.707  26.245  1.00  0.00     0.338 C 
ATOM     32  O   UNL A   1      40.550  19.783  26.199  1.00  0.00    -0.246 OA
BRANCH  31  33
ATOM     33  C   UNL A   1      40.102  22.040  26.793  1.00  0.00     0.060 A 
ATOM     34  C   UNL A   1      39.463  23.156  26.236  1.00  0.00     0.016 A 
ATOM     35  C   UNL A   1      41.036  22.209  27.819  1.00  0.00     0.016 A 
ATOM     36  C   UNL A   1      39.793  24.443  26.665  1.00  0.00     0.010 A 
ATOM     37  C   UNL A   1      41.358  23.497  28.256  1.00  0.00     0.010 A 
ATOM     38  C   UNL A   1      40.771  24.622  27.651  1.00  0.00    -0.014 A 
BRANCH  38  39
ATOM     39  C   UNL A   1      41.319  25.974  27.918  1.00  0.00     0.031 A 
ATOM     40  C   UNL A   1      42.729  26.275  27.483  1.00  0.00     0.074 A 
ATOM     41  C   UNL A   1      40.598  26.916  28.552  1.00  0.00     0.049 A 
ATOM     42  N   UNL A   1      43.431  27.365  27.639  1.00  0.00    -0.248 NA
ATOM     43  C   UNL A   1      43.445  25.191  26.787  1.00  0.00     0.031 C 
ATOM     44  C   UNL A   1      39.230  26.749  29.038  1.00  0.00     0.029 A 
ATOM     45  N   UNL A   1      40.935  28.195  28.920  1.00  0.00    -0.354 N 
ATOM     46  C   UNL A   1      44.678  27.092  27.091  1.00  0.00     0.074 A 
ATOM     47  C   UNL A   1      44.644  25.727  26.615  1.00  0.00     0.031 C 
ATOM     48  C   UNL A   1      38.854  27.877  29.667  1.00  0.00     0.029 A 
ATOM     49  C   UNL A   1      39.956  28.836  29.641  1.00  0.00     0.049 A 
ATOM     50  H   UNL A   1      41.796  28.613  28.688  1.00  0.00     0.167 HD
ATOM     51  C   UNL A   1      45.751  27.908  26.972  1.00  0.00     0.034 A 
ATOM     52  C   UNL A   1      39.958  30.052  30.225  1.00  0.00     0.034 A 
ATOM     53  C   UNL A   1      45.782  29.273  27.413  1.00  0.00     0.049 A 
ATOM     54  C   UNL A   1      41.164  30.947  30.079  1.00  0.00     0.074 A 
ATOM     55  C   UNL A   1      46.804  30.196  27.285  1.00  0.00     0.029 A 
ATOM     56  N   UNL A   1      44.745  29.912  28.076  1.00  0.00    -0.354 N 
ATOM     57  N   UNL A   1      42.284  30.723  29.436  1.00  0.00    -0.248 NA
ATOM     58  C   UNL A   1      41.092  32.275  30.707  1.00  0.00     0.031 C 
ATOM     59  C   UNL A   1      46.390  31.391  27.884  1.00  0.00     0.029 A 
ATOM     60  C   UNL A   1      45.104  31.215  28.370  1.00  0.00     0.049 A 
ATOM     61  H   UNL A   1      43.880  29.499  28.302  1.00  0.00     0.167 HD
ATOM     62  C   UNL A   1      43.032  31.892  29.547  1.00  0.00     0.074 A 
ATOM     63  C   UNL A   1      42.233  32.826  30.312  1.00  0.00     0.031 C 
ATOM     64  C   UNL A   1      44.272  32.161  29.069  1.00  0.00     0.034 A 
BRANCH  51  65
ATOM     65  C   UNL A   1      46.973  27.343  26.300  1.00  0.00     0.023 A 
ATOM     66  C   UNL A   1      47.143  27.516  24.911  1.00  0.00     0.012 A 
ATOM     67  C   UNL A   1      47.961  26.667  27.040  1.00  0.00     0.148 A 
ATOM     68  C   UNL A   1      48.260  26.991  24.263  1.00  0.00     0.002 A 
ATOM     69  C   UNL A   1      49.092  26.181  26.394  1.00  0.00     0.091 A 
ATOM     70  F   UNL A   1      47.767  26.486  28.355  1.00  0.00    -0.205 F 
ATOM     71  C   UNL A   1      49.237  26.333  25.004  1.00  0.00     0.022 A 
BRANCH  69  72
ATOM     72  S   UNL A   1      50.431  25.383  27.283  1.00  0.00     0.127 S 
ATOM     73  O   UNL A   1      50.810  26.420  28.241  1.00  0.00    -0.237 OA
ATOM     74  O   UNL A   1      49.766  24.221  27.877  1.00  0.00    -0.237 OA
ATOM     75  O   UNL A   1      51.430  25.054  26.277  1.00  0.00    -0.744 OA
ENDBRANCH  69  72
ENDBRANCH  51  65
BRANCH  52  76
ATOM     76  C   UNL A   1      38.748  30.519  30.961  1.00  0.00     0.023 A 
ATOM     77  C   UNL A   1      38.672  30.335  32.355  1.00  0.00     0.012 A 
ATOM     78  C   UNL A   1      37.691  31.167  30.293  1.00  0.00     0.148 A 
ATOM     79  C   UNL A   1      37.554  30.768  33.069  1.00  0.00     0.002 A 
ATOM     80  C   UNL A   1      36.602  31.640  31.018  1.00  0.00     0.091 A 
ATOM     81  F   UNL A   1      37.777  31.318  28.964  1.00  0.00    -0.205 F 
ATOM     82  C   UNL A   1      36.525  31.429  32.403  1.00  0.00     0.022 A 
BRANCH  80  83
ATOM     83  S   UNL A   1      35.283  32.601  30.266  1.00  0.00     0.127 S 
ATOM     84  O   UNL A   1      34.880  31.740  29.157  1.00  0.00    -0.237 OA
ATOM     85  O   UNL A   1      34.315  32.690  31.361  1.00  0.00    -0.237 OA
ATOM     86  O   UNL A   1      35.885  33.872  29.889  1.00  0.00    -0.744 OA
ENDBRANCH  80  83
ENDBRANCH  52  76
BRANCH  64  87
ATOM     87  C   UNL A   1      44.847  33.532  29.310  1.00  0.00     0.023 A 
ATOM     88  C   UNL A   1      45.528  33.803  30.513  1.00  0.00     0.012 A 
ATOM     89  C   UNL A   1      44.818  34.510  28.295  1.00  0.00     0.148 A 
ATOM     90  C   UNL A   1      46.157  35.033  30.708  1.00  0.00     0.002 A 
ATOM     91  C   UNL A   1      45.483  35.716  28.480  1.00  0.00     0.091 A 
ATOM     92  F   UNL A   1      44.150  34.238  27.164  1.00  0.00    -0.205 F 
ATOM     93  C   UNL A   1      46.147  35.982  29.688  1.00  0.00     0.022 A 
BRANCH  91  94
ATOM     94  S   UNL A   1      45.607  36.956  27.184  1.00  0.00     0.127 S 
ATOM     95  O   UNL A   1      44.203  37.308  26.974  1.00  0.00    -0.237 OA
ATOM     96  O   UNL A   1      46.408  38.000  27.824  1.00  0.00    -0.237 OA
ATOM     97  O   UNL A   1      46.262  36.297  26.062  1.00  0.00    -0.744 OA
ENDBRANCH  91  94
ENDBRANCH  64  87
ENDBRANCH  38  39
ENDBRANCH  31  33
ENDBRANCH  30  31
ENDBRANCH  29  30
ENDBRANCH   1  29
TORSDOF 17
ENDMDL
MODEL 3
REMARK VINA RESULT:     -12.1      5.079      8.726
REMARK SMILES O=C(CCCN1C(=O)c2ccc3c4c(ccc(c24)C1=O)C(=O)NC3=O)OCCOC(=O)c1ccc(-c2c3nc(c(-c4cccc(S(=O)(=O)[O-])c4F)c4ccc([nH]4)c(-c4cccc(S(=O)(=O)[O-])c4F)c4nc(c(-c5cccc(S(=O)(=O)[O-])c5F)c5ccc2[nH]5)C=C4)C=C3)cc1
REMARK SMILES IDX 27 1 26 2 2 3 1 4 3 5 4 6 5 7 6 8 19 9 7 10 20 11 17 12 9 13
REMARK SMILES IDX 8 14 16 15 18 16 10 17 15 18 13 19 11 20 14 21 12 22 21 23
REMARK SMILES IDX 24 24 23 25 22 26 25 27 28 29 29 30 30 31 31 32 32 33 33 34
REMARK SMILES IDX 94 35 34 36 93 37 35 38 36 39 37 40 87 41 38 42 92 43 86 44
REMARK SMILES IDX 88 45 39 46 91 47 85 48 84 49 40 51 72 52 52 53 71 54 53 55
REMARK SMILES IDX 56 56 70 57 89 58 54 59 55 60 69 62 90 63 57 64 41 65 42 66
REMARK SMILES IDX 50 67 43 68 45 69 51 70 44 71 46 72 47 73 48 74 49 75 73 76
REMARK SMILES IDX 74 77 82 78 75 79 77 80 83 81 76 82 78 83 79 84 80 85 81 86
REMARK SMILES IDX 58 87 59 88 67 89 60 90 62 91 68 92 61 93 63 94 64 95 65 96
REMARK SMILES IDX 66 97
REMARK H PARENT 23 28 88 50 56 61
REMARK Flexibility Score: inf
ROOT
ATOM      1  C   UNL A   1      35.674  20.086  24.847  1.00  0.00     0.274 C 
ENDROOT
BRANCH   1   2
ATOM      2  O   UNL A   1      35.333  21.463  25.071  1.00  0.00    -0.462 OA
BRANCH   2   3
ATOM      3  C   UNL A   1      34.845  22.221  24.053  1.00  0.00     0.305 C 
ATOM      4  O   UNL A   1      35.583  22.967  23.419  1.00  0.00    -0.252 OA
BRANCH   3   5
ATOM      5  C   UNL A   1      33.345  22.216  23.852  1.00  0.00     0.124 C 
BRANCH   5   6
ATOM      6  C   UNL A   1      32.529  22.131  25.137  1.00  0.00     0.034 C 
BRANCH   6   7
ATOM      7  C   UNL A   1      31.175  22.862  25.127  1.00  0.00     0.130 C 
BRANCH   7   8
ATOM      8  N   UNL A   1      31.171  24.335  25.094  1.00  0.00    -0.274 N 
ATOM      9  C   UNL A   1      30.490  24.931  24.027  1.00  0.00     0.261 C 
ATOM     10  C   UNL A   1      31.955  25.054  25.996  1.00  0.00     0.261 C 
ATOM     11  O   UNL A   1      29.921  24.306  23.136  1.00  0.00    -0.269 OA
ATOM     12  C   UNL A   1      30.415  26.409  24.002  1.00  0.00     0.049 A 
ATOM     13  C   UNL A   1      31.826  26.533  25.981  1.00  0.00     0.049 A 
ATOM     14  O   UNL A   1      32.717  24.544  26.808  1.00  0.00    -0.269 OA
ATOM     15  C   UNL A   1      29.661  27.043  23.003  1.00  0.00     0.015 A 
ATOM     16  C   UNL A   1      31.056  27.155  24.994  1.00  0.00     0.009 A 
ATOM     17  C   UNL A   1      32.466  27.298  26.966  1.00  0.00     0.015 A 
ATOM     18  C   UNL A   1      29.537  28.430  22.992  1.00  0.00     0.015 A 
ATOM     19  C   UNL A   1      30.926  28.569  24.992  1.00  0.00     0.009 A 
ATOM     20  C   UNL A   1      32.326  28.686  26.982  1.00  0.00     0.015 A 
ATOM     21  C   UNL A   1      30.164  29.186  23.987  1.00  0.00     0.048 A 
ATOM     22  C   UNL A   1      31.560  29.316  25.997  1.00  0.00     0.048 A 
ATOM     23  C   UNL A   1      30.020  30.660  23.982  1.00  0.00     0.258 C 
ATOM     24  C   UNL A   1      31.414  30.791  26.006  1.00  0.00     0.258 C 
ATOM     25  N   UNL A   1      30.657  31.334  24.994  1.00  0.00    -0.288 N 
ATOM     26  O   UNL A   1      29.368  31.236  23.120  1.00  0.00    -0.269 OA
ATOM     27  O   UNL A   1      31.936  31.487  26.864  1.00  0.00    -0.269 OA
ATOM     28  H   UNL A   1      30.560  32.314  24.997  1.00  0.00     0.173 HD
ENDBRANCH   7   8
ENDBRANCH   6   7
ENDBRANCH   5   6
ENDBRANCH   3   5
ENDBRANCH   2   3
ENDBRANCH   1   2
BRANCH   1  29
ATOM     29  C   UNL A   1      37.171  19.808  25.003  1.00  0.00     0.275 C 
BRANCH  29  30
ATOM     30  O   UNL A   1      37.882  20.998  25.378  1.00  0.00    -0.458 OA
BRANCH  30  31
ATOM     31  C   UNL A   1      39.104  20.769  25.935  1.00  0.00     0.338 C 
ATOM     32  O   UNL A   1      39.736  19.732  25.879  1.00  0.00    -0.246 OA
BRANCH  31  33
ATOM     33  C   UNL A   1      39.649  22.022  26.507  1.00  0.00     0.060 A 
ATOM     34  C   UNL A   1      39.064  23.230  26.102  1.00  0.00     0.016 A 
ATOM     35  C   UNL A   1      40.716  22.030  27.408  1.00  0.00     0.016 A 
ATOM     36  C   UNL A   1      39.577  24.446  26.556  1.00  0.00     0.010 A 
ATOM     37  C   UNL A   1      41.223  23.247  27.871  1.00  0.00     0.010 A 
ATOM     38  C   UNL A   1      40.684  24.463  27.412  1.00  0.00    -0.014 A 
BRANCH  38  39
ATOM     39  C   UNL A   1      41.399  25.735  27.680  1.00  0.00     0.031 A 
ATOM     40  C   UNL A   1      40.663  26.832  28.400  1.00  0.00     0.074 A 
ATOM     41  C   UNL A   1      42.668  25.929  27.278  1.00  0.00     0.049 A 
ATOM     42  N   UNL A   1      41.065  28.035  28.712  1.00  0.00    -0.248 NA
ATOM     43  C   UNL A   1      39.281  26.533  28.814  1.00  0.00     0.031 C 
ATOM     44  C   UNL A   1      43.486  24.956  26.559  1.00  0.00     0.029 A 
ATOM     45  N   UNL A   1      43.478  27.033  27.396  1.00  0.00    -0.354 N 
ATOM     46  C   UNL A   1      39.981  28.647  29.329  1.00  0.00     0.074 A 
ATOM     47  C   UNL A   1      38.897  27.690  29.331  1.00  0.00     0.031 C 
ATOM     48  C   UNL A   1      44.676  25.516  26.274  1.00  0.00     0.029 A 
ATOM     49  C   UNL A   1      44.696  26.889  26.776  1.00  0.00     0.049 A 
ATOM     50  H   UNL A   1      43.211  27.848  27.879  1.00  0.00     0.167 HD
ATOM     51  C   UNL A   1      39.897  29.886  29.867  1.00  0.00     0.034 A 
ATOM     52  C   UNL A   1      45.704  27.771  26.620  1.00  0.00     0.034 A 
ATOM     53  C   UNL A   1      40.978  30.829  29.897  1.00  0.00     0.049 A 
ATOM     54  C   UNL A   1      45.592  29.147  27.230  1.00  0.00     0.074 A 
ATOM     55  C   UNL A   1      41.006  32.088  30.470  1.00  0.00     0.029 A 
ATOM     56  N   UNL A   1      42.222  30.622  29.323  1.00  0.00    -0.354 N 
ATOM     57  N   UNL A   1      44.610  29.660  27.932  1.00  0.00    -0.248 NA
ATOM     58  C   UNL A   1      46.739  30.052  27.057  1.00  0.00     0.031 C 
ATOM     59  C   UNL A   1      42.266  32.649  30.229  1.00  0.00     0.029 A 
ATOM     60  C   UNL A   1      43.025  31.731  29.520  1.00  0.00     0.049 A 
ATOM     61  H   UNL A   1      42.495  29.805  28.845  1.00  0.00     0.167 HD
ATOM     62  C   UNL A   1      45.036  30.928  28.318  1.00  0.00     0.074 A 
ATOM     63  C   UNL A   1      46.369  31.102  27.779  1.00  0.00     0.031 C 
ATOM     64  C   UNL A   1      44.377  31.866  29.042  1.00  0.00     0.034 A 
BRANCH  51  65
ATOM     65  C   UNL A   1      38.589  30.273  30.503  1.00  0.00     0.023 A 
ATOM     66  C   UNL A   1      38.313  29.864  31.824  1.00  0.00     0.012 A 
ATOM     67  C   UNL A   1      37.649  31.056  29.808  1.00  0.00     0.148 A 
ATOM     68  C   UNL A   1      37.103  30.198  32.430  1.00  0.00     0.002 A 
ATOM     69  C   UNL A   1      36.462  31.419  30.434  1.00  0.00     0.091 A 
ATOM     70  F   UNL A   1      37.916  31.408  28.542  1.00  0.00    -0.205 F 
ATOM     71  C   UNL A   1      36.183  30.982  31.740  1.00  0.00     0.022 A 
BRANCH  69  72
ATOM     72  S   UNL A   1      35.253  32.484  29.642  1.00  0.00     0.127 S 
ATOM     73  O   UNL A   1      34.592  31.553  28.729  1.00  0.00    -0.237 OA
ATOM     74  O   UNL A   1      34.428  32.918  30.771  1.00  0.00    -0.237 OA
ATOM     75  O   UNL A   1      36.020  33.551  29.014  1.00  0.00    -0.744 OA
ENDBRANCH  69  72
ENDBRANCH  51  65
BRANCH  52  76
ATOM     76  C   UNL A   1      46.941  27.359  25.896  1.00  0.00     0.023 A 
ATOM     77  C   UNL A   1      47.924  26.615  26.576  1.00  0.00     0.012 A 
ATOM     78  C   UNL A   1      47.133  27.675  24.538  1.00  0.00     0.148 A 
ATOM     79  C   UNL A   1      49.088  26.211  25.920  1.00  0.00     0.002 A 
ATOM     80  C   UNL A   1      48.273  27.228  23.878  1.00  0.00     0.091 A 
ATOM     81  F   UNL A   1      46.192  28.399  23.914  1.00  0.00    -0.205 F 
ATOM     82  C   UNL A   1      49.258  26.508  24.570  1.00  0.00     0.022 A 
BRANCH  80  83
ATOM     83  S   UNL A   1      48.526  27.464  22.114  1.00  0.00     0.127 S 
ATOM     84  O   UNL A   1      48.653  26.088  21.644  1.00  0.00    -0.237 OA
ATOM     85  O   UNL A   1      47.286  28.137  21.721  1.00  0.00    -0.237 OA
ATOM     86  O   UNL A   1      49.722  28.285  21.992  1.00  0.00    -0.744 OA
ENDBRANCH  80  83
ENDBRANCH  52  76
BRANCH  64  87
ATOM     87  C   UNL A   1      45.085  33.161  29.345  1.00  0.00     0.023 A 
ATOM     88  C   UNL A   1      45.909  33.256  30.483  1.00  0.00     0.012 A 
ATOM     89  C   UNL A   1      45.030  34.238  28.437  1.00  0.00     0.148 A 
ATOM     90  C   UNL A   1      46.655  34.411  30.722  1.00  0.00     0.002 A 
ATOM     91  C   UNL A   1      45.808  35.368  28.660  1.00  0.00     0.091 A 
ATOM     92  F   UNL A   1      44.225  34.133  27.370  1.00  0.00    -0.205 F 
ATOM     93  C   UNL A   1      46.615  35.459  29.805  1.00  0.00     0.022 A 
BRANCH  91  94
ATOM     94  S   UNL A   1      45.895  36.723  27.482  1.00  0.00     0.127 S 
ATOM     95  O   UNL A   1      46.484  36.066  26.316  1.00  0.00    -0.237 OA
ATOM     96  O   UNL A   1      44.488  37.095  27.327  1.00  0.00    -0.237 OA
ATOM     97  O   UNL A   1      46.722  37.745  28.110  1.00  0.00    -0.744 OA
ENDBRANCH  91  94
ENDBRANCH  64  87
ENDBRANCH  38  39
ENDBRANCH  31  33
ENDBRANCH  30  31
ENDBRANCH  29  30
ENDBRANCH   1  29
TORSDOF 17
ENDMDL
