MODEL 1
REMARK VINA RESULT:     -12.0      0.000      0.000
REMARK SMILES CC(C)CSc1cc2c(cc1Cl)C=C(C(=O)OCCOC(=O)c1ccc(-c3c4nc(c(-c5cccc(S(=O)(=O)[O-])c5F)c5ccc([nH]5)c(-c5cccc(S(=O)(=O)[O-])c5F)c5nc(c(-c6cccc(S(=O)(=O)[O-])c6F)c6ccc3[nH]6)C=C5)C=C4)cc1)[C@H](C(F)(F)F)O2
REMARK SMILES IDX 18 1 17 2 15 3 16 4 14 5 6 6 7 7 11 8 8 9 10 10 12 11 9 12
REMARK SMILES IDX 91 13 13 14 86 15 5 16 4 17 2 18 1 19 3 20 87 21 88 22 89 23
REMARK SMILES IDX 90 24 19 25 20 26 21 27 22 28 23 29 24 30 85 31 25 32 84 33
REMARK SMILES IDX 26 34 27 35 28 36 78 37 29 38 83 39 77 40 79 41 30 42 82 43
REMARK SMILES IDX 76 44 75 45 31 47 63 48 43 49 62 50 44 51 47 52 61 53 80 54
REMARK SMILES IDX 45 55 46 56 60 58 81 59 48 60 32 61 33 62 41 63 34 64 36 65
REMARK SMILES IDX 42 66 35 67 37 68 38 69 39 70 40 71 64 72 65 73 73 74 66 75
REMARK SMILES IDX 68 76 74 77 67 78 69 79 70 80 71 81 72 82 49 83 50 84 58 85
REMARK SMILES IDX 51 86 53 87 59 88 52 89 54 90 55 91 56 92 57 93
REMARK H PARENT 79 46 47 57
REMARK Flexibility Score: inf
ROOT
ATOM      1  C   UNL A   1      31.527  29.688  24.893  1.00  0.00     0.275 C 
ENDROOT
BRANCH   1   2
ATOM      2  O   UNL A   1      32.850  29.112  24.962  1.00  0.00    -0.459 OA
BRANCH   2   3
ATOM      3  C   UNL A   1      33.382  28.681  23.798  1.00  0.00     0.338 C 
ATOM      4  O   UNL A   1      33.848  29.382  22.917  1.00  0.00    -0.246 OA
BRANCH   3   5
ATOM      5  C   UNL A   1      33.436  27.206  23.776  1.00  0.00     0.087 C 
ATOM      6  C   UNL A   1      34.437  22.435  24.989  1.00  0.00     0.030 A 
ATOM      7  C   UNL A   1      34.393  23.147  23.768  1.00  0.00     0.063 A 
ATOM      8  C   UNL A   1      33.985  23.080  26.153  1.00  0.00     0.055 A 
ATOM      9  C   UNL A   1      34.042  24.494  23.738  1.00  0.00     0.129 A 
ATOM     10  C   UNL A   1      33.739  24.453  26.135  1.00  0.00     0.033 A 
ATOM     11  Cl  UNL A   1      33.669  22.273  27.644  1.00  0.00    -0.083 Cl
ATOM     12  C   UNL A   1      33.825  25.160  24.938  1.00  0.00     0.019 A 
ATOM     13  O   UNL A   1      34.000  25.146  22.531  1.00  0.00    -0.475 OA
ATOM     14  C   UNL A   1      33.765  26.604  24.924  1.00  0.00     0.027 C 
ATOM     15  C   UNL A   1      33.251  26.417  22.509  1.00  0.00     0.316 C 
BRANCH   6  16
ATOM     16  S   UNL A   1      35.112  20.777  24.884  1.00  0.00    -0.124 SA
BRANCH  16  17
ATOM     17  C   UNL A   1      33.786  19.680  25.549  1.00  0.00     0.078 C 
BRANCH  17  18
ATOM     18  C   UNL A   1      32.517  19.448  24.705  1.00  0.00    -0.007 C 
ATOM     19  C   UNL A   1      32.581  19.989  23.277  1.00  0.00     0.008 C 
ATOM     20  C   UNL A   1      32.252  17.936  24.632  1.00  0.00     0.008 C 
ENDBRANCH  17  18
ENDBRANCH  16  17
ENDBRANCH   6  16
BRANCH  15  21
ATOM     21  C   UNL A   1      31.788  26.170  22.099  1.00  0.00     0.430 C 
ATOM     22  F   UNL A   1      31.113  25.413  22.987  1.00  0.00    -0.167 F 
ATOM     23  F   UNL A   1      31.104  27.325  21.931  1.00  0.00    -0.167 F 
ATOM     24  F   UNL A   1      31.733  25.532  20.900  1.00  0.00    -0.167 F 
ENDBRANCH  15  21
ENDBRANCH   3   5
ENDBRANCH   2   3
ENDBRANCH   1   2
BRANCH   1  25
ATOM     25  C   UNL A   1      31.393  30.854  25.876  1.00  0.00     0.275 C 
BRANCH  25  26
ATOM     26  O   UNL A   1      32.375  30.741  26.923  1.00  0.00    -0.458 OA
BRANCH  26  27
ATOM     27  C   UNL A   1      33.052  31.874  27.212  1.00  0.00     0.338 C 
ATOM     28  O   UNL A   1      32.626  33.017  27.192  1.00  0.00    -0.246 OA
BRANCH  27  29
ATOM     29  C   UNL A   1      34.387  31.523  27.715  1.00  0.00     0.060 A 
ATOM     30  C   UNL A   1      35.353  32.480  27.997  1.00  0.00     0.016 A 
ATOM     31  C   UNL A   1      34.618  30.189  28.026  1.00  0.00     0.016 A 
ATOM     32  C   UNL A   1      36.556  32.075  28.594  1.00  0.00     0.010 A 
ATOM     33  C   UNL A   1      35.752  29.807  28.735  1.00  0.00     0.010 A 
ATOM     34  C   UNL A   1      36.758  30.739  29.006  1.00  0.00    -0.014 A 
BRANCH  34  35
ATOM     35  C   UNL A   1      37.994  30.314  29.726  1.00  0.00     0.031 A 
ATOM     36  C   UNL A   1      38.280  30.774  31.139  1.00  0.00     0.074 A 
ATOM     37  C   UNL A   1      38.912  29.561  29.084  1.00  0.00     0.049 A 
ATOM     38  N   UNL A   1      39.313  30.503  31.898  1.00  0.00    -0.248 NA
ATOM     39  C   UNL A   1      37.309  31.683  31.772  1.00  0.00     0.031 C 
ATOM     40  C   UNL A   1      38.839  29.151  27.679  1.00  0.00     0.029 A 
ATOM     41  N   UNL A   1      40.088  29.004  29.526  1.00  0.00    -0.354 N 
ATOM     42  C   UNL A   1      39.141  31.244  33.063  1.00  0.00     0.074 A 
ATOM     43  C   UNL A   1      37.924  32.006  32.902  1.00  0.00     0.031 C 
ATOM     44  C   UNL A   1      39.886  28.361  27.393  1.00  0.00     0.029 A 
ATOM     45  C   UNL A   1      40.722  28.229  28.582  1.00  0.00     0.049 A 
ATOM     46  H   UNL A   1      40.444  29.148  30.433  1.00  0.00     0.167 HD
ATOM     47  C   UNL A   1      39.897  31.258  34.186  1.00  0.00     0.034 A 
ATOM     48  C   UNL A   1      41.837  27.475  28.663  1.00  0.00     0.034 A 
ATOM     49  C   UNL A   1      41.046  30.421  34.396  1.00  0.00     0.049 A 
ATOM     50  C   UNL A   1      42.582  27.398  29.964  1.00  0.00     0.074 A 
ATOM     51  C   UNL A   1      41.804  30.278  35.546  1.00  0.00     0.029 A 
ATOM     52  N   UNL A   1      41.587  29.570  33.449  1.00  0.00    -0.354 N 
ATOM     53  N   UNL A   1      42.320  28.002  31.096  1.00  0.00    -0.248 NA
ATOM     54  C   UNL A   1      43.758  26.515  30.011  1.00  0.00     0.031 C 
ATOM     55  C   UNL A   1      42.800  29.330  35.295  1.00  0.00     0.029 A 
ATOM     56  C   UNL A   1      42.660  28.885  33.991  1.00  0.00     0.049 A 
ATOM     57  H   UNL A   1      41.259  29.468  32.526  1.00  0.00     0.167 HD
ATOM     58  C   UNL A   1      43.280  27.558  31.996  1.00  0.00     0.074 A 
ATOM     59  C   UNL A   1      44.124  26.621  31.283  1.00  0.00     0.031 C 
ATOM     60  C   UNL A   1      43.454  27.911  33.292  1.00  0.00     0.034 A 
BRANCH  47  61
ATOM     61  C   UNL A   1      39.450  32.125  35.335  1.00  0.00     0.023 A 
ATOM     62  C   UNL A   1      38.626  31.563  36.331  1.00  0.00     0.012 A 
ATOM     63  C   UNL A   1      39.926  33.441  35.488  1.00  0.00     0.148 A 
ATOM     64  C   UNL A   1      38.264  32.304  37.454  1.00  0.00     0.002 A 
ATOM     65  C   UNL A   1      39.588  34.164  36.628  1.00  0.00     0.091 A 
ATOM     66  F   UNL A   1      40.703  33.957  34.525  1.00  0.00    -0.205 F 
ATOM     67  C   UNL A   1      38.752  33.599  37.608  1.00  0.00     0.022 A 
BRANCH  65  68
ATOM     68  S   UNL A   1      40.210  35.816  36.960  1.00  0.00     0.127 S 
ATOM     69  O   UNL A   1      39.673  36.567  35.826  1.00  0.00    -0.237 OA
ATOM     70  O   UNL A   1      39.586  36.125  38.246  1.00  0.00    -0.237 OA
ATOM     71  O   UNL A   1      41.661  35.703  36.994  1.00  0.00    -0.744 OA
ENDBRANCH  65  68
ENDBRANCH  47  61
BRANCH  48  72
ATOM     72  C   UNL A   1      42.228  26.636  27.498  1.00  0.00     0.023 A 
ATOM     73  C   UNL A   1      43.055  27.198  26.504  1.00  0.00     0.012 A 
ATOM     74  C   UNL A   1      41.870  25.278  27.411  1.00  0.00     0.148 A 
ATOM     75  C   UNL A   1      43.514  26.423  25.440  1.00  0.00     0.002 A 
ATOM     76  C   UNL A   1      42.362  24.501  26.369  1.00  0.00     0.091 A 
ATOM     77  F   UNL A   1      41.082  24.770  28.369  1.00  0.00    -0.205 F 
ATOM     78  C   UNL A   1      43.177  25.074  25.378  1.00  0.00     0.022 A 
BRANCH  76  79
ATOM     79  S   UNL A   1      42.078  22.731  26.258  1.00  0.00     0.127 S 
ATOM     80  O   UNL A   1      40.619  22.660  26.305  1.00  0.00    -0.237 OA
ATOM     81  O   UNL A   1      42.669  22.416  24.957  1.00  0.00    -0.237 OA
ATOM     82  O   UNL A   1      42.772  22.146  27.397  1.00  0.00    -0.744 OA
ENDBRANCH  76  79
ENDBRANCH  48  72
BRANCH  60  83
ATOM     83  C   UNL A   1      44.583  27.281  34.056  1.00  0.00     0.023 A 
ATOM     84  C   UNL A   1      45.840  27.918  34.076  1.00  0.00     0.012 A 
ATOM     85  C   UNL A   1      44.361  26.149  34.862  1.00  0.00     0.148 A 
ATOM     86  C   UNL A   1      46.862  27.432  34.889  1.00  0.00     0.002 A 
ATOM     87  C   UNL A   1      45.375  25.689  35.693  1.00  0.00     0.091 A 
ATOM     88  F   UNL A   1      43.157  25.560  34.815  1.00  0.00    -0.205 F 
ATOM     89  C   UNL A   1      46.627  26.327  35.706  1.00  0.00     0.022 A 
BRANCH  87  90
ATOM     90  S   UNL A   1      45.144  24.323  36.837  1.00  0.00     0.127 S 
ATOM     91  O   UNL A   1      46.496  24.145  37.365  1.00  0.00    -0.237 OA
ATOM     92  O   UNL A   1      44.185  24.879  37.792  1.00  0.00    -0.237 OA
ATOM     93  O   UNL A   1      44.636  23.212  36.045  1.00  0.00    -0.744 OA
ENDBRANCH  87  90
ENDBRANCH  60  83
ENDBRANCH  34  35
ENDBRANCH  27  29
ENDBRANCH  26  27
ENDBRANCH  25  26
ENDBRANCH   1  25
TORSDOF 18
ENDMDL
MODEL 2
REMARK VINA RESULT:     -11.3      1.557      2.048
REMARK SMILES CC(C)CSc1cc2c(cc1Cl)C=C(C(=O)OCCOC(=O)c1ccc(-c3c4nc(c(-c5cccc(S(=O)(=O)[O-])c5F)c5ccc([nH]5)c(-c5cccc(S(=O)(=O)[O-])c5F)c5nc(c(-c6cccc(S(=O)(=O)[O-])c6F)c6ccc3[nH]6)C=C5)C=C4)cc1)[C@H](C(F)(F)F)O2
REMARK SMILES IDX 18 1 17 2 15 3 16 4 14 5 6 6 7 7 11 8 8 9 10 10 12 11 9 12
REMARK SMILES IDX 91 13 13 14 86 15 5 16 4 17 2 18 1 19 3 20 87 21 88 22 89 23
REMARK SMILES IDX 90 24 19 25 20 26 21 27 22 28 23 29 24 30 85 31 25 32 84 33
REMARK SMILES IDX 26 34 27 35 28 36 78 37 29 38 83 39 77 40 79 41 30 42 82 43
REMARK SMILES IDX 76 44 75 45 31 47 63 48 43 49 62 50 44 51 47 52 61 53 80 54
REMARK SMILES IDX 45 55 46 56 60 58 81 59 48 60 32 61 33 62 41 63 34 64 36 65
REMARK SMILES IDX 42 66 35 67 37 68 38 69 39 70 40 71 64 72 65 73 73 74 66 75
REMARK SMILES IDX 68 76 74 77 67 78 69 79 70 80 71 81 72 82 49 83 50 84 58 85
REMARK SMILES IDX 51 86 53 87 59 88 52 89 54 90 55 91 56 92 57 93
REMARK H PARENT 79 46 47 57
REMARK Flexibility Score: inf
ROOT
ATOM      1  C   UNL A   1      32.001  30.223  26.522  1.00  0.00     0.275 C 
ENDROOT
BRANCH   1   2
ATOM      2  O   UNL A   1      31.983  30.230  25.078  1.00  0.00    -0.459 OA
BRANCH   2   3
ATOM      3  C   UNL A   1      31.209  29.299  24.479  1.00  0.00     0.338 C 
ATOM      4  O   UNL A   1      30.237  29.516  23.777  1.00  0.00    -0.246 OA
BRANCH   3   5
ATOM      5  C   UNL A   1      31.772  27.953  24.692  1.00  0.00     0.087 C 
ATOM      6  C   UNL A   1      32.605  23.347  26.520  1.00  0.00     0.030 A 
ATOM      7  C   UNL A   1      33.448  24.389  26.069  1.00  0.00     0.063 A 
ATOM      8  C   UNL A   1      31.219  23.480  26.327  1.00  0.00     0.055 A 
ATOM      9  C   UNL A   1      32.914  25.576  25.572  1.00  0.00     0.129 A 
ATOM     10  C   UNL A   1      30.688  24.707  25.930  1.00  0.00     0.033 A 
ATOM     11  Cl  UNL A   1      30.089  22.191  26.516  1.00  0.00    -0.083 Cl
ATOM     12  C   UNL A   1      31.537  25.763  25.610  1.00  0.00     0.019 A 
ATOM     13  O   UNL A   1      33.766  26.559  25.133  1.00  0.00    -0.475 OA
ATOM     14  C   UNL A   1      31.016  27.092  25.384  1.00  0.00     0.027 C 
ATOM     15  C   UNL A   1      33.168  27.591  24.266  1.00  0.00     0.316 C 
BRANCH   6  16
ATOM     16  S   UNL A   1      33.441  21.982  27.327  1.00  0.00    -0.124 SA
BRANCH  16  17
ATOM     17  C   UNL A   1      34.500  21.231  26.016  1.00  0.00     0.078 C 
BRANCH  17  18
ATOM     18  C   UNL A   1      33.848  20.300  24.973  1.00  0.00    -0.007 C 
ATOM     19  C   UNL A   1      32.881  19.265  25.544  1.00  0.00     0.008 C 
ATOM     20  C   UNL A   1      33.079  21.167  23.963  1.00  0.00     0.008 C 
ENDBRANCH  17  18
ENDBRANCH  16  17
ENDBRANCH   6  16
BRANCH  15  21
ATOM     21  C   UNL A   1      33.321  27.201  22.784  1.00  0.00     0.430 C 
ATOM     22  F   UNL A   1      33.979  26.038  22.612  1.00  0.00    -0.167 F 
ATOM     23  F   UNL A   1      32.125  27.101  22.158  1.00  0.00    -0.167 F 
ATOM     24  F   UNL A   1      34.009  28.160  22.110  1.00  0.00    -0.167 F 
ENDBRANCH  15  21
ENDBRANCH   3   5
ENDBRANCH   2   3
ENDBRANCH   1   2
BRANCH   1  25
ATOM     25  C   UNL A   1      31.957  31.651  27.071  1.00  0.00     0.275 C 
BRANCH  25  26
ATOM     26  O   UNL A   1      33.200  32.328  26.808  1.00  0.00    -0.458 OA
BRANCH  26  27
ATOM     27  C   UNL A   1      33.698  33.052  27.835  1.00  0.00     0.338 C 
ATOM     28  O   UNL A   1      33.145  33.956  28.440  1.00  0.00    -0.246 OA
BRANCH  27  29
ATOM     29  C   UNL A   1      34.994  32.490  28.238  1.00  0.00     0.060 A 
ATOM     30  C   UNL A   1      36.161  33.244  28.256  1.00  0.00     0.016 A 
ATOM     31  C   UNL A   1      34.997  31.192  28.734  1.00  0.00     0.016 A 
ATOM     32  C   UNL A   1      37.331  32.670  28.774  1.00  0.00     0.010 A 
ATOM     33  C   UNL A   1      36.121  30.672  29.367  1.00  0.00     0.010 A 
ATOM     34  C   UNL A   1      37.319  31.391  29.372  1.00  0.00    -0.014 A 
BRANCH  34  35
ATOM     35  C   UNL A   1      38.535  30.808  30.012  1.00  0.00     0.031 A 
ATOM     36  C   UNL A   1      38.999  31.260  31.379  1.00  0.00     0.074 A 
ATOM     37  C   UNL A   1      39.279  29.909  29.332  1.00  0.00     0.049 A 
ATOM     38  N   UNL A   1      40.041  30.861  32.067  1.00  0.00    -0.248 NA
ATOM     39  C   UNL A   1      38.226  32.320  32.048  1.00  0.00     0.031 C 
ATOM     40  C   UNL A   1      39.033  29.475  27.954  1.00  0.00     0.029 A 
ATOM     41  N   UNL A   1      40.394  29.198  29.703  1.00  0.00    -0.354 N 
ATOM     42  C   UNL A   1      40.074  31.651  33.211  1.00  0.00     0.074 A 
ATOM     43  C   UNL A   1      38.971  32.580  33.114  1.00  0.00     0.031 C 
ATOM     44  C   UNL A   1      39.927  28.532  27.620  1.00  0.00     0.029 A 
ATOM     45  C   UNL A   1      40.830  28.312  28.746  1.00  0.00     0.049 A 
ATOM     46  H   UNL A   1      40.840  29.312  30.574  1.00  0.00     0.167 HD
ATOM     47  C   UNL A   1      40.912  31.584  34.272  1.00  0.00     0.034 A 
ATOM     48  C   UNL A   1      41.826  27.403  28.770  1.00  0.00     0.034 A 
ATOM     49  C   UNL A   1      41.941  30.594  34.426  1.00  0.00     0.049 A 
ATOM     50  C   UNL A   1      42.656  27.253  30.013  1.00  0.00     0.074 A 
ATOM     51  C   UNL A   1      42.762  30.372  35.519  1.00  0.00     0.029 A 
ATOM     52  N   UNL A   1      42.275  29.646  33.475  1.00  0.00    -0.354 N 
ATOM     53  N   UNL A   1      42.578  27.921  31.137  1.00  0.00    -0.248 NA
ATOM     54  C   UNL A   1      43.691  26.208  30.005  1.00  0.00     0.031 C 
ATOM     55  C   UNL A   1      43.586  29.281  35.231  1.00  0.00     0.029 A 
ATOM     56  C   UNL A   1      43.277  28.825  33.960  1.00  0.00     0.049 A 
ATOM     57  H   UNL A   1      41.861  29.568  32.585  1.00  0.00     0.167 HD
ATOM     58  C   UNL A   1      43.533  27.365  31.978  1.00  0.00     0.074 A 
ATOM     59  C   UNL A   1      44.171  26.294  31.239  1.00  0.00     0.031 C 
ATOM     60  C   UNL A   1      43.862  27.725  33.241  1.00  0.00     0.034 A 
BRANCH  47  61
ATOM     61  C   UNL A   1      40.692  32.540  35.416  1.00  0.00     0.023 A 
ATOM     62  C   UNL A   1      41.411  33.752  35.439  1.00  0.00     0.012 A 
ATOM     63  C   UNL A   1      39.710  32.297  36.396  1.00  0.00     0.148 A 
ATOM     64  C   UNL A   1      41.172  34.700  36.431  1.00  0.00     0.002 A 
ATOM     65  C   UNL A   1      39.453  33.264  37.363  1.00  0.00     0.091 A 
ATOM     66  F   UNL A   1      39.042  31.135  36.358  1.00  0.00    -0.205 F 
ATOM     67  C   UNL A   1      40.187  34.462  37.385  1.00  0.00     0.022 A 
BRANCH  65  68
ATOM     68  S   UNL A   1      38.164  33.089  38.603  1.00  0.00     0.127 S 
ATOM     69  O   UNL A   1      38.706  32.021  39.443  1.00  0.00    -0.237 OA
ATOM     70  O   UNL A   1      38.159  34.411  39.227  1.00  0.00    -0.237 OA
ATOM     71  O   UNL A   1      36.948  32.748  37.878  1.00  0.00    -0.744 OA
ENDBRANCH  65  68
ENDBRANCH  47  61
BRANCH  48  72
ATOM     72  C   UNL A   1      41.995  26.483  27.613  1.00  0.00     0.023 A 
ATOM     73  C   UNL A   1      42.795  26.896  26.530  1.00  0.00     0.012 A 
ATOM     74  C   UNL A   1      41.454  25.185  27.616  1.00  0.00     0.148 A 
ATOM     75  C   UNL A   1      43.049  26.034  25.464  1.00  0.00     0.002 A 
ATOM     76  C   UNL A   1      41.741  24.316  26.570  1.00  0.00     0.091 A 
ATOM     77  F   UNL A   1      40.696  24.818  28.659  1.00  0.00    -0.205 F 
ATOM     78  C   UNL A   1      42.532  24.742  25.489  1.00  0.00     0.022 A 
BRANCH  76  79
ATOM     79  S   UNL A   1      41.216  22.599  26.559  1.00  0.00     0.127 S 
ATOM     80  O   UNL A   1      41.895  22.087  25.370  1.00  0.00    -0.237 OA
ATOM     81  O   UNL A   1      41.752  22.114  27.831  1.00  0.00    -0.237 OA
ATOM     82  O   UNL A   1      39.762  22.630  26.485  1.00  0.00    -0.744 OA
ENDBRANCH  76  79
ENDBRANCH  48  72
BRANCH  60  83
ATOM     83  C   UNL A   1      44.946  26.957  33.942  1.00  0.00     0.023 A 
ATOM     84  C   UNL A   1      46.270  27.434  33.890  1.00  0.00     0.012 A 
ATOM     85  C   UNL A   1      44.632  25.855  34.760  1.00  0.00     0.148 A 
ATOM     86  C   UNL A   1      47.269  26.821  34.644  1.00  0.00     0.002 A 
ATOM     87  C   UNL A   1      45.627  25.270  35.533  1.00  0.00     0.091 A 
ATOM     88  F   UNL A   1      43.364  25.419  34.782  1.00  0.00    -0.205 F 
ATOM     89  C   UNL A   1      46.946  25.749  35.474  1.00  0.00     0.022 A 
BRANCH  87  90
ATOM     90  S   UNL A   1      45.294  23.936  36.690  1.00  0.00     0.127 S 
ATOM     91  O   UNL A   1      44.326  24.559  37.591  1.00  0.00    -0.237 OA
ATOM     92  O   UNL A   1      44.738  22.902  35.817  1.00  0.00    -0.237 OA
ATOM     93  O   UNL A   1      46.575  23.596  37.294  1.00  0.00    -0.744 OA
ENDBRANCH  87  90
ENDBRANCH  60  83
ENDBRANCH  34  35
ENDBRANCH  27  29
ENDBRANCH  26  27
ENDBRANCH  25  26
ENDBRANCH   1  25
TORSDOF 18
ENDMDL
MODEL 3
REMARK VINA RESULT:     -11.3      1.831      2.199
REMARK SMILES CC(C)CSc1cc2c(cc1Cl)C=C(C(=O)OCCOC(=O)c1ccc(-c3c4nc(c(-c5cccc(S(=O)(=O)[O-])c5F)c5ccc([nH]5)c(-c5cccc(S(=O)(=O)[O-])c5F)c5nc(c(-c6cccc(S(=O)(=O)[O-])c6F)c6ccc3[nH]6)C=C5)C=C4)cc1)[C@H](C(F)(F)F)O2
REMARK SMILES IDX 18 1 17 2 15 3 16 4 14 5 6 6 7 7 11 8 8 9 10 10 12 11 9 12
REMARK SMILES IDX 91 13 13 14 86 15 5 16 4 17 2 18 1 19 3 20 87 21 88 22 89 23
REMARK SMILES IDX 90 24 19 25 20 26 21 27 22 28 23 29 24 30 85 31 25 32 84 33
REMARK SMILES IDX 26 34 27 35 28 36 78 37 29 38 83 39 77 40 79 41 30 42 82 43
REMARK SMILES IDX 76 44 75 45 31 47 63 48 43 49 62 50 44 51 47 52 61 53 80 54
REMARK SMILES IDX 45 55 46 56 60 58 81 59 48 60 32 61 33 62 41 63 34 64 36 65
REMARK SMILES IDX 42 66 35 67 37 68 38 69 39 70 40 71 64 72 65 73 73 74 66 75
REMARK SMILES IDX 68 76 74 77 67 78 69 79 70 80 71 81 72 82 49 83 50 84 58 85
REMARK SMILES IDX 51 86 53 87 59 88 52 89 54 90 55 91 56 92 57 93
REMARK H PARENT 79 46 47 57
REMARK Flexibility Score: inf
ROOT
ATOM      1  C   UNL A   1      32.341  29.179  25.390  1.00  0.00     0.275 C 
ENDROOT
BRANCH   1   2
ATOM      2  O   UNL A   1      33.669  28.739  25.028  1.00  0.00    -0.459 OA
BRANCH   2   3
ATOM      3  C   UNL A   1      33.818  28.227  23.788  1.00  0.00     0.338 C 
ATOM      4  O   UNL A   1      34.164  28.841  22.794  1.00  0.00    -0.246 OA
BRANCH   3   5
ATOM      5  C   UNL A   1      33.616  26.766  23.810  1.00  0.00     0.087 C 
ATOM      6  C   UNL A   1      33.971  21.903  25.021  1.00  0.00     0.030 A 
ATOM      7  C   UNL A   1      33.853  22.602  23.797  1.00  0.00     0.063 A 
ATOM      8  C   UNL A   1      33.828  22.626  26.218  1.00  0.00     0.055 A 
ATOM      9  C   UNL A   1      33.737  23.989  23.775  1.00  0.00     0.129 A 
ATOM     10  C   UNL A   1      33.820  24.020  26.190  1.00  0.00     0.033 A 
ATOM     11  Cl  UNL A   1      33.622  21.899  27.768  1.00  0.00    -0.083 Cl
ATOM     12  C   UNL A   1      33.832  24.692  24.970  1.00  0.00     0.019 A 
ATOM     13  O   UNL A   1      33.613  24.629  22.566  1.00  0.00    -0.475 OA
ATOM     14  C   UNL A   1      34.017  26.125  24.914  1.00  0.00     0.027 C 
ATOM     15  C   UNL A   1      33.099  26.010  22.617  1.00  0.00     0.316 C 
BRANCH   6  16
ATOM     16  S   UNL A   1      34.328  20.152  24.871  1.00  0.00    -0.124 SA
BRANCH  16  17
ATOM     17  C   UNL A   1      32.839  19.431  24.054  1.00  0.00     0.078 C 
BRANCH  17  18
ATOM     18  C   UNL A   1      32.703  17.897  23.973  1.00  0.00    -0.007 C 
ATOM     19  C   UNL A   1      33.879  17.176  23.315  1.00  0.00     0.008 C 
ATOM     20  C   UNL A   1      32.543  17.349  25.400  1.00  0.00     0.008 C 
ENDBRANCH  17  18
ENDBRANCH  16  17
ENDBRANCH   6  16
BRANCH  15  21
ATOM     21  C   UNL A   1      31.568  26.018  22.450  1.00  0.00     0.430 C 
ATOM     22  F   UNL A   1      31.043  24.780  22.357  1.00  0.00    -0.167 F 
ATOM     23  F   UNL A   1      30.947  26.659  23.467  1.00  0.00    -0.167 F 
ATOM     24  F   UNL A   1      31.218  26.692  21.323  1.00  0.00    -0.167 F 
ENDBRANCH  15  21
ENDBRANCH   3   5
ENDBRANCH   2   3
ENDBRANCH   1   2
BRANCH   1  25
ATOM     25  C   UNL A   1      32.409  30.382  26.334  1.00  0.00     0.275 C 
BRANCH  25  26
ATOM     26  O   UNL A   1      33.445  30.191  27.315  1.00  0.00    -0.458 OA
BRANCH  26  27
ATOM     27  C   UNL A   1      34.156  31.295  27.635  1.00  0.00     0.338 C 
ATOM     28  O   UNL A   1      33.778  32.454  27.602  1.00  0.00    -0.246 OA
BRANCH  27  29
ATOM     29  C   UNL A   1      35.454  30.888  28.188  1.00  0.00     0.060 A 
ATOM     30  C   UNL A   1      36.581  31.698  28.119  1.00  0.00     0.016 A 
ATOM     31  C   UNL A   1      35.494  29.702  28.911  1.00  0.00     0.016 A 
ATOM     32  C   UNL A   1      37.749  31.294  28.782  1.00  0.00     0.010 A 
ATOM     33  C   UNL A   1      36.607  29.368  29.675  1.00  0.00     0.010 A 
ATOM     34  C   UNL A   1      37.768  30.143  29.601  1.00  0.00    -0.014 A 
BRANCH  34  35
ATOM     35  C   UNL A   1      38.975  29.754  30.387  1.00  0.00     0.031 A 
ATOM     36  C   UNL A   1      39.249  30.343  31.754  1.00  0.00     0.074 A 
ATOM     37  C   UNL A   1      39.881  28.913  29.843  1.00  0.00     0.049 A 
ATOM     38  N   UNL A   1      40.258  30.118  32.559  1.00  0.00    -0.248 NA
ATOM     39  C   UNL A   1      38.297  31.340  32.272  1.00  0.00     0.031 C 
ATOM     40  C   UNL A   1      39.821  28.368  28.484  1.00  0.00     0.029 A 
ATOM     41  N   UNL A   1      41.030  28.367  30.364  1.00  0.00    -0.354 N 
ATOM     42  C   UNL A   1      40.088  30.976  33.640  1.00  0.00     0.074 A 
ATOM     43  C   UNL A   1      38.900  31.755  33.377  1.00  0.00     0.031 C 
ATOM     44  C   UNL A   1      40.847  27.522  28.302  1.00  0.00     0.029 A 
ATOM     45  C   UNL A   1      41.656  27.483  29.516  1.00  0.00     0.049 A 
ATOM     46  H   UNL A   1      41.373  28.590  31.260  1.00  0.00     0.167 HD
ATOM     47  C   UNL A   1      40.822  31.078  34.773  1.00  0.00     0.034 A 
ATOM     48  C   UNL A   1      42.743  26.707  29.695  1.00  0.00     0.034 A 
ATOM     49  C   UNL A   1      41.939  30.232  35.091  1.00  0.00     0.049 A 
ATOM     50  C   UNL A   1      43.461  26.737  31.015  1.00  0.00     0.074 A 
ATOM     51  C   UNL A   1      42.670  30.181  36.265  1.00  0.00     0.029 A 
ATOM     52  N   UNL A   1      42.471  29.275  34.245  1.00  0.00    -0.354 N 
ATOM     53  N   UNL A   1      43.197  27.459  32.075  1.00  0.00    -0.248 NA
ATOM     54  C   UNL A   1      44.605  25.827  31.175  1.00  0.00     0.031 C 
ATOM     55  C   UNL A   1      43.639  29.183  36.132  1.00  0.00     0.029 A 
ATOM     56  C   UNL A   1      43.509  28.614  34.875  1.00  0.00     0.049 A 
ATOM     57  H   UNL A   1      42.157  29.092  33.329  1.00  0.00     0.167 HD
ATOM     58  C   UNL A   1      44.124  27.077  33.036  1.00  0.00     0.074 A 
ATOM     59  C   UNL A   1      44.950  26.048  32.438  1.00  0.00     0.031 C 
ATOM     60  C   UNL A   1      44.285  27.552  34.294  1.00  0.00     0.034 A 
BRANCH  47  61
ATOM     61  C   UNL A   1      40.383  32.069  35.820  1.00  0.00     0.023 A 
ATOM     62  C   UNL A   1      41.011  33.330  35.871  1.00  0.00     0.012 A 
ATOM     63  C   UNL A   1      39.292  31.802  36.670  1.00  0.00     0.148 A 
ATOM     64  C   UNL A   1      40.574  34.305  36.765  1.00  0.00     0.002 A 
ATOM     65  C   UNL A   1      38.840  32.793  37.537  1.00  0.00     0.091 A 
ATOM     66  F   UNL A   1      38.714  30.594  36.610  1.00  0.00    -0.205 F 
ATOM     67  C   UNL A   1      39.484  34.041  37.589  1.00  0.00     0.022 A 
BRANCH  65  68
ATOM     68  S   UNL A   1      37.406  32.583  38.599  1.00  0.00     0.127 S 
ATOM     69  O   UNL A   1      37.745  33.453  39.726  1.00  0.00    -0.237 OA
ATOM     70  O   UNL A   1      36.323  33.079  37.751  1.00  0.00    -0.237 OA
ATOM     71  O   UNL A   1      37.338  31.163  38.913  1.00  0.00    -0.744 OA
ENDBRANCH  65  68
ENDBRANCH  47  61
BRANCH  48  72
ATOM     72  C   UNL A   1      43.130  25.745  28.629  1.00  0.00     0.023 A 
ATOM     73  C   UNL A   1      42.365  24.573  28.461  1.00  0.00     0.012 A 
ATOM     74  C   UNL A   1      44.178  26.018  27.731  1.00  0.00     0.148 A 
ATOM     75  C   UNL A   1      42.641  23.686  27.421  1.00  0.00     0.002 A 
ATOM     76  C   UNL A   1      44.424  25.151  26.674  1.00  0.00     0.091 A 
ATOM     77  F   UNL A   1      44.890  27.139  27.914  1.00  0.00    -0.205 F 
ATOM     78  C   UNL A   1      43.661  23.980  26.522  1.00  0.00     0.022 A 
BRANCH  76  79
ATOM     79  S   UNL A   1      45.642  25.491  25.398  1.00  0.00     0.127 S 
ATOM     80  O   UNL A   1      45.386  24.412  24.446  1.00  0.00    -0.237 OA
ATOM     81  O   UNL A   1      45.236  26.822  24.945  1.00  0.00    -0.237 OA
ATOM     82  O   UNL A   1      46.936  25.445  26.065  1.00  0.00    -0.744 OA
ENDBRANCH  76  79
ENDBRANCH  48  72
BRANCH  60  83
ATOM     83  C   UNL A   1      45.378  26.967  35.142  1.00  0.00     0.023 A 
ATOM     84  C   UNL A   1      46.629  27.612  35.193  1.00  0.00     0.012 A 
ATOM     85  C   UNL A   1      45.122  25.873  35.989  1.00  0.00     0.148 A 
ATOM     86  C   UNL A   1      47.612  27.172  36.077  1.00  0.00     0.002 A 
ATOM     87  C   UNL A   1      46.095  25.460  36.890  1.00  0.00     0.091 A 
ATOM     88  F   UNL A   1      43.924  25.274  35.912  1.00  0.00    -0.205 F 
ATOM     89  C   UNL A   1      47.342  26.106  36.933  1.00  0.00     0.022 A 
BRANCH  87  90
ATOM     90  S   UNL A   1      45.815  24.149  38.086  1.00  0.00     0.127 S 
ATOM     91  O   UNL A   1      47.112  24.074  38.755  1.00  0.00    -0.237 OA
ATOM     92  O   UNL A   1      44.736  24.703  38.905  1.00  0.00    -0.237 OA
ATOM     93  O   UNL A   1      45.446  22.970  37.315  1.00  0.00    -0.744 OA
ENDBRANCH  87  90
ENDBRANCH  60  83
ENDBRANCH  34  35
ENDBRANCH  27  29
ENDBRANCH  26  27
ENDBRANCH  25  26
ENDBRANCH   1  25
TORSDOF 18
ENDMDL
