MODEL 1
REMARK VINA RESULT:     -12.3      0.000      0.000
REMARK SMILES Cc1ccc(Nc2c(Cl)cc(Cl)cc2Cl)c(CC(=O)OCCOC(=O)c2ccc(-c3c4nc(c(-c5cccc(S(=O)(=O)[O-])c5F)c5ccc([nH]5)c(-c5cccc(S(=O)(=O)[O-])c5F)c5nc(c(-c6cccc(S(=O)(=O)[O-])c6F)c6ccc3[nH]6)C=C5)C=C4)cc2)c1
REMARK SMILES IDX 21 1 20 2 18 3 19 4 17 5 16 6 1 7 2 8 3 9 89 10 4 11 5 12
REMARK SMILES IDX 6 13 7 15 8 16 14 17 9 18 10 19 13 20 15 21 11 22 12 23
REMARK SMILES IDX 22 24 23 25 24 26 25 27 26 28 27 29 88 30 28 31 87 32 29 33
REMARK SMILES IDX 30 34 31 35 81 36 32 37 86 38 80 39 82 40 33 41 85 42 79 43
REMARK SMILES IDX 78 44 34 46 66 47 46 48 65 49 47 50 50 51 64 52 83 53 48 54
REMARK SMILES IDX 49 55 63 57 84 58 51 59 35 60 36 61 44 62 37 63 39 64 45 65
REMARK SMILES IDX 38 66 40 67 41 68 42 69 43 70 67 71 68 72 76 73 69 74 71 75
REMARK SMILES IDX 77 76 70 77 72 78 73 79 74 80 75 81 52 82 53 83 61 84 54 85
REMARK SMILES IDX 56 86 62 87 55 88 57 89 58 90 59 91 60 92
REMARK H PARENT 6 14 82 45 50 56
REMARK Flexibility Score: inf
ROOT
ATOM      1  C   UNL A   1      32.669  29.539  26.785  1.00  0.00     0.274 C 
ENDROOT
BRANCH   1   2
ATOM      2  O   UNL A   1      32.952  28.246  27.292  1.00  0.00    -0.462 OA
BRANCH   2   3
ATOM      3  C   UNL A   1      32.570  27.188  26.536  1.00  0.00     0.310 C 
ATOM      4  O   UNL A   1      31.416  26.849  26.388  1.00  0.00    -0.252 OA
BRANCH   3   5
ATOM      5  C   UNL A   1      33.823  26.615  25.910  1.00  0.00     0.160 C 
BRANCH   5   6
ATOM      6  C   UNL A   1      33.682  25.239  25.323  1.00  0.00    -0.013 A 
ATOM      7  C   UNL A   1      34.529  21.954  26.961  1.00  0.00     0.044 C 
ATOM      8  C   UNL A   1      34.160  22.937  25.897  1.00  0.00    -0.051 A 
ATOM      9  C   UNL A   1      34.353  22.683  24.542  1.00  0.00     0.005 A 
ATOM     10  C   UNL A   1      33.786  24.214  26.276  1.00  0.00     0.009 A 
ATOM     11  C   UNL A   1      34.050  23.661  23.584  1.00  0.00     0.026 A 
ATOM     12  C   UNL A   1      33.605  24.934  23.948  1.00  0.00     0.042 A 
BRANCH  12  13
ATOM     13  N   UNL A   1      33.247  25.892  22.974  1.00  0.00    -0.353 N 
ATOM     14  H   UNL A   1      33.849  25.927  22.196  1.00  0.00     0.167 HD
BRANCH  13  15
ATOM     15  C   UNL A   1      32.161  26.816  22.925  1.00  0.00     0.076 A 
ATOM     16  C   UNL A   1      30.812  26.433  23.094  1.00  0.00     0.067 A 
ATOM     17  C   UNL A   1      32.415  28.209  22.903  1.00  0.00     0.067 A 
ATOM     18  Cl  UNL A   1      30.321  24.782  23.273  1.00  0.00    -0.082 Cl
ATOM     19  C   UNL A   1      29.781  27.386  23.133  1.00  0.00     0.043 A 
ATOM     20  C   UNL A   1      31.396  29.159  23.035  1.00  0.00     0.043 A 
ATOM     21  Cl  UNL A   1      33.971  28.867  22.556  1.00  0.00    -0.082 Cl
ATOM     22  C   UNL A   1      30.080  28.741  23.114  1.00  0.00     0.044 A 
ATOM     23  Cl  UNL A   1      28.820  29.913  23.151  1.00  0.00    -0.084 Cl
ENDBRANCH  13  15
ENDBRANCH  12  13
ENDBRANCH   5   6
ENDBRANCH   3   5
ENDBRANCH   2   3
ENDBRANCH   1   2
BRANCH   1  24
ATOM     24  C   UNL A   1      33.724  30.628  27.092  1.00  0.00     0.275 C 
BRANCH  24  25
ATOM     25  O   UNL A   1      34.965  30.368  27.862  1.00  0.00    -0.458 OA
BRANCH  25  26
ATOM     26  C   UNL A   1      36.180  30.938  28.115  1.00  0.00     0.338 C 
ATOM     27  O   UNL A   1      36.298  32.154  28.180  1.00  0.00    -0.246 OA
BRANCH  26  28
ATOM     28  C   UNL A   1      37.289  30.068  28.502  1.00  0.00     0.060 A 
ATOM     29  C   UNL A   1      37.267  29.119  29.539  1.00  0.00     0.016 A 
ATOM     30  C   UNL A   1      38.345  30.100  27.643  1.00  0.00     0.016 A 
ATOM     31  C   UNL A   1      38.318  28.193  29.624  1.00  0.00     0.010 A 
ATOM     32  C   UNL A   1      39.011  28.937  27.445  1.00  0.00     0.010 A 
ATOM     33  C   UNL A   1      39.203  28.137  28.555  1.00  0.00    -0.014 A 
BRANCH  33  34
ATOM     34  C   UNL A   1      40.553  27.598  28.507  1.00  0.00     0.031 A 
ATOM     35  C   UNL A   1      40.798  26.187  28.253  1.00  0.00     0.074 A 
ATOM     36  C   UNL A   1      41.505  28.571  28.449  1.00  0.00     0.049 A 
ATOM     37  N   UNL A   1      41.766  25.540  28.792  1.00  0.00    -0.248 NA
ATOM     38  C   UNL A   1      39.975  25.382  27.351  1.00  0.00     0.031 C 
ATOM     39  C   UNL A   1      42.886  28.578  28.016  1.00  0.00     0.029 A 
ATOM     40  N   UNL A   1      41.293  29.919  28.798  1.00  0.00    -0.354 N 
ATOM     41  C   UNL A   1      41.909  24.389  28.051  1.00  0.00     0.074 A 
ATOM     42  C   UNL A   1      40.681  24.244  27.301  1.00  0.00     0.031 C 
ATOM     43  C   UNL A   1      43.452  29.741  28.422  1.00  0.00     0.029 A 
ATOM     44  C   UNL A   1      42.479  30.454  29.250  1.00  0.00     0.049 A 
ATOM     45  H   UNL A   1      40.437  30.402  28.728  1.00  0.00     0.167 HD
ATOM     46  C   UNL A   1      43.151  23.848  27.908  1.00  0.00     0.034 A 
ATOM     47  C   UNL A   1      42.515  30.743  30.584  1.00  0.00     0.034 A 
ATOM     48  C   UNL A   1      44.158  24.772  28.459  1.00  0.00     0.049 A 
ATOM     49  C   UNL A   1      43.457  29.804  31.286  1.00  0.00     0.074 A 
ATOM     50  C   UNL A   1      44.954  25.727  27.845  1.00  0.00     0.029 A 
ATOM     51  N   UNL A   1      44.182  25.063  29.818  1.00  0.00    -0.354 N 
ATOM     52  N   UNL A   1      43.929  28.719  30.745  1.00  0.00    -0.248 NA
ATOM     53  C   UNL A   1      43.932  30.010  32.645  1.00  0.00     0.031 C 
ATOM     54  C   UNL A   1      45.410  26.632  28.840  1.00  0.00     0.029 A 
ATOM     55  C   UNL A   1      44.897  26.229  30.062  1.00  0.00     0.049 A 
ATOM     56  H   UNL A   1      43.751  24.516  30.514  1.00  0.00     0.167 HD
ATOM     57  C   UNL A   1      44.630  28.011  31.670  1.00  0.00     0.074 A 
ATOM     58  C   UNL A   1      44.683  28.907  32.817  1.00  0.00     0.031 C 
ATOM     59  C   UNL A   1      45.040  26.730  31.428  1.00  0.00     0.034 A 
BRANCH  46  60
ATOM     60  C   UNL A   1      43.500  22.731  26.945  1.00  0.00     0.023 A 
ATOM     61  C   UNL A   1      44.393  23.036  25.893  1.00  0.00     0.012 A 
ATOM     62  C   UNL A   1      43.045  21.392  27.014  1.00  0.00     0.148 A 
ATOM     63  C   UNL A   1      44.764  22.106  24.922  1.00  0.00     0.002 A 
ATOM     64  C   UNL A   1      43.389  20.466  26.020  1.00  0.00     0.091 A 
ATOM     65  F   UNL A   1      42.320  20.997  28.070  1.00  0.00    -0.205 F 
ATOM     66  C   UNL A   1      44.247  20.824  24.973  1.00  0.00     0.022 A 
BRANCH  64  67
ATOM     67  S   UNL A   1      42.730  18.790  25.962  1.00  0.00     0.127 S 
ATOM     68  O   UNL A   1      41.321  19.023  25.630  1.00  0.00    -0.237 OA
ATOM     69  O   UNL A   1      43.510  18.180  24.887  1.00  0.00    -0.237 OA
ATOM     70  O   UNL A   1      42.939  18.232  27.292  1.00  0.00    -0.744 OA
ENDBRANCH  64  67
ENDBRANCH  46  60
BRANCH  47  71
ATOM     71  C   UNL A   1      41.178  31.197  31.148  1.00  0.00     0.023 A 
ATOM     72  C   UNL A   1      40.590  32.375  30.613  1.00  0.00     0.012 A 
ATOM     73  C   UNL A   1      40.364  30.373  31.952  1.00  0.00     0.148 A 
ATOM     74  C   UNL A   1      39.229  32.665  30.788  1.00  0.00     0.002 A 
ATOM     75  C   UNL A   1      39.016  30.691  32.156  1.00  0.00     0.091 A 
ATOM     76  F   UNL A   1      40.882  29.252  32.473  1.00  0.00    -0.205 F 
ATOM     77  C   UNL A   1      38.436  31.814  31.548  1.00  0.00     0.022 A 
BRANCH  75  78
ATOM     78  S   UNL A   1      38.003  29.673  33.243  1.00  0.00     0.127 S 
ATOM     79  O   UNL A   1      38.400  28.308  32.890  1.00  0.00    -0.237 OA
ATOM     80  O   UNL A   1      38.410  30.083  34.581  1.00  0.00    -0.237 OA
ATOM     81  O   UNL A   1      36.649  30.025  32.831  1.00  0.00    -0.744 OA
ENDBRANCH  75  78
ENDBRANCH  47  71
BRANCH  59  82
ATOM     82  C   UNL A   1      45.617  25.817  32.478  1.00  0.00     0.023 A 
ATOM     83  C   UNL A   1      47.002  25.655  32.652  1.00  0.00     0.012 A 
ATOM     84  C   UNL A   1      44.770  25.193  33.426  1.00  0.00     0.148 A 
ATOM     85  C   UNL A   1      47.524  24.837  33.656  1.00  0.00     0.002 A 
ATOM     86  C   UNL A   1      45.299  24.504  34.506  1.00  0.00     0.091 A 
ATOM     87  F   UNL A   1      43.438  25.246  33.278  1.00  0.00    -0.205 F 
ATOM     88  C   UNL A   1      46.673  24.281  34.600  1.00  0.00     0.022 A 
BRANCH  86  89
ATOM     89  S   UNL A   1      44.260  24.032  35.892  1.00  0.00     0.127 S 
ATOM     90  O   UNL A   1      43.383  23.035  35.283  1.00  0.00    -0.237 OA
ATOM     91  O   UNL A   1      45.234  23.491  36.841  1.00  0.00    -0.237 OA
ATOM     92  O   UNL A   1      43.623  25.267  36.330  1.00  0.00    -0.744 OA
ENDBRANCH  86  89
ENDBRANCH  59  82
ENDBRANCH  33  34
ENDBRANCH  26  28
ENDBRANCH  25  26
ENDBRANCH  24  25
ENDBRANCH   1  24
TORSDOF 17
ENDMDL
MODEL 2
REMARK VINA RESULT:     -12.3      1.605      2.102
REMARK SMILES Cc1ccc(Nc2c(Cl)cc(Cl)cc2Cl)c(CC(=O)OCCOC(=O)c2ccc(-c3c4nc(c(-c5cccc(S(=O)(=O)[O-])c5F)c5ccc([nH]5)c(-c5cccc(S(=O)(=O)[O-])c5F)c5nc(c(-c6cccc(S(=O)(=O)[O-])c6F)c6ccc3[nH]6)C=C5)C=C4)cc2)c1
REMARK SMILES IDX 21 1 20 2 18 3 19 4 17 5 16 6 1 7 2 8 3 9 89 10 4 11 5 12
REMARK SMILES IDX 6 13 7 15 8 16 14 17 9 18 10 19 13 20 15 21 11 22 12 23
REMARK SMILES IDX 22 24 23 25 24 26 25 27 26 28 27 29 88 30 28 31 87 32 29 33
REMARK SMILES IDX 30 34 31 35 81 36 32 37 86 38 80 39 82 40 33 41 85 42 79 43
REMARK SMILES IDX 78 44 34 46 66 47 46 48 65 49 47 50 50 51 64 52 83 53 48 54
REMARK SMILES IDX 49 55 63 57 84 58 51 59 35 60 36 61 44 62 37 63 39 64 45 65
REMARK SMILES IDX 38 66 40 67 41 68 42 69 43 70 67 71 68 72 76 73 69 74 71 75
REMARK SMILES IDX 77 76 70 77 72 78 73 79 74 80 75 81 52 82 53 83 61 84 54 85
REMARK SMILES IDX 56 86 62 87 55 88 57 89 58 90 59 91 60 92
REMARK H PARENT 6 14 82 45 50 56
REMARK Flexibility Score: inf
ROOT
ATOM      1  C   UNL A   1      33.950  28.792  26.233  1.00  0.00     0.274 C 
ENDROOT
BRANCH   1   2
ATOM      2  O   UNL A   1      32.647  28.242  26.336  1.00  0.00    -0.462 OA
BRANCH   2   3
ATOM      3  C   UNL A   1      32.549  26.892  26.409  1.00  0.00     0.310 C 
ATOM      4  O   UNL A   1      31.558  26.310  26.793  1.00  0.00    -0.252 OA
BRANCH   3   5
ATOM      5  C   UNL A   1      33.844  26.323  25.870  1.00  0.00     0.160 C 
BRANCH   5   6
ATOM      6  C   UNL A   1      33.743  24.957  25.255  1.00  0.00    -0.013 A 
ATOM      7  C   UNL A   1      34.612  21.657  26.853  1.00  0.00     0.044 C 
ATOM      8  C   UNL A   1      34.251  22.654  25.798  1.00  0.00    -0.051 A 
ATOM      9  C   UNL A   1      34.481  22.428  24.444  1.00  0.00     0.005 A 
ATOM     10  C   UNL A   1      33.843  23.916  26.191  1.00  0.00     0.009 A 
ATOM     11  C   UNL A   1      34.183  23.419  23.497  1.00  0.00     0.026 A 
ATOM     12  C   UNL A   1      33.705  24.675  23.873  1.00  0.00     0.042 A 
BRANCH  12  13
ATOM     13  N   UNL A   1      33.353  25.645  22.908  1.00  0.00    -0.353 N 
ATOM     14  H   UNL A   1      33.938  25.664  22.116  1.00  0.00     0.167 HD
BRANCH  13  15
ATOM     15  C   UNL A   1      32.293  26.600  22.886  1.00  0.00     0.076 A 
ATOM     16  C   UNL A   1      30.943  26.263  23.127  1.00  0.00     0.067 A 
ATOM     17  C   UNL A   1      32.587  27.984  22.814  1.00  0.00     0.067 A 
ATOM     18  Cl  UNL A   1      30.414  24.633  23.372  1.00  0.00    -0.082 Cl
ATOM     19  C   UNL A   1      29.943  27.248  23.188  1.00  0.00     0.043 A 
ATOM     20  C   UNL A   1      31.604  28.967  22.968  1.00  0.00     0.043 A 
ATOM     21  Cl  UNL A   1      34.143  28.585  22.377  1.00  0.00    -0.082 Cl
ATOM     22  C   UNL A   1      30.282  28.593  23.119  1.00  0.00     0.044 A 
ATOM     23  Cl  UNL A   1      29.060  29.803  23.183  1.00  0.00    -0.084 Cl
ENDBRANCH  13  15
ENDBRANCH  12  13
ENDBRANCH   5   6
ENDBRANCH   3   5
ENDBRANCH   2   3
ENDBRANCH   1   2
BRANCH   1  24
ATOM     24  C   UNL A   1      34.283  29.926  27.231  1.00  0.00     0.275 C 
BRANCH  24  25
ATOM     25  O   UNL A   1      35.658  30.216  27.708  1.00  0.00    -0.458 OA
BRANCH  25  26
ATOM     26  C   UNL A   1      36.508  29.879  28.722  1.00  0.00     0.338 C 
ATOM     27  O   UNL A   1      36.157  29.978  29.890  1.00  0.00    -0.246 OA
BRANCH  26  28
ATOM     28  C   UNL A   1      37.764  29.211  28.383  1.00  0.00     0.060 A 
ATOM     29  C   UNL A   1      38.560  29.481  27.255  1.00  0.00     0.016 A 
ATOM     30  C   UNL A   1      38.239  28.394  29.362  1.00  0.00     0.016 A 
ATOM     31  C   UNL A   1      39.852  28.936  27.202  1.00  0.00     0.010 A 
ATOM     32  C   UNL A   1      39.584  28.339  29.516  1.00  0.00     0.010 A 
ATOM     33  C   UNL A   1      40.340  28.342  28.359  1.00  0.00    -0.014 A 
BRANCH  33  34
ATOM     34  C   UNL A   1      41.424  27.386  28.513  1.00  0.00     0.031 A 
ATOM     35  C   UNL A   1      41.222  25.965  28.278  1.00  0.00     0.074 A 
ATOM     36  C   UNL A   1      42.642  27.986  28.620  1.00  0.00     0.049 A 
ATOM     37  N   UNL A   1      41.827  25.054  28.951  1.00  0.00    -0.248 NA
ATOM     38  C   UNL A   1      40.327  25.444  27.246  1.00  0.00     0.031 C 
ATOM     39  C   UNL A   1      43.997  27.521  28.407  1.00  0.00     0.029 A 
ATOM     40  N   UNL A   1      42.840  29.341  28.952  1.00  0.00    -0.354 N 
ATOM     41  C   UNL A   1      41.690  23.894  28.223  1.00  0.00     0.074 A 
ATOM     42  C   UNL A   1      40.613  24.136  27.289  1.00  0.00     0.031 C 
ATOM     43  C   UNL A   1      44.848  28.446  28.914  1.00  0.00     0.029 A 
ATOM     44  C   UNL A   1      44.053  29.470  29.592  1.00  0.00     0.049 A 
ATOM     45  H   UNL A   1      42.214  30.076  28.758  1.00  0.00     0.167 HD
ATOM     46  C   UNL A   1      42.688  22.969  28.267  1.00  0.00     0.034 A 
ATOM     47  C   UNL A   1      43.980  29.780  30.920  1.00  0.00     0.034 A 
ATOM     48  C   UNL A   1      43.849  23.527  28.982  1.00  0.00     0.049 A 
ATOM     49  C   UNL A   1      44.438  28.610  31.745  1.00  0.00     0.074 A 
ATOM     50  C   UNL A   1      45.001  24.142  28.514  1.00  0.00     0.029 A 
ATOM     51  N   UNL A   1      43.762  23.844  30.332  1.00  0.00    -0.354 N 
ATOM     52  N   UNL A   1      44.599  27.410  31.267  1.00  0.00    -0.248 NA
ATOM     53  C   UNL A   1      44.742  28.696  33.164  1.00  0.00     0.031 C 
ATOM     54  C   UNL A   1      45.574  24.882  29.583  1.00  0.00     0.029 A 
ATOM     55  C   UNL A   1      44.777  24.717  30.704  1.00  0.00     0.049 A 
ATOM     56  H   UNL A   1      43.072  23.497  30.944  1.00  0.00     0.167 HD
ATOM     57  C   UNL A   1      44.876  26.545  32.278  1.00  0.00     0.074 A 
ATOM     58  C   UNL A   1      45.049  27.415  33.433  1.00  0.00     0.031 C 
ATOM     59  C   UNL A   1      44.869  25.192  32.083  1.00  0.00     0.034 A 
BRANCH  46  60
ATOM     60  C   UNL A   1      42.789  21.764  27.352  1.00  0.00     0.023 A 
ATOM     61  C   UNL A   1      41.907  20.687  27.598  1.00  0.00     0.012 A 
ATOM     62  C   UNL A   1      43.662  21.621  26.247  1.00  0.00     0.148 A 
ATOM     63  C   UNL A   1      41.925  19.509  26.851  1.00  0.00     0.002 A 
ATOM     64  C   UNL A   1      43.705  20.424  25.518  1.00  0.00     0.091 A 
ATOM     65  F   UNL A   1      44.416  22.661  25.865  1.00  0.00    -0.205 F 
ATOM     66  C   UNL A   1      42.837  19.368  25.822  1.00  0.00     0.022 A 
BRANCH  64  67
ATOM     67  S   UNL A   1      44.890  20.117  24.196  1.00  0.00     0.127 S 
ATOM     68  O   UNL A   1      46.171  20.341  24.870  1.00  0.00    -0.237 OA
ATOM     69  O   UNL A   1      44.625  18.722  23.852  1.00  0.00    -0.237 OA
ATOM     70  O   UNL A   1      44.591  21.093  23.156  1.00  0.00    -0.744 OA
ENDBRANCH  64  67
ENDBRANCH  46  60
BRANCH  47  71
ATOM     71  C   UNL A   1      42.801  30.671  31.276  1.00  0.00     0.023 A 
ATOM     72  C   UNL A   1      42.666  31.911  30.594  1.00  0.00     0.012 A 
ATOM     73  C   UNL A   1      41.692  30.217  32.021  1.00  0.00     0.148 A 
ATOM     74  C   UNL A   1      41.453  32.614  30.573  1.00  0.00     0.002 A 
ATOM     75  C   UNL A   1      40.496  30.946  32.027  1.00  0.00     0.091 A 
ATOM     76  F   UNL A   1      41.779  29.051  32.675  1.00  0.00    -0.205 F 
ATOM     77  C   UNL A   1      40.361  32.123  31.278  1.00  0.00     0.022 A 
BRANCH  75  78
ATOM     78  S   UNL A   1      39.111  30.396  33.039  1.00  0.00     0.127 S 
ATOM     79  O   UNL A   1      38.983  28.979  32.690  1.00  0.00    -0.237 OA
ATOM     80  O   UNL A   1      39.562  30.635  34.404  1.00  0.00    -0.237 OA
ATOM     81  O   UNL A   1      38.018  31.230  32.553  1.00  0.00    -0.744 OA
ENDBRANCH  75  78
ENDBRANCH  47  71
BRANCH  59  82
ATOM     82  C   UNL A   1      44.943  24.179  33.195  1.00  0.00     0.023 A 
ATOM     83  C   UNL A   1      43.885  23.299  33.481  1.00  0.00     0.012 A 
ATOM     84  C   UNL A   1      46.153  23.986  33.906  1.00  0.00     0.148 A 
ATOM     85  C   UNL A   1      43.983  22.338  34.487  1.00  0.00     0.002 A 
ATOM     86  C   UNL A   1      46.291  22.935  34.799  1.00  0.00     0.091 A 
ATOM     87  F   UNL A   1      47.177  24.835  33.736  1.00  0.00    -0.205 F 
ATOM     88  C   UNL A   1      45.195  22.138  35.131  1.00  0.00     0.022 A 
BRANCH  86  89
ATOM     89  S   UNL A   1      47.909  22.467  35.420  1.00  0.00     0.127 S 
ATOM     90  O   UNL A   1      47.633  21.169  36.030  1.00  0.00    -0.237 OA
ATOM     91  O   UNL A   1      48.708  22.409  34.195  1.00  0.00    -0.237 OA
ATOM     92  O   UNL A   1      48.293  23.537  36.332  1.00  0.00    -0.744 OA
ENDBRANCH  86  89
ENDBRANCH  59  82
ENDBRANCH  33  34
ENDBRANCH  26  28
ENDBRANCH  25  26
ENDBRANCH  24  25
ENDBRANCH   1  24
TORSDOF 17
ENDMDL
MODEL 3
REMARK VINA RESULT:     -12.2      2.084      3.533
REMARK SMILES Cc1ccc(Nc2c(Cl)cc(Cl)cc2Cl)c(CC(=O)OCCOC(=O)c2ccc(-c3c4nc(c(-c5cccc(S(=O)(=O)[O-])c5F)c5ccc([nH]5)c(-c5cccc(S(=O)(=O)[O-])c5F)c5nc(c(-c6cccc(S(=O)(=O)[O-])c6F)c6ccc3[nH]6)C=C5)C=C4)cc2)c1
REMARK SMILES IDX 21 1 20 2 18 3 19 4 17 5 16 6 1 7 2 8 3 9 89 10 4 11 5 12
REMARK SMILES IDX 6 13 7 15 8 16 14 17 9 18 10 19 13 20 15 21 11 22 12 23
REMARK SMILES IDX 22 24 23 25 24 26 25 27 26 28 27 29 88 30 28 31 87 32 29 33
REMARK SMILES IDX 30 34 31 35 81 36 32 37 86 38 80 39 82 40 33 41 85 42 79 43
REMARK SMILES IDX 78 44 34 46 66 47 46 48 65 49 47 50 50 51 64 52 83 53 48 54
REMARK SMILES IDX 49 55 63 57 84 58 51 59 35 60 36 61 44 62 37 63 39 64 45 65
REMARK SMILES IDX 38 66 40 67 41 68 42 69 43 70 67 71 68 72 76 73 69 74 71 75
REMARK SMILES IDX 77 76 70 77 72 78 73 79 74 80 75 81 52 82 53 83 61 84 54 85
REMARK SMILES IDX 56 86 62 87 55 88 57 89 58 90 59 91 60 92
REMARK H PARENT 6 14 82 45 50 56
REMARK Flexibility Score: inf
ROOT
ATOM      1  C   UNL A   1      33.402  30.960  27.471  1.00  0.00     0.274 C 
ENDROOT
BRANCH   1   2
ATOM      2  O   UNL A   1      33.457  30.135  26.319  1.00  0.00    -0.462 OA
BRANCH   2   3
ATOM      3  C   UNL A   1      33.423  28.794  26.515  1.00  0.00     0.310 C 
ATOM      4  O   UNL A   1      34.413  28.101  26.596  1.00  0.00    -0.252 OA
BRANCH   3   5
ATOM      5  C   UNL A   1      31.968  28.406  26.669  1.00  0.00     0.160 C 
BRANCH   5   6
ATOM      6  C   UNL A   1      31.340  27.763  25.466  1.00  0.00    -0.013 A 
ATOM      7  C   UNL A   1      29.434  29.465  22.696  1.00  0.00     0.044 C 
ATOM      8  C   UNL A   1      29.987  28.371  23.553  1.00  0.00    -0.051 A 
ATOM      9  C   UNL A   1      29.427  27.097  23.597  1.00  0.00     0.005 A 
ATOM     10  C   UNL A   1      30.974  28.684  24.471  1.00  0.00     0.009 A 
ATOM     11  C   UNL A   1      29.942  26.123  24.463  1.00  0.00     0.026 A 
ATOM     12  C   UNL A   1      30.985  26.404  25.348  1.00  0.00     0.042 A 
BRANCH  12  13
ATOM     13  N   UNL A   1      31.535  25.399  26.175  1.00  0.00    -0.353 N 
ATOM     14  H   UNL A   1      31.578  25.633  27.130  1.00  0.00     0.167 HD
BRANCH  13  15
ATOM     15  C   UNL A   1      32.037  24.100  25.860  1.00  0.00     0.076 A 
ATOM     16  C   UNL A   1      31.329  22.910  26.134  1.00  0.00     0.067 A 
ATOM     17  C   UNL A   1      33.202  23.964  25.065  1.00  0.00     0.067 A 
ATOM     18  Cl  UNL A   1      29.818  22.891  26.980  1.00  0.00    -0.082 Cl
ATOM     19  C   UNL A   1      31.817  21.658  25.724  1.00  0.00     0.043 A 
ATOM     20  C   UNL A   1      33.636  22.726  24.579  1.00  0.00     0.043 A 
ATOM     21  Cl  UNL A   1      34.276  25.276  24.754  1.00  0.00    -0.082 Cl
ATOM     22  C   UNL A   1      32.960  21.576  24.941  1.00  0.00     0.044 A 
ATOM     23  Cl  UNL A   1      33.568  20.044  24.445  1.00  0.00    -0.084 Cl
ENDBRANCH  13  15
ENDBRANCH  12  13
ENDBRANCH   5   6
ENDBRANCH   3   5
ENDBRANCH   2   3
ENDBRANCH   1   2
BRANCH   1  24
ATOM     24  C   UNL A   1      34.743  31.595  27.909  1.00  0.00     0.275 C 
BRANCH  24  25
ATOM     25  O   UNL A   1      35.989  30.813  28.114  1.00  0.00    -0.458 OA
BRANCH  25  26
ATOM     26  C   UNL A   1      36.545  29.946  29.009  1.00  0.00     0.338 C 
ATOM     27  O   UNL A   1      35.943  29.624  30.024  1.00  0.00    -0.246 OA
BRANCH  26  28
ATOM     28  C   UNL A   1      37.781  29.259  28.635  1.00  0.00     0.060 A 
ATOM     29  C   UNL A   1      38.517  29.474  27.456  1.00  0.00     0.016 A 
ATOM     30  C   UNL A   1      38.305  28.485  29.624  1.00  0.00     0.016 A 
ATOM     31  C   UNL A   1      39.803  28.921  27.360  1.00  0.00     0.010 A 
ATOM     32  C   UNL A   1      39.657  28.430  29.709  1.00  0.00     0.010 A 
ATOM     33  C   UNL A   1      40.350  28.379  28.516  1.00  0.00    -0.014 A 
BRANCH  33  34
ATOM     34  C   UNL A   1      41.439  27.425  28.656  1.00  0.00     0.031 A 
ATOM     35  C   UNL A   1      41.248  26.009  28.386  1.00  0.00     0.074 A 
ATOM     36  C   UNL A   1      42.653  28.031  28.787  1.00  0.00     0.049 A 
ATOM     37  N   UNL A   1      41.854  25.087  29.042  1.00  0.00    -0.248 NA
ATOM     38  C   UNL A   1      40.364  25.508  27.335  1.00  0.00     0.031 C 
ATOM     39  C   UNL A   1      44.012  27.579  28.574  1.00  0.00     0.029 A 
ATOM     40  N   UNL A   1      42.839  29.379  29.153  1.00  0.00    -0.354 N 
ATOM     41  C   UNL A   1      41.730  23.943  28.286  1.00  0.00     0.074 A 
ATOM     42  C   UNL A   1      40.659  24.201  27.349  1.00  0.00     0.031 C 
ATOM     43  C   UNL A   1      44.853  28.497  29.110  1.00  0.00     0.029 A 
ATOM     44  C   UNL A   1      44.046  29.500  29.806  1.00  0.00     0.049 A 
ATOM     45  H   UNL A   1      42.210  30.114  28.971  1.00  0.00     0.167 HD
ATOM     46  C   UNL A   1      42.734  23.023  28.316  1.00  0.00     0.034 A 
ATOM     47  C   UNL A   1      43.961  29.778  31.139  1.00  0.00     0.034 A 
ATOM     48  C   UNL A   1      43.885  23.572  29.054  1.00  0.00     0.049 A 
ATOM     49  C   UNL A   1      44.419  28.591  31.940  1.00  0.00     0.074 A 
ATOM     50  C   UNL A   1      45.036  24.205  28.610  1.00  0.00     0.029 A 
ATOM     51  N   UNL A   1      43.785  23.856  30.410  1.00  0.00    -0.354 N 
ATOM     52  N   UNL A   1      44.592  27.404  31.436  1.00  0.00    -0.248 NA
ATOM     53  C   UNL A   1      44.712  28.646  33.364  1.00  0.00     0.031 C 
ATOM     54  C   UNL A   1      45.596  24.923  29.701  1.00  0.00     0.029 A 
ATOM     55  C   UNL A   1      44.792  24.726  30.811  1.00  0.00     0.049 A 
ATOM     56  H   UNL A   1      43.093  23.490  31.008  1.00  0.00     0.167 HD
ATOM     57  C   UNL A   1      44.867  26.517  32.428  1.00  0.00     0.074 A 
ATOM     58  C   UNL A   1      45.024  27.360  33.605  1.00  0.00     0.031 C 
ATOM     59  C   UNL A   1      44.869  25.170  32.201  1.00  0.00     0.034 A 
BRANCH  46  60
ATOM     60  C   UNL A   1      42.849  21.841  27.374  1.00  0.00     0.023 A 
ATOM     61  C   UNL A   1      41.939  20.775  27.556  1.00  0.00     0.012 A 
ATOM     62  C   UNL A   1      43.763  21.711  26.300  1.00  0.00     0.148 A 
ATOM     63  C   UNL A   1      41.966  19.617  26.779  1.00  0.00     0.002 A 
ATOM     64  C   UNL A   1      43.814  20.533  25.542  1.00  0.00     0.091 A 
ATOM     65  F   UNL A   1      44.550  22.746  25.977  1.00  0.00    -0.205 F 
ATOM     66  C   UNL A   1      42.916  19.486  25.783  1.00  0.00     0.022 A 
BRANCH  64  67
ATOM     67  S   UNL A   1      45.045  20.238  24.259  1.00  0.00     0.127 S 
ATOM     68  O   UNL A   1      44.786  18.841  23.898  1.00  0.00    -0.237 OA
ATOM     69  O   UNL A   1      44.669  21.206  23.232  1.00  0.00    -0.237 OA
ATOM     70  O   UNL A   1      46.340  20.454  24.891  1.00  0.00    -0.744 OA
ENDBRANCH  64  67
ENDBRANCH  46  60
BRANCH  47  71
ATOM     71  C   UNL A   1      42.772  30.653  31.507  1.00  0.00     0.023 A 
ATOM     72  C   UNL A   1      42.606  31.884  30.815  1.00  0.00     0.012 A 
ATOM     73  C   UNL A   1      41.685  30.188  32.275  1.00  0.00     0.148 A 
ATOM     74  C   UNL A   1      41.381  32.566  30.808  1.00  0.00     0.002 A 
ATOM     75  C   UNL A   1      40.477  30.897  32.295  1.00  0.00     0.091 A 
ATOM     76  F   UNL A   1      41.802  29.031  32.940  1.00  0.00    -0.205 F 
ATOM     77  C   UNL A   1      40.310  32.064  31.536  1.00  0.00     0.022 A 
BRANCH  75  78
ATOM     78  S   UNL A   1      39.118  30.335  33.336  1.00  0.00     0.127 S 
ATOM     79  O   UNL A   1      37.990  31.152  32.884  1.00  0.00    -0.237 OA
ATOM     80  O   UNL A   1      38.997  28.920  33.012  1.00  0.00    -0.237 OA
ATOM     81  O   UNL A   1      39.593  30.664  34.675  1.00  0.00    -0.744 OA
ENDBRANCH  75  78
ENDBRANCH  47  71
BRANCH  59  82
ATOM     82  C   UNL A   1      44.941  24.131  33.290  1.00  0.00     0.023 A 
ATOM     83  C   UNL A   1      43.867  23.273  33.581  1.00  0.00     0.012 A 
ATOM     84  C   UNL A   1      46.161  23.891  33.969  1.00  0.00     0.148 A 
ATOM     85  C   UNL A   1      43.961  22.287  34.564  1.00  0.00     0.002 A 
ATOM     86  C   UNL A   1      46.291  22.817  34.836  1.00  0.00     0.091 A 
ATOM     87  F   UNL A   1      47.204  24.716  33.794  1.00  0.00    -0.205 F 
ATOM     88  C   UNL A   1      45.182  22.042  35.176  1.00  0.00     0.022 A 
BRANCH  86  89
ATOM     89  S   UNL A   1      47.909  22.293  35.410  1.00  0.00     0.127 S 
ATOM     90  O   UNL A   1      48.278  23.385  36.307  1.00  0.00    -0.237 OA
ATOM     91  O   UNL A   1      47.606  21.027  36.079  1.00  0.00    -0.237 OA
ATOM     92  O   UNL A   1      48.714  22.151  34.204  1.00  0.00    -0.744 OA
ENDBRANCH  86  89
ENDBRANCH  59  82
ENDBRANCH  33  34
ENDBRANCH  26  28
ENDBRANCH  25  26
ENDBRANCH  24  25
ENDBRANCH   1  24
TORSDOF 17
ENDMDL
