MODEL 1
REMARK VINA RESULT:     -11.4      0.000      0.000
REMARK SMILES N#Cc1cc([N+](=O)[O-])cnc1Oc1csc(C(=O)OCCOC(=O)c2ccc(-c3c4nc(c(-c5cccc(S(=O)(=O)[O-])c5F)c5ccc([nH]5)c(-c5cccc(S(=O)(=O)[O-])c5F)c5nc(c(-c6cccc(S(=O)(=O)[O-])c6F)c6ccc3[nH]6)C=C5)C=C4)cc2)c1
REMARK SMILES IDX 20 1 19 2 17 3 18 4 16 5 13 6 14 7 88 8 15 9 12 10 11 11
REMARK SMILES IDX 3 12 4 13 5 14 10 15 9 16 2 17 1 18 6 19 7 20 8 21 21 22
REMARK SMILES IDX 22 23 23 24 24 25 25 26 26 27 87 28 27 29 86 30 28 31 29 32
REMARK SMILES IDX 30 33 80 34 31 35 85 36 79 37 81 38 32 39 84 40 78 41 77 42
REMARK SMILES IDX 33 44 65 45 45 46 64 47 46 48 49 49 63 50 82 51 47 52 48 53
REMARK SMILES IDX 62 55 83 56 50 57 34 58 35 59 43 60 36 61 38 62 44 63 37 64
REMARK SMILES IDX 39 65 40 66 41 67 42 68 66 69 67 70 75 71 68 72 70 73 76 74
REMARK SMILES IDX 69 75 71 76 72 77 73 78 74 79 51 80 52 81 60 82 53 83 55 84
REMARK SMILES IDX 61 85 54 86 56 87 57 88 58 89 59 90
REMARK H PARENT 81 43 49 54
REMARK Flexibility Score: inf
ROOT
ATOM      1  C   UNL A   1      31.687  28.776  27.590  1.00  0.00     0.275 C 
ENDROOT
BRANCH   1   2
ATOM      2  O   UNL A   1      32.563  27.784  27.019  1.00  0.00    -0.458 OA
BRANCH   2   3
ATOM      3  C   UNL A   1      31.964  26.729  26.386  1.00  0.00     0.348 C 
ATOM      4  O   UNL A   1      31.679  25.674  26.936  1.00  0.00    -0.245 OA
BRANCH   3   5
ATOM      5  C   UNL A   1      31.700  27.071  24.998  1.00  0.00     0.116 A 
ATOM      6  C   UNL A   1      30.625  27.509  22.972  1.00  0.00     0.141 A 
ATOM      7  C   UNL A   1      31.928  27.401  22.545  1.00  0.00     0.112 A 
ATOM      8  C   UNL A   1      30.497  27.358  24.380  1.00  0.00     0.074 A 
ATOM      9  S   UNL A   1      32.994  27.150  23.866  1.00  0.00    -0.133 S 
BRANCH   6  10
ATOM     10  O   UNL A   1      29.561  27.806  22.198  1.00  0.00    -0.437 OA
BRANCH  10  11
ATOM     11  C   UNL A   1      29.002  29.050  22.060  1.00  0.00     0.237 A 
ATOM     12  C   UNL A   1      27.821  29.473  22.671  1.00  0.00     0.121 A 
ATOM     13  C   UNL A   1      27.514  30.845  22.648  1.00  0.00     0.112 A 
ATOM     14  C   UNL A   1      28.400  31.735  22.038  1.00  0.00     0.289 A 
ATOM     15  N   UNL A   1      29.852  29.917  21.443  1.00  0.00    -0.213 NA
ATOM     16  C   UNL A   1      29.540  31.235  21.439  1.00  0.00     0.200 A 
BRANCH  12  17
ATOM     17  C   UNL A   1      26.936  28.596  23.376  1.00  0.00     0.105 C 
ATOM     18  N   UNL A   1      26.185  27.914  23.930  1.00  0.00    -0.192 NA
ENDBRANCH  12  17
BRANCH  14  19
ATOM     19  N   UNL A   1      28.174  33.173  22.070  1.00  0.00     0.064 N 
ATOM     20  O   UNL A   1      27.518  33.673  21.145  1.00  0.00    -0.258 OA
ATOM     21  O   UNL A   1      28.668  33.810  23.008  1.00  0.00    -0.258 OA
ENDBRANCH  14  19
ENDBRANCH  10  11
ENDBRANCH   6  10
ENDBRANCH   3   5
ENDBRANCH   2   3
ENDBRANCH   1   2
BRANCH   1  22
ATOM     22  C   UNL A   1      31.789  30.126  26.869  1.00  0.00     0.275 C 
BRANCH  22  23
ATOM     23  O   UNL A   1      33.149  30.463  26.538  1.00  0.00    -0.458 OA
BRANCH  23  24
ATOM     24  C   UNL A   1      33.667  31.467  27.284  1.00  0.00     0.338 C 
ATOM     25  O   UNL A   1      33.077  32.471  27.652  1.00  0.00    -0.246 OA
BRANCH  24  26
ATOM     26  C   UNL A   1      35.024  31.131  27.744  1.00  0.00     0.060 A 
ATOM     27  C   UNL A   1      35.278  29.790  28.019  1.00  0.00     0.016 A 
ATOM     28  C   UNL A   1      35.981  32.104  28.038  1.00  0.00     0.016 A 
ATOM     29  C   UNL A   1      36.460  29.409  28.640  1.00  0.00     0.010 A 
ATOM     30  C   UNL A   1      37.185  31.716  28.647  1.00  0.00     0.010 A 
ATOM     31  C   UNL A   1      37.417  30.370  28.988  1.00  0.00    -0.014 A 
BRANCH  31  32
ATOM     32  C   UNL A   1      38.589  29.947  29.803  1.00  0.00     0.031 A 
ATOM     33  C   UNL A   1      38.741  30.442  31.217  1.00  0.00     0.074 A 
ATOM     34  C   UNL A   1      39.477  29.064  29.305  1.00  0.00     0.049 A 
ATOM     35  N   UNL A   1      39.696  30.201  32.081  1.00  0.00    -0.248 NA
ATOM     36  C   UNL A   1      37.683  31.328  31.730  1.00  0.00     0.031 C 
ATOM     37  C   UNL A   1      39.435  28.493  27.957  1.00  0.00     0.029 A 
ATOM     38  N   UNL A   1      40.589  28.493  29.873  1.00  0.00    -0.354 N 
ATOM     39  C   UNL A   1      39.375  30.933  33.220  1.00  0.00     0.074 A 
ATOM     40  C   UNL A   1      38.150  31.645  32.929  1.00  0.00     0.031 C 
ATOM     41  C   UNL A   1      40.476  27.660  27.801  1.00  0.00     0.029 A 
ATOM     42  C   UNL A   1      41.285  27.674  29.015  1.00  0.00     0.049 A 
ATOM     43  H   UNL A   1      40.863  28.656  30.805  1.00  0.00     0.167 HD
ATOM     44  C   UNL A   1      40.026  30.991  34.406  1.00  0.00     0.034 A 
ATOM     45  C   UNL A   1      42.459  27.032  29.175  1.00  0.00     0.034 A 
ATOM     46  C   UNL A   1      41.230  30.259  34.705  1.00  0.00     0.049 A 
ATOM     47  C   UNL A   1      43.172  27.131  30.496  1.00  0.00     0.074 A 
ATOM     48  C   UNL A   1      41.956  30.240  35.884  1.00  0.00     0.029 A 
ATOM     49  N   UNL A   1      41.885  29.417  33.821  1.00  0.00    -0.354 N 
ATOM     50  N   UNL A   1      42.824  27.782  31.580  1.00  0.00    -0.248 NA
ATOM     51  C   UNL A   1      44.425  26.374  30.629  1.00  0.00     0.031 C 
ATOM     52  C   UNL A   1      43.069  29.413  35.700  1.00  0.00     0.029 A 
ATOM     53  C   UNL A   1      43.007  28.873  34.425  1.00  0.00     0.049 A 
ATOM     54  H   UNL A   1      41.597  29.233  32.897  1.00  0.00     0.167 HD
ATOM     55  C   UNL A   1      43.790  27.480  32.533  1.00  0.00     0.074 A 
ATOM     56  C   UNL A   1      44.721  26.566  31.906  1.00  0.00     0.031 C 
ATOM     57  C   UNL A   1      43.902  27.928  33.808  1.00  0.00     0.034 A 
BRANCH  44  58
ATOM     58  C   UNL A   1      39.438  31.867  35.485  1.00  0.00     0.023 A 
ATOM     59  C   UNL A   1      38.475  31.342  36.371  1.00  0.00     0.012 A 
ATOM     60  C   UNL A   1      39.877  33.197  35.655  1.00  0.00     0.148 A 
ATOM     61  C   UNL A   1      37.929  32.135  37.381  1.00  0.00     0.002 A 
ATOM     62  C   UNL A   1      39.365  33.965  36.694  1.00  0.00     0.091 A 
ATOM     63  F   UNL A   1      40.783  33.685  34.796  1.00  0.00    -0.205 F 
ATOM     64  C   UNL A   1      38.380  33.441  37.549  1.00  0.00     0.022 A 
BRANCH  62  65
ATOM     65  S   UNL A   1      39.938  35.630  37.047  1.00  0.00     0.127 S 
ATOM     66  O   UNL A   1      39.496  36.354  35.856  1.00  0.00    -0.237 OA
ATOM     67  O   UNL A   1      39.198  35.955  38.267  1.00  0.00    -0.237 OA
ATOM     68  O   UNL A   1      41.382  35.535  37.216  1.00  0.00    -0.744 OA
ENDBRANCH  62  65
ENDBRANCH  44  58
BRANCH  45  69
ATOM     69  C   UNL A   1      43.041  26.243  28.052  1.00  0.00     0.023 A 
ATOM     70  C   UNL A   1      43.893  26.864  27.118  1.00  0.00     0.012 A 
ATOM     71  C   UNL A   1      42.739  24.876  27.901  1.00  0.00     0.148 A 
ATOM     72  C   UNL A   1      44.395  26.149  26.029  1.00  0.00     0.002 A 
ATOM     73  C   UNL A   1      43.294  24.155  26.853  1.00  0.00     0.091 A 
ATOM     74  F   UNL A   1      41.916  24.306  28.792  1.00  0.00    -0.205 F 
ATOM     75  C   UNL A   1      44.103  24.793  25.902  1.00  0.00     0.022 A 
BRANCH  73  76
ATOM     76  S   UNL A   1      43.075  22.380  26.684  1.00  0.00     0.127 S 
ATOM     77  O   UNL A   1      42.667  22.000  28.035  1.00  0.00    -0.237 OA
ATOM     78  O   UNL A   1      42.017  22.303  25.676  1.00  0.00    -0.237 OA
ATOM     79  O   UNL A   1      44.363  21.862  26.245  1.00  0.00    -0.744 OA
ENDBRANCH  73  76
ENDBRANCH  45  69
BRANCH  57  80
ATOM     80  C   UNL A   1      45.035  27.378  34.637  1.00  0.00     0.023 A 
ATOM     81  C   UNL A   1      46.261  28.068  34.721  1.00  0.00     0.012 A 
ATOM     82  C   UNL A   1      44.872  26.177  35.357  1.00  0.00     0.148 A 
ATOM     83  C   UNL A   1      47.324  27.541  35.456  1.00  0.00     0.002 A 
ATOM     84  C   UNL A   1      45.914  25.688  36.135  1.00  0.00     0.091 A 
ATOM     85  F   UNL A   1      43.706  25.522  35.254  1.00  0.00    -0.205 F 
ATOM     86  C   UNL A   1      47.148  26.358  36.169  1.00  0.00     0.022 A 
BRANCH  84  87
ATOM     87  S   UNL A   1      45.742  24.228  37.165  1.00  0.00     0.127 S 
ATOM     88  O   UNL A   1      44.667  24.629  38.073  1.00  0.00    -0.237 OA
ATOM     89  O   UNL A   1      45.367  23.203  36.191  1.00  0.00    -0.237 OA
ATOM     90  O   UNL A   1      47.043  24.021  37.788  1.00  0.00    -0.744 OA
ENDBRANCH  84  87
ENDBRANCH  57  80
ENDBRANCH  31  32
ENDBRANCH  24  26
ENDBRANCH  23  24
ENDBRANCH  22  23
ENDBRANCH   1  22
TORSDOF 18
ENDMDL
MODEL 2
REMARK VINA RESULT:     -11.4      5.241     10.126
REMARK SMILES N#Cc1cc([N+](=O)[O-])cnc1Oc1csc(C(=O)OCCOC(=O)c2ccc(-c3c4nc(c(-c5cccc(S(=O)(=O)[O-])c5F)c5ccc([nH]5)c(-c5cccc(S(=O)(=O)[O-])c5F)c5nc(c(-c6cccc(S(=O)(=O)[O-])c6F)c6ccc3[nH]6)C=C5)C=C4)cc2)c1
REMARK SMILES IDX 20 1 19 2 17 3 18 4 16 5 13 6 14 7 88 8 15 9 12 10 11 11
REMARK SMILES IDX 3 12 4 13 5 14 10 15 9 16 2 17 1 18 6 19 7 20 8 21 21 22
REMARK SMILES IDX 22 23 23 24 24 25 25 26 26 27 87 28 27 29 86 30 28 31 29 32
REMARK SMILES IDX 30 33 80 34 31 35 85 36 79 37 81 38 32 39 84 40 78 41 77 42
REMARK SMILES IDX 33 44 65 45 45 46 64 47 46 48 49 49 63 50 82 51 47 52 48 53
REMARK SMILES IDX 62 55 83 56 50 57 34 58 35 59 43 60 36 61 38 62 44 63 37 64
REMARK SMILES IDX 39 65 40 66 41 67 42 68 66 69 67 70 75 71 68 72 70 73 76 74
REMARK SMILES IDX 69 75 71 76 72 77 73 78 74 79 51 80 52 81 60 82 53 83 55 84
REMARK SMILES IDX 61 85 54 86 56 87 57 88 58 89 59 90
REMARK H PARENT 81 43 49 54
REMARK Flexibility Score: inf
ROOT
ATOM      1  C   UNL A   1      36.405  21.522  24.723  1.00  0.00     0.275 C 
ENDROOT
BRANCH   1   2
ATOM      2  O   UNL A   1      36.009  22.684  25.478  1.00  0.00    -0.458 OA
BRANCH   2   3
ATOM      3  C   UNL A   1      34.851  22.580  26.200  1.00  0.00     0.348 C 
ATOM      4  O   UNL A   1      34.566  21.619  26.901  1.00  0.00    -0.245 OA
BRANCH   3   5
ATOM      5  C   UNL A   1      34.052  23.783  26.028  1.00  0.00     0.116 A 
ATOM      6  C   UNL A   1      33.392  25.985  25.619  1.00  0.00     0.141 A 
ATOM      7  C   UNL A   1      32.249  25.485  26.196  1.00  0.00     0.112 A 
ATOM      8  C   UNL A   1      34.412  25.003  25.487  1.00  0.00     0.074 A 
ATOM      9  S   UNL A   1      32.411  23.812  26.543  1.00  0.00    -0.133 S 
BRANCH   6  10
ATOM     10  O   UNL A   1      33.554  27.235  25.138  1.00  0.00    -0.437 OA
BRANCH  10  11
ATOM     11  C   UNL A   1      32.682  27.883  24.302  1.00  0.00     0.237 A 
ATOM     12  C   UNL A   1      32.385  27.498  22.993  1.00  0.00     0.121 A 
ATOM     13  C   UNL A   1      31.287  28.099  22.356  1.00  0.00     0.112 A 
ATOM     14  C   UNL A   1      30.522  29.040  23.049  1.00  0.00     0.289 A 
ATOM     15  N   UNL A   1      31.951  28.819  24.968  1.00  0.00    -0.213 NA
ATOM     16  C   UNL A   1      30.892  29.381  24.336  1.00  0.00     0.200 A 
BRANCH  12  17
ATOM     17  C   UNL A   1      33.099  26.477  22.288  1.00  0.00     0.105 C 
ATOM     18  N   UNL A   1      33.716  25.680  21.723  1.00  0.00    -0.192 NA
ENDBRANCH  12  17
BRANCH  14  19
ATOM     19  N   UNL A   1      29.321  29.621  22.467  1.00  0.00     0.064 N 
ATOM     20  O   UNL A   1      28.312  29.694  23.184  1.00  0.00    -0.258 OA
ATOM     21  O   UNL A   1      29.374  29.985  21.287  1.00  0.00    -0.258 OA
ENDBRANCH  14  19
ENDBRANCH  10  11
ENDBRANCH   6  10
ENDBRANCH   3   5
ENDBRANCH   2   3
ENDBRANCH   1   2
BRANCH   1  22
ATOM     22  C   UNL A   1      37.525  20.734  25.413  1.00  0.00     0.275 C 
BRANCH  22  23
ATOM     23  O   UNL A   1      38.815  21.344  25.224  1.00  0.00    -0.458 OA
BRANCH  23  24
ATOM     24  C   UNL A   1      39.684  21.126  26.239  1.00  0.00     0.338 C 
ATOM     25  O   UNL A   1      40.219  20.064  26.515  1.00  0.00    -0.246 OA
BRANCH  24  26
ATOM     26  C   UNL A   1      40.040  22.389  26.905  1.00  0.00     0.060 A 
ATOM     27  C   UNL A   1      39.486  23.553  26.377  1.00  0.00     0.016 A 
ATOM     28  C   UNL A   1      40.994  22.462  27.921  1.00  0.00     0.016 A 
ATOM     29  C   UNL A   1      39.915  24.799  26.813  1.00  0.00     0.010 A 
ATOM     30  C   UNL A   1      41.414  23.721  28.376  1.00  0.00     0.010 A 
ATOM     31  C   UNL A   1      40.905  24.900  27.797  1.00  0.00    -0.014 A 
BRANCH  31  32
ATOM     32  C   UNL A   1      41.460  26.245  28.115  1.00  0.00     0.031 A 
ATOM     33  C   UNL A   1      42.872  26.590  27.717  1.00  0.00     0.074 A 
ATOM     34  C   UNL A   1      40.681  27.181  28.692  1.00  0.00     0.049 A 
ATOM     35  N   UNL A   1      43.541  27.698  27.916  1.00  0.00    -0.248 NA
ATOM     36  C   UNL A   1      43.635  25.553  27.004  1.00  0.00     0.031 C 
ATOM     37  C   UNL A   1      39.292  26.982  29.111  1.00  0.00     0.029 A 
ATOM     38  N   UNL A   1      40.946  28.485  29.029  1.00  0.00    -0.354 N 
ATOM     39  C   UNL A   1      44.810  27.479  27.390  1.00  0.00     0.074 A 
ATOM     40  C   UNL A   1      44.825  26.124  26.884  1.00  0.00     0.031 C 
ATOM     41  C   UNL A   1      38.830  28.120  29.652  1.00  0.00     0.029 A 
ATOM     42  C   UNL A   1      39.900  29.111  29.666  1.00  0.00     0.049 A 
ATOM     43  H   UNL A   1      41.803  28.930  28.834  1.00  0.00     0.167 HD
ATOM     44  C   UNL A   1      45.860  28.332  27.314  1.00  0.00     0.034 A 
ATOM     45  C   UNL A   1      39.821  30.334  30.227  1.00  0.00     0.034 A 
ATOM     46  C   UNL A   1      45.834  29.690  27.792  1.00  0.00     0.049 A 
ATOM     47  C   UNL A   1      41.009  31.253  30.147  1.00  0.00     0.074 A 
ATOM     48  C   UNL A   1      46.842  30.638  27.747  1.00  0.00     0.029 A 
ATOM     49  N   UNL A   1      44.747  30.295  28.402  1.00  0.00    -0.354 N 
ATOM     50  N   UNL A   1      42.180  31.048  29.595  1.00  0.00    -0.248 NA
ATOM     51  C   UNL A   1      40.851  32.591  30.735  1.00  0.00     0.031 C 
ATOM     52  C   UNL A   1      46.375  31.805  28.360  1.00  0.00     0.029 A 
ATOM     53  C   UNL A   1      45.058  31.603  28.738  1.00  0.00     0.049 A 
ATOM     54  H   UNL A   1      43.881  29.860  28.572  1.00  0.00     0.167 HD
ATOM     55  C   UNL A   1      42.882  32.240  29.733  1.00  0.00     0.074 A 
ATOM     56  C   UNL A   1      41.991  33.171  30.397  1.00  0.00     0.031 C 
ATOM     57  C   UNL A   1      44.150  32.535  29.356  1.00  0.00     0.034 A 
BRANCH  44  58
ATOM     58  C   UNL A   1      47.128  27.825  26.671  1.00  0.00     0.023 A 
ATOM     59  C   UNL A   1      48.131  27.232  27.465  1.00  0.00     0.012 A 
ATOM     60  C   UNL A   1      47.305  27.891  25.274  1.00  0.00     0.148 A 
ATOM     61  C   UNL A   1      49.304  26.750  26.886  1.00  0.00     0.002 A 
ATOM     62  C   UNL A   1      48.454  27.363  24.699  1.00  0.00     0.091 A 
ATOM     63  F   UNL A   1      46.348  28.470  24.535  1.00  0.00    -0.205 F 
ATOM     64  C   UNL A   1      49.462  26.805  25.505  1.00  0.00     0.022 A 
BRANCH  62  65
ATOM     65  S   UNL A   1      48.719  27.310  22.924  1.00  0.00     0.127 S 
ATOM     66  O   UNL A   1      50.156  27.569  22.831  1.00  0.00    -0.237 OA
ATOM     67  O   UNL A   1      48.325  25.940  22.596  1.00  0.00    -0.237 OA
ATOM     68  O   UNL A   1      47.864  28.344  22.355  1.00  0.00    -0.744 OA
ENDBRANCH  62  65
ENDBRANCH  44  58
BRANCH  45  69
ATOM     69  C   UNL A   1      38.573  30.760  30.922  1.00  0.00     0.023 A 
ATOM     70  C   UNL A   1      38.404  30.500  32.296  1.00  0.00     0.012 A 
ATOM     71  C   UNL A   1      37.544  31.414  30.217  1.00  0.00     0.148 A 
ATOM     72  C   UNL A   1      37.215  30.841  32.943  1.00  0.00     0.002 A 
ATOM     73  C   UNL A   1      36.390  31.808  30.881  1.00  0.00     0.091 A 
ATOM     74  F   UNL A   1      37.717  31.640  28.907  1.00  0.00    -0.205 F 
ATOM     75  C   UNL A   1      36.213  31.503  32.238  1.00  0.00     0.022 A 
BRANCH  73  76
ATOM     76  S   UNL A   1      35.105  32.776  30.083  1.00  0.00     0.127 S 
ATOM     77  O   UNL A   1      34.620  31.847  29.065  1.00  0.00    -0.237 OA
ATOM     78  O   UNL A   1      34.179  33.015  31.191  1.00  0.00    -0.237 OA
ATOM     79  O   UNL A   1      35.765  33.974  29.582  1.00  0.00    -0.744 OA
ENDBRANCH  73  76
ENDBRANCH  45  69
BRANCH  57  80
ATOM     80  C   UNL A   1      44.630  33.947  29.586  1.00  0.00     0.023 A 
ATOM     81  C   UNL A   1      45.256  34.302  30.797  1.00  0.00     0.012 A 
ATOM     82  C   UNL A   1      44.477  34.923  28.580  1.00  0.00     0.148 A 
ATOM     83  C   UNL A   1      45.666  35.616  31.028  1.00  0.00     0.002 A 
ATOM     84  C   UNL A   1      44.940  36.214  28.792  1.00  0.00     0.091 A 
ATOM     85  F   UNL A   1      43.864  34.574  27.438  1.00  0.00    -0.205 F 
ATOM     86  C   UNL A   1      45.516  36.568  30.022  1.00  0.00     0.022 A 
BRANCH  84  87
ATOM     87  S   UNL A   1      44.882  37.478  27.517  1.00  0.00     0.127 S 
ATOM     88  O   UNL A   1      45.294  38.669  28.259  1.00  0.00    -0.237 OA
ATOM     89  O   UNL A   1      45.867  36.990  26.552  1.00  0.00    -0.237 OA
ATOM     90  O   UNL A   1      43.511  37.489  27.026  1.00  0.00    -0.744 OA
ENDBRANCH  84  87
ENDBRANCH  57  80
ENDBRANCH  31  32
ENDBRANCH  24  26
ENDBRANCH  23  24
ENDBRANCH  22  23
ENDBRANCH   1  22
TORSDOF 18
ENDMDL
MODEL 3
REMARK VINA RESULT:     -11.4      2.706      4.465
REMARK SMILES N#Cc1cc([N+](=O)[O-])cnc1Oc1csc(C(=O)OCCOC(=O)c2ccc(-c3c4nc(c(-c5cccc(S(=O)(=O)[O-])c5F)c5ccc([nH]5)c(-c5cccc(S(=O)(=O)[O-])c5F)c5nc(c(-c6cccc(S(=O)(=O)[O-])c6F)c6ccc3[nH]6)C=C5)C=C4)cc2)c1
REMARK SMILES IDX 20 1 19 2 17 3 18 4 16 5 13 6 14 7 88 8 15 9 12 10 11 11
REMARK SMILES IDX 3 12 4 13 5 14 10 15 9 16 2 17 1 18 6 19 7 20 8 21 21 22
REMARK SMILES IDX 22 23 23 24 24 25 25 26 26 27 87 28 27 29 86 30 28 31 29 32
REMARK SMILES IDX 30 33 80 34 31 35 85 36 79 37 81 38 32 39 84 40 78 41 77 42
REMARK SMILES IDX 33 44 65 45 45 46 64 47 46 48 49 49 63 50 82 51 47 52 48 53
REMARK SMILES IDX 62 55 83 56 50 57 34 58 35 59 43 60 36 61 38 62 44 63 37 64
REMARK SMILES IDX 39 65 40 66 41 67 42 68 66 69 67 70 75 71 68 72 70 73 76 74
REMARK SMILES IDX 69 75 71 76 72 77 73 78 74 79 51 80 52 81 60 82 53 83 55 84
REMARK SMILES IDX 61 85 54 86 56 87 57 88 58 89 59 90
REMARK H PARENT 81 43 49 54
REMARK Flexibility Score: inf
ROOT
ATOM      1  C   UNL A   1      31.386  29.758  25.052  1.00  0.00     0.275 C 
ENDROOT
BRANCH   1   2
ATOM      2  O   UNL A   1      32.132  28.644  25.578  1.00  0.00    -0.458 OA
BRANCH   2   3
ATOM      3  C   UNL A   1      31.547  27.410  25.476  1.00  0.00     0.348 C 
ATOM      4  O   UNL A   1      30.675  27.003  26.232  1.00  0.00    -0.245 OA
BRANCH   3   5
ATOM      5  C   UNL A   1      32.093  26.697  24.333  1.00  0.00     0.116 A 
ATOM      6  C   UNL A   1      33.399  25.310  22.983  1.00  0.00     0.141 A 
ATOM      7  C   UNL A   1      32.750  26.052  22.025  1.00  0.00     0.112 A 
ATOM      8  C   UNL A   1      32.997  25.651  24.304  1.00  0.00     0.074 A 
ATOM      9  S   UNL A   1      31.628  27.138  22.737  1.00  0.00    -0.133 S 
BRANCH   6  10
ATOM     10  O   UNL A   1      34.266  24.303  22.752  1.00  0.00    -0.437 OA
BRANCH  10  11
ATOM     11  C   UNL A   1      34.099  23.004  23.152  1.00  0.00     0.237 A 
ATOM     12  C   UNL A   1      34.842  22.366  24.147  1.00  0.00     0.121 A 
ATOM     13  C   UNL A   1      34.386  21.126  24.627  1.00  0.00     0.112 A 
ATOM     14  C   UNL A   1      33.207  20.583  24.112  1.00  0.00     0.289 A 
ATOM     15  N   UNL A   1      32.962  22.460  22.634  1.00  0.00    -0.213 NA
ATOM     16  C   UNL A   1      32.538  21.268  23.115  1.00  0.00     0.200 A 
BRANCH  12  17
ATOM     17  C   UNL A   1      36.008  22.936  24.752  1.00  0.00     0.105 C 
ATOM     18  N   UNL A   1      36.932  23.381  25.283  1.00  0.00    -0.192 NA
ENDBRANCH  12  17
BRANCH  14  19
ATOM     19  N   UNL A   1      32.644  19.350  24.642  1.00  0.00     0.064 N 
ATOM     20  O   UNL A   1      32.377  18.447  23.836  1.00  0.00    -0.258 OA
ATOM     21  O   UNL A   1      32.447  19.287  25.861  1.00  0.00    -0.258 OA
ENDBRANCH  14  19
ENDBRANCH  10  11
ENDBRANCH   6  10
ENDBRANCH   3   5
ENDBRANCH   2   3
ENDBRANCH   1   2
BRANCH   1  22
ATOM     22  C   UNL A   1      31.466  30.993  25.958  1.00  0.00     0.275 C 
BRANCH  22  23
ATOM     23  O   UNL A   1      32.388  30.806  27.049  1.00  0.00    -0.458 OA
BRANCH  23  24
ATOM     24  C   UNL A   1      33.143  31.895  27.326  1.00  0.00     0.338 C 
ATOM     25  O   UNL A   1      32.754  33.051  27.371  1.00  0.00    -0.246 OA
BRANCH  24  26
ATOM     26  C   UNL A   1      34.504  31.501  27.726  1.00  0.00     0.060 A 
ATOM     27  C   UNL A   1      34.719  30.145  27.960  1.00  0.00     0.016 A 
ATOM     28  C   UNL A   1      35.505  32.431  28.007  1.00  0.00     0.016 A 
ATOM     29  C   UNL A   1      35.909  29.707  28.526  1.00  0.00     0.010 A 
ATOM     30  C   UNL A   1      36.716  31.987  28.561  1.00  0.00     0.010 A 
ATOM     31  C   UNL A   1      36.911  30.625  28.861  1.00  0.00    -0.014 A 
BRANCH  31  32
ATOM     32  C   UNL A   1      38.097  30.141  29.621  1.00  0.00     0.031 A 
ATOM     33  C   UNL A   1      38.324  30.603  31.037  1.00  0.00     0.074 A 
ATOM     34  C   UNL A   1      38.928  29.233  29.073  1.00  0.00     0.049 A 
ATOM     35  N   UNL A   1      39.301  30.309  31.857  1.00  0.00    -0.248 NA
ATOM     36  C   UNL A   1      37.323  31.520  31.606  1.00  0.00     0.031 C 
ATOM     37  C   UNL A   1      38.811  28.690  27.718  1.00  0.00     0.029 A 
ATOM     38  N   UNL A   1      40.038  28.608  29.586  1.00  0.00    -0.354 N 
ATOM     39  C   UNL A   1      39.055  31.031  33.020  1.00  0.00     0.074 A 
ATOM     40  C   UNL A   1      37.849  31.796  32.791  1.00  0.00     0.031 C 
ATOM     41  C   UNL A   1      39.811  27.819  27.506  1.00  0.00     0.029 A 
ATOM     42  C   UNL A   1      40.667  27.779  28.687  1.00  0.00     0.049 A 
ATOM     43  H   UNL A   1      40.355  28.743  30.509  1.00  0.00     0.167 HD
ATOM     44  C   UNL A   1      39.754  31.041  34.181  1.00  0.00     0.034 A 
ATOM     45  C   UNL A   1      41.819  27.088  28.789  1.00  0.00     0.034 A 
ATOM     46  C   UNL A   1      40.938  30.256  34.419  1.00  0.00     0.049 A 
ATOM     47  C   UNL A   1      42.587  27.134  30.082  1.00  0.00     0.074 A 
ATOM     48  C   UNL A   1      41.709  30.187  35.567  1.00  0.00     0.029 A 
ATOM     49  N   UNL A   1      41.525  29.406  33.494  1.00  0.00    -0.354 N 
ATOM     50  N   UNL A   1      42.308  27.778  31.190  1.00  0.00    -0.248 NA
ATOM     51  C   UNL A   1      43.813  26.326  30.152  1.00  0.00     0.031 C 
ATOM     52  C   UNL A   1      42.780  29.320  35.324  1.00  0.00     0.029 A 
ATOM     53  C   UNL A   1      42.646  28.806  34.044  1.00  0.00     0.049 A 
ATOM     54  H   UNL A   1      41.192  29.251  32.580  1.00  0.00     0.167 HD
ATOM     55  C   UNL A   1      43.298  27.420  32.098  1.00  0.00     0.074 A 
ATOM     56  C   UNL A   1      44.166  26.482  31.419  1.00  0.00     0.031 C 
ATOM     57  C   UNL A   1      43.477  27.839  33.375  1.00  0.00     0.034 A 
BRANCH  44  58
ATOM     58  C   UNL A   1      39.245  31.919  35.297  1.00  0.00     0.023 A 
ATOM     59  C   UNL A   1      38.282  31.422  36.200  1.00  0.00     0.012 A 
ATOM     60  C   UNL A   1      39.756  33.220  35.484  1.00  0.00     0.148 A 
ATOM     61  C   UNL A   1      37.808  32.217  37.244  1.00  0.00     0.002 A 
ATOM     62  C   UNL A   1      39.316  33.987  36.556  1.00  0.00     0.091 A 
ATOM     63  F   UNL A   1      40.661  33.682  34.609  1.00  0.00    -0.205 F 
ATOM     64  C   UNL A   1      38.331  33.493  37.428  1.00  0.00     0.022 A 
BRANCH  62  65
ATOM     65  S   UNL A   1      39.985  35.611  36.930  1.00  0.00     0.127 S 
ATOM     66  O   UNL A   1      39.286  35.939  38.173  1.00  0.00    -0.237 OA
ATOM     67  O   UNL A   1      41.411  35.325  37.090  1.00  0.00    -0.237 OA
ATOM     68  O   UNL A   1      39.656  36.457  35.791  1.00  0.00    -0.744 OA
ENDBRANCH  62  65
ENDBRANCH  44  58
BRANCH  45  69
ATOM     69  C   UNL A   1      42.325  26.298  27.630  1.00  0.00     0.023 A 
ATOM     70  C   UNL A   1      43.151  26.907  26.665  1.00  0.00     0.012 A 
ATOM     71  C   UNL A   1      41.975  24.942  27.477  1.00  0.00     0.148 A 
ATOM     72  C   UNL A   1      43.580  26.192  25.545  1.00  0.00     0.002 A 
ATOM     73  C   UNL A   1      42.459  24.220  26.394  1.00  0.00     0.091 A 
ATOM     74  F   UNL A   1      41.178  24.384  28.398  1.00  0.00    -0.205 F 
ATOM     75  C   UNL A   1      43.242  24.848  25.415  1.00  0.00     0.022 A 
BRANCH  73  76
ATOM     76  S   UNL A   1      42.179  22.455  26.214  1.00  0.00     0.127 S 
ATOM     77  O   UNL A   1      42.741  21.935  27.458  1.00  0.00    -0.237 OA
ATOM     78  O   UNL A   1      40.720  22.391  26.122  1.00  0.00    -0.237 OA
ATOM     79  O   UNL A   1      42.876  22.066  24.996  1.00  0.00    -0.744 OA
ENDBRANCH  73  76
ENDBRANCH  45  69
BRANCH  57  80
ATOM     80  C   UNL A   1      44.620  27.229  34.149  1.00  0.00     0.023 A 
ATOM     81  C   UNL A   1      45.902  27.812  34.111  1.00  0.00     0.012 A 
ATOM     82  C   UNL A   1      44.410  26.081  34.939  1.00  0.00     0.148 A 
ATOM     83  C   UNL A   1      46.969  27.228  34.794  1.00  0.00     0.002 A 
ATOM     84  C   UNL A   1      45.463  25.538  35.665  1.00  0.00     0.091 A 
ATOM     85  F   UNL A   1      43.188  25.527  34.953  1.00  0.00    -0.205 F 
ATOM     86  C   UNL A   1      46.748  26.097  35.578  1.00  0.00     0.022 A 
BRANCH  84  87
ATOM     87  S   UNL A   1      45.246  24.146  36.779  1.00  0.00     0.127 S 
ATOM     88  O   UNL A   1      44.714  23.124  35.879  1.00  0.00    -0.237 OA
ATOM     89  O   UNL A   1      46.612  23.903  37.240  1.00  0.00    -0.237 OA
ATOM     90  O   UNL A   1      44.332  24.603  37.817  1.00  0.00    -0.744 OA
ENDBRANCH  84  87
ENDBRANCH  57  80
ENDBRANCH  31  32
ENDBRANCH  24  26
ENDBRANCH  23  24
ENDBRANCH  22  23
ENDBRANCH   1  22
TORSDOF 18
ENDMDL
