MODEL 1
REMARK VINA RESULT:     -13.2      0.000      0.000
REMARK SMILES COc1ccc(-c2[nH]nc3nc(-c4ccc(C(F)(F)F)cc4)cc(C(=O)OCCOC(=O)c4ccc(-c5c6nc(c(-c7cccc(S(=O)(=O)[O-])c7F)c7ccc([nH]7)c(-c7cccc(S(=O)(=O)[O-])c7F)c7nc(c(-c8cccc(S(=O)(=O)[O-])c8F)c8ccc5[nH]8)C=C7)C=C6)cc4)c23)cc1
REMARK SMILES IDX 29 1 28 2 27 3 25 4 26 5 24 6 7 7 8 8 96 9 9 10 10 12 11 13
REMARK SMILES IDX 23 14 12 15 6 16 3 17 4 18 98 19 5 20 97 21 2 22 1 23 13 24
REMARK SMILES IDX 14 25 22 26 15 27 21 28 16 29 17 30 18 31 19 32 20 33 30 34
REMARK SMILES IDX 31 35 32 36 33 37 34 38 95 39 35 40 94 41 36 42 37 43 38 44
REMARK SMILES IDX 88 45 39 46 93 47 87 48 89 49 40 50 92 51 86 52 85 53 41 55
REMARK SMILES IDX 73 56 53 57 72 58 54 59 57 60 71 61 90 62 55 63 56 64 70 66
REMARK SMILES IDX 91 67 58 68 42 69 43 70 51 71 44 72 46 73 52 74 45 75 47 76
REMARK SMILES IDX 48 77 49 78 50 79 74 80 75 81 83 82 76 83 78 84 84 85 77 86
REMARK SMILES IDX 79 87 80 88 81 89 82 90 59 91 60 92 68 93 61 94 63 95 69 96
REMARK SMILES IDX 62 97 64 98 65 99 66 100 67 101
REMARK H PARENT 8 11 89 54 57 65
REMARK Flexibility Score: inf
ROOT
ATOM      1  C   UNL A   1      34.205  29.651  27.082  1.00  0.00     0.275 C 
ENDROOT
BRANCH   1   2
ATOM      2  C   UNL A   1      33.208  28.509  27.037  1.00  0.00     0.275 C 
BRANCH   2   3
ATOM      3  O   UNL A   1      33.584  27.635  25.965  1.00  0.00    -0.458 OA
BRANCH   3   4
ATOM      4  C   UNL A   1      32.833  26.515  25.810  1.00  0.00     0.339 C 
ATOM      5  O   UNL A   1      31.785  26.276  26.376  1.00  0.00    -0.246 OA
BRANCH   4   6
ATOM      6  C   UNL A   1      33.527  25.620  24.873  1.00  0.00     0.075 A 
ATOM      7  C   UNL A   1      32.066  25.692  22.818  1.00  0.00     0.075 A 
ATOM      8  N   UNL A   1      32.149  24.959  21.655  1.00  0.00    -0.275 N 
ATOM      9  C   UNL A   1      33.108  25.224  23.598  1.00  0.00     0.061 A 
ATOM     10  N   UNL A   1      33.157  24.071  21.617  1.00  0.00    -0.154 NA
ATOM     11  H   UNL A   1      31.519  25.076  20.909  1.00  0.00     0.190 HD
ATOM     12  C   UNL A   1      33.785  24.255  22.780  1.00  0.00     0.182 A 
ATOM     13  N   UNL A   1      34.919  23.622  23.175  1.00  0.00    -0.226 NA
ATOM     14  C   UNL A   1      34.720  24.971  25.235  1.00  0.00     0.045 A 
ATOM     15  C   UNL A   1      35.352  24.013  24.408  1.00  0.00     0.074 A 
BRANCH   7  16
ATOM     16  C   UNL A   1      31.147  26.818  22.916  1.00  0.00     0.001 A 
ATOM     17  C   UNL A   1      29.488  29.082  23.156  1.00  0.00     0.118 A 
ATOM     18  C   UNL A   1      29.014  27.809  23.486  1.00  0.00     0.047 A 
ATOM     19  C   UNL A   1      30.779  29.209  22.655  1.00  0.00     0.047 A 
ATOM     20  C   UNL A   1      29.833  26.678  23.364  1.00  0.00     0.014 A 
ATOM     21  C   UNL A   1      31.595  28.082  22.533  1.00  0.00     0.014 A 
BRANCH  17  22
ATOM     22  O   UNL A   1      28.612  30.110  23.372  1.00  0.00    -0.497 OA
ATOM     23  C   UNL A   1      27.920  30.615  22.233  1.00  0.00     0.278 C 
ENDBRANCH  17  22
ENDBRANCH   7  16
BRANCH  15  24
ATOM     24  C   UNL A   1      36.536  23.296  24.922  1.00  0.00     0.000 A 
ATOM     25  C   UNL A   1      36.771  21.945  24.628  1.00  0.00     0.011 A 
ATOM     26  C   UNL A   1      37.479  23.967  25.723  1.00  0.00     0.011 A 
ATOM     27  C   UNL A   1      37.914  21.292  25.108  1.00  0.00     0.014 A 
ATOM     28  C   UNL A   1      38.616  23.320  26.207  1.00  0.00     0.014 A 
ATOM     29  C   UNL A   1      38.846  21.973  25.906  1.00  0.00     0.056 A 
BRANCH  29  30
ATOM     30  C   UNL A   1      40.067  21.262  26.437  1.00  0.00     0.416 C 
ATOM     31  F   UNL A   1      40.316  21.553  27.744  1.00  0.00    -0.166 F 
ATOM     32  F   UNL A   1      39.962  19.907  26.367  1.00  0.00    -0.166 F 
ATOM     33  F   UNL A   1      41.213  21.578  25.767  1.00  0.00    -0.166 F 
ENDBRANCH  29  30
ENDBRANCH  15  24
ENDBRANCH   4   6
ENDBRANCH   3   4
ENDBRANCH   2   3
ENDBRANCH   1   2
BRANCH   1  34
ATOM     34  O   UNL A   1      35.501  29.159  27.414  1.00  0.00    -0.458 OA
BRANCH  34  35
ATOM     35  C   UNL A   1      36.214  29.846  28.335  1.00  0.00     0.338 C 
ATOM     36  O   UNL A   1      35.860  30.816  28.983  1.00  0.00    -0.246 OA
BRANCH  35  37
ATOM     37  C   UNL A   1      37.550  29.223  28.370  1.00  0.00     0.060 A 
ATOM     38  C   UNL A   1      37.925  28.387  29.429  1.00  0.00     0.016 A 
ATOM     39  C   UNL A   1      38.434  29.492  27.313  1.00  0.00     0.016 A 
ATOM     40  C   UNL A   1      39.190  27.809  29.413  1.00  0.00     0.010 A 
ATOM     41  C   UNL A   1      39.675  28.905  27.289  1.00  0.00     0.010 A 
ATOM     42  C   UNL A   1      40.059  28.091  28.353  1.00  0.00    -0.014 A 
BRANCH  42  43
ATOM     43  C   UNL A   1      41.429  27.610  28.375  1.00  0.00     0.031 A 
ATOM     44  C   UNL A   1      41.745  26.330  27.690  1.00  0.00     0.074 A 
ATOM     45  C   UNL A   1      42.418  28.429  28.783  1.00  0.00     0.049 A 
ATOM     46  N   UNL A   1      42.224  25.252  28.217  1.00  0.00    -0.248 NA
ATOM     47  C   UNL A   1      41.477  26.220  26.251  1.00  0.00     0.031 C 
ATOM     48  C   UNL A   1      42.321  29.853  29.128  1.00  0.00     0.029 A 
ATOM     49  N   UNL A   1      43.754  28.190  28.811  1.00  0.00    -0.354 N 
ATOM     50  C   UNL A   1      42.508  24.392  27.154  1.00  0.00     0.074 A 
ATOM     51  C   UNL A   1      41.904  24.983  25.988  1.00  0.00     0.031 C 
ATOM     52  C   UNL A   1      43.554  30.401  29.087  1.00  0.00     0.029 A 
ATOM     53  C   UNL A   1      44.522  29.341  28.880  1.00  0.00     0.049 A 
ATOM     54  H   UNL A   1      44.141  27.285  28.787  1.00  0.00     0.167 HD
ATOM     55  C   UNL A   1      43.385  23.355  27.283  1.00  0.00     0.034 A 
ATOM     56  C   UNL A   1      45.862  29.422  28.719  1.00  0.00     0.034 A 
ATOM     57  C   UNL A   1      43.709  23.101  28.663  1.00  0.00     0.049 A 
ATOM     58  C   UNL A   1      46.419  28.075  28.977  1.00  0.00     0.074 A 
ATOM     59  C   UNL A   1      42.995  22.776  29.798  1.00  0.00     0.029 A 
ATOM     60  N   UNL A   1      44.944  23.512  29.105  1.00  0.00    -0.354 N 
ATOM     61  N   UNL A   1      46.378  27.489  30.143  1.00  0.00    -0.248 NA
ATOM     62  C   UNL A   1      46.674  27.197  27.847  1.00  0.00     0.031 C 
ATOM     63  C   UNL A   1      43.651  23.477  30.853  1.00  0.00     0.029 A 
ATOM     64  C   UNL A   1      44.741  24.152  30.298  1.00  0.00     0.049 A 
ATOM     65  H   UNL A   1      45.806  23.372  28.653  1.00  0.00     0.167 HD
ATOM     66  C   UNL A   1      46.160  26.147  29.854  1.00  0.00     0.074 A 
ATOM     67  C   UNL A   1      46.487  26.013  28.436  1.00  0.00     0.031 C 
ATOM     68  C   UNL A   1      45.460  25.340  30.709  1.00  0.00     0.034 A 
BRANCH  55  69
ATOM     69  C   UNL A   1      44.219  22.738  26.183  1.00  0.00     0.023 A 
ATOM     70  C   UNL A   1      44.852  23.625  25.277  1.00  0.00     0.012 A 
ATOM     71  C   UNL A   1      44.192  21.374  25.823  1.00  0.00     0.148 A 
ATOM     72  C   UNL A   1      45.366  23.191  24.050  1.00  0.00     0.002 A 
ATOM     73  C   UNL A   1      44.775  20.935  24.635  1.00  0.00     0.091 A 
ATOM     74  F   UNL A   1      43.489  20.503  26.554  1.00  0.00    -0.205 F 
ATOM     75  C   UNL A   1      45.333  21.842  23.731  1.00  0.00     0.022 A 
BRANCH  73  76
ATOM     76  S   UNL A   1      44.814  19.192  24.199  1.00  0.00     0.127 S 
ATOM     77  O   UNL A   1      44.590  19.245  22.759  1.00  0.00    -0.237 OA
ATOM     78  O   UNL A   1      46.167  18.806  24.604  1.00  0.00    -0.237 OA
ATOM     79  O   UNL A   1      43.759  18.580  24.998  1.00  0.00    -0.744 OA
ENDBRANCH  73  76
ENDBRANCH  55  69
BRANCH  56  80
ATOM     80  C   UNL A   1      46.653  30.539  28.169  1.00  0.00     0.023 A 
ATOM     81  C   UNL A   1      46.301  31.105  26.932  1.00  0.00     0.012 A 
ATOM     82  C   UNL A   1      47.614  31.204  28.966  1.00  0.00     0.148 A 
ATOM     83  C   UNL A   1      46.875  32.309  26.507  1.00  0.00     0.002 A 
ATOM     84  C   UNL A   1      48.189  32.395  28.535  1.00  0.00     0.091 A 
ATOM     85  F   UNL A   1      47.896  30.715  30.181  1.00  0.00    -0.205 F 
ATOM     86  C   UNL A   1      47.813  32.956  27.308  1.00  0.00     0.022 A 
BRANCH  84  87
ATOM     87  S   UNL A   1      49.399  33.283  29.524  1.00  0.00     0.127 S 
ATOM     88  O   UNL A   1      48.613  33.667  30.697  1.00  0.00    -0.237 OA
ATOM     89  O   UNL A   1      50.403  32.253  29.771  1.00  0.00    -0.237 OA
ATOM     90  O   UNL A   1      49.831  34.408  28.704  1.00  0.00    -0.744 OA
ENDBRANCH  84  87
ENDBRANCH  56  80
BRANCH  68  91
ATOM     91  C   UNL A   1      45.125  25.865  32.086  1.00  0.00     0.023 A 
ATOM     92  C   UNL A   1      43.967  26.636  32.320  1.00  0.00     0.012 A 
ATOM     93  C   UNL A   1      45.857  25.398  33.192  1.00  0.00     0.148 A 
ATOM     94  C   UNL A   1      43.561  26.954  33.618  1.00  0.00     0.002 A 
ATOM     95  C   UNL A   1      45.424  25.677  34.485  1.00  0.00     0.091 A 
ATOM     96  F   UNL A   1      46.951  24.654  32.963  1.00  0.00    -0.205 F 
ATOM     97  C   UNL A   1      44.281  26.462  34.701  1.00  0.00     0.022 A 
BRANCH  95  98
ATOM     98  S   UNL A   1      46.226  24.954  35.919  1.00  0.00     0.127 S 
ATOM     99  O   UNL A   1      47.570  25.523  35.838  1.00  0.00    -0.237 OA
ATOM    100  O   UNL A   1      45.414  25.458  37.027  1.00  0.00    -0.237 OA
ATOM    101  O   UNL A   1      46.138  23.510  35.733  1.00  0.00    -0.744 OA
ENDBRANCH  95  98
ENDBRANCH  68  91
ENDBRANCH  42  43
ENDBRANCH  35  37
ENDBRANCH  34  35
ENDBRANCH   1  34
TORSDOF 18
ENDMDL
MODEL 2
REMARK VINA RESULT:     -13.1      1.349      1.687
REMARK SMILES COc1ccc(-c2[nH]nc3nc(-c4ccc(C(F)(F)F)cc4)cc(C(=O)OCCOC(=O)c4ccc(-c5c6nc(c(-c7cccc(S(=O)(=O)[O-])c7F)c7ccc([nH]7)c(-c7cccc(S(=O)(=O)[O-])c7F)c7nc(c(-c8cccc(S(=O)(=O)[O-])c8F)c8ccc5[nH]8)C=C7)C=C6)cc4)c23)cc1
REMARK SMILES IDX 29 1 28 2 27 3 25 4 26 5 24 6 7 7 8 8 96 9 9 10 10 12 11 13
REMARK SMILES IDX 23 14 12 15 6 16 3 17 4 18 98 19 5 20 97 21 2 22 1 23 13 24
REMARK SMILES IDX 14 25 22 26 15 27 21 28 16 29 17 30 18 31 19 32 20 33 30 34
REMARK SMILES IDX 31 35 32 36 33 37 34 38 95 39 35 40 94 41 36 42 37 43 38 44
REMARK SMILES IDX 88 45 39 46 93 47 87 48 89 49 40 50 92 51 86 52 85 53 41 55
REMARK SMILES IDX 73 56 53 57 72 58 54 59 57 60 71 61 90 62 55 63 56 64 70 66
REMARK SMILES IDX 91 67 58 68 42 69 43 70 51 71 44 72 46 73 52 74 45 75 47 76
REMARK SMILES IDX 48 77 49 78 50 79 74 80 75 81 83 82 76 83 78 84 84 85 77 86
REMARK SMILES IDX 79 87 80 88 81 89 82 90 59 91 60 92 68 93 61 94 63 95 69 96
REMARK SMILES IDX 62 97 64 98 65 99 66 100 67 101
REMARK H PARENT 8 11 89 54 57 65
REMARK Flexibility Score: inf
ROOT
ATOM      1  C   UNL A   1      34.102  29.622  27.217  1.00  0.00     0.275 C 
ENDROOT
BRANCH   1   2
ATOM      2  C   UNL A   1      33.154  28.440  27.172  1.00  0.00     0.275 C 
BRANCH   2   3
ATOM      3  O   UNL A   1      33.474  27.660  26.012  1.00  0.00    -0.458 OA
BRANCH   3   4
ATOM      4  C   UNL A   1      32.738  26.535  25.823  1.00  0.00     0.339 C 
ATOM      5  O   UNL A   1      31.679  26.277  26.359  1.00  0.00    -0.246 OA
BRANCH   4   6
ATOM      6  C   UNL A   1      33.462  25.662  24.888  1.00  0.00     0.075 A 
ATOM      7  C   UNL A   1      32.026  25.720  22.814  1.00  0.00     0.075 A 
ATOM      8  N   UNL A   1      32.140  24.998  21.647  1.00  0.00    -0.275 N 
ATOM      9  C   UNL A   1      33.068  25.268  23.604  1.00  0.00     0.061 A 
ATOM     10  N   UNL A   1      33.167  24.131  21.616  1.00  0.00    -0.154 NA
ATOM     11  H   UNL A   1      31.517  25.108  20.894  1.00  0.00     0.190 HD
ATOM     12  C   UNL A   1      33.775  24.319  22.787  1.00  0.00     0.182 A 
ATOM     13  N   UNL A   1      34.918  23.708  23.193  1.00  0.00    -0.226 NA
ATOM     14  C   UNL A   1      34.664  25.036  25.260  1.00  0.00     0.045 A 
ATOM     15  C   UNL A   1      35.327  24.097  24.434  1.00  0.00     0.074 A 
BRANCH   7  16
ATOM     16  C   UNL A   1      31.083  26.825  22.909  1.00  0.00     0.001 A 
ATOM     17  C   UNL A   1      29.147  28.868  23.046  1.00  0.00     0.118 A 
ATOM     18  C   UNL A   1      30.447  29.142  22.611  1.00  0.00     0.047 A 
ATOM     19  C   UNL A   1      28.836  27.578  23.462  1.00  0.00     0.047 A 
ATOM     20  C   UNL A   1      31.416  28.130  22.546  1.00  0.00     0.014 A 
ATOM     21  C   UNL A   1      29.801  26.571  23.397  1.00  0.00     0.014 A 
BRANCH  17  22
ATOM     22  O   UNL A   1      28.280  29.925  23.010  1.00  0.00    -0.497 OA
ATOM     23  C   UNL A   1      28.010  30.491  21.729  1.00  0.00     0.278 C 
ENDBRANCH  17  22
ENDBRANCH   7  16
BRANCH  15  24
ATOM     24  C   UNL A   1      36.519  23.402  24.958  1.00  0.00     0.000 A 
ATOM     25  C   UNL A   1      36.829  22.084  24.591  1.00  0.00     0.011 A 
ATOM     26  C   UNL A   1      37.392  24.060  25.843  1.00  0.00     0.011 A 
ATOM     27  C   UNL A   1      37.979  21.452  25.084  1.00  0.00     0.014 A 
ATOM     28  C   UNL A   1      38.536  23.434  26.339  1.00  0.00     0.014 A 
ATOM     29  C   UNL A   1      38.842  22.121  25.966  1.00  0.00     0.056 A 
BRANCH  29  30
ATOM     30  C   UNL A   1      40.070  21.431  26.509  1.00  0.00     0.416 C 
ATOM     31  F   UNL A   1      39.922  20.080  26.586  1.00  0.00    -0.166 F 
ATOM     32  F   UNL A   1      41.177  21.644  25.747  1.00  0.00    -0.166 F 
ATOM     33  F   UNL A   1      40.406  21.835  27.769  1.00  0.00    -0.166 F 
ENDBRANCH  29  30
ENDBRANCH  15  24
ENDBRANCH   4   6
ENDBRANCH   3   4
ENDBRANCH   2   3
ENDBRANCH   1   2
BRANCH   1  34
ATOM     34  O   UNL A   1      35.426  29.181  27.510  1.00  0.00    -0.458 OA
BRANCH  34  35
ATOM     35  C   UNL A   1      36.135  29.887  28.419  1.00  0.00     0.338 C 
ATOM     36  O   UNL A   1      35.775  30.866  29.049  1.00  0.00    -0.246 OA
BRANCH  35  37
ATOM     37  C   UNL A   1      37.474  29.272  28.465  1.00  0.00     0.060 A 
ATOM     38  C   UNL A   1      37.852  28.456  29.538  1.00  0.00     0.016 A 
ATOM     39  C   UNL A   1      38.358  29.529  27.405  1.00  0.00     0.016 A 
ATOM     40  C   UNL A   1      39.120  27.884  29.532  1.00  0.00     0.010 A 
ATOM     41  C   UNL A   1      39.602  28.948  27.391  1.00  0.00     0.010 A 
ATOM     42  C   UNL A   1      39.989  28.154  28.469  1.00  0.00    -0.014 A 
BRANCH  42  43
ATOM     43  C   UNL A   1      41.361  27.681  28.500  1.00  0.00     0.031 A 
ATOM     44  C   UNL A   1      41.690  26.406  27.813  1.00  0.00     0.074 A 
ATOM     45  C   UNL A   1      42.343  28.504  28.919  1.00  0.00     0.049 A 
ATOM     46  N   UNL A   1      42.172  25.328  28.339  1.00  0.00    -0.248 NA
ATOM     47  C   UNL A   1      41.434  26.300  26.371  1.00  0.00     0.031 C 
ATOM     48  C   UNL A   1      42.235  29.926  29.269  1.00  0.00     0.029 A 
ATOM     49  N   UNL A   1      43.679  28.273  28.957  1.00  0.00    -0.354 N 
ATOM     50  C   UNL A   1      42.469  24.474  27.276  1.00  0.00     0.074 A 
ATOM     51  C   UNL A   1      41.871  25.066  26.107  1.00  0.00     0.031 C 
ATOM     52  C   UNL A   1      43.465  30.481  29.240  1.00  0.00     0.029 A 
ATOM     53  C   UNL A   1      44.441  29.428  29.036  1.00  0.00     0.049 A 
ATOM     54  H   UNL A   1      44.072  27.370  28.932  1.00  0.00     0.167 HD
ATOM     55  C   UNL A   1      43.351  23.442  27.407  1.00  0.00     0.034 A 
ATOM     56  C   UNL A   1      45.781  29.517  28.886  1.00  0.00     0.034 A 
ATOM     57  C   UNL A   1      43.666  23.184  28.789  1.00  0.00     0.049 A 
ATOM     58  C   UNL A   1      46.344  28.172  29.144  1.00  0.00     0.074 A 
ATOM     59  C   UNL A   1      42.944  22.851  29.917  1.00  0.00     0.029 A 
ATOM     60  N   UNL A   1      44.894  23.600  29.243  1.00  0.00    -0.354 N 
ATOM     61  N   UNL A   1      46.297  27.582  30.307  1.00  0.00    -0.248 NA
ATOM     62  C   UNL A   1      46.613  27.301  28.013  1.00  0.00     0.031 C 
ATOM     63  C   UNL A   1      43.588  23.551  30.980  1.00  0.00     0.029 A 
ATOM     64  C   UNL A   1      44.679  24.235  30.436  1.00  0.00     0.049 A 
ATOM     65  H   UNL A   1      45.760  23.467  28.796  1.00  0.00     0.167 HD
ATOM     66  C   UNL A   1      46.089  26.240  30.011  1.00  0.00     0.074 A 
ATOM     67  C   UNL A   1      46.428  26.113  28.596  1.00  0.00     0.031 C 
ATOM     68  C   UNL A   1      45.387  25.425  30.858  1.00  0.00     0.034 A 
BRANCH  55  69
ATOM     69  C   UNL A   1      44.198  22.834  26.311  1.00  0.00     0.023 A 
ATOM     70  C   UNL A   1      44.838  23.728  25.418  1.00  0.00     0.012 A 
ATOM     71  C   UNL A   1      44.176  21.472  25.941  1.00  0.00     0.148 A 
ATOM     72  C   UNL A   1      45.366  23.304  24.194  1.00  0.00     0.002 A 
ATOM     73  C   UNL A   1      44.772  21.043  24.757  1.00  0.00     0.091 A 
ATOM     74  F   UNL A   1      43.467  20.595  26.659  1.00  0.00    -0.205 F 
ATOM     75  C   UNL A   1      45.339  21.957  23.865  1.00  0.00     0.022 A 
BRANCH  73  76
ATOM     76  S   UNL A   1      44.818  19.303  24.309  1.00  0.00     0.127 S 
ATOM     77  O   UNL A   1      45.362  19.363  22.957  1.00  0.00    -0.237 OA
ATOM     78  O   UNL A   1      45.724  18.751  25.319  1.00  0.00    -0.237 OA
ATOM     79  O   UNL A   1      43.440  18.845  24.434  1.00  0.00    -0.744 OA
ENDBRANCH  73  76
ENDBRANCH  55  69
BRANCH  56  80
ATOM     80  C   UNL A   1      46.569  30.641  28.347  1.00  0.00     0.023 A 
ATOM     81  C   UNL A   1      46.503  30.952  26.979  1.00  0.00     0.012 A 
ATOM     82  C   UNL A   1      47.210  31.556  29.216  1.00  0.00     0.148 A 
ATOM     83  C   UNL A   1      47.041  32.147  26.489  1.00  0.00     0.002 A 
ATOM     84  C   UNL A   1      47.753  32.738  28.723  1.00  0.00     0.091 A 
ATOM     85  F   UNL A   1      47.208  31.307  30.533  1.00  0.00    -0.205 F 
ATOM     86  C   UNL A   1      47.661  33.041  27.359  1.00  0.00     0.022 A 
BRANCH  84  87
ATOM     87  S   UNL A   1      48.557  33.937  29.794  1.00  0.00     0.127 S 
ATOM     88  O   UNL A   1      48.984  34.962  28.840  1.00  0.00    -0.237 OA
ATOM     89  O   UNL A   1      47.466  34.338  30.675  1.00  0.00    -0.237 OA
ATOM     90  O   UNL A   1      49.658  33.222  30.429  1.00  0.00    -0.744 OA
ENDBRANCH  84  87
ENDBRANCH  56  80
BRANCH  68  91
ATOM     91  C   UNL A   1      45.037  25.942  32.234  1.00  0.00     0.023 A 
ATOM     92  C   UNL A   1      45.929  25.813  33.320  1.00  0.00     0.012 A 
ATOM     93  C   UNL A   1      43.903  26.758  32.389  1.00  0.00     0.148 A 
ATOM     94  C   UNL A   1      45.686  26.458  34.535  1.00  0.00     0.002 A 
ATOM     95  C   UNL A   1      43.688  27.437  33.584  1.00  0.00     0.091 A 
ATOM     96  F   UNL A   1      43.065  26.887  31.347  1.00  0.00    -0.205 F 
ATOM     97  C   UNL A   1      44.574  27.283  34.662  1.00  0.00     0.022 A 
BRANCH  95  98
ATOM     98  S   UNL A   1      42.353  28.623  33.761  1.00  0.00     0.127 S 
ATOM     99  O   UNL A   1      42.590  29.155  35.102  1.00  0.00    -0.237 OA
ATOM    100  O   UNL A   1      42.617  29.567  32.674  1.00  0.00    -0.237 OA
ATOM    101  O   UNL A   1      41.122  27.859  33.592  1.00  0.00    -0.744 OA
ENDBRANCH  95  98
ENDBRANCH  68  91
ENDBRANCH  42  43
ENDBRANCH  35  37
ENDBRANCH  34  35
ENDBRANCH   1  34
TORSDOF 18
ENDMDL
MODEL 3
REMARK VINA RESULT:     -12.8      2.528      7.595
REMARK SMILES COc1ccc(-c2[nH]nc3nc(-c4ccc(C(F)(F)F)cc4)cc(C(=O)OCCOC(=O)c4ccc(-c5c6nc(c(-c7cccc(S(=O)(=O)[O-])c7F)c7ccc([nH]7)c(-c7cccc(S(=O)(=O)[O-])c7F)c7nc(c(-c8cccc(S(=O)(=O)[O-])c8F)c8ccc5[nH]8)C=C7)C=C6)cc4)c23)cc1
REMARK SMILES IDX 29 1 28 2 27 3 25 4 26 5 24 6 7 7 8 8 96 9 9 10 10 12 11 13
REMARK SMILES IDX 23 14 12 15 6 16 3 17 4 18 98 19 5 20 97 21 2 22 1 23 13 24
REMARK SMILES IDX 14 25 22 26 15 27 21 28 16 29 17 30 18 31 19 32 20 33 30 34
REMARK SMILES IDX 31 35 32 36 33 37 34 38 95 39 35 40 94 41 36 42 37 43 38 44
REMARK SMILES IDX 88 45 39 46 93 47 87 48 89 49 40 50 92 51 86 52 85 53 41 55
REMARK SMILES IDX 73 56 53 57 72 58 54 59 57 60 71 61 90 62 55 63 56 64 70 66
REMARK SMILES IDX 91 67 58 68 42 69 43 70 51 71 44 72 46 73 52 74 45 75 47 76
REMARK SMILES IDX 48 77 49 78 50 79 74 80 75 81 83 82 76 83 78 84 84 85 77 86
REMARK SMILES IDX 79 87 80 88 81 89 82 90 59 91 60 92 68 93 61 94 63 95 69 96
REMARK SMILES IDX 62 97 64 98 65 99 66 100 67 101
REMARK H PARENT 8 11 89 54 57 65
REMARK Flexibility Score: inf
ROOT
ATOM      1  C   UNL A   1      32.790  30.025  26.066  1.00  0.00     0.275 C 
ENDROOT
BRANCH   1   2
ATOM      2  C   UNL A   1      32.064  28.703  25.912  1.00  0.00     0.275 C 
BRANCH   2   3
ATOM      3  O   UNL A   1      33.047  27.681  25.703  1.00  0.00    -0.458 OA
BRANCH   3   4
ATOM      4  C   UNL A   1      32.606  26.398  25.776  1.00  0.00     0.339 C 
ATOM      5  O   UNL A   1      31.755  25.980  26.534  1.00  0.00    -0.246 OA
BRANCH   4   6
ATOM      6  C   UNL A   1      33.366  25.594  24.808  1.00  0.00     0.075 A 
ATOM      7  C   UNL A   1      32.005  25.798  22.693  1.00  0.00     0.075 A 
ATOM      8  N   UNL A   1      32.163  25.160  21.484  1.00  0.00    -0.275 N 
ATOM      9  C   UNL A   1      33.020  25.291  23.487  1.00  0.00     0.061 A 
ATOM     10  N   UNL A   1      33.193  24.298  21.428  1.00  0.00    -0.154 NA
ATOM     11  H   UNL A   1      31.567  25.323  20.718  1.00  0.00     0.190 HD
ATOM     12  C   UNL A   1      33.758  24.403  22.631  1.00  0.00     0.182 A 
ATOM     13  N   UNL A   1      34.887  23.764  23.033  1.00  0.00    -0.226 NA
ATOM     14  C   UNL A   1      34.555  24.943  25.178  1.00  0.00     0.045 A 
ATOM     15  C   UNL A   1      35.250  24.065  24.312  1.00  0.00     0.074 A 
BRANCH   7  16
ATOM     16  C   UNL A   1      31.056  26.894  22.832  1.00  0.00     0.001 A 
ATOM     17  C   UNL A   1      29.339  29.106  23.138  1.00  0.00     0.118 A 
ATOM     18  C   UNL A   1      28.938  27.828  23.538  1.00  0.00     0.047 A 
ATOM     19  C   UNL A   1      30.582  29.263  22.537  1.00  0.00     0.047 A 
ATOM     20  C   UNL A   1      29.786  26.723  23.384  1.00  0.00     0.014 A 
ATOM     21  C   UNL A   1      31.427  28.161  22.382  1.00  0.00     0.014 A 
BRANCH  17  22
ATOM     22  O   UNL A   1      28.445  30.110  23.394  1.00  0.00    -0.497 OA
ATOM     23  C   UNL A   1      28.622  31.327  22.674  1.00  0.00     0.278 C 
ENDBRANCH  17  22
ENDBRANCH   7  16
BRANCH  15  24
ATOM     24  C   UNL A   1      36.424  23.334  24.828  1.00  0.00     0.000 A 
ATOM     25  C   UNL A   1      36.681  22.001  24.476  1.00  0.00     0.011 A 
ATOM     26  C   UNL A   1      37.333  23.973  25.691  1.00  0.00     0.011 A 
ATOM     27  C   UNL A   1      37.816  21.336  24.960  1.00  0.00     0.014 A 
ATOM     28  C   UNL A   1      38.461  23.312  26.180  1.00  0.00     0.014 A 
ATOM     29  C   UNL A   1      38.715  21.984  25.820  1.00  0.00     0.056 A 
BRANCH  29  30
ATOM     30  C   UNL A   1      39.925  21.259  26.355  1.00  0.00     0.416 C 
ATOM     31  F   UNL A   1      39.841  19.909  26.194  1.00  0.00    -0.166 F 
ATOM     32  F   UNL A   1      41.082  21.638  25.745  1.00  0.00    -0.166 F 
ATOM     33  F   UNL A   1      40.130  21.457  27.689  1.00  0.00    -0.166 F 
ENDBRANCH  29  30
ENDBRANCH  15  24
ENDBRANCH   4   6
ENDBRANCH   3   4
ENDBRANCH   2   3
ENDBRANCH   1   2
BRANCH   1  34
ATOM     34  O   UNL A   1      33.713  29.957  27.150  1.00  0.00    -0.458 OA
BRANCH  34  35
ATOM     35  C   UNL A   1      34.278  31.113  27.565  1.00  0.00     0.338 C 
ATOM     36  O   UNL A   1      33.786  32.228  27.564  1.00  0.00    -0.246 OA
BRANCH  35  37
ATOM     37  C   UNL A   1      35.653  30.774  27.977  1.00  0.00     0.060 A 
ATOM     38  C   UNL A   1      36.095  29.446  27.977  1.00  0.00     0.016 A 
ATOM     39  C   UNL A   1      36.503  31.819  28.371  1.00  0.00     0.016 A 
ATOM     40  C   UNL A   1      37.405  29.174  28.359  1.00  0.00     0.010 A 
ATOM     41  C   UNL A   1      37.801  31.551  28.730  1.00  0.00     0.010 A 
ATOM     42  C   UNL A   1      38.237  30.228  28.752  1.00  0.00    -0.014 A 
BRANCH  42  43
ATOM     43  C   UNL A   1      39.563  29.962  29.281  1.00  0.00     0.031 A 
ATOM     44  C   UNL A   1      39.853  30.328  30.691  1.00  0.00     0.074 A 
ATOM     45  C   UNL A   1      40.413  29.178  28.589  1.00  0.00     0.049 A 
ATOM     46  N   UNL A   1      40.743  31.160  31.123  1.00  0.00    -0.248 NA
ATOM     47  C   UNL A   1      39.045  29.718  31.754  1.00  0.00     0.031 C 
ATOM     48  C   UNL A   1      40.142  28.423  27.359  1.00  0.00     0.029 A 
ATOM     49  N   UNL A   1      41.656  28.762  28.944  1.00  0.00    -0.354 N 
ATOM     50  C   UNL A   1      40.751  31.036  32.513  1.00  0.00     0.074 A 
ATOM     51  C   UNL A   1      39.598  30.240  32.851  1.00  0.00     0.031 C 
ATOM     52  C   UNL A   1      41.083  27.467  27.213  1.00  0.00     0.029 A 
ATOM     53  C   UNL A   1      42.094  27.655  28.236  1.00  0.00     0.049 A 
ATOM     54  H   UNL A   1      42.195  29.206  29.638  1.00  0.00     0.167 HD
ATOM     55  C   UNL A   1      41.816  31.437  33.265  1.00  0.00     0.034 A 
ATOM     56  C   UNL A   1      43.187  26.909  28.509  1.00  0.00     0.034 A 
ATOM     57  C   UNL A   1      42.732  32.243  32.500  1.00  0.00     0.049 A 
ATOM     58  C   UNL A   1      44.096  27.742  29.328  1.00  0.00     0.074 A 
ATOM     59  C   UNL A   1      42.650  33.426  31.794  1.00  0.00     0.029 A 
ATOM     60  N   UNL A   1      43.907  31.653  32.101  1.00  0.00    -0.354 N 
ATOM     61  N   UNL A   1      44.680  28.823  28.884  1.00  0.00    -0.248 NA
ATOM     62  C   UNL A   1      44.055  27.606  30.774  1.00  0.00     0.031 C 
ATOM     63  C   UNL A   1      43.503  33.236  30.667  1.00  0.00     0.029 A 
ATOM     64  C   UNL A   1      44.076  31.966  30.780  1.00  0.00     0.049 A 
ATOM     65  H   UNL A   1      44.510  31.111  32.658  1.00  0.00     0.167 HD
ATOM     66  C   UNL A   1      44.678  29.693  29.968  1.00  0.00     0.074 A 
ATOM     67  C   UNL A   1      44.409  28.845  31.127  1.00  0.00     0.031 C 
ATOM     68  C   UNL A   1      44.604  31.048  29.793  1.00  0.00     0.034 A 
BRANCH  55  69
ATOM     69  C   UNL A   1      42.236  30.876  34.605  1.00  0.00     0.023 A 
ATOM     70  C   UNL A   1      42.738  31.795  35.560  1.00  0.00     0.012 A 
ATOM     71  C   UNL A   1      42.428  29.505  34.878  1.00  0.00     0.148 A 
ATOM     72  C   UNL A   1      43.452  31.376  36.688  1.00  0.00     0.002 A 
ATOM     73  C   UNL A   1      43.072  29.091  36.043  1.00  0.00     0.091 A 
ATOM     74  F   UNL A   1      42.111  28.589  33.958  1.00  0.00    -0.205 F 
ATOM     75  C   UNL A   1      43.614  30.021  36.934  1.00  0.00     0.022 A 
BRANCH  73  76
ATOM     76  S   UNL A   1      43.258  27.348  36.441  1.00  0.00     0.127 S 
ATOM     77  O   UNL A   1      43.831  27.414  37.781  1.00  0.00    -0.237 OA
ATOM     78  O   UNL A   1      41.875  26.872  36.379  1.00  0.00    -0.237 OA
ATOM     79  O   UNL A   1      44.118  26.812  35.393  1.00  0.00    -0.744 OA
ENDBRANCH  73  76
ENDBRANCH  55  69
BRANCH  56  80
ATOM     80  C   UNL A   1      43.396  25.468  28.270  1.00  0.00     0.023 A 
ATOM     81  C   UNL A   1      42.521  24.528  28.840  1.00  0.00     0.012 A 
ATOM     82  C   UNL A   1      44.318  25.025  27.293  1.00  0.00     0.148 A 
ATOM     83  C   UNL A   1      42.548  23.189  28.437  1.00  0.00     0.002 A 
ATOM     84  C   UNL A   1      44.349  23.691  26.903  1.00  0.00     0.091 A 
ATOM     85  F   UNL A   1      45.101  25.928  26.686  1.00  0.00    -0.205 F 
ATOM     86  C   UNL A   1      43.457  22.771  27.467  1.00  0.00     0.022 A 
BRANCH  84  87
ATOM     87  S   UNL A   1      45.490  23.089  25.651  1.00  0.00     0.127 S 
ATOM     88  O   UNL A   1      45.231  21.649  25.667  1.00  0.00    -0.237 OA
ATOM     89  O   UNL A   1      45.021  23.781  24.455  1.00  0.00    -0.237 OA
ATOM     90  O   UNL A   1      46.821  23.459  26.119  1.00  0.00    -0.744 OA
ENDBRANCH  84  87
ENDBRANCH  56  80
BRANCH  68  91
ATOM     91  C   UNL A   1      44.759  31.605  28.396  1.00  0.00     0.023 A 
ATOM     92  C   UNL A   1      43.657  31.723  27.522  1.00  0.00     0.012 A 
ATOM     93  C   UNL A   1      45.972  32.218  28.036  1.00  0.00     0.148 A 
ATOM     94  C   UNL A   1      43.766  32.411  26.312  1.00  0.00     0.002 A 
ATOM     95  C   UNL A   1      46.064  32.943  26.852  1.00  0.00     0.091 A 
ATOM     96  F   UNL A   1      47.013  32.112  28.877  1.00  0.00    -0.205 F 
ATOM     97  C   UNL A   1      44.965  33.034  25.983  1.00  0.00     0.022 A 
BRANCH  95  98
ATOM     98  S   UNL A   1      47.536  33.885  26.441  1.00  0.00     0.127 S 
ATOM     99  O   UNL A   1      48.529  32.832  26.243  1.00  0.00    -0.237 OA
ATOM    100  O   UNL A   1      47.135  34.587  25.220  1.00  0.00    -0.237 OA
ATOM    101  O   UNL A   1      47.768  34.768  27.579  1.00  0.00    -0.744 OA
ENDBRANCH  95  98
ENDBRANCH  68  91
ENDBRANCH  42  43
ENDBRANCH  35  37
ENDBRANCH  34  35
ENDBRANCH   1  34
TORSDOF 18
ENDMDL
