MODEL 1
REMARK VINA RESULT:     -12.4      0.000      0.000
REMARK SMILES O=C(OCCOC(=O)[C@H]1CC=CC[C@H]1C(=O)Nc1ccc(S(=O)(=O)N2CCc3ccccc32)cc1)c1ccc(-c2c3nc(c(-c4cccc(S(=O)(=O)[O-])c4F)c4ccc([nH]4)c(-c4cccc(S(=O)(=O)[O-])c4F)c4nc(c(-c5cccc(S(=O)(=O)[O-])c5F)c5ccc2[nH]5)C=C4)C=C3)cc1
REMARK SMILES IDX 5 1 4 2 3 3 2 4 1 5 36 6 37 7 98 8 38 9 97 10 39 11 40 12
REMARK SMILES IDX 41 13 91 14 42 15 96 16 90 17 92 18 43 19 95 20 89 21 88 22
REMARK SMILES IDX 44 24 76 25 56 26 75 27 57 28 60 29 74 30 93 31 58 32 59 33
REMARK SMILES IDX 73 35 94 36 61 37 45 38 46 39 54 40 47 41 49 42 55 43 48 44
REMARK SMILES IDX 50 45 51 46 52 47 53 48 77 49 78 50 86 51 79 52 81 53 87 54
REMARK SMILES IDX 80 55 82 56 83 57 84 58 85 59 62 60 63 61 71 62 64 63 66 64
REMARK SMILES IDX 72 65 65 66 67 67 68 68 69 69 70 70 6 71 7 72 8 73 9 74
REMARK SMILES IDX 10 75 14 76 11 77 13 78 12 79 15 80 16 81 17 82 18 84 19 85
REMARK SMILES IDX 35 86 20 87 34 88 21 89 22 90 23 91 24 92 25 93 26 94 33 95
REMARK SMILES IDX 27 96 28 97 32 98 29 99 31 100 30 101
REMARK H PARENT 92 23 60 34 17 83
REMARK Flexibility Score: inf
ROOT
ATOM      1  C   UNL A   1      32.681  31.567  27.254  1.00  0.00     0.274 C 
ENDROOT
BRANCH   1   2
ATOM      2  C   UNL A   1      32.356  33.062  27.185  1.00  0.00     0.275 C 
BRANCH   2   3
ATOM      3  O   UNL A   1      32.232  33.791  28.428  1.00  0.00    -0.458 OA
BRANCH   3   4
ATOM      4  C   UNL A   1      33.175  34.707  28.743  1.00  0.00     0.338 C 
ATOM      5  O   UNL A   1      33.041  35.909  28.574  1.00  0.00    -0.246 OA
BRANCH   4   6
ATOM      6  C   UNL A   1      34.367  34.074  29.377  1.00  0.00     0.060 A 
ATOM      7  C   UNL A   1      35.661  34.531  29.104  1.00  0.00     0.016 A 
ATOM      8  C   UNL A   1      34.180  33.068  30.339  1.00  0.00     0.016 A 
ATOM      9  C   UNL A   1      36.746  34.029  29.819  1.00  0.00     0.010 A 
ATOM     10  C   UNL A   1      35.275  32.540  31.038  1.00  0.00     0.010 A 
ATOM     11  C   UNL A   1      36.563  33.024  30.787  1.00  0.00    -0.014 A 
BRANCH  11  12
ATOM     12  C   UNL A   1      37.782  32.387  31.345  1.00  0.00     0.031 A 
ATOM     13  C   UNL A   1      38.063  32.640  32.790  1.00  0.00     0.074 A 
ATOM     14  C   UNL A   1      38.550  31.535  30.640  1.00  0.00     0.049 A 
ATOM     15  N   UNL A   1      38.940  32.075  33.570  1.00  0.00    -0.248 NA
ATOM     16  C   UNL A   1      37.253  33.690  33.435  1.00  0.00     0.031 C 
ATOM     17  C   UNL A   1      38.424  31.286  29.215  1.00  0.00     0.029 A 
ATOM     18  N   UNL A   1      39.539  30.664  31.028  1.00  0.00    -0.354 N 
ATOM     19  C   UNL A   1      38.862  32.772  34.765  1.00  0.00     0.074 A 
ATOM     20  C   UNL A   1      37.774  33.717  34.649  1.00  0.00     0.031 C 
ATOM     21  C   UNL A   1      39.135  30.198  28.879  1.00  0.00     0.029 A 
ATOM     22  C   UNL A   1      39.885  29.752  30.046  1.00  0.00     0.049 A 
ATOM     23  H   UNL A   1      39.961  30.687  31.917  1.00  0.00     0.167 HD
ATOM     24  C   UNL A   1      39.688  32.695  35.829  1.00  0.00     0.034 A 
ATOM     25  C   UNL A   1      40.711  28.686  30.098  1.00  0.00     0.034 A 
ATOM     26  C   UNL A   1      40.818  31.816  35.889  1.00  0.00     0.049 A 
ATOM     27  C   UNL A   1      41.519  28.508  31.357  1.00  0.00     0.074 A 
ATOM     28  C   UNL A   1      41.811  31.746  36.844  1.00  0.00     0.029 A 
ATOM     29  N   UNL A   1      41.113  30.863  34.924  1.00  0.00    -0.354 N 
ATOM     30  N   UNL A   1      41.424  29.159  32.493  1.00  0.00    -0.248 NA
ATOM     31  C   UNL A   1      42.584  27.495  31.333  1.00  0.00     0.031 C 
ATOM     32  C   UNL A   1      42.716  30.753  36.450  1.00  0.00     0.029 A 
ATOM     33  C   UNL A   1      42.268  30.187  35.266  1.00  0.00     0.049 A 
ATOM     34  H   UNL A   1      40.578  30.693  34.115  1.00  0.00     0.167 HD
ATOM     35  C   UNL A   1      42.442  28.670  33.299  1.00  0.00     0.074 A 
ATOM     36  C   UNL A   1      43.089  27.608  32.554  1.00  0.00     0.031 C 
ATOM     37  C   UNL A   1      42.849  29.102  34.517  1.00  0.00     0.034 A 
BRANCH  24  38
ATOM     38  C   UNL A   1      39.443  33.698  36.915  1.00  0.00     0.023 A 
ATOM     39  C   UNL A   1      39.963  35.002  36.802  1.00  0.00     0.012 A 
ATOM     40  C   UNL A   1      38.815  33.297  38.110  1.00  0.00     0.148 A 
ATOM     41  C   UNL A   1      39.903  35.879  37.884  1.00  0.00     0.002 A 
ATOM     42  C   UNL A   1      38.733  34.186  39.173  1.00  0.00     0.091 A 
ATOM     43  F   UNL A   1      38.377  32.034  38.210  1.00  0.00    -0.205 F 
ATOM     44  C   UNL A   1      39.288  35.472  39.067  1.00  0.00     0.022 A 
BRANCH  42  45
ATOM     45  S   UNL A   1      37.948  33.751  40.726  1.00  0.00     0.127 S 
ATOM     46  O   UNL A   1      38.894  32.780  41.272  1.00  0.00    -0.237 OA
ATOM     47  O   UNL A   1      37.919  35.036  41.425  1.00  0.00    -0.237 OA
ATOM     48  O   UNL A   1      36.636  33.225  40.375  1.00  0.00    -0.744 OA
ENDBRANCH  42  45
ENDBRANCH  24  38
BRANCH  25  49
ATOM     49  C   UNL A   1      40.815  27.702  28.972  1.00  0.00     0.023 A 
ATOM     50  C   UNL A   1      39.899  26.629  28.919  1.00  0.00     0.012 A 
ATOM     51  C   UNL A   1      41.779  27.807  27.952  1.00  0.00     0.148 A 
ATOM     52  C   UNL A   1      39.953  25.680  27.893  1.00  0.00     0.002 A 
ATOM     53  C   UNL A   1      41.778  26.903  26.890  1.00  0.00     0.091 A 
ATOM     54  F   UNL A   1      42.691  28.785  28.029  1.00  0.00    -0.205 F 
ATOM     55  C   UNL A   1      40.882  25.827  26.869  1.00  0.00     0.022 A 
BRANCH  53  56
ATOM     56  S   UNL A   1      42.829  27.152  25.454  1.00  0.00     0.127 S 
ATOM     57  O   UNL A   1      42.641  25.905  24.719  1.00  0.00    -0.237 OA
ATOM     58  O   UNL A   1      42.233  28.333  24.827  1.00  0.00    -0.237 OA
ATOM     59  O   UNL A   1      44.159  27.385  26.006  1.00  0.00    -0.744 OA
ENDBRANCH  53  56
ENDBRANCH  25  49
BRANCH  37  60
ATOM     60  C   UNL A   1      44.054  28.442  35.120  1.00  0.00     0.023 A 
ATOM     61  C   UNL A   1      45.340  28.904  34.778  1.00  0.00     0.012 A 
ATOM     62  C   UNL A   1      43.904  27.468  36.122  1.00  0.00     0.148 A 
ATOM     63  C   UNL A   1      46.465  28.399  35.425  1.00  0.00     0.002 A 
ATOM     64  C   UNL A   1      45.025  26.999  36.792  1.00  0.00     0.091 A 
ATOM     65  F   UNL A   1      42.670  27.029  36.407  1.00  0.00    -0.205 F 
ATOM     66  C   UNL A   1      46.307  27.459  36.442  1.00  0.00     0.022 A 
BRANCH  64  67
ATOM     67  S   UNL A   1      44.899  25.868  38.180  1.00  0.00     0.127 S 
ATOM     68  O   UNL A   1      46.259  25.905  38.717  1.00  0.00    -0.237 OA
ATOM     69  O   UNL A   1      43.892  26.515  39.020  1.00  0.00    -0.237 OA
ATOM     70  O   UNL A   1      44.483  24.591  37.616  1.00  0.00    -0.744 OA
ENDBRANCH  64  67
ENDBRANCH  37  60
ENDBRANCH  11  12
ENDBRANCH   4   6
ENDBRANCH   3   4
ENDBRANCH   2   3
ENDBRANCH   1   2
BRANCH   1  71
ATOM     71  O   UNL A   1      31.553  30.774  26.837  1.00  0.00    -0.462 OA
BRANCH  71  72
ATOM     72  C   UNL A   1      31.878  29.506  26.458  1.00  0.00     0.310 C 
ATOM     73  O   UNL A   1      31.421  28.507  27.003  1.00  0.00    -0.252 OA
BRANCH  72  74
ATOM     74  C   UNL A   1      32.870  29.430  25.292  1.00  0.00     0.116 C 
ATOM     75  C   UNL A   1      34.088  28.528  25.509  1.00  0.00     0.043 C 
ATOM     76  C   UNL A   1      32.209  29.270  23.907  1.00  0.00     0.097 C 
ATOM     77  C   UNL A   1      34.115  27.263  24.713  1.00  0.00    -0.030 C 
ATOM     78  C   UNL A   1      32.839  28.300  22.890  1.00  0.00     0.041 C 
ATOM     79  C   UNL A   1      33.570  27.162  23.500  1.00  0.00    -0.030 C 
BRANCH  76  80
ATOM     80  C   UNL A   1      30.694  29.166  23.871  1.00  0.00     0.228 C 
ATOM     81  O   UNL A   1      30.037  30.216  23.775  1.00  0.00    -0.274 OA
ATOM     82  N   UNL A   1      29.953  28.036  23.839  1.00  0.00    -0.326 N 
ATOM     83  H   UNL A   1      29.020  28.252  23.614  1.00  0.00     0.169 HD
BRANCH  82  84
ATOM     84  C   UNL A   1      30.093  26.655  24.026  1.00  0.00     0.041 A 
ATOM     85  C   UNL A   1      29.983  26.223  25.346  1.00  0.00     0.027 A 
ATOM     86  C   UNL A   1      30.447  25.709  23.073  1.00  0.00     0.027 A 
ATOM     87  C   UNL A   1      30.315  24.918  25.701  1.00  0.00     0.024 A 
ATOM     88  C   UNL A   1      30.778  24.381  23.406  1.00  0.00     0.024 A 
ATOM     89  C   UNL A   1      30.785  24.011  24.738  1.00  0.00     0.088 A 
BRANCH  89  90
ATOM     90  S   UNL A   1      31.797  22.712  25.402  1.00  0.00     0.264 S 
ATOM     91  O   UNL A   1      30.850  21.831  26.064  1.00  0.00    -0.201 OA
ATOM     92  O   UNL A   1      32.559  22.242  24.256  1.00  0.00    -0.201 OA
BRANCH  90  93
ATOM     93  N   UNL A   1      32.961  23.241  26.606  1.00  0.00    -0.266 N 
ATOM     94  C   UNL A   1      33.151  22.291  27.777  1.00  0.00     0.140 C 
ATOM     95  C   UNL A   1      34.254  23.181  25.925  1.00  0.00     0.055 A 
ATOM     96  C   UNL A   1      34.349  21.374  27.462  1.00  0.00     0.060 C 
ATOM     97  C   UNL A   1      34.908  21.989  26.227  1.00  0.00    -0.022 A 
ATOM     98  C   UNL A   1      34.608  23.938  24.820  1.00  0.00     0.027 A 
ATOM     99  C   UNL A   1      35.803  21.432  25.329  1.00  0.00     0.006 A 
ATOM    100  C   UNL A   1      35.498  23.380  23.902  1.00  0.00     0.002 A 
ATOM    101  C   UNL A   1      36.059  22.115  24.138  1.00  0.00     0.000 A 
ENDBRANCH  90  93
ENDBRANCH  89  90
ENDBRANCH  82  84
ENDBRANCH  76  80
ENDBRANCH  72  74
ENDBRANCH  71  72
ENDBRANCH   1  71
TORSDOF 18
ENDMDL
MODEL 2
REMARK VINA RESULT:     -12.2      2.127      2.896
REMARK SMILES O=C(OCCOC(=O)[C@H]1CC=CC[C@H]1C(=O)Nc1ccc(S(=O)(=O)N2CCc3ccccc32)cc1)c1ccc(-c2c3nc(c(-c4cccc(S(=O)(=O)[O-])c4F)c4ccc([nH]4)c(-c4cccc(S(=O)(=O)[O-])c4F)c4nc(c(-c5cccc(S(=O)(=O)[O-])c5F)c5ccc2[nH]5)C=C4)C=C3)cc1
REMARK SMILES IDX 5 1 4 2 3 3 2 4 1 5 36 6 37 7 98 8 38 9 97 10 39 11 40 12
REMARK SMILES IDX 41 13 91 14 42 15 96 16 90 17 92 18 43 19 95 20 89 21 88 22
REMARK SMILES IDX 44 24 76 25 56 26 75 27 57 28 60 29 74 30 93 31 58 32 59 33
REMARK SMILES IDX 73 35 94 36 61 37 45 38 46 39 54 40 47 41 49 42 55 43 48 44
REMARK SMILES IDX 50 45 51 46 52 47 53 48 77 49 78 50 86 51 79 52 81 53 87 54
REMARK SMILES IDX 80 55 82 56 83 57 84 58 85 59 62 60 63 61 71 62 64 63 66 64
REMARK SMILES IDX 72 65 65 66 67 67 68 68 69 69 70 70 6 71 7 72 8 73 9 74
REMARK SMILES IDX 10 75 14 76 11 77 13 78 12 79 15 80 16 81 17 82 18 84 19 85
REMARK SMILES IDX 35 86 20 87 34 88 21 89 22 90 23 91 24 92 25 93 26 94 33 95
REMARK SMILES IDX 27 96 28 97 32 98 29 99 31 100 30 101
REMARK H PARENT 92 23 60 34 17 83
REMARK Flexibility Score: inf
ROOT
ATOM      1  C   UNL A   1      32.741  29.838  26.197  1.00  0.00     0.274 C 
ENDROOT
BRANCH   1   2
ATOM      2  C   UNL A   1      32.284  31.262  26.521  1.00  0.00     0.275 C 
BRANCH   2   3
ATOM      3  O   UNL A   1      32.747  31.863  27.754  1.00  0.00    -0.458 OA
BRANCH   3   4
ATOM      4  C   UNL A   1      33.748  32.769  27.701  1.00  0.00     0.338 C 
ATOM      5  O   UNL A   1      33.618  33.905  27.271  1.00  0.00    -0.246 OA
BRANCH   4   6
ATOM      6  C   UNL A   1      35.009  32.230  28.286  1.00  0.00     0.060 A 
ATOM      7  C   UNL A   1      35.091  30.906  28.736  1.00  0.00     0.016 A 
ATOM      8  C   UNL A   1      36.161  33.033  28.293  1.00  0.00     0.016 A 
ATOM      9  C   UNL A   1      36.316  30.379  29.138  1.00  0.00     0.010 A 
ATOM     10  C   UNL A   1      37.389  32.511  28.726  1.00  0.00     0.010 A 
ATOM     11  C   UNL A   1      37.474  31.179  29.143  1.00  0.00    -0.014 A 
BRANCH  11  12
ATOM     12  C   UNL A   1      38.686  30.617  29.788  1.00  0.00     0.031 A 
ATOM     13  C   UNL A   1      38.822  30.837  31.258  1.00  0.00     0.074 A 
ATOM     14  C   UNL A   1      39.577  29.852  29.128  1.00  0.00     0.049 A 
ATOM     15  N   UNL A   1      39.671  30.313  32.096  1.00  0.00    -0.248 NA
ATOM     16  C   UNL A   1      37.879  31.798  31.860  1.00  0.00     0.031 C 
ATOM     17  C   UNL A   1      39.594  29.646  27.691  1.00  0.00     0.029 A 
ATOM     18  N   UNL A   1      40.596  29.046  29.576  1.00  0.00    -0.354 N 
ATOM     19  C   UNL A   1      39.435  30.958  33.299  1.00  0.00     0.074 A 
ATOM     20  C   UNL A   1      38.290  31.820  33.115  1.00  0.00     0.031 C 
ATOM     21  C   UNL A   1      40.416  28.629  27.387  1.00  0.00     0.029 A 
ATOM     22  C   UNL A   1      41.095  28.199  28.602  1.00  0.00     0.049 A 
ATOM     23  H   UNL A   1      40.937  29.068  30.499  1.00  0.00     0.167 HD
ATOM     24  C   UNL A   1      40.171  30.905  34.430  1.00  0.00     0.034 A 
ATOM     25  C   UNL A   1      41.996  27.198  28.695  1.00  0.00     0.034 A 
ATOM     26  C   UNL A   1      41.358  30.114  34.563  1.00  0.00     0.049 A 
ATOM     27  C   UNL A   1      42.704  27.036  30.015  1.00  0.00     0.074 A 
ATOM     28  C   UNL A   1      42.268  30.085  35.599  1.00  0.00     0.029 A 
ATOM     29  N   UNL A   1      41.809  29.222  33.600  1.00  0.00    -0.354 N 
ATOM     30  N   UNL A   1      42.461  27.637  31.157  1.00  0.00    -0.248 NA
ATOM     31  C   UNL A   1      43.844  26.109  30.054  1.00  0.00     0.031 C 
ATOM     32  C   UNL A   1      43.279  29.179  35.258  1.00  0.00     0.029 A 
ATOM     33  C   UNL A   1      42.980  28.624  34.022  1.00  0.00     0.049 A 
ATOM     34  H   UNL A   1      41.360  29.041  32.742  1.00  0.00     0.167 HD
ATOM     35  C   UNL A   1      43.442  27.198  32.035  1.00  0.00     0.074 A 
ATOM     36  C   UNL A   1      44.233  26.215  31.319  1.00  0.00     0.031 C 
ATOM     37  C   UNL A   1      43.707  27.615  33.296  1.00  0.00     0.034 A 
BRANCH  24  38
ATOM     38  C   UNL A   1      39.754  31.847  35.519  1.00  0.00     0.023 A 
ATOM     39  C   UNL A   1      40.442  33.062  35.703  1.00  0.00     0.012 A 
ATOM     40  C   UNL A   1      38.770  31.453  36.446  1.00  0.00     0.148 A 
ATOM     41  C   UNL A   1      40.188  33.851  36.823  1.00  0.00     0.002 A 
ATOM     42  C   UNL A   1      38.502  32.259  37.543  1.00  0.00     0.091 A 
ATOM     43  F   UNL A   1      38.169  30.267  36.276  1.00  0.00    -0.205 F 
ATOM     44  C   UNL A   1      39.218  33.451  37.741  1.00  0.00     0.022 A 
BRANCH  42  45
ATOM     45  S   UNL A   1      37.262  31.828  38.767  1.00  0.00     0.127 S 
ATOM     46  O   UNL A   1      36.190  32.766  38.442  1.00  0.00    -0.237 OA
ATOM     47  O   UNL A   1      36.975  30.433  38.434  1.00  0.00    -0.237 OA
ATOM     48  O   UNL A   1      37.898  32.021  40.063  1.00  0.00    -0.744 OA
ENDBRANCH  42  45
ENDBRANCH  24  38
BRANCH  25  49
ATOM     49  C   UNL A   1      42.273  26.267  27.554  1.00  0.00     0.023 A 
ATOM     50  C   UNL A   1      43.113  26.704  26.506  1.00  0.00     0.012 A 
ATOM     51  C   UNL A   1      41.744  24.964  27.484  1.00  0.00     0.148 A 
ATOM     52  C   UNL A   1      43.401  25.878  25.416  1.00  0.00     0.002 A 
ATOM     53  C   UNL A   1      42.098  24.118  26.434  1.00  0.00     0.091 A 
ATOM     54  F   UNL A   1      40.897  24.564  28.442  1.00  0.00    -0.205 F 
ATOM     55  C   UNL A   1      42.908  24.578  25.388  1.00  0.00     0.022 A 
BRANCH  53  56
ATOM     56  S   UNL A   1      41.642  22.380  26.444  1.00  0.00     0.127 S 
ATOM     57  O   UNL A   1      42.136  21.942  27.745  1.00  0.00    -0.237 OA
ATOM     58  O   UNL A   1      40.184  22.436  26.324  1.00  0.00    -0.237 OA
ATOM     59  O   UNL A   1      42.308  21.817  25.275  1.00  0.00    -0.744 OA
ENDBRANCH  53  56
ENDBRANCH  25  49
BRANCH  37  60
ATOM     60  C   UNL A   1      44.905  27.027  33.983  1.00  0.00     0.023 A 
ATOM     61  C   UNL A   1      46.145  27.688  33.897  1.00  0.00     0.012 A 
ATOM     62  C   UNL A   1      44.765  25.907  34.820  1.00  0.00     0.148 A 
ATOM     63  C   UNL A   1      47.237  27.236  34.635  1.00  0.00     0.002 A 
ATOM     64  C   UNL A   1      45.844  25.487  35.585  1.00  0.00     0.091 A 
ATOM     65  F   UNL A   1      43.579  25.283  34.861  1.00  0.00    -0.205 F 
ATOM     66  C   UNL A   1      47.082  26.147  35.491  1.00  0.00     0.022 A 
BRANCH  64  67
ATOM     67  S   UNL A   1      45.700  24.160  36.785  1.00  0.00     0.127 S 
ATOM     68  O   UNL A   1      45.373  23.021  35.929  1.00  0.00    -0.237 OA
ATOM     69  O   UNL A   1      47.041  24.121  37.369  1.00  0.00    -0.237 OA
ATOM     70  O   UNL A   1      44.653  24.571  37.709  1.00  0.00    -0.744 OA
ENDBRANCH  64  67
ENDBRANCH  37  60
ENDBRANCH  11  12
ENDBRANCH   4   6
ENDBRANCH   3   4
ENDBRANCH   2   3
ENDBRANCH   1   2
BRANCH   1  71
ATOM     71  O   UNL A   1      33.000  29.687  24.787  1.00  0.00    -0.462 OA
BRANCH  71  72
ATOM     72  C   UNL A   1      33.402  28.435  24.429  1.00  0.00     0.310 C 
ATOM     73  O   UNL A   1      33.959  27.665  25.204  1.00  0.00    -0.252 OA
BRANCH  72  74
ATOM     74  C   UNL A   1      33.105  28.069  22.972  1.00  0.00     0.116 C 
ATOM     75  C   UNL A   1      33.974  26.962  22.370  1.00  0.00     0.043 C 
ATOM     76  C   UNL A   1      31.602  27.934  22.646  1.00  0.00     0.097 C 
ATOM     77  C   UNL A   1      33.290  25.657  22.117  1.00  0.00    -0.030 C 
ATOM     78  C   UNL A   1      31.139  26.779  21.738  1.00  0.00     0.041 C 
ATOM     79  C   UNL A   1      31.997  25.570  21.797  1.00  0.00    -0.030 C 
BRANCH  76  80
ATOM     80  C   UNL A   1      30.626  28.133  23.791  1.00  0.00     0.228 C 
ATOM     81  O   UNL A   1      30.000  29.205  23.849  1.00  0.00    -0.274 OA
ATOM     82  N   UNL A   1      30.275  27.229  24.733  1.00  0.00    -0.326 N 
ATOM     83  H   UNL A   1      29.482  27.544  25.224  1.00  0.00     0.169 HD
BRANCH  82  84
ATOM     84  C   UNL A   1      30.683  25.985  25.231  1.00  0.00     0.041 A 
ATOM     85  C   UNL A   1      31.539  26.040  26.329  1.00  0.00     0.027 A 
ATOM     86  C   UNL A   1      30.431  24.734  24.681  1.00  0.00     0.027 A 
ATOM     87  C   UNL A   1      32.190  24.897  26.785  1.00  0.00     0.024 A 
ATOM     88  C   UNL A   1      31.069  23.563  25.131  1.00  0.00     0.024 A 
ATOM     89  C   UNL A   1      32.011  23.663  26.139  1.00  0.00     0.088 A 
BRANCH  89  90
ATOM     90  S   UNL A   1      33.367  22.536  26.347  1.00  0.00     0.264 S 
ATOM     91  O   UNL A   1      34.123  23.095  27.454  1.00  0.00    -0.201 OA
ATOM     92  O   UNL A   1      32.725  21.238  26.480  1.00  0.00    -0.201 OA
BRANCH  90  93
ATOM     93  N   UNL A   1      34.445  22.433  24.965  1.00  0.00    -0.266 N 
ATOM     94  C   UNL A   1      35.904  22.179  25.306  1.00  0.00     0.140 C 
ATOM     95  C   UNL A   1      34.052  21.202  24.278  1.00  0.00     0.055 A 
ATOM     96  C   UNL A   1      36.157  20.660  25.233  1.00  0.00     0.060 C 
ATOM     97  C   UNL A   1      34.887  20.151  24.650  1.00  0.00    -0.022 A 
ATOM     98  C   UNL A   1      32.813  20.971  23.703  1.00  0.00     0.027 A 
ATOM     99  C   UNL A   1      34.423  18.845  24.628  1.00  0.00     0.006 A 
ATOM    100  C   UNL A   1      32.332  19.662  23.689  1.00  0.00     0.002 A 
ATOM    101  C   UNL A   1      33.118  18.612  24.188  1.00  0.00     0.000 A 
ENDBRANCH  90  93
ENDBRANCH  89  90
ENDBRANCH  82  84
ENDBRANCH  76  80
ENDBRANCH  72  74
ENDBRANCH  71  72
ENDBRANCH   1  71
TORSDOF 18
ENDMDL
MODEL 3
REMARK VINA RESULT:     -12.1      5.167     10.551
REMARK SMILES O=C(OCCOC(=O)[C@H]1CC=CC[C@H]1C(=O)Nc1ccc(S(=O)(=O)N2CCc3ccccc32)cc1)c1ccc(-c2c3nc(c(-c4cccc(S(=O)(=O)[O-])c4F)c4ccc([nH]4)c(-c4cccc(S(=O)(=O)[O-])c4F)c4nc(c(-c5cccc(S(=O)(=O)[O-])c5F)c5ccc2[nH]5)C=C4)C=C3)cc1
REMARK SMILES IDX 5 1 4 2 3 3 2 4 1 5 36 6 37 7 98 8 38 9 97 10 39 11 40 12
REMARK SMILES IDX 41 13 91 14 42 15 96 16 90 17 92 18 43 19 95 20 89 21 88 22
REMARK SMILES IDX 44 24 76 25 56 26 75 27 57 28 60 29 74 30 93 31 58 32 59 33
REMARK SMILES IDX 73 35 94 36 61 37 45 38 46 39 54 40 47 41 49 42 55 43 48 44
REMARK SMILES IDX 50 45 51 46 52 47 53 48 77 49 78 50 86 51 79 52 81 53 87 54
REMARK SMILES IDX 80 55 82 56 83 57 84 58 85 59 62 60 63 61 71 62 64 63 66 64
REMARK SMILES IDX 72 65 65 66 67 67 68 68 69 69 70 70 6 71 7 72 8 73 9 74
REMARK SMILES IDX 10 75 14 76 11 77 13 78 12 79 15 80 16 81 17 82 18 84 19 85
REMARK SMILES IDX 35 86 20 87 34 88 21 89 22 90 23 91 24 92 25 93 26 94 33 95
REMARK SMILES IDX 27 96 28 97 32 98 29 99 31 100 30 101
REMARK H PARENT 92 23 60 34 17 83
REMARK Flexibility Score: inf
ROOT
ATOM      1  C   UNL A   1      36.563  21.821  24.405  1.00  0.00     0.274 C 
ENDROOT
BRANCH   1   2
ATOM      2  C   UNL A   1      37.464  21.457  25.587  1.00  0.00     0.275 C 
BRANCH   2   3
ATOM      3  O   UNL A   1      38.897  21.537  25.403  1.00  0.00    -0.458 OA
BRANCH   3   4
ATOM      4  C   UNL A   1      39.700  21.435  26.485  1.00  0.00     0.338 C 
ATOM      5  O   UNL A   1      39.996  20.375  27.017  1.00  0.00    -0.246 OA
BRANCH   4   6
ATOM      6  C   UNL A   1      40.225  22.764  26.908  1.00  0.00     0.060 A 
ATOM      7  C   UNL A   1      39.680  23.952  26.406  1.00  0.00     0.016 A 
ATOM      8  C   UNL A   1      41.216  22.827  27.902  1.00  0.00     0.016 A 
ATOM      9  C   UNL A   1      40.081  25.181  26.925  1.00  0.00     0.010 A 
ATOM     10  C   UNL A   1      41.641  24.065  28.404  1.00  0.00     0.010 A 
ATOM     11  C   UNL A   1      41.070  25.248  27.924  1.00  0.00    -0.014 A 
BRANCH  11  12
ATOM     12  C   UNL A   1      41.599  26.591  28.268  1.00  0.00     0.031 A 
ATOM     13  C   UNL A   1      42.816  27.038  27.526  1.00  0.00     0.074 A 
ATOM     14  C   UNL A   1      40.974  27.426  29.120  1.00  0.00     0.049 A 
ATOM     15  N   UNL A   1      43.376  28.213  27.494  1.00  0.00    -0.248 NA
ATOM     16  C   UNL A   1      43.503  26.007  26.726  1.00  0.00     0.031 C 
ATOM     17  C   UNL A   1      39.844  27.069  29.958  1.00  0.00     0.029 A 
ATOM     18  N   UNL A   1      41.146  28.766  29.373  1.00  0.00    -0.354 N 
ATOM     19  C   UNL A   1      44.538  28.039  26.760  1.00  0.00     0.074 A 
ATOM     20  C   UNL A   1      44.542  26.680  26.265  1.00  0.00     0.031 C 
ATOM     21  C   UNL A   1      39.288  28.178  30.469  1.00  0.00     0.029 A 
ATOM     22  C   UNL A   1      40.113  29.323  30.106  1.00  0.00     0.049 A 
ATOM     23  H   UNL A   1      41.927  29.279  29.065  1.00  0.00     0.167 HD
ATOM     24  C   UNL A   1      45.557  28.909  26.594  1.00  0.00     0.034 A 
ATOM     25  C   UNL A   1      39.873  30.610  30.437  1.00  0.00     0.034 A 
ATOM     26  C   UNL A   1      45.575  30.220  27.170  1.00  0.00     0.049 A 
ATOM     27  C   UNL A   1      40.948  31.612  30.105  1.00  0.00     0.074 A 
ATOM     28  C   UNL A   1      46.604  31.139  27.197  1.00  0.00     0.029 A 
ATOM     29  N   UNL A   1      44.505  30.787  27.847  1.00  0.00    -0.354 N 
ATOM     30  N   UNL A   1      42.036  31.444  29.391  1.00  0.00    -0.248 NA
ATOM     31  C   UNL A   1      40.800  32.963  30.666  1.00  0.00     0.031 C 
ATOM     32  C   UNL A   1      46.157  32.262  27.903  1.00  0.00     0.029 A 
ATOM     33  C   UNL A   1      44.841  32.052  28.287  1.00  0.00     0.049 A 
ATOM     34  H   UNL A   1      43.633  30.352  27.992  1.00  0.00     0.167 HD
ATOM     35  C   UNL A   1      42.724  32.648  29.454  1.00  0.00     0.074 A 
ATOM     36  C   UNL A   1      41.889  33.565  30.206  1.00  0.00     0.031 C 
ATOM     37  C   UNL A   1      43.961  32.949  28.991  1.00  0.00     0.034 A 
BRANCH  24  38
ATOM     38  C   UNL A   1      46.758  28.371  25.878  1.00  0.00     0.023 A 
ATOM     39  C   UNL A   1      46.766  28.291  24.472  1.00  0.00     0.012 A 
ATOM     40  C   UNL A   1      47.821  27.814  26.616  1.00  0.00     0.148 A 
ATOM     41  C   UNL A   1      47.794  27.620  23.811  1.00  0.00     0.002 A 
ATOM     42  C   UNL A   1      48.856  27.173  25.949  1.00  0.00     0.091 A 
ATOM     43  F   UNL A   1      47.762  27.857  27.954  1.00  0.00    -0.205 F 
ATOM     44  C   UNL A   1      48.838  27.064  24.549  1.00  0.00     0.022 A 
BRANCH  42  45
ATOM     45  S   UNL A   1      50.245  26.441  26.817  1.00  0.00     0.127 S 
ATOM     46  O   UNL A   1      50.889  25.678  25.750  1.00  0.00    -0.237 OA
ATOM     47  O   UNL A   1      50.988  27.621  27.259  1.00  0.00    -0.237 OA
ATOM     48  O   UNL A   1      49.668  25.651  27.896  1.00  0.00    -0.744 OA
ENDBRANCH  42  45
ENDBRANCH  24  38
BRANCH  25  49
ATOM     49  C   UNL A   1      38.592  31.041  31.084  1.00  0.00     0.023 A 
ATOM     50  C   UNL A   1      38.471  30.942  32.488  1.00  0.00     0.012 A 
ATOM     51  C   UNL A   1      37.503  31.556  30.357  1.00  0.00     0.148 A 
ATOM     52  C   UNL A   1      37.297  31.326  33.143  1.00  0.00     0.002 A 
ATOM     53  C   UNL A   1      36.365  32.010  31.023  1.00  0.00     0.091 A 
ATOM     54  F   UNL A   1      37.586  31.595  29.020  1.00  0.00    -0.205 F 
ATOM     55  C   UNL A   1      36.250  31.876  32.412  1.00  0.00     0.022 A 
BRANCH  53  56
ATOM     56  S   UNL A   1      35.066  32.895  30.151  1.00  0.00     0.127 S 
ATOM     57  O   UNL A   1      34.700  31.946  29.104  1.00  0.00    -0.237 OA
ATOM     58  O   UNL A   1      34.057  33.082  31.195  1.00  0.00    -0.237 OA
ATOM     59  O   UNL A   1      35.696  34.134  29.711  1.00  0.00    -0.744 OA
ENDBRANCH  53  56
ENDBRANCH  25  49
BRANCH  37  60
ATOM     60  C   UNL A   1      44.499  34.318  29.291  1.00  0.00     0.023 A 
ATOM     61  C   UNL A   1      45.143  34.553  30.521  1.00  0.00     0.012 A 
ATOM     62  C   UNL A   1      44.487  35.317  28.303  1.00  0.00     0.148 A 
ATOM     63  C   UNL A   1      45.767  35.774  30.766  1.00  0.00     0.002 A 
ATOM     64  C   UNL A   1      45.146  36.516  28.538  1.00  0.00     0.091 A 
ATOM     65  F   UNL A   1      43.842  35.073  27.153  1.00  0.00    -0.205 F 
ATOM     66  C   UNL A   1      45.783  36.749  29.769  1.00  0.00     0.022 A 
BRANCH  64  67
ATOM     67  S   UNL A   1      45.301  37.779  27.271  1.00  0.00     0.127 S 
ATOM     68  O   UNL A   1      43.900  38.089  26.989  1.00  0.00    -0.237 OA
ATOM     69  O   UNL A   1      46.032  38.835  27.972  1.00  0.00    -0.237 OA
ATOM     70  O   UNL A   1      46.039  37.160  26.179  1.00  0.00    -0.744 OA
ENDBRANCH  64  67
ENDBRANCH  37  60
ENDBRANCH  11  12
ENDBRANCH   4   6
ENDBRANCH   3   4
ENDBRANCH   2   3
ENDBRANCH   1   2
BRANCH   1  71
ATOM     71  O   UNL A   1      35.262  22.243  24.858  1.00  0.00    -0.462 OA
BRANCH  71  72
ATOM     72  C   UNL A   1      34.409  21.214  25.128  1.00  0.00     0.310 C 
ATOM     73  O   UNL A   1      34.682  20.041  24.894  1.00  0.00    -0.252 OA
BRANCH  72  74
ATOM     74  C   UNL A   1      33.075  21.645  25.745  1.00  0.00     0.116 C 
ATOM     75  C   UNL A   1      33.150  22.775  26.776  1.00  0.00     0.043 C 
ATOM     76  C   UNL A   1      31.926  21.800  24.726  1.00  0.00     0.097 C 
ATOM     77  C   UNL A   1      32.589  24.093  26.344  1.00  0.00    -0.030 C 
ATOM     78  C   UNL A   1      30.966  22.996  24.865  1.00  0.00     0.041 C 
ATOM     79  C   UNL A   1      31.568  24.198  25.491  1.00  0.00    -0.030 C 
BRANCH  76  80
ATOM     80  C   UNL A   1      32.260  21.554  23.265  1.00  0.00     0.228 C 
ATOM     81  O   UNL A   1      32.152  20.396  22.826  1.00  0.00    -0.274 OA
ATOM     82  N   UNL A   1      32.582  22.478  22.333  1.00  0.00    -0.326 N 
ATOM     83  H   UNL A   1      32.548  22.077  21.435  1.00  0.00     0.169 HD
BRANCH  82  84
ATOM     84  C   UNL A   1      32.950  23.827  22.242  1.00  0.00     0.041 A 
ATOM     85  C   UNL A   1      33.997  24.212  23.076  1.00  0.00     0.027 A 
ATOM     86  C   UNL A   1      32.313  24.825  21.515  1.00  0.00     0.027 A 
ATOM     87  C   UNL A   1      34.317  25.556  23.247  1.00  0.00     0.024 A 
ATOM     88  C   UNL A   1      32.626  26.190  21.662  1.00  0.00     0.024 A 
ATOM     89  C   UNL A   1      33.582  26.557  22.592  1.00  0.00     0.088 A 
BRANCH  89  90
ATOM     90  S   UNL A   1      33.614  28.131  23.413  1.00  0.00     0.264 S 
ATOM     91  O   UNL A   1      34.077  27.819  24.754  1.00  0.00    -0.201 OA
ATOM     92  O   UNL A   1      34.420  28.966  22.536  1.00  0.00    -0.201 OA
BRANCH  90  93
ATOM     93  N   UNL A   1      32.046  28.908  23.558  1.00  0.00    -0.266 N 
ATOM     94  C   UNL A   1      30.867  28.064  23.108  1.00  0.00     0.140 C 
ATOM     95  C   UNL A   1      31.826  29.034  24.999  1.00  0.00     0.055 A 
ATOM     96  C   UNL A   1      30.288  27.348  24.345  1.00  0.00     0.060 C 
ATOM     97  C   UNL A   1      31.035  27.986  25.463  1.00  0.00    -0.022 A 
ATOM     98  C   UNL A   1      32.609  29.784  25.862  1.00  0.00     0.027 A 
ATOM     99  C   UNL A   1      31.151  27.544  26.771  1.00  0.00     0.006 A 
ATOM    100  C   UNL A   1      32.743  29.339  27.178  1.00  0.00     0.002 A 
ATOM    101  C   UNL A   1      32.048  28.201  27.616  1.00  0.00     0.000 A 
ENDBRANCH  90  93
ENDBRANCH  89  90
ENDBRANCH  82  84
ENDBRANCH  76  80
ENDBRANCH  72  74
ENDBRANCH  71  72
ENDBRANCH   1  71
TORSDOF 18
ENDMDL
