MODEL 1
REMARK VINA RESULT:     -11.5      0.000      0.000
REMARK SMILES Cc1ccc(/C=C/C(=O)N2CCC[C@@H](C(=O)OCCOC(=O)c3ccc(-c4c5nc(c(-c6cccc(S(=O)(=O)[O-])c6F)c6ccc([nH]6)c(-c6cccc(S(=O)(=O)[O-])c6F)c6nc(c(-c7cccc(S(=O)(=O)[O-])c7F)c7ccc4[nH]7)C=C6)C=C5)cc3)C2)s1
REMARK SMILES IDX 18 1 17 2 15 3 16 4 14 5 10 6 11 7 86 8 12 9 13 10 8 11 9 12
REMARK SMILES IDX 7 13 6 14 5 15 1 16 2 17 3 18 87 19 4 20 19 21 20 22 21 23
REMARK SMILES IDX 22 24 23 25 24 26 85 27 25 28 84 29 26 30 27 31 28 32 78 33
REMARK SMILES IDX 29 34 83 35 77 36 79 37 30 38 82 39 76 40 75 41 31 43 63 44
REMARK SMILES IDX 43 45 62 46 44 47 47 48 61 49 80 50 45 51 46 52 60 54 81 55
REMARK SMILES IDX 48 56 32 57 33 58 41 59 34 60 36 61 42 62 35 63 37 64 38 65
REMARK SMILES IDX 39 66 40 67 64 68 65 69 73 70 66 71 68 72 74 73 67 74 69 75
REMARK SMILES IDX 70 76 71 77 72 78 49 79 50 80 58 81 51 82 53 83 59 84 52 85
REMARK SMILES IDX 54 86 55 87 56 88 57 89
REMARK H PARENT 79 42 47 53
REMARK Flexibility Score: inf
ROOT
ATOM      1  C   UNL A   1      35.968  20.537  25.352  1.00  0.00     0.274 C 
ENDROOT
BRANCH   1   2
ATOM      2  O   UNL A   1      35.854  21.945  25.652  1.00  0.00    -0.462 OA
BRANCH   2   3
ATOM      3  C   UNL A   1      34.729  22.309  26.320  1.00  0.00     0.310 C 
ATOM      4  O   UNL A   1      34.496  22.028  27.490  1.00  0.00    -0.252 OA
BRANCH   3   5
ATOM      5  C   UNL A   1      33.726  23.044  25.458  1.00  0.00     0.119 C 
ATOM      6  N   UNL A   1      33.228  24.303  23.389  1.00  0.00    -0.338 N 
ATOM      7  C   UNL A   1      32.046  23.488  23.122  1.00  0.00     0.120 C 
ATOM      8  C   UNL A   1      34.296  23.658  24.171  1.00  0.00     0.135 C 
ATOM      9  C   UNL A   1      31.465  22.895  24.398  1.00  0.00     0.022 C 
ATOM     10  C   UNL A   1      32.536  22.127  25.167  1.00  0.00     0.019 C 
BRANCH   6  11
ATOM     11  C   UNL A   1      33.230  25.606  22.926  1.00  0.00     0.246 C 
ATOM     12  O   UNL A   1      33.838  25.950  21.912  1.00  0.00    -0.270 OA
BRANCH  11  13
ATOM     13  C   UNL A   1      32.552  26.675  23.700  1.00  0.00     0.073 C 
ATOM     14  C   UNL A   1      32.887  26.914  24.977  1.00  0.00     0.024 C 
BRANCH  14  15
ATOM     15  C   UNL A   1      32.546  28.112  25.675  1.00  0.00     0.027 A 
ATOM     16  C   UNL A   1      31.282  31.807  26.235  1.00  0.00     0.056 C 
ATOM     17  C   UNL A   1      31.846  30.429  26.278  1.00  0.00     0.002 A 
ATOM     18  C   UNL A   1      32.587  29.833  27.275  1.00  0.00     0.016 A 
ATOM     19  S   UNL A   1      31.603  29.368  24.963  1.00  0.00    -0.141 S 
ATOM     20  C   UNL A   1      32.986  28.508  26.928  1.00  0.00     0.020 A 
ENDBRANCH  14  15
ENDBRANCH  11  13
ENDBRANCH   6  11
ENDBRANCH   3   5
ENDBRANCH   2   3
ENDBRANCH   1   2
BRANCH   1  21
ATOM     21  C   UNL A   1      37.387  20.144  24.924  1.00  0.00     0.275 C 
BRANCH  21  22
ATOM     22  O   UNL A   1      38.325  21.223  25.090  1.00  0.00    -0.458 OA
BRANCH  22  23
ATOM     23  C   UNL A   1      39.312  20.973  25.982  1.00  0.00     0.338 C 
ATOM     24  O   UNL A   1      39.888  19.910  26.150  1.00  0.00    -0.246 OA
BRANCH  23  25
ATOM     25  C   UNL A   1      39.737  22.215  26.649  1.00  0.00     0.060 A 
ATOM     26  C   UNL A   1      39.166  23.411  26.207  1.00  0.00     0.016 A 
ATOM     27  C   UNL A   1      40.756  22.229  27.604  1.00  0.00     0.016 A 
ATOM     28  C   UNL A   1      39.628  24.630  26.685  1.00  0.00     0.010 A 
ATOM     29  C   UNL A   1      41.227  23.458  28.082  1.00  0.00     0.010 A 
ATOM     30  C   UNL A   1      40.687  24.665  27.600  1.00  0.00    -0.014 A 
BRANCH  30  31
ATOM     31  C   UNL A   1      41.289  25.975  27.938  1.00  0.00     0.031 A 
ATOM     32  C   UNL A   1      42.682  26.287  27.466  1.00  0.00     0.074 A 
ATOM     33  C   UNL A   1      40.576  26.897  28.608  1.00  0.00     0.049 A 
ATOM     34  N   UNL A   1      43.385  27.377  27.631  1.00  0.00    -0.248 NA
ATOM     35  C   UNL A   1      43.375  25.234  26.704  1.00  0.00     0.031 C 
ATOM     36  C   UNL A   1      39.210  26.714  29.099  1.00  0.00     0.029 A 
ATOM     37  N   UNL A   1      40.904  28.172  28.993  1.00  0.00    -0.354 N 
ATOM     38  C   UNL A   1      44.612  27.132  27.026  1.00  0.00     0.074 A 
ATOM     39  C   UNL A   1      44.561  25.787  26.495  1.00  0.00     0.031 C 
ATOM     40  C   UNL A   1      38.819  27.835  29.729  1.00  0.00     0.029 A 
ATOM     41  C   UNL A   1      39.912  28.804  29.703  1.00  0.00     0.049 A 
ATOM     42  H   UNL A   1      41.767  28.594  28.781  1.00  0.00     0.167 HD
ATOM     43  C   UNL A   1      45.676  27.959  26.905  1.00  0.00     0.034 A 
ATOM     44  C   UNL A   1      39.891  30.025  30.273  1.00  0.00     0.034 A 
ATOM     45  C   UNL A   1      45.709  29.310  27.395  1.00  0.00     0.049 A 
ATOM     46  C   UNL A   1      41.086  30.928  30.115  1.00  0.00     0.074 A 
ATOM     47  C   UNL A   1      46.733  30.235  27.302  1.00  0.00     0.029 A 
ATOM     48  N   UNL A   1      44.667  29.933  28.064  1.00  0.00    -0.354 N 
ATOM     49  N   UNL A   1      42.203  30.714  29.460  1.00  0.00    -0.248 NA
ATOM     50  C   UNL A   1      41.005  32.256  30.741  1.00  0.00     0.031 C 
ATOM     51  C   UNL A   1      46.312  31.418  27.921  1.00  0.00     0.029 A 
ATOM     52  C   UNL A   1      45.021  31.231  28.389  1.00  0.00     0.049 A 
ATOM     53  H   UNL A   1      43.803  29.513  28.278  1.00  0.00     0.167 HD
ATOM     54  C   UNL A   1      42.940  31.888  29.567  1.00  0.00     0.074 A 
ATOM     55  C   UNL A   1      42.134  32.818  30.331  1.00  0.00     0.031 C 
ATOM     56  C   UNL A   1      44.180  32.165  29.092  1.00  0.00     0.034 A 
BRANCH  43  57
ATOM     57  C   UNL A   1      46.887  27.432  26.182  1.00  0.00     0.023 A 
ATOM     58  C   UNL A   1      47.016  27.649  24.796  1.00  0.00     0.012 A 
ATOM     59  C   UNL A   1      47.912  26.762  26.877  1.00  0.00     0.148 A 
ATOM     60  C   UNL A   1      48.135  27.185  24.106  1.00  0.00     0.002 A 
ATOM     61  C   UNL A   1      49.042  26.334  26.189  1.00  0.00     0.091 A 
ATOM     62  F   UNL A   1      47.757  26.539  28.190  1.00  0.00    -0.205 F 
ATOM     63  C   UNL A   1      49.152  26.537  24.804  1.00  0.00     0.022 A 
BRANCH  61  64
ATOM     64  S   UNL A   1      50.431  25.548  27.015  1.00  0.00     0.127 S 
ATOM     65  O   UNL A   1      51.356  25.339  25.902  1.00  0.00    -0.237 OA
ATOM     66  O   UNL A   1      50.849  26.576  27.968  1.00  0.00    -0.237 OA
ATOM     67  O   UNL A   1      49.898  24.338  27.626  1.00  0.00    -0.744 OA
ENDBRANCH  61  64
ENDBRANCH  43  57
BRANCH  44  68
ATOM     68  C   UNL A   1      38.675  30.485  31.000  1.00  0.00     0.023 A 
ATOM     69  C   UNL A   1      38.572  30.265  32.388  1.00  0.00     0.012 A 
ATOM     70  C   UNL A   1      37.635  31.161  30.334  1.00  0.00     0.148 A 
ATOM     71  C   UNL A   1      37.443  30.686  33.093  1.00  0.00     0.002 A 
ATOM     72  C   UNL A   1      36.538  31.625  31.051  1.00  0.00     0.091 A 
ATOM     73  F   UNL A   1      37.740  31.343  29.010  1.00  0.00    -0.205 F 
ATOM     74  C   UNL A   1      36.432  31.375  32.428  1.00  0.00     0.022 A 
BRANCH  72  75
ATOM     75  S   UNL A   1      35.257  32.631  30.293  1.00  0.00     0.127 S 
ATOM     76  O   UNL A   1      36.015  33.799  29.853  1.00  0.00    -0.237 OA
ATOM     77  O   UNL A   1      34.783  31.762  29.214  1.00  0.00    -0.237 OA
ATOM     78  O   UNL A   1      34.276  32.865  31.343  1.00  0.00    -0.744 OA
ENDBRANCH  72  75
ENDBRANCH  44  68
BRANCH  56  79
ATOM     79  C   UNL A   1      44.736  33.540  29.352  1.00  0.00     0.023 A 
ATOM     80  C   UNL A   1      45.497  33.774  30.513  1.00  0.00     0.012 A 
ATOM     81  C   UNL A   1      44.573  34.576  28.411  1.00  0.00     0.148 A 
ATOM     82  C   UNL A   1      46.064  35.027  30.750  1.00  0.00     0.002 A 
ATOM     83  C   UNL A   1      45.175  35.809  28.632  1.00  0.00     0.091 A 
ATOM     84  F   UNL A   1      43.826  34.342  27.322  1.00  0.00    -0.205 F 
ATOM     85  C   UNL A   1      45.914  36.039  29.805  1.00  0.00     0.022 A 
BRANCH  83  86
ATOM     86  S   UNL A   1      45.105  37.133  27.420  1.00  0.00     0.127 S 
ATOM     87  O   UNL A   1      43.692  37.122  27.045  1.00  0.00    -0.237 OA
ATOM     88  O   UNL A   1      45.517  38.301  28.201  1.00  0.00    -0.237 OA
ATOM     89  O   UNL A   1      46.042  36.756  26.371  1.00  0.00    -0.744 OA
ENDBRANCH  83  86
ENDBRANCH  56  79
ENDBRANCH  30  31
ENDBRANCH  23  25
ENDBRANCH  22  23
ENDBRANCH  21  22
ENDBRANCH   1  21
TORSDOF 17
ENDMDL
MODEL 2
REMARK VINA RESULT:     -11.5      1.920      2.358
REMARK SMILES Cc1ccc(/C=C/C(=O)N2CCC[C@@H](C(=O)OCCOC(=O)c3ccc(-c4c5nc(c(-c6cccc(S(=O)(=O)[O-])c6F)c6ccc([nH]6)c(-c6cccc(S(=O)(=O)[O-])c6F)c6nc(c(-c7cccc(S(=O)(=O)[O-])c7F)c7ccc4[nH]7)C=C6)C=C5)cc3)C2)s1
REMARK SMILES IDX 18 1 17 2 15 3 16 4 14 5 10 6 11 7 86 8 12 9 13 10 8 11 9 12
REMARK SMILES IDX 7 13 6 14 5 15 1 16 2 17 3 18 87 19 4 20 19 21 20 22 21 23
REMARK SMILES IDX 22 24 23 25 24 26 85 27 25 28 84 29 26 30 27 31 28 32 78 33
REMARK SMILES IDX 29 34 83 35 77 36 79 37 30 38 82 39 76 40 75 41 31 43 63 44
REMARK SMILES IDX 43 45 62 46 44 47 47 48 61 49 80 50 45 51 46 52 60 54 81 55
REMARK SMILES IDX 48 56 32 57 33 58 41 59 34 60 36 61 42 62 35 63 37 64 38 65
REMARK SMILES IDX 39 66 40 67 64 68 65 69 73 70 66 71 68 72 74 73 67 74 69 75
REMARK SMILES IDX 70 76 71 77 72 78 49 79 50 80 58 81 51 82 53 83 59 84 52 85
REMARK SMILES IDX 54 86 55 87 56 88 57 89
REMARK H PARENT 79 42 47 53
REMARK Flexibility Score: inf
ROOT
ATOM      1  C   UNL A   1      36.234  20.019  25.001  1.00  0.00     0.274 C 
ENDROOT
BRANCH   1   2
ATOM      2  O   UNL A   1      35.692  21.357  25.001  1.00  0.00    -0.462 OA
BRANCH   2   3
ATOM      3  C   UNL A   1      34.412  21.467  25.442  1.00  0.00     0.310 C 
ATOM      4  O   UNL A   1      33.756  20.541  25.905  1.00  0.00    -0.252 OA
BRANCH   3   5
ATOM      5  C   UNL A   1      33.819  22.844  25.236  1.00  0.00     0.119 C 
ATOM      6  N   UNL A   1      32.457  24.717  26.103  1.00  0.00    -0.338 N 
ATOM      7  C   UNL A   1      33.477  25.693  25.726  1.00  0.00     0.120 C 
ATOM      8  C   UNL A   1      32.939  23.354  26.386  1.00  0.00     0.135 C 
ATOM      9  C   UNL A   1      34.338  25.199  24.573  1.00  0.00     0.022 C 
ATOM     10  C   UNL A   1      34.936  23.833  24.898  1.00  0.00     0.019 C 
BRANCH   6  11
ATOM     11  C   UNL A   1      31.140  25.137  26.122  1.00  0.00     0.246 C 
ATOM     12  O   UNL A   1      30.248  24.501  26.683  1.00  0.00    -0.270 OA
BRANCH  11  13
ATOM     13  C   UNL A   1      30.733  26.355  25.378  1.00  0.00     0.073 C 
ATOM     14  C   UNL A   1      30.201  26.262  24.150  1.00  0.00     0.024 C 
BRANCH  14  15
ATOM     15  C   UNL A   1      29.481  27.320  23.515  1.00  0.00     0.027 A 
ATOM     16  C   UNL A   1      28.830  30.824  21.824  1.00  0.00     0.056 C 
ATOM     17  C   UNL A   1      28.807  29.481  22.470  1.00  0.00     0.002 A 
ATOM     18  C   UNL A   1      27.724  28.769  22.935  1.00  0.00     0.016 A 
ATOM     19  S   UNL A   1      30.267  28.630  22.716  1.00  0.00    -0.141 S 
ATOM     20  C   UNL A   1      28.112  27.532  23.533  1.00  0.00     0.020 A 
ENDBRANCH  14  15
ENDBRANCH  11  13
ENDBRANCH   6  11
ENDBRANCH   3   5
ENDBRANCH   2   3
ENDBRANCH   1   2
BRANCH   1  21
ATOM     21  C   UNL A   1      37.767  20.009  24.979  1.00  0.00     0.275 C 
BRANCH  21  22
ATOM     22  O   UNL A   1      38.327  21.217  25.525  1.00  0.00    -0.458 OA
BRANCH  22  23
ATOM     23  C   UNL A   1      39.502  21.043  26.177  1.00  0.00     0.338 C 
ATOM     24  O   UNL A   1      40.210  20.050  26.145  1.00  0.00    -0.246 OA
BRANCH  23  25
ATOM     25  C   UNL A   1      39.922  22.292  26.833  1.00  0.00     0.060 A 
ATOM     26  C   UNL A   1      39.303  23.475  26.421  1.00  0.00     0.016 A 
ATOM     27  C   UNL A   1      40.979  22.327  27.745  1.00  0.00     0.016 A 
ATOM     28  C   UNL A   1      39.753  24.704  26.887  1.00  0.00     0.010 A 
ATOM     29  C   UNL A   1      41.437  23.566  28.211  1.00  0.00     0.010 A 
ATOM     30  C   UNL A   1      40.847  24.761  27.759  1.00  0.00    -0.014 A 
BRANCH  30  31
ATOM     31  C   UNL A   1      41.429  26.084  28.080  1.00  0.00     0.031 A 
ATOM     32  C   UNL A   1      42.815  26.414  27.600  1.00  0.00     0.074 A 
ATOM     33  C   UNL A   1      40.703  27.003  28.741  1.00  0.00     0.049 A 
ATOM     34  N   UNL A   1      43.502  27.516  27.750  1.00  0.00    -0.248 NA
ATOM     35  C   UNL A   1      43.523  25.363  26.848  1.00  0.00     0.031 C 
ATOM     36  C   UNL A   1      39.341  26.803  29.238  1.00  0.00     0.029 A 
ATOM     37  N   UNL A   1      41.011  28.287  29.110  1.00  0.00    -0.354 N 
ATOM     38  C   UNL A   1      44.730  27.284  27.144  1.00  0.00     0.074 A 
ATOM     39  C   UNL A   1      44.700  25.932  26.629  1.00  0.00     0.031 C 
ATOM     40  C   UNL A   1      38.934  27.925  29.856  1.00  0.00     0.029 A 
ATOM     41  C   UNL A   1      40.012  28.912  29.816  1.00  0.00     0.049 A 
ATOM     42  H   UNL A   1      41.867  28.720  28.890  1.00  0.00     0.167 HD
ATOM     43  C   UNL A   1      45.781  28.127  27.011  1.00  0.00     0.034 A 
ATOM     44  C   UNL A   1      39.973  30.139  30.372  1.00  0.00     0.034 A 
ATOM     45  C   UNL A   1      45.793  29.484  27.484  1.00  0.00     0.049 A 
ATOM     46  C   UNL A   1      41.153  31.059  30.199  1.00  0.00     0.074 A 
ATOM     47  C   UNL A   1      46.802  30.424  27.378  1.00  0.00     0.029 A 
ATOM     48  N   UNL A   1      44.743  30.097  28.150  1.00  0.00    -0.354 N 
ATOM     49  N   UNL A   1      42.270  30.855  29.543  1.00  0.00    -0.248 NA
ATOM     50  C   UNL A   1      41.052  32.392  30.810  1.00  0.00     0.031 C 
ATOM     51  C   UNL A   1      46.364  31.607  27.984  1.00  0.00     0.029 A 
ATOM     52  C   UNL A   1      45.077  31.405  28.458  1.00  0.00     0.049 A 
ATOM     53  H   UNL A   1      43.886  29.666  28.370  1.00  0.00     0.167 HD
ATOM     54  C   UNL A   1      42.989  32.042  29.634  1.00  0.00     0.074 A 
ATOM     55  C   UNL A   1      42.171  32.968  30.390  1.00  0.00     0.031 C 
ATOM     56  C   UNL A   1      44.223  32.334  29.153  1.00  0.00     0.034 A 
BRANCH  43  57
ATOM     57  C   UNL A   1      46.997  27.611  26.290  1.00  0.00     0.023 A 
ATOM     58  C   UNL A   1      47.940  26.833  26.989  1.00  0.00     0.012 A 
ATOM     59  C   UNL A   1      47.186  27.859  24.916  1.00  0.00     0.148 A 
ATOM     60  C   UNL A   1      49.068  26.330  26.340  1.00  0.00     0.002 A 
ATOM     61  C   UNL A   1      48.294  27.325  24.268  1.00  0.00     0.091 A 
ATOM     62  F   UNL A   1      46.293  28.627  24.275  1.00  0.00    -0.205 F 
ATOM     63  C   UNL A   1      49.239  26.567  24.978  1.00  0.00     0.022 A 
BRANCH  61  64
ATOM     64  S   UNL A   1      48.563  27.523  22.502  1.00  0.00     0.127 S 
ATOM     65  O   UNL A   1      47.415  28.343  22.118  1.00  0.00    -0.237 OA
ATOM     66  O   UNL A   1      49.849  28.218  22.459  1.00  0.00    -0.237 OA
ATOM     67  O   UNL A   1      48.586  26.175  21.949  1.00  0.00    -0.744 OA
ENDBRANCH  61  64
ENDBRANCH  43  57
BRANCH  44  68
ATOM     68  C   UNL A   1      38.751  30.588  31.097  1.00  0.00     0.023 A 
ATOM     69  C   UNL A   1      38.667  30.406  32.491  1.00  0.00     0.012 A 
ATOM     70  C   UNL A   1      37.687  31.216  30.421  1.00  0.00     0.148 A 
ATOM     71  C   UNL A   1      37.534  30.817  33.194  1.00  0.00     0.002 A 
ATOM     72  C   UNL A   1      36.585  31.672  31.135  1.00  0.00     0.091 A 
ATOM     73  F   UNL A   1      37.776  31.361  29.091  1.00  0.00    -0.205 F 
ATOM     74  C   UNL A   1      36.498  31.460  32.519  1.00  0.00     0.022 A 
BRANCH  72  75
ATOM     75  S   UNL A   1      35.271  32.620  30.360  1.00  0.00     0.127 S 
ATOM     76  O   UNL A   1      35.969  33.847  29.984  1.00  0.00    -0.237 OA
ATOM     77  O   UNL A   1      34.891  31.759  29.239  1.00  0.00    -0.237 OA
ATOM     78  O   UNL A   1      34.240  32.760  31.380  1.00  0.00    -0.744 OA
ENDBRANCH  72  75
ENDBRANCH  44  68
BRANCH  56  79
ATOM     79  C   UNL A   1      44.758  33.720  29.395  1.00  0.00     0.023 A 
ATOM     80  C   UNL A   1      45.514  33.981  30.553  1.00  0.00     0.012 A 
ATOM     81  C   UNL A   1      44.579  34.741  28.440  1.00  0.00     0.148 A 
ATOM     82  C   UNL A   1      46.061  35.245  30.774  1.00  0.00     0.002 A 
ATOM     83  C   UNL A   1      45.162  35.986  28.646  1.00  0.00     0.091 A 
ATOM     84  F   UNL A   1      43.837  34.481  27.353  1.00  0.00    -0.205 F 
ATOM     85  C   UNL A   1      45.896  36.243  29.816  1.00  0.00     0.022 A 
BRANCH  83  86
ATOM     86  S   UNL A   1      45.073  37.292  27.416  1.00  0.00     0.127 S 
ATOM     87  O   UNL A   1      45.998  36.805  26.394  1.00  0.00    -0.237 OA
ATOM     88  O   UNL A   1      43.662  37.262  27.023  1.00  0.00    -0.237 OA
ATOM     89  O   UNL A   1      45.475  38.510  28.105  1.00  0.00    -0.744 OA
ENDBRANCH  83  86
ENDBRANCH  56  79
ENDBRANCH  30  31
ENDBRANCH  23  25
ENDBRANCH  22  23
ENDBRANCH  21  22
ENDBRANCH   1  21
TORSDOF 17
ENDMDL
MODEL 3
REMARK VINA RESULT:     -11.2      4.857     10.448
REMARK SMILES Cc1ccc(/C=C/C(=O)N2CCC[C@@H](C(=O)OCCOC(=O)c3ccc(-c4c5nc(c(-c6cccc(S(=O)(=O)[O-])c6F)c6ccc([nH]6)c(-c6cccc(S(=O)(=O)[O-])c6F)c6nc(c(-c7cccc(S(=O)(=O)[O-])c7F)c7ccc4[nH]7)C=C6)C=C5)cc3)C2)s1
REMARK SMILES IDX 18 1 17 2 15 3 16 4 14 5 10 6 11 7 86 8 12 9 13 10 8 11 9 12
REMARK SMILES IDX 7 13 6 14 5 15 1 16 2 17 3 18 87 19 4 20 19 21 20 22 21 23
REMARK SMILES IDX 22 24 23 25 24 26 85 27 25 28 84 29 26 30 27 31 28 32 78 33
REMARK SMILES IDX 29 34 83 35 77 36 79 37 30 38 82 39 76 40 75 41 31 43 63 44
REMARK SMILES IDX 43 45 62 46 44 47 47 48 61 49 80 50 45 51 46 52 60 54 81 55
REMARK SMILES IDX 48 56 32 57 33 58 41 59 34 60 36 61 42 62 35 63 37 64 38 65
REMARK SMILES IDX 39 66 40 67 64 68 65 69 73 70 66 71 68 72 74 73 67 74 69 75
REMARK SMILES IDX 70 76 71 77 72 78 49 79 50 80 58 81 51 82 53 83 59 84 52 85
REMARK SMILES IDX 54 86 55 87 56 88 57 89
REMARK H PARENT 79 42 47 53
REMARK Flexibility Score: inf
ROOT
ATOM      1  C   UNL A   1      31.108  30.504  25.086  1.00  0.00     0.274 C 
ENDROOT
BRANCH   1   2
ATOM      2  O   UNL A   1      32.138  29.510  24.900  1.00  0.00    -0.462 OA
BRANCH   2   3
ATOM      3  C   UNL A   1      31.993  28.716  23.807  1.00  0.00     0.310 C 
ATOM      4  O   UNL A   1      32.299  29.044  22.666  1.00  0.00    -0.252 OA
BRANCH   3   5
ATOM      5  C   UNL A   1      31.333  27.388  24.109  1.00  0.00     0.119 C 
ATOM      6  N   UNL A   1      30.771  25.623  25.747  1.00  0.00    -0.338 N 
ATOM      7  C   UNL A   1      29.375  25.604  25.317  1.00  0.00     0.120 C 
ATOM      8  C   UNL A   1      31.490  26.894  25.554  1.00  0.00     0.135 C 
ATOM      9  C   UNL A   1      29.217  26.074  23.878  1.00  0.00     0.022 C 
ATOM     10  C   UNL A   1      29.863  27.443  23.688  1.00  0.00     0.019 C 
BRANCH   6  11
ATOM     11  C   UNL A   1      31.305  24.453  26.254  1.00  0.00     0.246 C 
ATOM     12  O   UNL A   1      31.573  24.307  27.447  1.00  0.00    -0.270 OA
BRANCH  11  13
ATOM     13  C   UNL A   1      31.658  23.336  25.343  1.00  0.00     0.073 C 
ATOM     14  C   UNL A   1      32.538  22.396  25.720  1.00  0.00     0.024 C 
BRANCH  14  15
ATOM     15  C   UNL A   1      32.676  21.133  25.069  1.00  0.00     0.027 A 
ATOM     16  C   UNL A   1      32.265  18.369  22.284  1.00  0.00     0.056 C 
ATOM     17  C   UNL A   1      32.511  19.210  23.489  1.00  0.00     0.002 A 
ATOM     18  C   UNL A   1      32.887  18.814  24.753  1.00  0.00     0.016 A 
ATOM     19  S   UNL A   1      32.323  20.905  23.397  1.00  0.00    -0.141 S 
ATOM     20  C   UNL A   1      32.981  19.915  25.655  1.00  0.00     0.020 A 
ENDBRANCH  14  15
ENDBRANCH  11  13
ENDBRANCH   6  11
ENDBRANCH   3   5
ENDBRANCH   2   3
ENDBRANCH   1   2
BRANCH   1  21
ATOM     21  C   UNL A   1      31.409  31.445  26.258  1.00  0.00     0.275 C 
BRANCH  21  22
ATOM     22  O   UNL A   1      32.612  31.076  26.958  1.00  0.00    -0.458 OA
BRANCH  22  23
ATOM     23  C   UNL A   1      33.348  32.125  27.395  1.00  0.00     0.338 C 
ATOM     24  O   UNL A   1      32.956  33.269  27.562  1.00  0.00    -0.246 OA
BRANCH  23  25
ATOM     25  C   UNL A   1      34.690  31.682  27.808  1.00  0.00     0.060 A 
ATOM     26  C   UNL A   1      34.861  30.324  28.089  1.00  0.00     0.016 A 
ATOM     27  C   UNL A   1      35.730  32.587  28.031  1.00  0.00     0.016 A 
ATOM     28  C   UNL A   1      36.055  29.863  28.626  1.00  0.00     0.010 A 
ATOM     29  C   UNL A   1      36.933  32.123  28.578  1.00  0.00     0.010 A 
ATOM     30  C   UNL A   1      37.088  30.764  28.908  1.00  0.00    -0.014 A 
BRANCH  30  31
ATOM     31  C   UNL A   1      38.267  30.279  29.662  1.00  0.00     0.031 A 
ATOM     32  C   UNL A   1      38.474  30.737  31.079  1.00  0.00     0.074 A 
ATOM     33  C   UNL A   1      39.110  29.391  29.105  1.00  0.00     0.049 A 
ATOM     34  N   UNL A   1      39.422  30.418  31.920  1.00  0.00    -0.248 NA
ATOM     35  C   UNL A   1      37.480  31.678  31.622  1.00  0.00     0.031 C 
ATOM     36  C   UNL A   1      38.999  28.860  27.746  1.00  0.00     0.029 A 
ATOM     37  N   UNL A   1      40.228  28.781  29.615  1.00  0.00    -0.354 N 
ATOM     38  C   UNL A   1      39.161  31.141  33.078  1.00  0.00     0.074 A 
ATOM     39  C   UNL A   1      37.968  31.922  32.830  1.00  0.00     0.031 C 
ATOM     40  C   UNL A   1      40.016  28.009  27.527  1.00  0.00     0.029 A 
ATOM     41  C   UNL A   1      40.858  27.951  28.720  1.00  0.00     0.049 A 
ATOM     42  H   UNL A   1      40.548  28.925  30.534  1.00  0.00     0.167 HD
ATOM     43  C   UNL A   1      39.840  31.138  34.249  1.00  0.00     0.034 A 
ATOM     44  C   UNL A   1      41.989  27.230  28.847  1.00  0.00     0.034 A 
ATOM     45  C   UNL A   1      40.999  30.329  34.509  1.00  0.00     0.049 A 
ATOM     46  C   UNL A   1      42.719  27.239  30.164  1.00  0.00     0.074 A 
ATOM     47  C   UNL A   1      41.745  30.240  35.670  1.00  0.00     0.029 A 
ATOM     48  N   UNL A   1      41.577  29.462  33.595  1.00  0.00    -0.354 N 
ATOM     49  N   UNL A   1      42.406  27.857  31.278  1.00  0.00    -0.248 NA
ATOM     50  C   UNL A   1      43.938  26.422  30.255  1.00  0.00     0.031 C 
ATOM     51  C   UNL A   1      42.779  29.322  35.457  1.00  0.00     0.029 A 
ATOM     52  C   UNL A   1      42.669  28.831  34.166  1.00  0.00     0.049 A 
ATOM     53  H   UNL A   1      41.259  29.317  32.675  1.00  0.00     0.167 HD
ATOM     54  C   UNL A   1      43.367  27.477  32.209  1.00  0.00     0.074 A 
ATOM     55  C   UNL A   1      44.261  26.559  31.534  1.00  0.00     0.031 C 
ATOM     56  C   UNL A   1      43.509  27.868  33.499  1.00  0.00     0.034 A 
BRANCH  43  57
ATOM     57  C   UNL A   1      39.322  32.019  35.354  1.00  0.00     0.023 A 
ATOM     58  C   UNL A   1      38.336  31.525  36.230  1.00  0.00     0.012 A 
ATOM     59  C   UNL A   1      39.838  33.315  35.551  1.00  0.00     0.148 A 
ATOM     60  C   UNL A   1      37.851  32.316  37.272  1.00  0.00     0.002 A 
ATOM     61  C   UNL A   1      39.376  34.084  36.613  1.00  0.00     0.091 A 
ATOM     62  F   UNL A   1      40.754  33.778  34.688  1.00  0.00    -0.205 F 
ATOM     63  C   UNL A   1      38.378  33.590  37.469  1.00  0.00     0.022 A 
BRANCH  61  64
ATOM     64  S   UNL A   1      40.042  35.711  36.984  1.00  0.00     0.127 S 
ATOM     65  O   UNL A   1      39.694  36.456  35.774  1.00  0.00    -0.237 OA
ATOM     66  O   UNL A   1      39.284  36.095  38.174  1.00  0.00    -0.237 OA
ATOM     67  O   UNL A   1      41.467  35.515  37.213  1.00  0.00    -0.744 OA
ENDBRANCH  61  64
ENDBRANCH  43  57
BRANCH  44  68
ATOM     68  C   UNL A   1      42.470  26.395  27.710  1.00  0.00     0.023 A 
ATOM     69  C   UNL A   1      43.422  26.924  26.816  1.00  0.00     0.012 A 
ATOM     70  C   UNL A   1      42.013  25.076  27.525  1.00  0.00     0.148 A 
ATOM     71  C   UNL A   1      43.889  26.163  25.743  1.00  0.00     0.002 A 
ATOM     72  C   UNL A   1      42.522  24.305  26.485  1.00  0.00     0.091 A 
ATOM     73  F   UNL A   1      41.090  24.598  28.372  1.00  0.00    -0.205 F 
ATOM     74  C   UNL A   1      43.448  24.852  25.584  1.00  0.00     0.022 A 
BRANCH  72  75
ATOM     75  S   UNL A   1      42.101  22.571  26.289  1.00  0.00     0.127 S 
ATOM     76  O   UNL A   1      42.821  22.224  25.066  1.00  0.00    -0.237 OA
ATOM     77  O   UNL A   1      42.647  21.982  27.513  1.00  0.00    -0.237 OA
ATOM     78  O   UNL A   1      40.648  22.531  26.206  1.00  0.00    -0.744 OA
ENDBRANCH  72  75
ENDBRANCH  44  68
BRANCH  56  79
ATOM     79  C   UNL A   1      44.651  27.283  34.286  1.00  0.00     0.023 A 
ATOM     80  C   UNL A   1      45.852  28.007  34.413  1.00  0.00     0.012 A 
ATOM     81  C   UNL A   1      44.510  26.055  34.963  1.00  0.00     0.148 A 
ATOM     82  C   UNL A   1      46.906  27.507  35.177  1.00  0.00     0.002 A 
ATOM     83  C   UNL A   1      45.548  25.582  35.757  1.00  0.00     0.091 A 
ATOM     84  F   UNL A   1      43.367  25.367  34.812  1.00  0.00    -0.205 F 
ATOM     85  C   UNL A   1      46.750  26.302  35.858  1.00  0.00     0.022 A 
BRANCH  83  86
ATOM     86  S   UNL A   1      45.388  24.085  36.738  1.00  0.00     0.127 S 
ATOM     87  O   UNL A   1      44.640  23.213  35.835  1.00  0.00    -0.237 OA
ATOM     88  O   UNL A   1      46.784  23.692  36.945  1.00  0.00    -0.237 OA
ATOM     89  O   UNL A   1      44.693  24.485  37.954  1.00  0.00    -0.744 OA
ENDBRANCH  83  86
ENDBRANCH  56  79
ENDBRANCH  30  31
ENDBRANCH  23  25
ENDBRANCH  22  23
ENDBRANCH  21  22
ENDBRANCH   1  21
TORSDOF 17
ENDMDL
