MODEL 1
REMARK VINA RESULT:     -13.1      0.000      0.000
REMARK SMILES O=C(Cc1c(C(=O)c2cc3c(cn2)CCCC3)[nH]c2cc(Cl)ccc12)OCCOC(=O)c1ccc(-c2c3nc(c(-c4cccc(S(=O)(=O)[O-])c4F)c4ccc([nH]4)c(-c4cccc(S(=O)(=O)[O-])c4F)c4nc(c(-c5cccc(S(=O)(=O)[O-])c5F)c5ccc2[nH]5)C=C4)C=C3)cc1
REMARK SMILES IDX 27 1 26 2 2 3 1 4 3 5 4 6 5 7 25 8 18 9 19 10 24 11 20 13
REMARK SMILES IDX 23 14 21 15 22 16 6 17 7 18 8 19 9 20 13 21 10 22 12 23
REMARK SMILES IDX 11 24 17 25 14 26 16 27 15 28 28 29 29 30 30 31 31 32 32 33
REMARK SMILES IDX 33 34 94 35 34 36 93 37 35 38 36 39 37 40 87 41 38 42 92 43
REMARK SMILES IDX 86 44 88 45 39 46 91 47 85 48 84 49 40 51 72 52 52 53 71 54
REMARK SMILES IDX 53 55 56 56 70 57 89 58 54 59 55 60 69 62 90 63 57 64 41 65
REMARK SMILES IDX 42 66 50 67 43 68 45 69 51 70 44 71 46 72 47 73 48 74 49 75
REMARK SMILES IDX 73 76 74 77 82 78 75 79 77 80 83 81 76 82 78 83 79 84 80 85
REMARK SMILES IDX 81 86 58 87 59 88 67 89 60 90 62 91 68 92 61 93 63 94 64 95
REMARK SMILES IDX 65 96 66 97
REMARK H PARENT 18 12 88 50 56 61
REMARK Flexibility Score: inf
ROOT
ATOM      1  C   UNL A   1      32.086  29.257  25.294  1.00  0.00     0.274 C 
ENDROOT
BRANCH   1   2
ATOM      2  O   UNL A   1      31.594  28.196  26.134  1.00  0.00    -0.462 OA
BRANCH   2   3
ATOM      3  C   UNL A   1      32.248  27.012  26.277  1.00  0.00     0.310 C 
ATOM      4  O   UNL A   1      31.781  26.146  27.017  1.00  0.00    -0.252 OA
BRANCH   3   5
ATOM      5  C   UNL A   1      33.597  26.846  25.605  1.00  0.00     0.161 C 
BRANCH   5   6
ATOM      6  C   UNL A   1      33.691  25.650  24.708  1.00  0.00     0.000 A 
ATOM      7  C   UNL A   1      33.334  25.581  23.361  1.00  0.00     0.093 A 
ATOM      8  C   UNL A   1      34.325  24.413  25.049  1.00  0.00     0.004 A 
ATOM      9  N   UNL A   1      33.604  24.296  22.945  1.00  0.00    -0.351 N 
ATOM     10  C   UNL A   1      34.264  23.594  23.926  1.00  0.00     0.048 A 
ATOM     11  C   UNL A   1      34.997  23.941  26.197  1.00  0.00     0.012 A 
ATOM     12  H   UNL A   1      33.357  23.930  22.064  1.00  0.00     0.167 HD
ATOM     13  C   UNL A   1      34.843  22.320  23.888  1.00  0.00     0.047 A 
ATOM     14  C   UNL A   1      35.615  22.685  26.167  1.00  0.00     0.021 A 
ATOM     15  C   UNL A   1      35.534  21.893  25.027  1.00  0.00     0.043 A 
ATOM     16  Cl  UNL A   1      36.314  20.357  25.000  1.00  0.00    -0.084 Cl
BRANCH   7  17
ATOM     17  C   UNL A   1      32.899  26.663  22.487  1.00  0.00     0.227 C 
ATOM     18  O   UNL A   1      33.638  27.135  21.624  1.00  0.00    -0.285 OA
BRANCH  17  19
ATOM     19  C   UNL A   1      31.530  27.251  22.632  1.00  0.00     0.113 A 
ATOM     20  C   UNL A   1      31.198  28.486  22.082  1.00  0.00     0.036 A 
ATOM     21  N   UNL A   1      30.639  26.473  23.294  1.00  0.00    -0.252 NA
ATOM     22  C   UNL A   1      29.897  28.970  22.262  1.00  0.00    -0.041 A 
ATOM     23  C   UNL A   1      29.393  26.955  23.451  1.00  0.00     0.115 A 
ATOM     24  C   UNL A   1      28.980  28.198  22.992  1.00  0.00    -0.026 A 
ATOM     25  C   UNL A   1      29.530  30.334  21.728  1.00  0.00     0.036 C 
ATOM     26  C   UNL A   1      27.573  28.660  23.249  1.00  0.00     0.037 C 
ATOM     27  C   UNL A   1      28.034  30.647  21.808  1.00  0.00     0.005 C 
ATOM     28  C   UNL A   1      27.444  30.176  23.132  1.00  0.00     0.005 C 
ENDBRANCH  17  19
ENDBRANCH   7  17
ENDBRANCH   5   6
ENDBRANCH   3   5
ENDBRANCH   2   3
ENDBRANCH   1   2
BRANCH   1  29
ATOM     29  C   UNL A   1      31.637  30.651  25.741  1.00  0.00     0.275 C 
BRANCH  29  30
ATOM     30  O   UNL A   1      32.035  30.937  27.089  1.00  0.00    -0.458 OA
BRANCH  30  31
ATOM     31  C   UNL A   1      32.810  32.041  27.251  1.00  0.00     0.338 C 
ATOM     32  O   UNL A   1      32.457  33.193  27.095  1.00  0.00    -0.246 OA
BRANCH  31  33
ATOM     33  C   UNL A   1      34.119  31.646  27.835  1.00  0.00     0.060 A 
ATOM     34  C   UNL A   1      35.134  32.575  28.099  1.00  0.00     0.016 A 
ATOM     35  C   UNL A   1      34.343  30.285  28.079  1.00  0.00     0.016 A 
ATOM     36  C   UNL A   1      36.353  32.141  28.631  1.00  0.00     0.010 A 
ATOM     37  C   UNL A   1      35.560  29.855  28.618  1.00  0.00     0.010 A 
ATOM     38  C   UNL A   1      36.568  30.780  28.917  1.00  0.00    -0.014 A 
BRANCH  38  39
ATOM     39  C   UNL A   1      37.769  30.362  29.683  1.00  0.00     0.031 A 
ATOM     40  C   UNL A   1      38.033  30.824  31.085  1.00  0.00     0.074 A 
ATOM     41  C   UNL A   1      38.667  29.570  29.063  1.00  0.00     0.049 A 
ATOM     42  N   UNL A   1      38.996  30.461  31.895  1.00  0.00    -0.248 NA
ATOM     43  C   UNL A   1      37.116  31.823  31.654  1.00  0.00     0.031 C 
ATOM     44  C   UNL A   1      38.563  29.114  27.674  1.00  0.00     0.029 A 
ATOM     45  N   UNL A   1      39.839  29.013  29.510  1.00  0.00    -0.354 N 
ATOM     46  C   UNL A   1      38.814  31.190  33.061  1.00  0.00     0.074 A 
ATOM     47  C   UNL A   1      37.652  32.030  32.852  1.00  0.00     0.031 C 
ATOM     48  C   UNL A   1      39.614  28.330  27.392  1.00  0.00     0.029 A 
ATOM     49  C   UNL A   1      40.471  28.235  28.571  1.00  0.00     0.049 A 
ATOM     50  H   UNL A   1      40.192  29.158  30.417  1.00  0.00     0.167 HD
ATOM     51  C   UNL A   1      39.537  31.143  34.206  1.00  0.00     0.034 A 
ATOM     52  C   UNL A   1      41.602  27.508  28.645  1.00  0.00     0.034 A 
ATOM     53  C   UNL A   1      40.673  30.284  34.423  1.00  0.00     0.049 A 
ATOM     54  C   UNL A   1      42.363  27.447  29.937  1.00  0.00     0.074 A 
ATOM     55  C   UNL A   1      41.395  30.100  35.590  1.00  0.00     0.029 A 
ATOM     56  N   UNL A   1      41.261  29.481  33.459  1.00  0.00    -0.354 N 
ATOM     57  N   UNL A   1      42.074  28.009  31.084  1.00  0.00    -0.248 NA
ATOM     58  C   UNL A   1      43.587  26.631  29.957  1.00  0.00     0.031 C 
ATOM     59  C   UNL A   1      42.433  29.201  35.327  1.00  0.00     0.029 A 
ATOM     60  C   UNL A   1      42.347  28.814  34.001  1.00  0.00     0.049 A 
ATOM     61  H   UNL A   1      40.953  29.399  32.528  1.00  0.00     0.167 HD
ATOM     62  C   UNL A   1      43.061  27.594  31.971  1.00  0.00     0.074 A 
ATOM     63  C   UNL A   1      43.955  26.729  31.230  1.00  0.00     0.031 C 
ATOM     64  C   UNL A   1      43.209  27.915  33.277  1.00  0.00     0.034 A 
BRANCH  51  65
ATOM     65  C   UNL A   1      39.095  31.993  35.368  1.00  0.00     0.023 A 
ATOM     66  C   UNL A   1      38.281  31.417  36.363  1.00  0.00     0.012 A 
ATOM     67  C   UNL A   1      39.601  33.295  35.551  1.00  0.00     0.148 A 
ATOM     68  C   UNL A   1      37.972  32.125  37.522  1.00  0.00     0.002 A 
ATOM     69  C   UNL A   1      39.312  33.985  36.723  1.00  0.00     0.091 A 
ATOM     70  F   UNL A   1      40.370  33.821  34.587  1.00  0.00    -0.205 F 
ATOM     71  C   UNL A   1      38.496  33.402  37.707  1.00  0.00     0.022 A 
BRANCH  69  72
ATOM     72  S   UNL A   1      39.987  35.608  37.091  1.00  0.00     0.127 S 
ATOM     73  O   UNL A   1      39.289  35.943  38.331  1.00  0.00    -0.237 OA
ATOM     74  O   UNL A   1      41.411  35.320  37.252  1.00  0.00    -0.237 OA
ATOM     75  O   UNL A   1      39.658  36.451  35.950  1.00  0.00    -0.744 OA
ENDBRANCH  69  72
ENDBRANCH  51  65
BRANCH  52  76
ATOM     76  C   UNL A   1      42.010  26.690  27.473  1.00  0.00     0.023 A 
ATOM     77  C   UNL A   1      42.773  27.294  26.456  1.00  0.00     0.012 A 
ATOM     78  C   UNL A   1      41.729  25.312  27.407  1.00  0.00     0.148 A 
ATOM     79  C   UNL A   1      43.248  26.537  25.386  1.00  0.00     0.002 A 
ATOM     80  C   UNL A   1      42.236  24.558  26.356  1.00  0.00     0.091 A 
ATOM     81  F   UNL A   1      41.004  24.766  28.392  1.00  0.00    -0.205 F 
ATOM     82  C   UNL A   1      42.989  25.170  25.340  1.00  0.00     0.022 A 
BRANCH  80  83
ATOM     83  S   UNL A   1      42.043  22.776  26.257  1.00  0.00     0.127 S 
ATOM     84  O   UNL A   1      42.740  22.333  27.464  1.00  0.00    -0.237 OA
ATOM     85  O   UNL A   1      40.588  22.630  26.299  1.00  0.00    -0.237 OA
ATOM     86  O   UNL A   1      42.660  22.377  25.000  1.00  0.00    -0.744 OA
ENDBRANCH  80  83
ENDBRANCH  52  76
BRANCH  64  87
ATOM     87  C   UNL A   1      44.372  27.331  34.032  1.00  0.00     0.023 A 
ATOM     88  C   UNL A   1      45.595  28.029  34.061  1.00  0.00     0.012 A 
ATOM     89  C   UNL A   1      44.210  26.178  34.825  1.00  0.00     0.148 A 
ATOM     90  C   UNL A   1      46.640  27.588  34.872  1.00  0.00     0.002 A 
ATOM     91  C   UNL A   1      45.244  25.764  35.656  1.00  0.00     0.091 A 
ATOM     92  F   UNL A   1      43.037  25.530  34.773  1.00  0.00    -0.205 F 
ATOM     93  C   UNL A   1      46.461  26.466  35.678  1.00  0.00     0.022 A 
BRANCH  91  94
ATOM     94  S   UNL A   1      45.087  24.377  36.788  1.00  0.00     0.127 S 
ATOM     95  O   UNL A   1      46.420  24.330  37.389  1.00  0.00    -0.237 OA
ATOM     96  O   UNL A   1      44.029  24.832  37.688  1.00  0.00    -0.237 OA
ATOM     97  O   UNL A   1      44.741  23.222  35.970  1.00  0.00    -0.744 OA
ENDBRANCH  91  94
ENDBRANCH  64  87
ENDBRANCH  38  39
ENDBRANCH  31  33
ENDBRANCH  30  31
ENDBRANCH  29  30
ENDBRANCH   1  29
TORSDOF 17
ENDMDL
MODEL 2
REMARK VINA RESULT:     -13.0      5.258     10.346
REMARK SMILES O=C(Cc1c(C(=O)c2cc3c(cn2)CCCC3)[nH]c2cc(Cl)ccc12)OCCOC(=O)c1ccc(-c2c3nc(c(-c4cccc(S(=O)(=O)[O-])c4F)c4ccc([nH]4)c(-c4cccc(S(=O)(=O)[O-])c4F)c4nc(c(-c5cccc(S(=O)(=O)[O-])c5F)c5ccc2[nH]5)C=C4)C=C3)cc1
REMARK SMILES IDX 27 1 26 2 2 3 1 4 3 5 4 6 5 7 25 8 18 9 19 10 24 11 20 13
REMARK SMILES IDX 23 14 21 15 22 16 6 17 7 18 8 19 9 20 13 21 10 22 12 23
REMARK SMILES IDX 11 24 17 25 14 26 16 27 15 28 28 29 29 30 30 31 31 32 32 33
REMARK SMILES IDX 33 34 94 35 34 36 93 37 35 38 36 39 37 40 87 41 38 42 92 43
REMARK SMILES IDX 86 44 88 45 39 46 91 47 85 48 84 49 40 51 72 52 52 53 71 54
REMARK SMILES IDX 53 55 56 56 70 57 89 58 54 59 55 60 69 62 90 63 57 64 41 65
REMARK SMILES IDX 42 66 50 67 43 68 45 69 51 70 44 71 46 72 47 73 48 74 49 75
REMARK SMILES IDX 73 76 74 77 82 78 75 79 77 80 83 81 76 82 78 83 79 84 80 85
REMARK SMILES IDX 81 86 58 87 59 88 67 89 60 90 62 91 68 92 61 93 63 94 64 95
REMARK SMILES IDX 65 96 66 97
REMARK H PARENT 18 12 88 50 56 61
REMARK Flexibility Score: inf
ROOT
ATOM      1  C   UNL A   1      35.807  21.609  24.429  1.00  0.00     0.274 C 
ENDROOT
BRANCH   1   2
ATOM      2  O   UNL A   1      35.546  22.670  23.492  1.00  0.00    -0.462 OA
BRANCH   2   3
ATOM      3  C   UNL A   1      34.944  23.834  23.853  1.00  0.00     0.310 C 
ATOM      4  O   UNL A   1      34.481  24.573  22.984  1.00  0.00    -0.252 OA
BRANCH   3   5
ATOM      5  C   UNL A   1      34.968  24.237  25.315  1.00  0.00     0.161 C 
BRANCH   5   6
ATOM      6  C   UNL A   1      33.680  24.817  25.811  1.00  0.00     0.000 A 
ATOM      7  C   UNL A   1      32.639  24.135  26.442  1.00  0.00     0.093 A 
ATOM      8  C   UNL A   1      33.374  26.215  25.868  1.00  0.00     0.004 A 
ATOM      9  N   UNL A   1      31.670  25.070  26.732  1.00  0.00    -0.351 N 
ATOM     10  C   UNL A   1      32.119  26.339  26.457  1.00  0.00     0.048 A 
ATOM     11  C   UNL A   1      34.082  27.387  25.524  1.00  0.00     0.012 A 
ATOM     12  H   UNL A   1      30.777  24.857  27.088  1.00  0.00     0.167 HD
ATOM     13  C   UNL A   1      31.531  27.582  26.722  1.00  0.00     0.047 A 
ATOM     14  C   UNL A   1      33.526  28.639  25.814  1.00  0.00     0.021 A 
ATOM     15  C   UNL A   1      32.269  28.726  26.404  1.00  0.00     0.043 A 
ATOM     16  Cl  UNL A   1      31.607  30.274  26.771  1.00  0.00    -0.084 Cl
BRANCH   7  17
ATOM     17  C   UNL A   1      32.601  22.740  26.863  1.00  0.00     0.227 C 
ATOM     18  O   UNL A   1      32.622  22.423  28.051  1.00  0.00    -0.285 OA
BRANCH  17  19
ATOM     19  C   UNL A   1      32.556  21.642  25.848  1.00  0.00     0.113 A 
ATOM     20  C   UNL A   1      32.876  20.327  26.172  1.00  0.00     0.036 A 
ATOM     21  N   UNL A   1      32.138  22.018  24.614  1.00  0.00    -0.252 NA
ATOM     22  C   UNL A   1      32.812  19.354  25.166  1.00  0.00    -0.041 A 
ATOM     23  C   UNL A   1      32.079  21.068  23.663  1.00  0.00     0.115 A 
ATOM     24  C   UNL A   1      32.433  19.741  23.871  1.00  0.00    -0.026 A 
ATOM     25  C   UNL A   1      33.214  17.933  25.478  1.00  0.00     0.036 C 
ATOM     26  C   UNL A   1      32.365  18.763  22.733  1.00  0.00     0.037 C 
ATOM     27  C   UNL A   1      32.899  16.941  24.357  1.00  0.00     0.005 C 
ATOM     28  C   UNL A   1      33.229  17.532  22.991  1.00  0.00     0.005 C 
ENDBRANCH  17  19
ENDBRANCH   7  17
ENDBRANCH   5   6
ENDBRANCH   3   5
ENDBRANCH   2   3
ENDBRANCH   1   2
BRANCH   1  29
ATOM     29  C   UNL A   1      37.294  21.275  24.578  1.00  0.00     0.275 C 
BRANCH  29  30
ATOM     30  O   UNL A   1      37.727  21.347  25.944  1.00  0.00    -0.458 OA
BRANCH  30  31
ATOM     31  C   UNL A   1      39.063  21.201  26.146  1.00  0.00     0.338 C 
ATOM     32  O   UNL A   1      39.738  20.248  25.812  1.00  0.00    -0.246 OA
BRANCH  31  33
ATOM     33  C   UNL A   1      39.626  22.473  26.673  1.00  0.00     0.060 A 
ATOM     34  C   UNL A   1      40.648  22.501  27.629  1.00  0.00     0.016 A 
ATOM     35  C   UNL A   1      39.068  23.674  26.217  1.00  0.00     0.016 A 
ATOM     36  C   UNL A   1      41.125  23.728  28.103  1.00  0.00     0.010 A 
ATOM     37  C   UNL A   1      39.550  24.900  26.686  1.00  0.00     0.010 A 
ATOM     38  C   UNL A   1      40.596  24.939  27.618  1.00  0.00    -0.014 A 
BRANCH  38  39
ATOM     39  C   UNL A   1      41.254  26.226  27.956  1.00  0.00     0.031 A 
ATOM     40  C   UNL A   1      42.671  26.533  27.571  1.00  0.00     0.074 A 
ATOM     41  C   UNL A   1      40.549  27.125  28.673  1.00  0.00     0.049 A 
ATOM     42  N   UNL A   1      43.333  27.652  27.725  1.00  0.00    -0.248 NA
ATOM     43  C   UNL A   1      43.452  25.456  26.945  1.00  0.00     0.031 C 
ATOM     44  C   UNL A   1      39.189  26.915  29.173  1.00  0.00     0.029 A 
ATOM     45  N   UNL A   1      40.874  28.385  29.108  1.00  0.00    -0.354 N 
ATOM     46  C   UNL A   1      44.608  27.417  27.231  1.00  0.00     0.074 A 
ATOM     47  C   UNL A   1      44.634  26.040  26.781  1.00  0.00     0.031 C 
ATOM     48  C   UNL A   1      38.788  28.016  29.826  1.00  0.00     0.029 A 
ATOM     49  C   UNL A   1      39.863  29.004  29.802  1.00  0.00     0.049 A 
ATOM     50  H   UNL A   1      41.749  28.805  28.940  1.00  0.00     0.167 HD
ATOM     51  C   UNL A   1      45.650  28.279  27.142  1.00  0.00     0.034 A 
ATOM     52  C   UNL A   1      39.791  30.235  30.344  1.00  0.00     0.034 A 
ATOM     53  C   UNL A   1      45.611  29.656  27.562  1.00  0.00     0.049 A 
ATOM     54  C   UNL A   1      40.948  31.180  30.199  1.00  0.00     0.074 A 
ATOM     55  C   UNL A   1      46.590  30.624  27.409  1.00  0.00     0.029 A 
ATOM     56  N   UNL A   1      44.556  30.258  28.227  1.00  0.00    -0.354 N 
ATOM     57  N   UNL A   1      42.082  30.994  29.572  1.00  0.00    -0.248 NA
ATOM     58  C   UNL A   1      40.807  32.512  30.808  1.00  0.00     0.031 C 
ATOM     59  C   UNL A   1      46.135  31.806  27.999  1.00  0.00     0.029 A 
ATOM     60  C   UNL A   1      44.866  31.579  28.505  1.00  0.00     0.049 A 
ATOM     61  H   UNL A   1      43.711  29.813  28.465  1.00  0.00     0.167 HD
ATOM     62  C   UNL A   1      42.780  32.192  29.684  1.00  0.00     0.074 A 
ATOM     63  C   UNL A   1      41.938  33.100  30.436  1.00  0.00     0.031 C 
ATOM     64  C   UNL A   1      44.010  32.497  29.210  1.00  0.00     0.034 A 
BRANCH  51  65
ATOM     65  C   UNL A   1      46.924  27.798  26.499  1.00  0.00     0.023 A 
ATOM     66  C   UNL A   1      47.823  27.029  27.262  1.00  0.00     0.012 A 
ATOM     67  C   UNL A   1      47.154  27.975  25.120  1.00  0.00     0.148 A 
ATOM     68  C   UNL A   1      48.939  26.446  26.664  1.00  0.00     0.002 A 
ATOM     69  C   UNL A   1      48.254  27.366  24.525  1.00  0.00     0.091 A 
ATOM     70  F   UNL A   1      46.285  28.714  24.418  1.00  0.00    -0.205 F 
ATOM     71  C   UNL A   1      49.147  26.605  25.296  1.00  0.00     0.022 A 
BRANCH  69  72
ATOM     72  S   UNL A   1      48.581  27.453  22.761  1.00  0.00     0.127 S 
ATOM     73  O   UNL A   1      48.631  26.037  22.401  1.00  0.00    -0.237 OA
ATOM     74  O   UNL A   1      47.405  28.167  22.264  1.00  0.00    -0.237 OA
ATOM     75  O   UNL A   1      49.839  28.172  22.618  1.00  0.00    -0.744 OA
ENDBRANCH  69  72
ENDBRANCH  51  65
BRANCH  52  76
ATOM     76  C   UNL A   1      38.519  30.668  30.979  1.00  0.00     0.023 A 
ATOM     77  C   UNL A   1      38.349  30.471  32.362  1.00  0.00     0.012 A 
ATOM     78  C   UNL A   1      37.529  31.351  30.247  1.00  0.00     0.148 A 
ATOM     79  C   UNL A   1      37.207  30.943  33.008  1.00  0.00     0.002 A 
ATOM     80  C   UNL A   1      36.411  31.849  30.903  1.00  0.00     0.091 A 
ATOM     81  F   UNL A   1      37.722  31.526  28.933  1.00  0.00    -0.205 F 
ATOM     82  C   UNL A   1      36.244  31.640  32.282  1.00  0.00     0.022 A 
BRANCH  80  83
ATOM     83  S   UNL A   1      35.164  32.844  30.080  1.00  0.00     0.127 S 
ATOM     84  O   UNL A   1      34.673  31.921  29.058  1.00  0.00    -0.237 OA
ATOM     85  O   UNL A   1      34.226  33.110  31.171  1.00  0.00    -0.237 OA
ATOM     86  O   UNL A   1      35.860  34.019  29.575  1.00  0.00    -0.744 OA
ENDBRANCH  80  83
ENDBRANCH  52  76
BRANCH  64  87
ATOM     87  C   UNL A   1      44.553  33.878  29.464  1.00  0.00     0.023 A 
ATOM     88  C   UNL A   1      45.246  34.137  30.662  1.00  0.00     0.012 A 
ATOM     89  C   UNL A   1      44.506  34.865  28.460  1.00  0.00     0.148 A 
ATOM     90  C   UNL A   1      45.887  35.359  30.857  1.00  0.00     0.002 A 
ATOM     91  C   UNL A   1      45.175  36.069  28.647  1.00  0.00     0.091 A 
ATOM     92  F   UNL A   1      43.835  34.594  27.331  1.00  0.00    -0.205 F 
ATOM     93  C   UNL A   1      45.863  36.319  29.847  1.00  0.00     0.022 A 
BRANCH  91  94
ATOM     94  S   UNL A   1      45.269  37.338  27.379  1.00  0.00     0.127 S 
ATOM     95  O   UNL A   1      43.855  37.578  27.092  1.00  0.00    -0.237 OA
ATOM     96  O   UNL A   1      45.942  38.428  28.085  1.00  0.00    -0.237 OA
ATOM     97  O   UNL A   1      46.030  36.759  26.280  1.00  0.00    -0.744 OA
ENDBRANCH  91  94
ENDBRANCH  64  87
ENDBRANCH  38  39
ENDBRANCH  31  33
ENDBRANCH  30  31
ENDBRANCH  29  30
ENDBRANCH   1  29
TORSDOF 17
ENDMDL
MODEL 3
REMARK VINA RESULT:     -12.8      1.619      1.980
REMARK SMILES O=C(Cc1c(C(=O)c2cc3c(cn2)CCCC3)[nH]c2cc(Cl)ccc12)OCCOC(=O)c1ccc(-c2c3nc(c(-c4cccc(S(=O)(=O)[O-])c4F)c4ccc([nH]4)c(-c4cccc(S(=O)(=O)[O-])c4F)c4nc(c(-c5cccc(S(=O)(=O)[O-])c5F)c5ccc2[nH]5)C=C4)C=C3)cc1
REMARK SMILES IDX 27 1 26 2 2 3 1 4 3 5 4 6 5 7 25 8 18 9 19 10 24 11 20 13
REMARK SMILES IDX 23 14 21 15 22 16 6 17 7 18 8 19 9 20 13 21 10 22 12 23
REMARK SMILES IDX 11 24 17 25 14 26 16 27 15 28 28 29 29 30 30 31 31 32 32 33
REMARK SMILES IDX 33 34 94 35 34 36 93 37 35 38 36 39 37 40 87 41 38 42 92 43
REMARK SMILES IDX 86 44 88 45 39 46 91 47 85 48 84 49 40 51 72 52 52 53 71 54
REMARK SMILES IDX 53 55 56 56 70 57 89 58 54 59 55 60 69 62 90 63 57 64 41 65
REMARK SMILES IDX 42 66 50 67 43 68 45 69 51 70 44 71 46 72 47 73 48 74 49 75
REMARK SMILES IDX 73 76 74 77 82 78 75 79 77 80 83 81 76 82 78 83 79 84 80 85
REMARK SMILES IDX 81 86 58 87 59 88 67 89 60 90 62 91 68 92 61 93 63 94 64 95
REMARK SMILES IDX 65 96 66 97
REMARK H PARENT 18 12 88 50 56 61
REMARK Flexibility Score: inf
ROOT
ATOM      1  C   UNL A   1      31.883  28.473  27.178  1.00  0.00     0.274 C 
ENDROOT
BRANCH   1   2
ATOM      2  O   UNL A   1      32.200  27.598  26.079  1.00  0.00    -0.462 OA
BRANCH   2   3
ATOM      3  C   UNL A   1      32.174  26.243  26.191  1.00  0.00     0.310 C 
ATOM      4  O   UNL A   1      31.313  25.708  26.890  1.00  0.00    -0.252 OA
BRANCH   3   5
ATOM      5  C   UNL A   1      33.285  25.443  25.540  1.00  0.00     0.161 C 
BRANCH   5   6
ATOM      6  C   UNL A   1      32.816  24.501  24.473  1.00  0.00     0.000 A 
ATOM      7  C   UNL A   1      32.537  24.812  23.142  1.00  0.00     0.093 A 
ATOM      8  C   UNL A   1      32.736  23.078  24.608  1.00  0.00     0.004 A 
ATOM      9  N   UNL A   1      32.153  23.638  22.533  1.00  0.00    -0.351 N 
ATOM     10  C   UNL A   1      32.330  22.569  23.378  1.00  0.00     0.048 A 
ATOM     11  C   UNL A   1      33.030  22.176  25.653  1.00  0.00     0.012 A 
ATOM     12  H   UNL A   1      31.799  23.574  21.616  1.00  0.00     0.167 HD
ATOM     13  C   UNL A   1      32.203  21.196  23.135  1.00  0.00     0.047 A 
ATOM     14  C   UNL A   1      32.944  20.798  25.419  1.00  0.00     0.021 A 
ATOM     15  C   UNL A   1      32.535  20.324  24.177  1.00  0.00     0.043 A 
ATOM     16  Cl  UNL A   1      32.452  18.625  23.900  1.00  0.00    -0.084 Cl
BRANCH   7  17
ATOM     17  C   UNL A   1      32.737  26.080  22.452  1.00  0.00     0.227 C 
ATOM     18  O   UNL A   1      33.703  26.268  21.713  1.00  0.00    -0.285 OA
BRANCH  17  19
ATOM     19  C   UNL A   1      31.772  27.208  22.641  1.00  0.00     0.113 A 
ATOM     20  C   UNL A   1      30.405  26.989  22.788  1.00  0.00     0.036 A 
ATOM     21  N   UNL A   1      32.335  28.440  22.706  1.00  0.00    -0.252 NA
ATOM     22  C   UNL A   1      29.565  28.097  22.960  1.00  0.00    -0.041 A 
ATOM     23  C   UNL A   1      31.511  29.489  22.876  1.00  0.00     0.115 A 
ATOM     24  C   UNL A   1      30.130  29.382  22.973  1.00  0.00    -0.026 A 
ATOM     25  C   UNL A   1      28.073  27.890  23.059  1.00  0.00     0.036 C 
ATOM     26  C   UNL A   1      29.293  30.620  23.128  1.00  0.00     0.037 C 
ATOM     27  C   UNL A   1      27.299  29.151  23.452  1.00  0.00     0.005 C 
ATOM     28  C   UNL A   1      27.841  30.377  22.726  1.00  0.00     0.005 C 
ENDBRANCH  17  19
ENDBRANCH   7  17
ENDBRANCH   5   6
ENDBRANCH   3   5
ENDBRANCH   2   3
ENDBRANCH   1   2
BRANCH   1  29
ATOM     29  C   UNL A   1      31.858  29.955  26.794  1.00  0.00     0.275 C 
BRANCH  29  30
ATOM     30  O   UNL A   1      33.162  30.443  26.448  1.00  0.00    -0.458 OA
BRANCH  30  31
ATOM     31  C   UNL A   1      33.636  31.453  27.223  1.00  0.00     0.338 C 
ATOM     32  O   UNL A   1      33.024  32.448  27.555  1.00  0.00    -0.246 OA
BRANCH  31  33
ATOM     33  C   UNL A   1      34.966  31.075  27.772  1.00  0.00     0.060 A 
ATOM     34  C   UNL A   1      35.959  32.022  28.050  1.00  0.00     0.016 A 
ATOM     35  C   UNL A   1      35.230  29.713  27.966  1.00  0.00     0.016 A 
ATOM     36  C   UNL A   1      37.199  31.604  28.547  1.00  0.00     0.010 A 
ATOM     37  C   UNL A   1      36.467  29.298  28.469  1.00  0.00     0.010 A 
ATOM     38  C   UNL A   1      37.456  30.240  28.783  1.00  0.00    -0.014 A 
BRANCH  38  39
ATOM     39  C   UNL A   1      38.681  29.830  29.513  1.00  0.00     0.031 A 
ATOM     40  C   UNL A   1      39.042  30.386  30.858  1.00  0.00     0.074 A 
ATOM     41  C   UNL A   1      39.510  28.954  28.910  1.00  0.00     0.049 A 
ATOM     42  N   UNL A   1      40.034  30.044  31.642  1.00  0.00    -0.248 NA
ATOM     43  C   UNL A   1      38.199  31.464  31.395  1.00  0.00     0.031 C 
ATOM     44  C   UNL A   1      39.309  28.398  27.570  1.00  0.00     0.029 A 
ATOM     45  N   UNL A   1      40.683  28.382  29.337  1.00  0.00    -0.354 N 
ATOM     46  C   UNL A   1      39.948  30.868  32.755  1.00  0.00     0.074 A 
ATOM     47  C   UNL A   1      38.811  31.740  32.543  1.00  0.00     0.031 C 
ATOM     48  C   UNL A   1      40.311  27.550  27.294  1.00  0.00     0.029 A 
ATOM     49  C   UNL A   1      41.229  27.508  28.429  1.00  0.00     0.049 A 
ATOM     50  H   UNL A   1      41.093  28.580  30.209  1.00  0.00     0.167 HD
ATOM     51  C   UNL A   1      40.733  30.877  33.860  1.00  0.00     0.034 A 
ATOM     52  C   UNL A   1      42.333  26.739  28.500  1.00  0.00     0.034 A 
ATOM     53  C   UNL A   1      41.844  29.988  34.082  1.00  0.00     0.049 A 
ATOM     54  C   UNL A   1      43.164  26.745  29.750  1.00  0.00     0.074 A 
ATOM     55  C   UNL A   1      42.625  29.863  35.219  1.00  0.00     0.029 A 
ATOM     56  N   UNL A   1      42.345  29.089  33.154  1.00  0.00    -0.354 N 
ATOM     57  N   UNL A   1      42.962  27.405  30.863  1.00  0.00    -0.248 NA
ATOM     58  C   UNL A   1      44.353  25.880  29.769  1.00  0.00     0.031 C 
ATOM     59  C   UNL A   1      43.609  28.902  34.973  1.00  0.00     0.029 A 
ATOM     60  C   UNL A   1      43.432  28.418  33.688  1.00  0.00     0.049 A 
ATOM     61  H   UNL A   1      41.982  28.949  32.251  1.00  0.00     0.167 HD
ATOM     62  C   UNL A   1      43.982  27.017  31.725  1.00  0.00     0.074 A 
ATOM     63  C   UNL A   1      44.797  26.059  31.008  1.00  0.00     0.031 C 
ATOM     64  C   UNL A   1      44.216  27.430  32.992  1.00  0.00     0.034 A 
BRANCH  51  65
ATOM     65  C   UNL A   1      40.392  31.832  34.972  1.00  0.00     0.023 A 
ATOM     66  C   UNL A   1      41.013  33.095  35.000  1.00  0.00     0.012 A 
ATOM     67  C   UNL A   1      39.359  31.544  35.888  1.00  0.00     0.148 A 
ATOM     68  C   UNL A   1      40.619  34.058  35.927  1.00  0.00     0.002 A 
ATOM     69  C   UNL A   1      38.951  32.520  36.790  1.00  0.00     0.091 A 
ATOM     70  F   UNL A   1      38.787  30.333  35.842  1.00  0.00    -0.205 F 
ATOM     71  C   UNL A   1      39.582  33.775  36.812  1.00  0.00     0.022 A 
BRANCH  69  72
ATOM     72  S   UNL A   1      37.584  32.283  37.930  1.00  0.00     0.127 S 
ATOM     73  O   UNL A   1      38.088  32.938  39.136  1.00  0.00    -0.237 OA
ATOM     74  O   UNL A   1      36.496  32.995  37.260  1.00  0.00    -0.237 OA
ATOM     75  O   UNL A   1      37.395  30.843  38.042  1.00  0.00    -0.744 OA
ENDBRANCH  69  72
ENDBRANCH  51  65
BRANCH  52  76
ATOM     76  C   UNL A   1      42.641  25.817  27.376  1.00  0.00     0.023 A 
ATOM     77  C   UNL A   1      43.524  26.247  26.367  1.00  0.00     0.012 A 
ATOM     78  C   UNL A   1      42.144  24.500  27.351  1.00  0.00     0.148 A 
ATOM     79  C   UNL A   1      43.904  25.379  25.345  1.00  0.00     0.002 A 
ATOM     80  C   UNL A   1      42.556  23.630  26.349  1.00  0.00     0.091 A 
ATOM     81  F   UNL A   1      41.309  24.120  28.328  1.00  0.00    -0.205 F 
ATOM     82  C   UNL A   1      43.430  24.070  25.340  1.00  0.00     0.022 A 
BRANCH  80  83
ATOM     83  S   UNL A   1      42.081  21.899  26.310  1.00  0.00     0.127 S 
ATOM     84  O   UNL A   1      42.930  21.382  25.238  1.00  0.00    -0.237 OA
ATOM     85  O   UNL A   1      42.451  21.458  27.655  1.00  0.00    -0.237 OA
ATOM     86  O   UNL A   1      40.652  21.884  26.034  1.00  0.00    -0.744 OA
ENDBRANCH  80  83
ENDBRANCH  52  76
BRANCH  64  87
ATOM     87  C   UNL A   1      45.396  26.855  33.727  1.00  0.00     0.023 A 
ATOM     88  C   UNL A   1      46.617  27.556  33.724  1.00  0.00     0.012 A 
ATOM     89  C   UNL A   1      45.253  25.709  34.534  1.00  0.00     0.148 A 
ATOM     90  C   UNL A   1      47.681  27.125  34.516  1.00  0.00     0.002 A 
ATOM     91  C   UNL A   1      46.306  25.304  35.346  1.00  0.00     0.091 A 
ATOM     92  F   UNL A   1      44.081  25.058  34.513  1.00  0.00    -0.205 F 
ATOM     93  C   UNL A   1      47.521  26.009  35.336  1.00  0.00     0.022 A 
BRANCH  91  94
ATOM     94  S   UNL A   1      46.177  23.927  36.493  1.00  0.00     0.127 S 
ATOM     95  O   UNL A   1      47.538  23.852  37.024  1.00  0.00    -0.237 OA
ATOM     96  O   UNL A   1      45.177  24.411  37.444  1.00  0.00    -0.237 OA
ATOM     97  O   UNL A   1      45.762  22.776  35.701  1.00  0.00    -0.744 OA
ENDBRANCH  91  94
ENDBRANCH  64  87
ENDBRANCH  38  39
ENDBRANCH  31  33
ENDBRANCH  30  31
ENDBRANCH  29  30
ENDBRANCH   1  29
TORSDOF 17
ENDMDL
