MODEL 1
REMARK VINA RESULT:     -11.6      0.000      0.000
REMARK SMILES C/C(C(=O)N[C@H]1CCCC1(C)C)=C(\C)C(=O)OCCOC(=O)c1ccc(-c2c3nc(c(-c4cccc(S(=O)(=O)[O-])c4F)c4ccc([nH]4)c(-c4cccc(S(=O)(=O)[O-])c4F)c4nc(c(-c5cccc(S(=O)(=O)[O-])c5F)c5ccc2[nH]5)C=C4)C=C3)cc1
REMARK SMILES IDX 19 1 18 2 17 3 15 4 16 5 13 6 1 7 2 8 14 9 3 10 4 11 5 12
REMARK SMILES IDX 6 14 7 15 10 16 8 17 9 18 11 19 12 20 20 21 21 22 22 23
REMARK SMILES IDX 23 24 24 25 85 26 25 27 84 28 26 29 27 30 28 31 78 32 29 33
REMARK SMILES IDX 83 34 77 35 79 36 30 37 82 38 76 39 75 40 31 42 63 43 43 44
REMARK SMILES IDX 62 45 44 46 47 47 61 48 80 49 45 50 46 51 60 53 81 54 48 55
REMARK SMILES IDX 32 56 33 57 41 58 34 59 36 60 42 61 35 62 37 63 38 64 39 65
REMARK SMILES IDX 40 66 64 67 65 68 73 69 66 70 68 71 74 72 67 73 69 74 70 75
REMARK SMILES IDX 71 76 72 77 49 78 50 79 58 80 51 81 53 82 59 83 52 84 54 85
REMARK SMILES IDX 55 86 56 87 57 88
REMARK H PARENT 5 13 79 41 47 52
REMARK Flexibility Score: inf
ROOT
ATOM      1  C   UNL A   1      31.349  31.326  26.464  1.00  0.00     0.275 C 
ENDROOT
BRANCH   1   2
ATOM      2  C   UNL A   1      30.968  30.738  25.105  1.00  0.00     0.275 C 
BRANCH   2   3
ATOM      3  O   UNL A   1      31.435  29.382  25.062  1.00  0.00    -0.459 OA
BRANCH   3   4
ATOM      4  C   UNL A   1      31.527  28.757  23.854  1.00  0.00     0.334 C 
ATOM      5  O   UNL A   1      32.385  28.954  23.019  1.00  0.00    -0.247 OA
BRANCH   4   6
ATOM      6  C   UNL A   1      30.253  27.967  23.697  1.00  0.00     0.042 C 
ATOM      7  C   UNL A   1      28.510  26.354  24.011  1.00  0.00     0.051 C 
ATOM      8  C   UNL A   1      29.886  26.819  24.347  1.00  0.00     0.024 C 
ATOM      9  C   UNL A   1      29.363  28.674  22.675  1.00  0.00     0.053 C 
BRANCH   8  10
ATOM     10  C   UNL A   1      30.777  26.127  25.367  1.00  0.00     0.247 C 
ATOM     11  O   UNL A   1      30.689  26.499  26.544  1.00  0.00    -0.270 OA
ATOM     12  N   UNL A   1      31.672  25.113  25.253  1.00  0.00    -0.349 N 
ATOM     13  H   UNL A   1      32.021  24.979  26.164  1.00  0.00     0.164 HD
BRANCH  12  14
ATOM     14  C   UNL A   1      32.389  24.092  24.406  1.00  0.00     0.088 C 
ATOM     15  C   UNL A   1      31.907  23.943  22.985  1.00  0.00     0.025 C 
ATOM     16  C   UNL A   1      33.885  24.497  24.129  1.00  0.00    -0.015 C 
ATOM     17  C   UNL A   1      32.457  25.214  22.305  1.00  0.00     0.003 C 
ATOM     18  C   UNL A   1      33.669  25.659  23.151  1.00  0.00     0.008 C 
ATOM     19  C   UNL A   1      34.698  24.869  25.366  1.00  0.00     0.013 C 
ATOM     20  C   UNL A   1      34.702  23.387  23.402  1.00  0.00     0.013 C 
ENDBRANCH  12  14
ENDBRANCH   8  10
ENDBRANCH   4   6
ENDBRANCH   3   4
ENDBRANCH   2   3
ENDBRANCH   1   2
BRANCH   1  21
ATOM     21  O   UNL A   1      32.764  31.188  26.698  1.00  0.00    -0.458 OA
BRANCH  21  22
ATOM     22  C   UNL A   1      33.346  32.235  27.337  1.00  0.00     0.338 C 
ATOM     23  O   UNL A   1      32.849  33.338  27.520  1.00  0.00    -0.246 OA
BRANCH  22  24
ATOM     24  C   UNL A   1      34.659  31.849  27.903  1.00  0.00     0.060 A 
ATOM     25  C   UNL A   1      34.793  30.535  28.356  1.00  0.00     0.016 A 
ATOM     26  C   UNL A   1      35.733  32.738  28.028  1.00  0.00     0.016 A 
ATOM     27  C   UNL A   1      36.000  30.097  28.895  1.00  0.00     0.010 A 
ATOM     28  C   UNL A   1      36.943  32.299  28.590  1.00  0.00     0.010 A 
ATOM     29  C   UNL A   1      37.089  30.969  29.015  1.00  0.00    -0.014 A 
BRANCH  29  30
ATOM     30  C   UNL A   1      38.308  30.472  29.701  1.00  0.00     0.031 A 
ATOM     31  C   UNL A   1      38.529  30.843  31.139  1.00  0.00     0.074 A 
ATOM     32  C   UNL A   1      39.167  29.631  29.095  1.00  0.00     0.049 A 
ATOM     33  N   UNL A   1      39.425  30.401  31.981  1.00  0.00    -0.248 NA
ATOM     34  C   UNL A   1      37.607  31.842  31.701  1.00  0.00     0.031 C 
ATOM     35  C   UNL A   1      39.075  29.184  27.708  1.00  0.00     0.029 A 
ATOM     36  N   UNL A   1      40.282  28.990  29.584  1.00  0.00    -0.354 N 
ATOM     37  C   UNL A   1      39.196  31.085  33.167  1.00  0.00     0.074 A 
ATOM     38  C   UNL A   1      38.062  31.958  32.939  1.00  0.00     0.031 C 
ATOM     39  C   UNL A   1      40.090  28.335  27.458  1.00  0.00     0.029 A 
ATOM     40  C   UNL A   1      40.899  28.170  28.666  1.00  0.00     0.049 A 
ATOM     41  H   UNL A   1      40.609  29.107  30.505  1.00  0.00     0.167 HD
ATOM     42  C   UNL A   1      39.870  31.009  34.338  1.00  0.00     0.034 A 
ATOM     43  C   UNL A   1      41.979  27.369  28.793  1.00  0.00     0.034 A 
ATOM     44  C   UNL A   1      41.022  30.179  34.568  1.00  0.00     0.049 A 
ATOM     45  C   UNL A   1      42.713  27.306  30.112  1.00  0.00     0.074 A 
ATOM     46  C   UNL A   1      41.773  30.057  35.725  1.00  0.00     0.029 A 
ATOM     47  N   UNL A   1      41.612  29.358  33.621  1.00  0.00    -0.354 N 
ATOM     48  N   UNL A   1      42.416  27.870  31.257  1.00  0.00    -0.248 NA
ATOM     49  C   UNL A   1      43.930  26.477  30.157  1.00  0.00     0.031 C 
ATOM     50  C   UNL A   1      42.843  29.193  35.463  1.00  0.00     0.029 A 
ATOM     51  C   UNL A   1      42.725  28.735  34.161  1.00  0.00     0.049 A 
ATOM     52  H   UNL A   1      41.289  29.236  32.699  1.00  0.00     0.167 HD
ATOM     53  C   UNL A   1      43.394  27.451  32.158  1.00  0.00     0.074 A 
ATOM     54  C   UNL A   1      44.265  26.550  31.438  1.00  0.00     0.031 C 
ATOM     55  C   UNL A   1      43.568  27.801  33.457  1.00  0.00     0.034 A 
BRANCH  42  56
ATOM     56  C   UNL A   1      39.390  31.889  35.459  1.00  0.00     0.023 A 
ATOM     57  C   UNL A   1      38.463  31.394  36.397  1.00  0.00     0.012 A 
ATOM     58  C   UNL A   1      39.874  33.204  35.589  1.00  0.00     0.148 A 
ATOM     59  C   UNL A   1      37.996  32.208  37.427  1.00  0.00     0.002 A 
ATOM     60  C   UNL A   1      39.441  33.994  36.645  1.00  0.00     0.091 A 
ATOM     61  F   UNL A   1      40.737  33.662  34.669  1.00  0.00    -0.205 F 
ATOM     62  C   UNL A   1      38.490  33.504  37.556  1.00  0.00     0.022 A 
BRANCH  60  63
ATOM     63  S   UNL A   1      40.076  35.646  36.938  1.00  0.00     0.127 S 
ATOM     64  O   UNL A   1      41.516  35.401  37.006  1.00  0.00    -0.237 OA
ATOM     65  O   UNL A   1      39.634  36.360  35.740  1.00  0.00    -0.237 OA
ATOM     66  O   UNL A   1      39.464  36.101  38.178  1.00  0.00    -0.744 OA
ENDBRANCH  60  63
ENDBRANCH  42  56
BRANCH  43  67
ATOM     67  C   UNL A   1      42.441  26.523  27.649  1.00  0.00     0.023 A 
ATOM     68  C   UNL A   1      43.261  27.086  26.648  1.00  0.00     0.012 A 
ATOM     69  C   UNL A   1      42.035  25.183  27.522  1.00  0.00     0.148 A 
ATOM     70  C   UNL A   1      43.626  26.345  25.522  1.00  0.00     0.002 A 
ATOM     71  C   UNL A   1      42.456  24.430  26.432  1.00  0.00     0.091 A 
ATOM     72  F   UNL A   1      41.233  24.670  28.465  1.00  0.00    -0.205 F 
ATOM     73  C   UNL A   1      43.231  25.015  25.419  1.00  0.00     0.022 A 
BRANCH  71  74
ATOM     74  S   UNL A   1      42.100  22.676  26.279  1.00  0.00     0.127 S 
ATOM     75  O   UNL A   1      42.704  22.360  24.988  1.00  0.00    -0.237 OA
ATOM     76  O   UNL A   1      42.801  22.126  27.439  1.00  0.00    -0.237 OA
ATOM     77  O   UNL A   1      40.650  22.563  26.342  1.00  0.00    -0.744 OA
ENDBRANCH  71  74
ENDBRANCH  43  67
BRANCH  55  78
ATOM     78  C   UNL A   1      44.726  27.188  34.211  1.00  0.00     0.023 A 
ATOM     79  C   UNL A   1      45.991  27.809  34.199  1.00  0.00     0.012 A 
ATOM     80  C   UNL A   1      44.542  26.024  34.985  1.00  0.00     0.148 A 
ATOM     81  C   UNL A   1      47.063  27.259  34.904  1.00  0.00     0.002 A 
ATOM     82  C   UNL A   1      45.598  25.512  35.730  1.00  0.00     0.091 A 
ATOM     83  F   UNL A   1      43.337  25.434  34.977  1.00  0.00    -0.205 F 
ATOM     84  C   UNL A   1      46.864  26.118  35.678  1.00  0.00     0.022 A 
BRANCH  82  85
ATOM     85  S   UNL A   1      45.408  24.107  36.834  1.00  0.00     0.127 S 
ATOM     86  O   UNL A   1      46.770  23.930  37.331  1.00  0.00    -0.237 OA
ATOM     87  O   UNL A   1      44.458  24.615  37.825  1.00  0.00    -0.237 OA
ATOM     88  O   UNL A   1      44.895  23.018  36.012  1.00  0.00    -0.744 OA
ENDBRANCH  82  85
ENDBRANCH  55  78
ENDBRANCH  29  30
ENDBRANCH  22  24
ENDBRANCH  21  22
ENDBRANCH   1  21
TORSDOF 16
ENDMDL
MODEL 2
REMARK VINA RESULT:     -11.5      4.948     10.288
REMARK SMILES C/C(C(=O)N[C@H]1CCCC1(C)C)=C(\C)C(=O)OCCOC(=O)c1ccc(-c2c3nc(c(-c4cccc(S(=O)(=O)[O-])c4F)c4ccc([nH]4)c(-c4cccc(S(=O)(=O)[O-])c4F)c4nc(c(-c5cccc(S(=O)(=O)[O-])c5F)c5ccc2[nH]5)C=C4)C=C3)cc1
REMARK SMILES IDX 19 1 18 2 17 3 15 4 16 5 13 6 1 7 2 8 14 9 3 10 4 11 5 12
REMARK SMILES IDX 6 14 7 15 10 16 8 17 9 18 11 19 12 20 20 21 21 22 22 23
REMARK SMILES IDX 23 24 24 25 85 26 25 27 84 28 26 29 27 30 28 31 78 32 29 33
REMARK SMILES IDX 83 34 77 35 79 36 30 37 82 38 76 39 75 40 31 42 63 43 43 44
REMARK SMILES IDX 62 45 44 46 47 47 61 48 80 49 45 50 46 51 60 53 81 54 48 55
REMARK SMILES IDX 32 56 33 57 41 58 34 59 36 60 42 61 35 62 37 63 38 64 39 65
REMARK SMILES IDX 40 66 64 67 65 68 73 69 66 70 68 71 74 72 67 73 69 74 70 75
REMARK SMILES IDX 71 76 72 77 49 78 50 79 58 80 51 81 53 82 59 83 52 84 54 85
REMARK SMILES IDX 55 86 56 87 57 88
REMARK H PARENT 5 13 79 41 47 52
REMARK Flexibility Score: inf
ROOT
ATOM      1  C   UNL A   1      37.320  20.413  24.687  1.00  0.00     0.275 C 
ENDROOT
BRANCH   1   2
ATOM      2  C   UNL A   1      35.842  20.137  24.963  1.00  0.00     0.275 C 
BRANCH   2   3
ATOM      3  O   UNL A   1      35.208  21.386  25.273  1.00  0.00    -0.459 OA
BRANCH   3   4
ATOM      4  C   UNL A   1      33.913  21.378  25.697  1.00  0.00     0.334 C 
ATOM      5  O   UNL A   1      33.547  21.407  26.853  1.00  0.00    -0.247 OA
BRANCH   4   6
ATOM      6  C   UNL A   1      33.077  21.105  24.474  1.00  0.00     0.042 C 
ATOM      7  C   UNL A   1      32.066  21.283  22.309  1.00  0.00     0.051 C 
ATOM      8  C   UNL A   1      32.890  21.910  23.381  1.00  0.00     0.024 C 
ATOM      9  C   UNL A   1      32.450  19.717  24.610  1.00  0.00     0.053 C 
BRANCH   8  10
ATOM     10  C   UNL A   1      33.523  23.287  23.254  1.00  0.00     0.247 C 
ATOM     11  O   UNL A   1      34.643  23.350  22.729  1.00  0.00    -0.270 OA
ATOM     12  N   UNL A   1      33.080  24.526  23.583  1.00  0.00    -0.349 N 
ATOM     13  H   UNL A   1      33.809  25.135  23.325  1.00  0.00     0.164 HD
BRANCH  12  14
ATOM     14  C   UNL A   1      32.009  25.422  24.153  1.00  0.00     0.088 C 
ATOM     15  C   UNL A   1      30.666  24.784  24.404  1.00  0.00     0.025 C 
ATOM     16  C   UNL A   1      32.347  25.893  25.617  1.00  0.00    -0.015 C 
ATOM     17  C   UNL A   1      30.926  23.929  25.661  1.00  0.00     0.003 C 
ATOM     18  C   UNL A   1      32.130  24.578  26.376  1.00  0.00     0.008 C 
ATOM     19  C   UNL A   1      33.738  26.494  25.802  1.00  0.00     0.013 C 
ATOM     20  C   UNL A   1      31.349  26.953  26.172  1.00  0.00     0.013 C 
ENDBRANCH  12  14
ENDBRANCH   8  10
ENDBRANCH   4   6
ENDBRANCH   3   4
ENDBRANCH   2   3
ENDBRANCH   1   2
BRANCH   1  21
ATOM     21  O   UNL A   1      37.836  21.388  25.615  1.00  0.00    -0.458 OA
BRANCH  21  22
ATOM     22  C   UNL A   1      39.085  21.132  26.081  1.00  0.00     0.338 C 
ATOM     23  O   UNL A   1      39.691  20.074  25.987  1.00  0.00    -0.246 OA
BRANCH  22  24
ATOM     24  C   UNL A   1      39.701  22.354  26.648  1.00  0.00     0.060 A 
ATOM     25  C   UNL A   1      39.241  23.580  26.163  1.00  0.00     0.016 A 
ATOM     26  C   UNL A   1      40.724  22.327  27.602  1.00  0.00     0.016 A 
ATOM     27  C   UNL A   1      39.769  24.773  26.652  1.00  0.00     0.010 A 
ATOM     28  C   UNL A   1      41.268  23.531  28.081  1.00  0.00     0.010 A 
ATOM     29  C   UNL A   1      40.783  24.764  27.617  1.00  0.00    -0.014 A 
BRANCH  29  30
ATOM     30  C   UNL A   1      41.379  26.064  28.013  1.00  0.00     0.031 A 
ATOM     31  C   UNL A   1      42.752  26.410  27.514  1.00  0.00     0.074 A 
ATOM     32  C   UNL A   1      40.688  26.970  28.730  1.00  0.00     0.049 A 
ATOM     33  N   UNL A   1      43.404  27.540  27.594  1.00  0.00    -0.248 NA
ATOM     34  C   UNL A   1      43.483  25.335  26.825  1.00  0.00     0.031 C 
ATOM     35  C   UNL A   1      39.349  26.772  29.275  1.00  0.00     0.029 A 
ATOM     36  N   UNL A   1      41.021  28.251  29.107  1.00  0.00    -0.354 N 
ATOM     37  C   UNL A   1      44.632  27.309  26.991  1.00  0.00     0.074 A 
ATOM     38  C   UNL A   1      44.626  25.935  26.532  1.00  0.00     0.031 C 
ATOM     39  C   UNL A   1      38.970  27.896  29.913  1.00  0.00     0.029 A 
ATOM     40  C   UNL A   1      40.033  28.896  29.816  1.00  0.00     0.049 A 
ATOM     41  H   UNL A   1      41.886  28.668  28.890  1.00  0.00     0.167 HD
ATOM     42  C   UNL A   1      45.679  28.154  26.840  1.00  0.00     0.034 A 
ATOM     43  C   UNL A   1      39.988  30.151  30.313  1.00  0.00     0.034 A 
ATOM     44  C   UNL A   1      45.717  29.507  27.326  1.00  0.00     0.049 A 
ATOM     45  C   UNL A   1      41.172  31.072  30.131  1.00  0.00     0.074 A 
ATOM     46  C   UNL A   1      46.749  30.425  27.226  1.00  0.00     0.029 A 
ATOM     47  N   UNL A   1      44.698  30.127  28.030  1.00  0.00    -0.354 N 
ATOM     48  N   UNL A   1      42.281  30.877  29.458  1.00  0.00    -0.248 NA
ATOM     49  C   UNL A   1      41.090  32.397  30.769  1.00  0.00     0.031 C 
ATOM     50  C   UNL A   1      46.369  31.587  27.908  1.00  0.00     0.029 A 
ATOM     51  C   UNL A   1      45.080  31.412  28.383  1.00  0.00     0.049 A 
ATOM     52  H   UNL A   1      43.831  29.716  28.248  1.00  0.00     0.167 HD
ATOM     53  C   UNL A   1      43.015  32.057  29.577  1.00  0.00     0.074 A 
ATOM     54  C   UNL A   1      42.205  32.976  30.345  1.00  0.00     0.031 C 
ATOM     55  C   UNL A   1      44.256  32.344  29.111  1.00  0.00     0.034 A 
BRANCH  42  56
ATOM     56  C   UNL A   1      46.897  27.612  26.144  1.00  0.00     0.023 A 
ATOM     57  C   UNL A   1      47.080  27.837  24.765  1.00  0.00     0.012 A 
ATOM     58  C   UNL A   1      47.868  26.893  26.865  1.00  0.00     0.148 A 
ATOM     59  C   UNL A   1      48.194  27.320  24.106  1.00  0.00     0.002 A 
ATOM     60  C   UNL A   1      48.999  26.423  26.212  1.00  0.00     0.091 A 
ATOM     61  F   UNL A   1      47.660  26.670  28.171  1.00  0.00    -0.205 F 
ATOM     62  C   UNL A   1      49.157  26.621  24.831  1.00  0.00     0.022 A 
BRANCH  60  63
ATOM     63  S   UNL A   1      50.329  25.579  27.072  1.00  0.00     0.127 S 
ATOM     64  O   UNL A   1      51.294  25.373  25.993  1.00  0.00    -0.237 OA
ATOM     65  O   UNL A   1      50.729  26.576  28.066  1.00  0.00    -0.237 OA
ATOM     66  O   UNL A   1      49.747  24.366  27.627  1.00  0.00    -0.744 OA
ENDBRANCH  60  63
ENDBRANCH  42  56
BRANCH  43  67
ATOM     67  C   UNL A   1      38.767  30.650  31.019  1.00  0.00     0.023 A 
ATOM     68  C   UNL A   1      38.632  30.451  32.410  1.00  0.00     0.012 A 
ATOM     69  C   UNL A   1      37.721  31.274  30.316  1.00  0.00     0.148 A 
ATOM     70  C   UNL A   1      37.461  30.820  33.074  1.00  0.00     0.002 A 
ATOM     71  C   UNL A   1      36.585  31.700  30.995  1.00  0.00     0.091 A 
ATOM     72  F   UNL A   1      37.851  31.430  28.991  1.00  0.00    -0.205 F 
ATOM     73  C   UNL A   1      36.442  31.453  32.369  1.00  0.00     0.022 A 
BRANCH  71  74
ATOM     74  S   UNL A   1      35.278  32.633  30.191  1.00  0.00     0.127 S 
ATOM     75  O   UNL A   1      35.997  33.817  29.729  1.00  0.00    -0.237 OA
ATOM     76  O   UNL A   1      34.860  31.713  29.134  1.00  0.00    -0.237 OA
ATOM     77  O   UNL A   1      34.273  32.866  31.219  1.00  0.00    -0.744 OA
ENDBRANCH  71  74
ENDBRANCH  43  67
BRANCH  55  78
ATOM     78  C   UNL A   1      44.818  33.720  29.384  1.00  0.00     0.023 A 
ATOM     79  C   UNL A   1      45.494  33.985  30.593  1.00  0.00     0.012 A 
ATOM     80  C   UNL A   1      44.732  34.736  28.411  1.00  0.00     0.148 A 
ATOM     81  C   UNL A   1      46.030  35.248  30.848  1.00  0.00     0.002 A 
ATOM     82  C   UNL A   1      45.317  35.976  28.649  1.00  0.00     0.091 A 
ATOM     83  F   UNL A   1      44.074  34.477  27.272  1.00  0.00    -0.205 F 
ATOM     84  C   UNL A   1      45.952  36.238  29.873  1.00  0.00     0.022 A 
BRANCH  82  85
ATOM     85  S   UNL A   1      45.354  37.277  27.410  1.00  0.00     0.127 S 
ATOM     86  O   UNL A   1      46.086  38.332  28.108  1.00  0.00    -0.237 OA
ATOM     87  O   UNL A   1      46.090  36.645  26.315  1.00  0.00    -0.237 OA
ATOM     88  O   UNL A   1      43.961  37.579  27.105  1.00  0.00    -0.744 OA
ENDBRANCH  82  85
ENDBRANCH  55  78
ENDBRANCH  29  30
ENDBRANCH  22  24
ENDBRANCH  21  22
ENDBRANCH   1  21
TORSDOF 16
ENDMDL
MODEL 3
REMARK VINA RESULT:     -11.5      1.122      1.770
REMARK SMILES C/C(C(=O)N[C@H]1CCCC1(C)C)=C(\C)C(=O)OCCOC(=O)c1ccc(-c2c3nc(c(-c4cccc(S(=O)(=O)[O-])c4F)c4ccc([nH]4)c(-c4cccc(S(=O)(=O)[O-])c4F)c4nc(c(-c5cccc(S(=O)(=O)[O-])c5F)c5ccc2[nH]5)C=C4)C=C3)cc1
REMARK SMILES IDX 19 1 18 2 17 3 15 4 16 5 13 6 1 7 2 8 14 9 3 10 4 11 5 12
REMARK SMILES IDX 6 14 7 15 10 16 8 17 9 18 11 19 12 20 20 21 21 22 22 23
REMARK SMILES IDX 23 24 24 25 85 26 25 27 84 28 26 29 27 30 28 31 78 32 29 33
REMARK SMILES IDX 83 34 77 35 79 36 30 37 82 38 76 39 75 40 31 42 63 43 43 44
REMARK SMILES IDX 62 45 44 46 47 47 61 48 80 49 45 50 46 51 60 53 81 54 48 55
REMARK SMILES IDX 32 56 33 57 41 58 34 59 36 60 42 61 35 62 37 63 38 64 39 65
REMARK SMILES IDX 40 66 64 67 65 68 73 69 66 70 68 71 74 72 67 73 69 74 70 75
REMARK SMILES IDX 71 76 72 77 49 78 50 79 58 80 51 81 53 82 59 83 52 84 54 85
REMARK SMILES IDX 55 86 56 87 57 88
REMARK H PARENT 5 13 79 41 47 52
REMARK Flexibility Score: inf
ROOT
ATOM      1  C   UNL A   1      31.735  29.850  26.347  1.00  0.00     0.275 C 
ENDROOT
BRANCH   1   2
ATOM      2  C   UNL A   1      31.680  28.682  27.332  1.00  0.00     0.275 C 
BRANCH   2   3
ATOM      3  O   UNL A   1      31.231  27.522  26.619  1.00  0.00    -0.459 OA
BRANCH   3   4
ATOM      4  C   UNL A   1      32.159  26.665  26.106  1.00  0.00     0.334 C 
ATOM      5  O   UNL A   1      33.361  26.769  26.227  1.00  0.00    -0.247 OA
BRANCH   4   6
ATOM      6  C   UNL A   1      31.402  25.729  25.200  1.00  0.00     0.042 C 
ATOM      7  C   UNL A   1      30.862  24.152  23.479  1.00  0.00     0.051 C 
ATOM      8  C   UNL A   1      31.862  25.074  24.088  1.00  0.00     0.024 C 
ATOM      9  C   UNL A   1      29.977  25.577  25.733  1.00  0.00     0.053 C 
BRANCH   8  10
ATOM     10  C   UNL A   1      33.283  25.228  23.569  1.00  0.00     0.247 C 
ATOM     11  O   UNL A   1      33.447  25.921  22.557  1.00  0.00    -0.270 OA
ATOM     12  N   UNL A   1      34.474  24.765  24.028  1.00  0.00    -0.349 N 
ATOM     13  H   UNL A   1      35.142  25.104  23.389  1.00  0.00     0.164 HD
BRANCH  12  14
ATOM     14  C   UNL A   1      35.269  23.983  25.043  1.00  0.00     0.088 C 
ATOM     15  C   UNL A   1      34.493  23.407  26.201  1.00  0.00     0.025 C 
ATOM     16  C   UNL A   1      35.856  22.653  24.440  1.00  0.00    -0.015 C 
ATOM     17  C   UNL A   1      33.745  22.224  25.553  1.00  0.00     0.003 C 
ATOM     18  C   UNL A   1      34.568  21.830  24.309  1.00  0.00     0.008 C 
ATOM     19  C   UNL A   1      36.625  22.815  23.132  1.00  0.00     0.013 C 
ATOM     20  C   UNL A   1      36.821  21.907  25.410  1.00  0.00     0.013 C 
ENDBRANCH  12  14
ENDBRANCH   8  10
ENDBRANCH   4   6
ENDBRANCH   3   4
ENDBRANCH   2   3
ENDBRANCH   1   2
BRANCH   1  21
ATOM     21  O   UNL A   1      33.090  30.316  26.187  1.00  0.00    -0.458 OA
BRANCH  21  22
ATOM     22  C   UNL A   1      33.459  31.312  27.032  1.00  0.00     0.338 C 
ATOM     23  O   UNL A   1      32.792  32.293  27.331  1.00  0.00    -0.246 OA
BRANCH  22  24
ATOM     24  C   UNL A   1      34.767  31.018  27.661  1.00  0.00     0.060 A 
ATOM     25  C   UNL A   1      35.045  29.681  27.952  1.00  0.00     0.016 A 
ATOM     26  C   UNL A   1      35.699  32.007  27.995  1.00  0.00     0.016 A 
ATOM     27  C   UNL A   1      36.258  29.326  28.538  1.00  0.00     0.010 A 
ATOM     28  C   UNL A   1      36.914  31.648  28.603  1.00  0.00     0.010 A 
ATOM     29  C   UNL A   1      37.206  30.301  28.866  1.00  0.00    -0.014 A 
BRANCH  29  30
ATOM     30  C   UNL A   1      38.429  29.869  29.591  1.00  0.00     0.031 A 
ATOM     31  C   UNL A   1      38.611  30.300  31.018  1.00  0.00     0.074 A 
ATOM     32  C   UNL A   1      39.324  29.036  29.031  1.00  0.00     0.049 A 
ATOM     33  N   UNL A   1      39.505  29.919  31.891  1.00  0.00    -0.248 NA
ATOM     34  C   UNL A   1      37.648  31.288  31.527  1.00  0.00     0.031 C 
ATOM     35  C   UNL A   1      39.272  28.536  27.661  1.00  0.00     0.029 A 
ATOM     36  N   UNL A   1      40.451  28.450  29.562  1.00  0.00    -0.354 N 
ATOM     37  C   UNL A   1      39.233  30.637  33.046  1.00  0.00     0.074 A 
ATOM     38  C   UNL A   1      38.077  31.463  32.767  1.00  0.00     0.031 C 
ATOM     39  C   UNL A   1      40.318  27.711  27.460  1.00  0.00     0.029 A 
ATOM     40  C   UNL A   1      41.110  27.617  28.686  1.00  0.00     0.049 A 
ATOM     41  H   UNL A   1      40.757  28.610  30.484  1.00  0.00     0.167 HD
ATOM     42  C   UNL A   1      39.888  30.626  34.230  1.00  0.00     0.034 A 
ATOM     43  C   UNL A   1      42.213  26.857  28.861  1.00  0.00     0.034 A 
ATOM     44  C   UNL A   1      41.062  29.843  34.510  1.00  0.00     0.049 A 
ATOM     45  C   UNL A   1      42.924  26.866  30.194  1.00  0.00     0.074 A 
ATOM     46  C   UNL A   1      41.796  29.788  35.684  1.00  0.00     0.029 A 
ATOM     47  N   UNL A   1      41.695  29.008  33.605  1.00  0.00    -0.354 N 
ATOM     48  N   UNL A   1      42.589  27.462  31.312  1.00  0.00    -0.248 NA
ATOM     49  C   UNL A   1      44.166  26.080  30.290  1.00  0.00     0.031 C 
ATOM     50  C   UNL A   1      42.897  28.950  35.472  1.00  0.00     0.029 A 
ATOM     51  C   UNL A   1      42.818  28.441  34.187  1.00  0.00     0.049 A 
ATOM     52  H   UNL A   1      41.392  28.842  32.683  1.00  0.00     0.167 HD
ATOM     53  C   UNL A   1      43.563  27.108  32.244  1.00  0.00     0.074 A 
ATOM     54  C   UNL A   1      44.475  26.210  31.573  1.00  0.00     0.031 C 
ATOM     55  C   UNL A   1      43.702  27.511  33.532  1.00  0.00     0.034 A 
BRANCH  42  56
ATOM     56  C   UNL A   1      39.360  31.530  35.310  1.00  0.00     0.023 A 
ATOM     57  C   UNL A   1      38.400  31.052  36.224  1.00  0.00     0.012 A 
ATOM     58  C   UNL A   1      39.832  32.851  35.426  1.00  0.00     0.148 A 
ATOM     59  C   UNL A   1      37.889  31.888  37.215  1.00  0.00     0.002 A 
ATOM     60  C   UNL A   1      39.353  33.664  36.444  1.00  0.00     0.091 A 
ATOM     61  F   UNL A   1      40.726  33.292  34.529  1.00  0.00    -0.205 F 
ATOM     62  C   UNL A   1      38.371  33.190  37.330  1.00  0.00     0.022 A 
BRANCH  60  63
ATOM     63  S   UNL A   1      39.967  35.327  36.721  1.00  0.00     0.127 S 
ATOM     64  O   UNL A   1      39.272  35.697  37.953  1.00  0.00    -0.237 OA
ATOM     65  O   UNL A   1      41.404  35.100  36.875  1.00  0.00    -0.237 OA
ATOM     66  O   UNL A   1      39.595  36.097  35.542  1.00  0.00    -0.744 OA
ENDBRANCH  60  63
ENDBRANCH  42  56
BRANCH  43  67
ATOM     67  C   UNL A   1      42.722  25.985  27.757  1.00  0.00     0.023 A 
ATOM     68  C   UNL A   1      43.699  26.481  26.867  1.00  0.00     0.012 A 
ATOM     69  C   UNL A   1      42.212  24.691  27.554  1.00  0.00     0.148 A 
ATOM     70  C   UNL A   1      44.120  25.723  25.773  1.00  0.00     0.002 A 
ATOM     71  C   UNL A   1      42.683  23.915  26.502  1.00  0.00     0.091 A 
ATOM     72  F   UNL A   1      41.264  24.244  28.390  1.00  0.00    -0.205 F 
ATOM     73  C   UNL A   1      43.619  24.437  25.596  1.00  0.00     0.022 A 
BRANCH  71  74
ATOM     74  S   UNL A   1      42.187  22.204  26.270  1.00  0.00     0.127 S 
ATOM     75  O   UNL A   1      42.940  21.835  25.075  1.00  0.00    -0.237 OA
ATOM     76  O   UNL A   1      42.657  21.586  27.511  1.00  0.00    -0.237 OA
ATOM     77  O   UNL A   1      40.739  22.232  26.123  1.00  0.00    -0.744 OA
ENDBRANCH  71  74
ENDBRANCH  43  67
BRANCH  55  78
ATOM     78  C   UNL A   1      44.865  26.963  34.327  1.00  0.00     0.023 A 
ATOM     79  C   UNL A   1      46.108  27.628  34.318  1.00  0.00     0.012 A 
ATOM     80  C   UNL A   1      44.706  25.820  35.136  1.00  0.00     0.148 A 
ATOM     81  C   UNL A   1      47.184  27.139  35.062  1.00  0.00     0.002 A 
ATOM     82  C   UNL A   1      45.765  25.370  35.918  1.00  0.00     0.091 A 
ATOM     83  F   UNL A   1      43.523  25.188  35.125  1.00  0.00    -0.205 F 
ATOM     84  C   UNL A   1      47.009  26.018  35.869  1.00  0.00     0.022 A 
BRANCH  82  85
ATOM     85  S   UNL A   1      45.601  23.996  37.064  1.00  0.00     0.127 S 
ATOM     86  O   UNL A   1      46.943  23.922  37.636  1.00  0.00    -0.237 OA
ATOM     87  O   UNL A   1      44.571  24.479  37.985  1.00  0.00    -0.237 OA
ATOM     88  O   UNL A   1      45.199  22.849  36.260  1.00  0.00    -0.744 OA
ENDBRANCH  82  85
ENDBRANCH  55  78
ENDBRANCH  29  30
ENDBRANCH  22  24
ENDBRANCH  21  22
ENDBRANCH   1  21
TORSDOF 16
ENDMDL
