MODEL 1
REMARK VINA RESULT:     -11.2      0.000      0.000
REMARK SMILES CCC1(CC)CCN(c2nc(C(C)C)c(C(=O)OCCOC(=O)c3ccc(-c4c5nc(c(-c6cccc(S(=O)(=O)[O-])c6F)c6ccc([nH]6)c(-c6cccc(S(=O)(=O)[O-])c6F)c6nc(c(-c7cccc(S(=O)(=O)[O-])c7F)c7ccc4[nH]7)C=C6)C=C5)cc3)s2)C1
REMARK SMILES IDX 20 1 19 2 18 3 16 4 17 5 15 6 9 7 10 8 87 9 11 10 8 11 3 12
REMARK SMILES IDX 6 13 88 14 7 15 2 16 1 17 4 18 5 19 12 20 13 21 14 22 21 23
REMARK SMILES IDX 22 24 23 25 24 26 25 27 86 28 26 29 85 30 27 31 28 32 29 33
REMARK SMILES IDX 79 34 30 35 84 36 78 37 80 38 31 39 83 40 77 41 76 42 32 44
REMARK SMILES IDX 64 45 44 46 63 47 45 48 48 49 62 50 81 51 46 52 47 53 61 55
REMARK SMILES IDX 82 56 49 57 33 58 34 59 42 60 35 61 37 62 43 63 36 64 38 65
REMARK SMILES IDX 39 66 40 67 41 68 65 69 66 70 74 71 67 72 69 73 75 74 68 75
REMARK SMILES IDX 70 76 71 77 72 78 73 79 50 80 51 81 59 82 52 83 54 84 60 85
REMARK SMILES IDX 53 86 55 87 56 88 57 89 58 90
REMARK H PARENT 80 43 48 54
REMARK Flexibility Score: inf
ROOT
ATOM      1  C   UNL A   1      37.302  20.373  24.930  1.00  0.00     0.275 C 
ENDROOT
BRANCH   1   2
ATOM      2  C   UNL A   1      35.811  20.714  25.006  1.00  0.00     0.275 C 
BRANCH   2   3
ATOM      3  O   UNL A   1      35.609  22.137  25.129  1.00  0.00    -0.458 OA
BRANCH   3   4
ATOM      4  C   UNL A   1      35.371  22.841  23.986  1.00  0.00     0.350 C 
ATOM      5  O   UNL A   1      36.103  22.801  23.005  1.00  0.00    -0.245 OA
BRANCH   4   6
ATOM      6  C   UNL A   1      34.124  23.575  24.078  1.00  0.00     0.137 A 
ATOM      7  C   UNL A   1      32.465  25.358  23.849  1.00  0.00     0.186 A 
ATOM      8  N   UNL A   1      31.890  24.255  24.269  1.00  0.00    -0.224 NA
ATOM      9  S   UNL A   1      34.171  25.269  23.759  1.00  0.00    -0.089 S 
ATOM     10  C   UNL A   1      32.826  23.224  24.434  1.00  0.00     0.071 A 
BRANCH   7  11
ATOM     11  N   UNL A   1      31.837  26.525  23.596  1.00  0.00    -0.347 N 
ATOM     12  C   UNL A   1      30.824  28.662  23.925  1.00  0.00    -0.011 C 
ATOM     13  C   UNL A   1      31.831  28.691  22.746  1.00  0.00     0.030 C 
ATOM     14  C   UNL A   1      31.198  27.322  24.631  1.00  0.00     0.126 C 
ATOM     15  C   UNL A   1      32.020  27.231  22.354  1.00  0.00     0.119 C 
BRANCH  12  16
ATOM     16  C   UNL A   1      29.371  28.657  23.362  1.00  0.00     0.005 C 
ATOM     17  C   UNL A   1      29.100  29.595  22.190  1.00  0.00     0.004 C 
ENDBRANCH  12  16
BRANCH  12  18
ATOM     18  C   UNL A   1      31.071  29.867  24.872  1.00  0.00     0.005 C 
ATOM     19  C   UNL A   1      32.084  29.621  25.989  1.00  0.00     0.004 C 
ENDBRANCH  12  18
ENDBRANCH   7  11
BRANCH  10  20
ATOM     20  C   UNL A   1      32.304  21.938  25.035  1.00  0.00     0.034 C 
ATOM     21  C   UNL A   1      30.978  22.098  25.778  1.00  0.00     0.014 C 
ATOM     22  C   UNL A   1      32.267  20.784  24.028  1.00  0.00     0.014 C 
ENDBRANCH  10  20
ENDBRANCH   4   6
ENDBRANCH   3   4
ENDBRANCH   2   3
ENDBRANCH   1   2
BRANCH   1  23
ATOM     23  O   UNL A   1      38.103  21.485  25.366  1.00  0.00    -0.458 OA
BRANCH  23  24
ATOM     24  C   UNL A   1      39.174  21.152  26.123  1.00  0.00     0.338 C 
ATOM     25  O   UNL A   1      39.699  20.054  26.213  1.00  0.00    -0.246 OA
BRANCH  24  26
ATOM     26  C   UNL A   1      39.762  22.373  26.687  1.00  0.00     0.060 A 
ATOM     27  C   UNL A   1      39.332  23.582  26.145  1.00  0.00     0.016 A 
ATOM     28  C   UNL A   1      40.755  22.350  27.662  1.00  0.00     0.016 A 
ATOM     29  C   UNL A   1      39.896  24.783  26.549  1.00  0.00     0.010 A 
ATOM     30  C   UNL A   1      41.319  23.561  28.083  1.00  0.00     0.010 A 
ATOM     31  C   UNL A   1      40.906  24.783  27.516  1.00  0.00    -0.014 A 
BRANCH  31  32
ATOM     32  C   UNL A   1      41.571  26.061  27.867  1.00  0.00     0.031 A 
ATOM     33  C   UNL A   1      40.813  27.103  28.641  1.00  0.00     0.074 A 
ATOM     34  C   UNL A   1      42.853  26.275  27.513  1.00  0.00     0.049 A 
ATOM     35  N   UNL A   1      41.172  28.318  28.961  1.00  0.00    -0.248 NA
ATOM     36  C   UNL A   1      39.469  26.729  29.111  1.00  0.00     0.031 C 
ATOM     37  C   UNL A   1      43.700  25.323  26.793  1.00  0.00     0.029 A 
ATOM     38  N   UNL A   1      43.661  27.368  27.698  1.00  0.00    -0.354 N 
ATOM     39  C   UNL A   1      40.080  28.875  29.617  1.00  0.00     0.074 A 
ATOM     40  C   UNL A   1      39.048  27.862  29.654  1.00  0.00     0.031 C 
ATOM     41  C   UNL A   1      44.905  25.878  26.586  1.00  0.00     0.029 A 
ATOM     42  C   UNL A   1      44.899  27.239  27.111  1.00  0.00     0.049 A 
ATOM     43  H   UNL A   1      43.384  28.167  28.202  1.00  0.00     0.167 HD
ATOM     44  C   UNL A   1      39.955  30.114  30.145  1.00  0.00     0.034 A 
ATOM     45  C   UNL A   1      45.900  28.131  26.978  1.00  0.00     0.034 A 
ATOM     46  C   UNL A   1      41.006  31.096  30.145  1.00  0.00     0.049 A 
ATOM     47  C   UNL A   1      45.730  29.506  27.567  1.00  0.00     0.074 A 
ATOM     48  C   UNL A   1      40.994  32.369  30.688  1.00  0.00     0.029 A 
ATOM     49  N   UNL A   1      42.258  30.916  29.576  1.00  0.00    -0.354 N 
ATOM     50  N   UNL A   1      44.718  29.995  28.240  1.00  0.00    -0.248 NA
ATOM     51  C   UNL A   1      46.849  30.444  27.397  1.00  0.00     0.031 C 
ATOM     52  C   UNL A   1      42.233  32.966  30.426  1.00  0.00     0.029 A 
ATOM     53  C   UNL A   1      43.025  32.055  29.747  1.00  0.00     0.049 A 
ATOM     54  H   UNL A   1      42.557  30.098  29.117  1.00  0.00     0.167 HD
ATOM     55  C   UNL A   1      45.087  31.287  28.601  1.00  0.00     0.074 A 
ATOM     56  C   UNL A   1      46.427  31.493  28.090  1.00  0.00     0.031 C 
ATOM     57  C   UNL A   1      44.377  32.221  29.279  1.00  0.00     0.034 A 
BRANCH  44  58
ATOM     58  C   UNL A   1      38.636  30.477  30.777  1.00  0.00     0.023 A 
ATOM     59  C   UNL A   1      38.392  30.160  32.128  1.00  0.00     0.012 A 
ATOM     60  C   UNL A   1      37.657  31.176  30.043  1.00  0.00     0.148 A 
ATOM     61  C   UNL A   1      37.180  30.501  32.730  1.00  0.00     0.002 A 
ATOM     62  C   UNL A   1      36.470  31.551  30.661  1.00  0.00     0.091 A 
ATOM     63  F   UNL A   1      37.898  31.449  28.752  1.00  0.00    -0.205 F 
ATOM     64  C   UNL A   1      36.226  31.205  32.000  1.00  0.00     0.022 A 
BRANCH  62  65
ATOM     65  S   UNL A   1      35.211  32.525  29.830  1.00  0.00     0.127 S 
ATOM     66  O   UNL A   1      34.710  31.575  28.837  1.00  0.00    -0.237 OA
ATOM     67  O   UNL A   1      34.278  32.817  30.919  1.00  0.00    -0.237 OA
ATOM     68  O   UNL A   1      35.896  33.691  29.290  1.00  0.00    -0.744 OA
ENDBRANCH  62  65
ENDBRANCH  44  58
BRANCH  45  69
ATOM     69  C   UNL A   1      47.154  27.744  26.271  1.00  0.00     0.023 A 
ATOM     70  C   UNL A   1      48.214  27.169  26.999  1.00  0.00     0.012 A 
ATOM     71  C   UNL A   1      47.292  27.916  24.879  1.00  0.00     0.148 A 
ATOM     72  C   UNL A   1      49.396  26.795  26.358  1.00  0.00     0.002 A 
ATOM     73  C   UNL A   1      48.449  27.488  24.238  1.00  0.00     0.091 A 
ATOM     74  F   UNL A   1      46.282  28.484  24.206  1.00  0.00    -0.205 F 
ATOM     75  C   UNL A   1      49.509  26.943  24.978  1.00  0.00     0.022 A 
BRANCH  73  76
ATOM     76  S   UNL A   1      48.626  27.519  22.451  1.00  0.00     0.127 S 
ATOM     77  O   UNL A   1      47.446  28.280  22.046  1.00  0.00    -0.237 OA
ATOM     78  O   UNL A   1      49.899  28.221  22.285  1.00  0.00    -0.237 OA
ATOM     79  O   UNL A   1      48.652  26.123  22.035  1.00  0.00    -0.744 OA
ENDBRANCH  73  76
ENDBRANCH  45  69
BRANCH  57  80
ATOM     80  C   UNL A   1      45.046  33.544  29.546  1.00  0.00     0.023 A 
ATOM     81  C   UNL A   1      45.827  33.713  30.706  1.00  0.00     0.012 A 
ATOM     82  C   UNL A   1      44.962  34.591  28.609  1.00  0.00     0.148 A 
ATOM     83  C   UNL A   1      46.489  34.917  30.945  1.00  0.00     0.002 A 
ATOM     84  C   UNL A   1      45.664  35.770  28.829  1.00  0.00     0.091 A 
ATOM     85  F   UNL A   1      44.198  34.417  27.520  1.00  0.00    -0.205 F 
ATOM     86  C   UNL A   1      46.417  35.940  30.001  1.00  0.00     0.022 A 
BRANCH  84  87
ATOM     87  S   UNL A   1      45.708  37.101  27.623  1.00  0.00     0.127 S 
ATOM     88  O   UNL A   1      46.652  38.031  28.239  1.00  0.00    -0.237 OA
ATOM     89  O   UNL A   1      46.213  36.421  26.429  1.00  0.00    -0.237 OA
ATOM     90  O   UNL A   1      44.339  37.584  27.507  1.00  0.00    -0.744 OA
ENDBRANCH  84  87
ENDBRANCH  57  80
ENDBRANCH  31  32
ENDBRANCH  24  26
ENDBRANCH  23  24
ENDBRANCH   1  23
TORSDOF 18
ENDMDL
MODEL 2
REMARK VINA RESULT:     -10.5      4.739     10.331
REMARK SMILES CCC1(CC)CCN(c2nc(C(C)C)c(C(=O)OCCOC(=O)c3ccc(-c4c5nc(c(-c6cccc(S(=O)(=O)[O-])c6F)c6ccc([nH]6)c(-c6cccc(S(=O)(=O)[O-])c6F)c6nc(c(-c7cccc(S(=O)(=O)[O-])c7F)c7ccc4[nH]7)C=C6)C=C5)cc3)s2)C1
REMARK SMILES IDX 20 1 19 2 18 3 16 4 17 5 15 6 9 7 10 8 87 9 11 10 8 11 3 12
REMARK SMILES IDX 6 13 88 14 7 15 2 16 1 17 4 18 5 19 12 20 13 21 14 22 21 23
REMARK SMILES IDX 22 24 23 25 24 26 25 27 86 28 26 29 85 30 27 31 28 32 29 33
REMARK SMILES IDX 79 34 30 35 84 36 78 37 80 38 31 39 83 40 77 41 76 42 32 44
REMARK SMILES IDX 64 45 44 46 63 47 45 48 48 49 62 50 81 51 46 52 47 53 61 55
REMARK SMILES IDX 82 56 49 57 33 58 34 59 42 60 35 61 37 62 43 63 36 64 38 65
REMARK SMILES IDX 39 66 40 67 41 68 65 69 66 70 74 71 67 72 69 73 75 74 68 75
REMARK SMILES IDX 70 76 71 77 72 78 73 79 50 80 51 81 59 82 52 83 54 84 60 85
REMARK SMILES IDX 53 86 55 87 56 88 57 89 58 90
REMARK H PARENT 80 43 48 54
REMARK Flexibility Score: inf
ROOT
ATOM      1  C   UNL A   1      39.125  21.181  25.774  1.00  0.00     0.275 C 
ENDROOT
BRANCH   1   2
ATOM      2  C   UNL A   1      40.019  20.006  26.182  1.00  0.00     0.275 C 
BRANCH   2   3
ATOM      3  O   UNL A   1      41.343  20.457  26.532  1.00  0.00    -0.458 OA
BRANCH   3   4
ATOM      4  C   UNL A   1      42.399  19.849  25.923  1.00  0.00     0.350 C 
ATOM      5  O   UNL A   1      42.400  18.669  25.595  1.00  0.00    -0.245 OA
BRANCH   4   6
ATOM      6  C   UNL A   1      43.468  20.795  25.669  1.00  0.00     0.137 A 
ATOM      7  C   UNL A   1      44.776  22.862  25.661  1.00  0.00     0.186 A 
ATOM      8  N   UNL A   1      45.500  21.866  25.207  1.00  0.00    -0.224 NA
ATOM      9  S   UNL A   1      43.137  22.464  25.947  1.00  0.00    -0.089 S 
ATOM     10  C   UNL A   1      44.763  20.673  25.177  1.00  0.00     0.071 A 
BRANCH   7  11
ATOM     11  N   UNL A   1      45.196  24.136  25.810  1.00  0.00    -0.347 N 
ATOM     12  C   UNL A   1      46.520  26.114  25.624  1.00  0.00    -0.011 C 
ATOM     13  C   UNL A   1      45.027  26.405  25.326  1.00  0.00     0.030 C 
ATOM     14  C   UNL A   1      46.562  24.556  25.546  1.00  0.00     0.126 C 
ATOM     15  C   UNL A   1      44.269  25.231  25.931  1.00  0.00     0.119 C 
BRANCH  12  16
ATOM     16  C   UNL A   1      46.879  26.653  27.041  1.00  0.00     0.005 C 
ATOM     17  C   UNL A   1      47.650  25.700  27.949  1.00  0.00     0.004 C 
ENDBRANCH  12  16
BRANCH  12  18
ATOM     18  C   UNL A   1      47.420  26.740  24.524  1.00  0.00     0.005 C 
ATOM     19  C   UNL A   1      46.842  27.974  23.834  1.00  0.00     0.004 C 
ENDBRANCH  12  18
ENDBRANCH   7  11
BRANCH  10  20
ATOM     20  C   UNL A   1      45.451  19.479  24.554  1.00  0.00     0.034 C 
ATOM     21  C   UNL A   1      44.952  19.142  23.149  1.00  0.00     0.014 C 
ATOM     22  C   UNL A   1      46.979  19.575  24.616  1.00  0.00     0.014 C 
ENDBRANCH  10  20
ENDBRANCH   4   6
ENDBRANCH   3   4
ENDBRANCH   2   3
ENDBRANCH   1   2
BRANCH   1  23
ATOM     23  O   UNL A   1      39.431  22.349  26.556  1.00  0.00    -0.458 OA
BRANCH  23  24
ATOM     24  C   UNL A   1      38.667  23.432  26.282  1.00  0.00     0.338 C 
ATOM     25  O   UNL A   1      37.557  23.442  25.774  1.00  0.00    -0.246 OA
BRANCH  24  26
ATOM     26  C   UNL A   1      39.288  24.621  26.878  1.00  0.00     0.060 A 
ATOM     27  C   UNL A   1      38.985  24.882  28.213  1.00  0.00     0.016 A 
ATOM     28  C   UNL A   1      40.085  25.500  26.151  1.00  0.00     0.016 A 
ATOM     29  C   UNL A   1      39.450  26.030  28.836  1.00  0.00     0.010 A 
ATOM     30  C   UNL A   1      40.568  26.655  26.780  1.00  0.00     0.010 A 
ATOM     31  C   UNL A   1      40.238  26.936  28.121  1.00  0.00    -0.014 A 
BRANCH  31  32
ATOM     32  C   UNL A   1      40.647  28.207  28.766  1.00  0.00     0.031 A 
ATOM     33  C   UNL A   1      42.107  28.498  28.971  1.00  0.00     0.074 A 
ATOM     34  C   UNL A   1      39.715  29.102  29.146  1.00  0.00     0.049 A 
ATOM     35  N   UNL A   1      42.670  29.496  29.598  1.00  0.00    -0.248 NA
ATOM     36  C   UNL A   1      43.060  27.534  28.396  1.00  0.00     0.031 C 
ATOM     37  C   UNL A   1      38.271  28.944  28.967  1.00  0.00     0.029 A 
ATOM     38  N   UNL A   1      39.843  30.314  29.776  1.00  0.00    -0.354 N 
ATOM     39  C   UNL A   1      44.038  29.252  29.547  1.00  0.00     0.074 A 
ATOM     40  C   UNL A   1      44.219  28.014  28.822  1.00  0.00     0.031 C 
ATOM     41  C   UNL A   1      37.646  30.013  29.485  1.00  0.00     0.029 A 
ATOM     42  C   UNL A   1      38.637  30.904  30.079  1.00  0.00     0.049 A 
ATOM     43  H   UNL A   1      40.712  30.723  29.990  1.00  0.00     0.167 HD
ATOM     44  C   UNL A   1      45.048  29.997  30.054  1.00  0.00     0.034 A 
ATOM     45  C   UNL A   1      38.362  32.016  30.787  1.00  0.00     0.034 A 
ATOM     46  C   UNL A   1      44.857  31.252  30.732  1.00  0.00     0.049 A 
ATOM     47  C   UNL A   1      39.504  32.821  31.347  1.00  0.00     0.074 A 
ATOM     48  C   UNL A   1      45.816  32.104  31.250  1.00  0.00     0.029 A 
ATOM     49  N   UNL A   1      43.625  31.836  30.985  1.00  0.00    -0.354 N 
ATOM     50  N   UNL A   1      40.793  32.611  31.235  1.00  0.00    -0.248 NA
ATOM     51  C   UNL A   1      39.155  34.026  32.112  1.00  0.00     0.031 C 
ATOM     52  C   UNL A   1      45.161  33.193  31.836  1.00  0.00     0.029 A 
ATOM     53  C   UNL A   1      43.797  33.033  31.658  1.00  0.00     0.049 A 
ATOM     54  H   UNL A   1      42.755  31.455  30.725  1.00  0.00     0.167 HD
ATOM     55  C   UNL A   1      41.410  33.673  31.888  1.00  0.00     0.074 A 
ATOM     56  C   UNL A   1      40.352  34.534  32.373  1.00  0.00     0.031 C 
ATOM     57  C   UNL A   1      42.732  33.904  32.083  1.00  0.00     0.034 A 
BRANCH  44  58
ATOM     58  C   UNL A   1      46.452  29.479  29.887  1.00  0.00     0.023 A 
ATOM     59  C   UNL A   1      47.251  29.942  28.822  1.00  0.00     0.012 A 
ATOM     60  C   UNL A   1      46.997  28.569  30.815  1.00  0.00     0.148 A 
ATOM     61  C   UNL A   1      48.558  29.481  28.663  1.00  0.00     0.002 A 
ATOM     62  C   UNL A   1      48.314  28.148  30.675  1.00  0.00     0.091 A 
ATOM     63  F   UNL A   1      46.215  28.123  31.809  1.00  0.00    -0.205 F 
ATOM     64  C   UNL A   1      49.092  28.594  29.594  1.00  0.00     0.022 A 
BRANCH  62  65
ATOM     65  S   UNL A   1      49.116  27.067  31.863  1.00  0.00     0.127 S 
ATOM     66  O   UNL A   1      48.959  27.823  33.105  1.00  0.00    -0.237 OA
ATOM     67  O   UNL A   1      48.298  25.856  31.780  1.00  0.00    -0.237 OA
ATOM     68  O   UNL A   1      50.486  26.905  31.399  1.00  0.00    -0.744 OA
ENDBRANCH  62  65
ENDBRANCH  44  58
BRANCH  45  69
ATOM     69  C   UNL A   1      36.947  32.440  30.991  1.00  0.00     0.023 A 
ATOM     70  C   UNL A   1      36.355  32.301  32.261  1.00  0.00     0.012 A 
ATOM     71  C   UNL A   1      36.195  33.005  29.941  1.00  0.00     0.148 A 
ATOM     72  C   UNL A   1      35.034  32.694  32.477  1.00  0.00     0.002 A 
ATOM     73  C   UNL A   1      34.899  33.448  30.178  1.00  0.00     0.091 A 
ATOM     74  F   UNL A   1      36.767  33.110  28.734  1.00  0.00    -0.205 F 
ATOM     75  C   UNL A   1      34.310  33.278  31.440  1.00  0.00     0.022 A 
BRANCH  73  76
ATOM     76  S   UNL A   1      33.943  34.329  28.938  1.00  0.00     0.127 S 
ATOM     77  O   UNL A   1      34.873  35.380  28.533  1.00  0.00    -0.237 OA
ATOM     78  O   UNL A   1      33.714  33.288  27.935  1.00  0.00    -0.237 OA
ATOM     79  O   UNL A   1      32.737  34.780  29.620  1.00  0.00    -0.744 OA
ENDBRANCH  73  76
ENDBRANCH  45  69
BRANCH  57  80
ATOM     80  C   UNL A   1      43.116  35.161  32.820  1.00  0.00     0.023 A 
ATOM     81  C   UNL A   1      43.133  35.172  34.228  1.00  0.00     0.012 A 
ATOM     82  C   UNL A   1      43.533  36.306  32.113  1.00  0.00     0.148 A 
ATOM     83  C   UNL A   1      43.530  36.314  34.922  1.00  0.00     0.002 A 
ATOM     84  C   UNL A   1      43.973  37.423  32.811  1.00  0.00     0.091 A 
ATOM     85  F   UNL A   1      43.491  36.281  30.772  1.00  0.00    -0.205 F 
ATOM     86  C   UNL A   1      43.961  37.434  34.214  1.00  0.00     0.022 A 
BRANCH  84  87
ATOM     87  S   UNL A   1      44.638  38.872  31.983  1.00  0.00     0.127 S 
ATOM     88  O   UNL A   1      45.769  38.306  31.252  1.00  0.00    -0.237 OA
ATOM     89  O   UNL A   1      43.516  39.291  31.141  1.00  0.00    -0.237 OA
ATOM     90  O   UNL A   1      44.984  39.816  33.038  1.00  0.00    -0.744 OA
ENDBRANCH  84  87
ENDBRANCH  57  80
ENDBRANCH  31  32
ENDBRANCH  24  26
ENDBRANCH  23  24
ENDBRANCH   1  23
TORSDOF 18
ENDMDL
MODEL 3
REMARK VINA RESULT:     -10.3      5.260     10.116
REMARK SMILES CCC1(CC)CCN(c2nc(C(C)C)c(C(=O)OCCOC(=O)c3ccc(-c4c5nc(c(-c6cccc(S(=O)(=O)[O-])c6F)c6ccc([nH]6)c(-c6cccc(S(=O)(=O)[O-])c6F)c6nc(c(-c7cccc(S(=O)(=O)[O-])c7F)c7ccc4[nH]7)C=C6)C=C5)cc3)s2)C1
REMARK SMILES IDX 20 1 19 2 18 3 16 4 17 5 15 6 9 7 10 8 87 9 11 10 8 11 3 12
REMARK SMILES IDX 6 13 88 14 7 15 2 16 1 17 4 18 5 19 12 20 13 21 14 22 21 23
REMARK SMILES IDX 22 24 23 25 24 26 25 27 86 28 26 29 85 30 27 31 28 32 29 33
REMARK SMILES IDX 79 34 30 35 84 36 78 37 80 38 31 39 83 40 77 41 76 42 32 44
REMARK SMILES IDX 64 45 44 46 63 47 45 48 48 49 62 50 81 51 46 52 47 53 61 55
REMARK SMILES IDX 82 56 49 57 33 58 34 59 42 60 35 61 37 62 43 63 36 64 38 65
REMARK SMILES IDX 39 66 40 67 41 68 65 69 66 70 74 71 67 72 69 73 75 74 68 75
REMARK SMILES IDX 70 76 71 77 72 78 73 79 50 80 51 81 59 82 52 83 54 84 60 85
REMARK SMILES IDX 53 86 55 87 56 88 57 89 58 90
REMARK H PARENT 80 43 48 54
REMARK Flexibility Score: inf
ROOT
ATOM      1  C   UNL A   1      33.932  33.508  28.161  1.00  0.00     0.275 C 
ENDROOT
BRANCH   1   2
ATOM      2  C   UNL A   1      34.199  33.787  29.642  1.00  0.00     0.275 C 
BRANCH   2   3
ATOM      3  O   UNL A   1      35.607  33.982  29.890  1.00  0.00    -0.458 OA
BRANCH   3   4
ATOM      4  C   UNL A   1      36.116  33.491  31.055  1.00  0.00     0.350 C 
ATOM      5  O   UNL A   1      35.456  32.850  31.862  1.00  0.00    -0.245 OA
BRANCH   4   6
ATOM      6  C   UNL A   1      37.533  33.779  31.163  1.00  0.00     0.137 A 
ATOM      7  C   UNL A   1      39.851  34.262  30.548  1.00  0.00     0.186 A 
ATOM      8  N   UNL A   1      39.680  34.432  31.838  1.00  0.00    -0.224 NA
ATOM      9  S   UNL A   1      38.492  33.608  29.740  1.00  0.00    -0.089 S 
ATOM     10  C   UNL A   1      38.364  34.135  32.221  1.00  0.00     0.071 A 
BRANCH   7  11
ATOM     11  N   UNL A   1      41.003  34.465  29.873  1.00  0.00    -0.347 N 
ATOM     12  C   UNL A   1      42.705  35.527  28.579  1.00  0.00    -0.011 C 
ATOM     13  C   UNL A   1      43.300  34.831  29.830  1.00  0.00     0.030 C 
ATOM     14  C   UNL A   1      41.182  35.547  28.919  1.00  0.00     0.126 C 
ATOM     15  C   UNL A   1      42.235  33.833  30.269  1.00  0.00     0.119 C 
BRANCH  12  16
ATOM     16  C   UNL A   1      43.024  34.675  27.313  1.00  0.00     0.005 C 
ATOM     17  C   UNL A   1      44.263  33.789  27.394  1.00  0.00     0.004 C 
ENDBRANCH  12  16
BRANCH  12  18
ATOM     18  C   UNL A   1      43.256  36.972  28.455  1.00  0.00     0.005 C 
ATOM     19  C   UNL A   1      43.474  37.468  27.027  1.00  0.00     0.004 C 
ENDBRANCH  12  18
ENDBRANCH   7  11
BRANCH  10  20
ATOM     20  C   UNL A   1      38.076  34.171  33.705  1.00  0.00     0.034 C 
ATOM     21  C   UNL A   1      37.748  32.804  34.304  1.00  0.00     0.014 C 
ATOM     22  C   UNL A   1      39.160  34.905  34.502  1.00  0.00     0.014 C 
ENDBRANCH  10  20
ENDBRANCH   4   6
ENDBRANCH   3   4
ENDBRANCH   2   3
ENDBRANCH   1   2
BRANCH   1  23
ATOM     23  O   UNL A   1      34.887  32.567  27.639  1.00  0.00    -0.458 OA
BRANCH  23  24
ATOM     24  C   UNL A   1      34.604  31.269  27.895  1.00  0.00     0.338 C 
ATOM     25  O   UNL A   1      33.539  30.699  27.720  1.00  0.00    -0.246 OA
BRANCH  24  26
ATOM     26  C   UNL A   1      35.846  30.564  28.234  1.00  0.00     0.060 A 
ATOM     27  C   UNL A   1      35.844  29.830  29.419  1.00  0.00     0.016 A 
ATOM     28  C   UNL A   1      37.004  30.665  27.468  1.00  0.00     0.016 A 
ATOM     29  C   UNL A   1      36.997  29.205  29.869  1.00  0.00     0.010 A 
ATOM     30  C   UNL A   1      38.168  30.024  27.913  1.00  0.00     0.010 A 
ATOM     31  C   UNL A   1      38.176  29.306  29.125  1.00  0.00    -0.014 A 
BRANCH  31  32
ATOM     32  C   UNL A   1      39.426  28.718  29.665  1.00  0.00     0.031 A 
ATOM     33  C   UNL A   1      40.044  29.302  30.904  1.00  0.00     0.074 A 
ATOM     34  C   UNL A   1      39.990  27.656  29.058  1.00  0.00     0.049 A 
ATOM     35  N   UNL A   1      41.179  29.005  31.480  1.00  0.00    -0.248 NA
ATOM     36  C   UNL A   1      39.286  30.367  31.582  1.00  0.00     0.031 C 
ATOM     37  C   UNL A   1      39.461  26.983  27.872  1.00  0.00     0.029 A 
ATOM     38  N   UNL A   1      41.140  26.967  29.349  1.00  0.00    -0.354 N 
ATOM     39  C   UNL A   1      41.301  29.883  32.551  1.00  0.00     0.074 A 
ATOM     40  C   UNL A   1      40.121  30.720  32.548  1.00  0.00     0.031 C 
ATOM     41  C   UNL A   1      40.290  25.985  27.528  1.00  0.00     0.029 A 
ATOM     42  C   UNL A   1      41.433  25.981  28.435  1.00  0.00     0.049 A 
ATOM     43  H   UNL A   1      41.701  27.158  30.135  1.00  0.00     0.167 HD
ATOM     44  C   UNL A   1      42.303  29.975  33.456  1.00  0.00     0.034 A 
ATOM     45  C   UNL A   1      42.518  25.190  28.321  1.00  0.00     0.034 A 
ATOM     46  C   UNL A   1      43.448  29.105  33.477  1.00  0.00     0.049 A 
ATOM     47  C   UNL A   1      43.621  25.321  29.336  1.00  0.00     0.074 A 
ATOM     48  C   UNL A   1      44.501  29.090  34.374  1.00  0.00     0.029 A 
ATOM     49  N   UNL A   1      43.692  28.093  32.559  1.00  0.00    -0.354 N 
ATOM     50  N   UNL A   1      43.693  26.111  30.380  1.00  0.00    -0.248 NA
ATOM     51  C   UNL A   1      44.784  24.437  29.170  1.00  0.00     0.031 C 
ATOM     52  C   UNL A   1      45.392  28.084  33.985  1.00  0.00     0.029 A 
ATOM     53  C   UNL A   1      44.880  27.453  32.863  1.00  0.00     0.049 A 
ATOM     54  H   UNL A   1      43.105  27.865  31.803  1.00  0.00     0.167 HD
ATOM     55  C   UNL A   1      44.891  25.799  31.013  1.00  0.00     0.074 A 
ATOM     56  C   UNL A   1      45.501  24.733  30.246  1.00  0.00     0.031 C 
ATOM     57  C   UNL A   1      45.443  26.356  32.119  1.00  0.00     0.034 A 
BRANCH  44  58
ATOM     58  C   UNL A   1      42.201  31.050  34.506  1.00  0.00     0.023 A 
ATOM     59  C   UNL A   1      41.603  30.765  35.750  1.00  0.00     0.012 A 
ATOM     60  C   UNL A   1      42.742  32.331  34.277  1.00  0.00     0.148 A 
ATOM     61  C   UNL A   1      41.514  31.747  36.737  1.00  0.00     0.002 A 
ATOM     62  C   UNL A   1      42.689  33.291  35.280  1.00  0.00     0.091 A 
ATOM     63  F   UNL A   1      43.287  32.591  33.079  1.00  0.00    -0.205 F 
ATOM     64  C   UNL A   1      42.066  33.005  36.505  1.00  0.00     0.022 A 
BRANCH  62  65
ATOM     65  S   UNL A   1      43.437  34.915  35.107  1.00  0.00     0.127 S 
ATOM     66  O   UNL A   1      43.035  35.560  36.356  1.00  0.00    -0.237 OA
ATOM     67  O   UNL A   1      44.861  34.590  35.021  1.00  0.00    -0.237 OA
ATOM     68  O   UNL A   1      42.872  35.491  33.896  1.00  0.00    -0.744 OA
ENDBRANCH  62  65
ENDBRANCH  44  58
BRANCH  45  69
ATOM     69  C   UNL A   1      42.603  24.197  27.213  1.00  0.00     0.023 A 
ATOM     70  C   UNL A   1      43.334  24.511  26.050  1.00  0.00     0.012 A 
ATOM     71  C   UNL A   1      41.989  22.932  27.316  1.00  0.00     0.148 A 
ATOM     72  C   UNL A   1      43.430  23.596  25.001  1.00  0.00     0.002 A 
ATOM     73  C   UNL A   1      42.138  22.004  26.292  1.00  0.00     0.091 A 
ATOM     74  F   UNL A   1      41.280  22.658  28.420  1.00  0.00    -0.205 F 
ATOM     75  C   UNL A   1      42.844  22.339  25.127  1.00  0.00     0.022 A 
BRANCH  73  76
ATOM     76  S   UNL A   1      41.529  20.319  26.426  1.00  0.00     0.127 S 
ATOM     77  O   UNL A   1      41.965  19.948  27.770  1.00  0.00    -0.237 OA
ATOM     78  O   UNL A   1      40.085  20.506  26.277  1.00  0.00    -0.237 OA
ATOM     79  O   UNL A   1      42.155  19.587  25.333  1.00  0.00    -0.744 OA
ENDBRANCH  73  76
ENDBRANCH  45  69
BRANCH  57  80
ATOM     80  C   UNL A   1      46.759  25.798  32.595  1.00  0.00     0.023 A 
ATOM     81  C   UNL A   1      46.784  24.865  33.651  1.00  0.00     0.012 A 
ATOM     82  C   UNL A   1      47.960  26.141  31.945  1.00  0.00     0.148 A 
ATOM     83  C   UNL A   1      47.989  24.306  34.072  1.00  0.00     0.002 A 
ATOM     84  C   UNL A   1      49.151  25.543  32.338  1.00  0.00     0.091 A 
ATOM     85  F   UNL A   1      47.916  27.045  30.955  1.00  0.00    -0.205 F 
ATOM     86  C   UNL A   1      49.170  24.635  33.409  1.00  0.00     0.022 A 
BRANCH  84  87
ATOM     87  S   UNL A   1      50.700  25.833  31.478  1.00  0.00     0.127 S 
ATOM     88  O   UNL A   1      51.147  27.087  32.081  1.00  0.00    -0.237 OA
ATOM     89  O   UNL A   1      51.490  24.659  31.856  1.00  0.00    -0.237 OA
ATOM     90  O   UNL A   1      50.367  25.903  30.061  1.00  0.00    -0.744 OA
ENDBRANCH  84  87
ENDBRANCH  57  80
ENDBRANCH  31  32
ENDBRANCH  24  26
ENDBRANCH  23  24
ENDBRANCH   1  23
TORSDOF 18
ENDMDL
