MODEL 1
REMARK VINA RESULT:     -14.4      0.000      0.000
REMARK SMILES C[C@]12C(=O)N(c3ccc(C(=O)OCCOC(=O)c4ccc(-c5c6nc(c(-c7cccc(S(=O)(=O)[O-])c7F)c7ccc([nH]7)c(-c7cccc(S(=O)(=O)[O-])c7F)c7nc(c(-c8cccc(S(=O)(=O)[O-])c8F)c8ccc5[nH]8)C=C7)C=C6)cc4)cc3)C(=O)[C@@H]1[C@H]1c3ccccc3[C@@H]2c2ccccc21
REMARK SMILES IDX 14 1 13 2 12 3 10 4 11 5 9 6 6 7 7 8 82 9 8 10 81 11 5 12
REMARK SMILES IDX 1 13 2 14 3 15 85 16 93 17 4 18 83 19 86 20 92 21 94 22
REMARK SMILES IDX 84 23 87 24 99 25 91 26 95 27 88 28 98 29 90 30 96 31 89 32
REMARK SMILES IDX 97 33 15 34 16 35 17 36 18 37 19 38 80 39 20 40 79 41 21 42
REMARK SMILES IDX 22 43 23 44 73 45 24 46 78 47 72 48 74 49 25 50 77 51 71 52
REMARK SMILES IDX 70 53 26 55 58 56 38 57 57 58 39 59 42 60 56 61 75 62 40 63
REMARK SMILES IDX 41 64 55 66 76 67 43 68 27 69 28 70 36 71 29 72 31 73 37 74
REMARK SMILES IDX 30 75 32 76 33 77 34 78 35 79 59 80 60 81 68 82 61 83 63 84
REMARK SMILES IDX 69 85 62 86 64 87 65 88 66 89 67 90 44 91 45 92 53 93 46 94
REMARK SMILES IDX 48 95 54 96 47 97 49 98 50 99 51 100 52 101
REMARK H PARENT 74 54 42 65
REMARK Flexibility Score: inf
ROOT
ATOM      1  C   UNL A   1      32.874  33.182  27.398  1.00  0.00     0.275 C 
ENDROOT
BRANCH   1   2
ATOM      2  C   UNL A   1      33.476  31.896  27.968  1.00  0.00     0.275 C 
BRANCH   2   3
ATOM      3  O   UNL A   1      33.060  30.749  27.201  1.00  0.00    -0.458 OA
BRANCH   3   4
ATOM      4  C   UNL A   1      33.966  29.745  27.139  1.00  0.00     0.338 C 
ATOM      5  O   UNL A   1      35.077  29.733  27.632  1.00  0.00    -0.246 OA
BRANCH   4   6
ATOM      6  C   UNL A   1      33.366  28.558  26.498  1.00  0.00     0.060 A 
ATOM      7  C   UNL A   1      32.060  26.217  25.593  1.00  0.00     0.052 A 
ATOM      8  C   UNL A   1      31.341  27.320  26.089  1.00  0.00     0.028 A 
ATOM      9  C   UNL A   1      33.455  26.344  25.498  1.00  0.00     0.028 A 
ATOM     10  C   UNL A   1      31.984  28.455  26.561  1.00  0.00     0.018 A 
ATOM     11  C   UNL A   1      34.107  27.517  25.935  1.00  0.00     0.018 A 
BRANCH   7  12
ATOM     12  N   UNL A   1      31.378  24.955  25.469  1.00  0.00    -0.250 N 
ATOM     13  C   UNL A   1      30.373  21.941  25.876  1.00  0.00     0.024 C 
ATOM     14  C   UNL A   1      31.738  22.644  25.681  1.00  0.00     0.071 C 
ATOM     15  C   UNL A   1      31.612  23.950  26.417  1.00  0.00     0.241 C 
ATOM     16  C   UNL A   1      31.976  23.166  24.253  1.00  0.00     0.107 C 
ATOM     17  C   UNL A   1      32.978  21.751  26.028  1.00  0.00     0.066 C 
ATOM     18  O   UNL A   1      31.627  24.043  27.636  1.00  0.00    -0.273 OA
ATOM     19  C   UNL A   1      31.117  24.391  24.193  1.00  0.00     0.238 C 
ATOM     20  C   UNL A   1      32.790  22.162  23.393  1.00  0.00     0.063 C 
ATOM     21  C   UNL A   1      34.257  22.366  25.406  1.00  0.00    -0.036 A 
ATOM     22  C   UNL A   1      32.741  20.471  25.215  1.00  0.00    -0.036 A 
ATOM     23  O   UNL A   1      30.508  24.827  23.236  1.00  0.00    -0.274 OA
ATOM     24  C   UNL A   1      34.219  22.476  23.966  1.00  0.00    -0.036 A 
ATOM     25  C   UNL A   1      32.572  20.704  23.816  1.00  0.00    -0.036 A 
ATOM     26  C   UNL A   1      35.306  22.926  26.115  1.00  0.00     0.005 A 
ATOM     27  C   UNL A   1      32.763  19.187  25.739  1.00  0.00     0.005 A 
ATOM     28  C   UNL A   1      35.222  23.130  23.265  1.00  0.00     0.004 A 
ATOM     29  C   UNL A   1      32.432  19.626  22.953  1.00  0.00     0.004 A 
ATOM     30  C   UNL A   1      36.306  23.597  25.402  1.00  0.00     0.000 A 
ATOM     31  C   UNL A   1      32.620  18.113  24.863  1.00  0.00     0.000 A 
ATOM     32  C   UNL A   1      36.268  23.693  23.998  1.00  0.00     0.000 A 
ATOM     33  C   UNL A   1      32.454  18.330  23.486  1.00  0.00     0.000 A 
ENDBRANCH   7  12
ENDBRANCH   4   6
ENDBRANCH   3   4
ENDBRANCH   2   3
ENDBRANCH   1   2
BRANCH   1  34
ATOM     34  O   UNL A   1      32.474  34.073  28.457  1.00  0.00    -0.458 OA
BRANCH  34  35
ATOM     35  C   UNL A   1      33.346  35.060  28.755  1.00  0.00     0.338 C 
ATOM     36  O   UNL A   1      33.276  36.235  28.430  1.00  0.00    -0.246 OA
BRANCH  35  37
ATOM     37  C   UNL A   1      34.445  34.510  29.561  1.00  0.00     0.060 A 
ATOM     38  C   UNL A   1      34.171  33.858  30.764  1.00  0.00     0.016 A 
ATOM     39  C   UNL A   1      35.746  34.548  29.060  1.00  0.00     0.016 A 
ATOM     40  C   UNL A   1      35.216  33.249  31.467  1.00  0.00     0.010 A 
ATOM     41  C   UNL A   1      36.762  33.850  29.710  1.00  0.00     0.010 A 
ATOM     42  C   UNL A   1      36.517  33.212  30.933  1.00  0.00    -0.014 A 
BRANCH  42  43
ATOM     43  C   UNL A   1      37.627  32.510  31.638  1.00  0.00     0.031 A 
ATOM     44  C   UNL A   1      38.363  31.375  30.972  1.00  0.00     0.074 A 
ATOM     45  C   UNL A   1      37.934  32.849  32.908  1.00  0.00     0.049 A 
ATOM     46  N   UNL A   1      39.320  30.621  31.450  1.00  0.00    -0.248 NA
ATOM     47  C   UNL A   1      37.956  31.019  29.601  1.00  0.00     0.031 C 
ATOM     48  C   UNL A   1      37.244  33.864  33.705  1.00  0.00     0.029 A 
ATOM     49  N   UNL A   1      38.901  32.367  33.756  1.00  0.00    -0.354 N 
ATOM     50  C   UNL A   1      39.592  29.678  30.466  1.00  0.00     0.074 A 
ATOM     51  C   UNL A   1      38.689  29.937  29.369  1.00  0.00     0.031 C 
ATOM     52  C   UNL A   1      37.830  33.955  34.909  1.00  0.00     0.029 A 
ATOM     53  C   UNL A   1      38.921  32.987  34.983  1.00  0.00     0.049 A 
ATOM     54  H   UNL A   1      39.523  31.643  33.508  1.00  0.00     0.167 HD
ATOM     55  C   UNL A   1      40.535  28.706  30.458  1.00  0.00     0.034 A 
ATOM     56  C   UNL A   1      39.733  32.812  36.045  1.00  0.00     0.034 A 
ATOM     57  C   UNL A   1      41.493  28.498  31.508  1.00  0.00     0.049 A 
ATOM     58  C   UNL A   1      40.843  31.804  35.966  1.00  0.00     0.074 A 
ATOM     59  C   UNL A   1      42.531  27.585  31.555  1.00  0.00     0.029 A 
ATOM     60  N   UNL A   1      41.546  29.228  32.684  1.00  0.00    -0.354 N 
ATOM     61  N   UNL A   1      41.150  30.997  34.980  1.00  0.00    -0.248 NA
ATOM     62  C   UNL A   1      41.744  31.706  37.125  1.00  0.00     0.031 C 
ATOM     63  C   UNL A   1      43.224  27.775  32.753  1.00  0.00     0.029 A 
ATOM     64  C   UNL A   1      42.615  28.804  33.451  1.00  0.00     0.049 A 
ATOM     65  H   UNL A   1      40.917  29.943  32.936  1.00  0.00     0.167 HD
ATOM     66  C   UNL A   1      42.290  30.317  35.386  1.00  0.00     0.074 A 
ATOM     67  C   UNL A   1      42.630  30.813  36.703  1.00  0.00     0.031 C 
ATOM     68  C   UNL A   1      42.982  29.355  34.729  1.00  0.00     0.034 A 
BRANCH  55  69
ATOM     69  C   UNL A   1      40.647  27.842  29.231  1.00  0.00     0.023 A 
ATOM     70  C   UNL A   1      39.764  26.755  29.082  1.00  0.00     0.012 A 
ATOM     71  C   UNL A   1      41.545  28.157  28.193  1.00  0.00     0.148 A 
ATOM     72  C   UNL A   1      39.780  25.983  27.922  1.00  0.00     0.002 A 
ATOM     73  C   UNL A   1      41.533  27.401  27.026  1.00  0.00     0.091 A 
ATOM     74  F   UNL A   1      42.382  29.189  28.364  1.00  0.00    -0.205 F 
ATOM     75  C   UNL A   1      40.656  26.312  26.891  1.00  0.00     0.022 A 
BRANCH  73  76
ATOM     76  S   UNL A   1      42.576  27.773  25.611  1.00  0.00     0.127 S 
ATOM     77  O   UNL A   1      42.443  26.552  24.817  1.00  0.00    -0.237 OA
ATOM     78  O   UNL A   1      41.914  28.945  25.041  1.00  0.00    -0.237 OA
ATOM     79  O   UNL A   1      43.909  28.022  26.145  1.00  0.00    -0.744 OA
ENDBRANCH  73  76
ENDBRANCH  55  69
BRANCH  56  80
ATOM     80  C   UNL A   1      39.586  33.705  37.227  1.00  0.00     0.023 A 
ATOM     81  C   UNL A   1      40.084  35.020  37.150  1.00  0.00     0.012 A 
ATOM     82  C   UNL A   1      38.897  33.293  38.383  1.00  0.00     0.148 A 
ATOM     83  C   UNL A   1      39.904  35.911  38.208  1.00  0.00     0.002 A 
ATOM     84  C   UNL A   1      38.688  34.197  39.419  1.00  0.00     0.091 A 
ATOM     85  F   UNL A   1      38.439  32.034  38.434  1.00  0.00    -0.205 F 
ATOM     86  C   UNL A   1      39.198  35.503  39.337  1.00  0.00     0.022 A 
BRANCH  84  87
ATOM     87  S   UNL A   1      37.704  33.803  40.869  1.00  0.00     0.127 S 
ATOM     88  O   UNL A   1      38.597  32.908  41.601  1.00  0.00    -0.237 OA
ATOM     89  O   UNL A   1      37.523  35.122  41.475  1.00  0.00    -0.237 OA
ATOM     90  O   UNL A   1      36.481  33.195  40.364  1.00  0.00    -0.744 OA
ENDBRANCH  84  87
ENDBRANCH  56  80
BRANCH  68  91
ATOM     91  C   UNL A   1      44.203  28.783  35.392  1.00  0.00     0.023 A 
ATOM     92  C   UNL A   1      45.467  29.335  35.105  1.00  0.00     0.012 A 
ATOM     93  C   UNL A   1      44.082  27.791  36.385  1.00  0.00     0.148 A 
ATOM     94  C   UNL A   1      46.597  28.900  35.796  1.00  0.00     0.002 A 
ATOM     95  C   UNL A   1      45.208  27.385  37.089  1.00  0.00     0.091 A 
ATOM     96  F   UNL A   1      42.869  27.274  36.625  1.00  0.00    -0.205 F 
ATOM     97  C   UNL A   1      46.467  27.937  36.794  1.00  0.00     0.022 A 
BRANCH  95  98
ATOM     98  S   UNL A   1      45.125  26.206  38.441  1.00  0.00     0.127 S 
ATOM     99  O   UNL A   1      44.655  25.002  37.758  1.00  0.00    -0.237 OA
ATOM    100  O   UNL A   1      46.516  26.148  38.891  1.00  0.00    -0.237 OA
ATOM    101  O   UNL A   1      44.200  26.775  39.413  1.00  0.00    -0.744 OA
ENDBRANCH  95  98
ENDBRANCH  68  91
ENDBRANCH  42  43
ENDBRANCH  35  37
ENDBRANCH  34  35
ENDBRANCH   1  34
TORSDOF 15
ENDMDL
MODEL 2
REMARK VINA RESULT:     -14.3      5.486      9.090
REMARK SMILES C[C@]12C(=O)N(c3ccc(C(=O)OCCOC(=O)c4ccc(-c5c6nc(c(-c7cccc(S(=O)(=O)[O-])c7F)c7ccc([nH]7)c(-c7cccc(S(=O)(=O)[O-])c7F)c7nc(c(-c8cccc(S(=O)(=O)[O-])c8F)c8ccc5[nH]8)C=C7)C=C6)cc4)cc3)C(=O)[C@@H]1[C@H]1c3ccccc3[C@@H]2c2ccccc21
REMARK SMILES IDX 14 1 13 2 12 3 10 4 11 5 9 6 6 7 7 8 82 9 8 10 81 11 5 12
REMARK SMILES IDX 1 13 2 14 3 15 85 16 93 17 4 18 83 19 86 20 92 21 94 22
REMARK SMILES IDX 84 23 87 24 99 25 91 26 95 27 88 28 98 29 90 30 96 31 89 32
REMARK SMILES IDX 97 33 15 34 16 35 17 36 18 37 19 38 80 39 20 40 79 41 21 42
REMARK SMILES IDX 22 43 23 44 73 45 24 46 78 47 72 48 74 49 25 50 77 51 71 52
REMARK SMILES IDX 70 53 26 55 58 56 38 57 57 58 39 59 42 60 56 61 75 62 40 63
REMARK SMILES IDX 41 64 55 66 76 67 43 68 27 69 28 70 36 71 29 72 31 73 37 74
REMARK SMILES IDX 30 75 32 76 33 77 34 78 35 79 59 80 60 81 68 82 61 83 63 84
REMARK SMILES IDX 69 85 62 86 64 87 65 88 66 89 67 90 44 91 45 92 53 93 46 94
REMARK SMILES IDX 48 95 54 96 47 97 49 98 50 99 51 100 52 101
REMARK H PARENT 74 54 42 65
REMARK Flexibility Score: inf
ROOT
ATOM      1  C   UNL A   1      38.115  20.124  25.043  1.00  0.00     0.275 C 
ENDROOT
BRANCH   1   2
ATOM      2  C   UNL A   1      36.589  20.079  24.949  1.00  0.00     0.275 C 
BRANCH   2   3
ATOM      3  O   UNL A   1      36.008  21.311  25.419  1.00  0.00    -0.458 OA
BRANCH   3   4
ATOM      4  C   UNL A   1      35.808  22.248  24.462  1.00  0.00     0.338 C 
ATOM      5  O   UNL A   1      36.360  22.318  23.381  1.00  0.00    -0.246 OA
BRANCH   4   6
ATOM      6  C   UNL A   1      34.686  23.130  24.841  1.00  0.00     0.060 A 
ATOM      7  C   UNL A   1      32.358  24.678  25.280  1.00  0.00     0.052 A 
ATOM      8  C   UNL A   1      32.324  23.273  25.294  1.00  0.00     0.028 A 
ATOM      9  C   UNL A   1      33.609  25.293  25.109  1.00  0.00     0.028 A 
ATOM     10  C   UNL A   1      33.460  22.515  25.047  1.00  0.00     0.018 A 
ATOM     11  C   UNL A   1      34.774  24.522  24.904  1.00  0.00     0.018 A 
BRANCH   7  12
ATOM     12  N   UNL A   1      31.113  25.393  25.173  1.00  0.00    -0.250 N 
ATOM     13  C   UNL A   1      28.470  26.834  24.080  1.00  0.00     0.024 C 
ATOM     14  C   UNL A   1      29.989  26.929  23.797  1.00  0.00     0.071 C 
ATOM     15  C   UNL A   1      30.497  25.517  23.922  1.00  0.00     0.241 C 
ATOM     16  C   UNL A   1      30.795  27.601  24.923  1.00  0.00     0.107 C 
ATOM     17  C   UNL A   1      30.353  27.701  22.483  1.00  0.00     0.066 C 
ATOM     18  O   UNL A   1      30.295  24.651  23.084  1.00  0.00    -0.273 OA
ATOM     19  C   UNL A   1      30.860  26.537  25.975  1.00  0.00     0.238 C 
ATOM     20  C   UNL A   1      31.029  29.111  24.652  1.00  0.00     0.063 C 
ATOM     21  C   UNL A   1      31.848  28.110  22.514  1.00  0.00    -0.036 A 
ATOM     22  C   UNL A   1      29.596  29.028  22.621  1.00  0.00    -0.036 A 
ATOM     23  O   UNL A   1      30.852  26.682  27.182  1.00  0.00    -0.274 OA
ATOM     24  C   UNL A   1      32.199  28.979  23.612  1.00  0.00    -0.036 A 
ATOM     25  C   UNL A   1      29.909  29.745  23.817  1.00  0.00    -0.036 A 
ATOM     26  C   UNL A   1      32.838  27.599  21.691  1.00  0.00     0.005 A 
ATOM     27  C   UNL A   1      28.742  29.554  21.662  1.00  0.00     0.005 A 
ATOM     28  C   UNL A   1      33.519  29.327  23.865  1.00  0.00     0.004 A 
ATOM     29  C   UNL A   1      29.355  31.000  24.028  1.00  0.00     0.004 A 
ATOM     30  C   UNL A   1      34.167  27.942  21.962  1.00  0.00     0.000 A 
ATOM     31  C   UNL A   1      28.192  30.814  21.887  1.00  0.00     0.000 A 
ATOM     32  C   UNL A   1      34.502  28.797  23.029  1.00  0.00     0.000 A 
ATOM     33  C   UNL A   1      28.494  31.528  23.058  1.00  0.00     0.000 A 
ENDBRANCH   7  12
ENDBRANCH   4   6
ENDBRANCH   3   4
ENDBRANCH   2   3
ENDBRANCH   1   2
BRANCH   1  34
ATOM     34  O   UNL A   1      38.550  21.301  25.750  1.00  0.00    -0.458 OA
BRANCH  34  35
ATOM     35  C   UNL A   1      39.677  21.163  26.482  1.00  0.00     0.338 C 
ATOM     36  O   UNL A   1      40.287  20.133  26.719  1.00  0.00    -0.246 OA
BRANCH  35  37
ATOM     37  C   UNL A   1      40.096  22.482  26.981  1.00  0.00     0.060 A 
ATOM     38  C   UNL A   1      41.158  22.583  27.880  1.00  0.00     0.016 A 
ATOM     39  C   UNL A   1      39.496  23.630  26.464  1.00  0.00     0.016 A 
ATOM     40  C   UNL A   1      41.611  23.850  28.265  1.00  0.00     0.010 A 
ATOM     41  C   UNL A   1      40.020  24.884  26.769  1.00  0.00     0.010 A 
ATOM     42  C   UNL A   1      41.068  25.013  27.690  1.00  0.00    -0.014 A 
BRANCH  42  43
ATOM     43  C   UNL A   1      41.585  26.367  28.039  1.00  0.00     0.031 A 
ATOM     44  C   UNL A   1      42.994  26.767  27.680  1.00  0.00     0.074 A 
ATOM     45  C   UNL A   1      40.810  27.220  28.741  1.00  0.00     0.049 A 
ATOM     46  N   UNL A   1      43.627  27.881  27.946  1.00  0.00    -0.248 NA
ATOM     47  C   UNL A   1      43.812  25.779  26.953  1.00  0.00     0.031 C 
ATOM     48  C   UNL A   1      39.462  26.931  29.233  1.00  0.00     0.029 A 
ATOM     49  N   UNL A   1      41.048  28.502  29.171  1.00  0.00    -0.354 N 
ATOM     50  C   UNL A   1      44.921  27.711  27.466  1.00  0.00     0.074 A 
ATOM     51  C   UNL A   1      44.994  26.379  26.910  1.00  0.00     0.031 C 
ATOM     52  C   UNL A   1      38.980  28.012  29.865  1.00  0.00     0.029 A 
ATOM     53  C   UNL A   1      39.991  29.065  29.847  1.00  0.00     0.049 A 
ATOM     54  H   UNL A   1      41.898  28.975  29.010  1.00  0.00     0.167 HD
ATOM     55  C   UNL A   1      45.946  28.595  27.454  1.00  0.00     0.034 A 
ATOM     56  C   UNL A   1      39.842  30.294  30.381  1.00  0.00     0.034 A 
ATOM     57  C   UNL A   1      45.854  29.948  27.927  1.00  0.00     0.049 A 
ATOM     58  C   UNL A   1      40.955  31.294  30.253  1.00  0.00     0.074 A 
ATOM     59  C   UNL A   1      46.819  30.938  27.888  1.00  0.00     0.029 A 
ATOM     60  N   UNL A   1      44.725  30.509  28.500  1.00  0.00    -0.354 N 
ATOM     61  N   UNL A   1      42.132  31.144  29.698  1.00  0.00    -0.248 NA
ATOM     62  C   UNL A   1      40.711  32.642  30.789  1.00  0.00     0.031 C 
ATOM     63  C   UNL A   1      46.267  32.105  28.423  1.00  0.00     0.029 A 
ATOM     64  C   UNL A   1      44.960  31.839  28.796  1.00  0.00     0.049 A 
ATOM     65  H   UNL A   1      43.880  30.032  28.671  1.00  0.00     0.167 HD
ATOM     66  C   UNL A   1      42.758  32.380  29.791  1.00  0.00     0.074 A 
ATOM     67  C   UNL A   1      41.826  33.275  30.447  1.00  0.00     0.031 C 
ATOM     68  C   UNL A   1      44.000  32.735  29.384  1.00  0.00     0.034 A 
BRANCH  55  69
ATOM     69  C   UNL A   1      47.243  28.163  26.824  1.00  0.00     0.023 A 
ATOM     70  C   UNL A   1      48.315  27.794  27.660  1.00  0.00     0.012 A 
ATOM     71  C   UNL A   1      47.370  28.028  25.428  1.00  0.00     0.148 A 
ATOM     72  C   UNL A   1      49.503  27.308  27.116  1.00  0.00     0.002 A 
ATOM     73  C   UNL A   1      48.546  27.513  24.895  1.00  0.00     0.091 A 
ATOM     74  F   UNL A   1      46.340  28.396  24.655  1.00  0.00    -0.205 F 
ATOM     75  C   UNL A   1      49.614  27.158  25.736  1.00  0.00     0.022 A 
BRANCH  73  76
ATOM     76  S   UNL A   1      48.777  27.222  23.138  1.00  0.00     0.127 S 
ATOM     77  O   UNL A   1      50.234  27.268  23.019  1.00  0.00    -0.237 OA
ATOM     78  O   UNL A   1      48.194  25.892  22.969  1.00  0.00    -0.237 OA
ATOM     79  O   UNL A   1      48.066  28.293  22.453  1.00  0.00    -0.744 OA
ENDBRANCH  73  76
ENDBRANCH  55  69
BRANCH  56  80
ATOM     80  C   UNL A   1      38.532  30.673  30.979  1.00  0.00     0.023 A 
ATOM     81  C   UNL A   1      38.330  30.462  32.357  1.00  0.00     0.012 A 
ATOM     82  C   UNL A   1      37.529  31.305  30.222  1.00  0.00     0.148 A 
ATOM     83  C   UNL A   1      37.145  30.868  32.971  1.00  0.00     0.002 A 
ATOM     84  C   UNL A   1      36.366  31.741  30.847  1.00  0.00     0.091 A 
ATOM     85  F   UNL A   1      37.744  31.489  28.911  1.00  0.00    -0.205 F 
ATOM     86  C   UNL A   1      36.169  31.516  32.219  1.00  0.00     0.022 A 
BRANCH  84  87
ATOM     87  S   UNL A   1      35.094  32.677  29.990  1.00  0.00     0.127 S 
ATOM     88  O   UNL A   1      34.161  32.973  31.074  1.00  0.00    -0.237 OA
ATOM     89  O   UNL A   1      35.850  33.828  29.498  1.00  0.00    -0.237 OA
ATOM     90  O   UNL A   1      34.588  31.795  28.949  1.00  0.00    -0.744 OA
ENDBRANCH  84  87
ENDBRANCH  56  80
BRANCH  68  91
ATOM     91  C   UNL A   1      44.435  34.157  29.594  1.00  0.00     0.023 A 
ATOM     92  C   UNL A   1      45.061  34.516  30.804  1.00  0.00     0.012 A 
ATOM     93  C   UNL A   1      44.340  35.099  28.551  1.00  0.00     0.148 A 
ATOM     94  C   UNL A   1      45.580  35.799  30.974  1.00  0.00     0.002 A 
ATOM     95  C   UNL A   1      44.885  36.365  28.717  1.00  0.00     0.091 A 
ATOM     96  F   UNL A   1      43.726  34.733  27.416  1.00  0.00    -0.205 F 
ATOM     97  C   UNL A   1      45.504  36.717  29.929  1.00  0.00     0.022 A 
BRANCH  95  98
ATOM     98  S   UNL A   1      44.901  37.587  27.402  1.00  0.00     0.127 S 
ATOM     99  O   UNL A   1      45.448  38.757  28.089  1.00  0.00    -0.237 OA
ATOM    100  O   UNL A   1      45.801  36.980  26.421  1.00  0.00    -0.237 OA
ATOM    101  O   UNL A   1      43.520  37.715  26.956  1.00  0.00    -0.744 OA
ENDBRANCH  95  98
ENDBRANCH  68  91
ENDBRANCH  42  43
ENDBRANCH  35  37
ENDBRANCH  34  35
ENDBRANCH   1  34
TORSDOF 15
ENDMDL
MODEL 3
REMARK VINA RESULT:     -14.3      0.546      7.382
REMARK SMILES C[C@]12C(=O)N(c3ccc(C(=O)OCCOC(=O)c4ccc(-c5c6nc(c(-c7cccc(S(=O)(=O)[O-])c7F)c7ccc([nH]7)c(-c7cccc(S(=O)(=O)[O-])c7F)c7nc(c(-c8cccc(S(=O)(=O)[O-])c8F)c8ccc5[nH]8)C=C7)C=C6)cc4)cc3)C(=O)[C@@H]1[C@H]1c3ccccc3[C@@H]2c2ccccc21
REMARK SMILES IDX 14 1 13 2 12 3 10 4 11 5 9 6 6 7 7 8 82 9 8 10 81 11 5 12
REMARK SMILES IDX 1 13 2 14 3 15 85 16 93 17 4 18 83 19 86 20 92 21 94 22
REMARK SMILES IDX 84 23 87 24 99 25 91 26 95 27 88 28 98 29 90 30 96 31 89 32
REMARK SMILES IDX 97 33 15 34 16 35 17 36 18 37 19 38 80 39 20 40 79 41 21 42
REMARK SMILES IDX 22 43 23 44 73 45 24 46 78 47 72 48 74 49 25 50 77 51 71 52
REMARK SMILES IDX 70 53 26 55 58 56 38 57 57 58 39 59 42 60 56 61 75 62 40 63
REMARK SMILES IDX 41 64 55 66 76 67 43 68 27 69 28 70 36 71 29 72 31 73 37 74
REMARK SMILES IDX 30 75 32 76 33 77 34 78 35 79 59 80 60 81 68 82 61 83 63 84
REMARK SMILES IDX 69 85 62 86 64 87 65 88 66 89 67 90 44 91 45 92 53 93 46 94
REMARK SMILES IDX 48 95 54 96 47 97 49 98 50 99 51 100 52 101
REMARK H PARENT 74 54 42 65
REMARK Flexibility Score: inf
ROOT
ATOM      1  C   UNL A   1      32.723  33.035  27.587  1.00  0.00     0.275 C 
ENDROOT
BRANCH   1   2
ATOM      2  C   UNL A   1      33.669  31.846  27.767  1.00  0.00     0.275 C 
BRANCH   2   3
ATOM      3  O   UNL A   1      33.178  30.687  27.064  1.00  0.00    -0.458 OA
BRANCH   3   4
ATOM      4  C   UNL A   1      34.024  29.631  27.046  1.00  0.00     0.338 C 
ATOM      5  O   UNL A   1      35.125  29.567  27.558  1.00  0.00    -0.246 OA
BRANCH   4   6
ATOM      6  C   UNL A   1      33.365  28.462  26.429  1.00  0.00     0.060 A 
ATOM      7  C   UNL A   1      31.993  26.136  25.585  1.00  0.00     0.052 A 
ATOM      8  C   UNL A   1      31.329  27.190  26.237  1.00  0.00     0.028 A 
ATOM      9  C   UNL A   1      33.358  26.308  25.303  1.00  0.00     0.028 A 
ATOM     10  C   UNL A   1      32.008  28.316  26.678  1.00  0.00     0.018 A 
ATOM     11  C   UNL A   1      34.041  27.474  25.710  1.00  0.00     0.018 A 
BRANCH   7  12
ATOM     12  N   UNL A   1      31.328  24.863  25.486  1.00  0.00    -0.250 N 
ATOM     13  C   UNL A   1      30.374  21.840  25.941  1.00  0.00     0.024 C 
ATOM     14  C   UNL A   1      31.725  22.559  25.712  1.00  0.00     0.071 C 
ATOM     15  C   UNL A   1      31.595  23.871  26.438  1.00  0.00     0.241 C 
ATOM     16  C   UNL A   1      31.927  23.071  24.274  1.00  0.00     0.107 C 
ATOM     17  C   UNL A   1      32.984  21.687  26.041  1.00  0.00     0.066 C 
ATOM     18  O   UNL A   1      31.633  23.975  27.655  1.00  0.00    -0.273 OA
ATOM     19  C   UNL A   1      31.049  24.284  24.221  1.00  0.00     0.238 C 
ATOM     20  C   UNL A   1      32.738  22.072  23.407  1.00  0.00     0.063 C 
ATOM     21  C   UNL A   1      34.242  22.315  25.388  1.00  0.00    -0.036 A 
ATOM     22  C   UNL A   1      32.750  20.397  25.245  1.00  0.00    -0.036 A 
ATOM     23  O   UNL A   1      30.415  24.702  23.272  1.00  0.00    -0.274 OA
ATOM     24  C   UNL A   1      34.173  22.411  23.948  1.00  0.00    -0.036 A 
ATOM     25  C   UNL A   1      32.549  20.615  23.847  1.00  0.00    -0.036 A 
ATOM     26  C   UNL A   1      35.297  22.897  26.070  1.00  0.00     0.005 A 
ATOM     27  C   UNL A   1      32.800  19.118  25.780  1.00  0.00     0.005 A 
ATOM     28  C   UNL A   1      35.152  23.072  23.221  1.00  0.00     0.004 A 
ATOM     29  C   UNL A   1      32.406  19.526  22.998  1.00  0.00     0.004 A 
ATOM     30  C   UNL A   1      36.272  23.574  25.331  1.00  0.00     0.000 A 
ATOM     31  C   UNL A   1      32.654  18.034  24.917  1.00  0.00     0.000 A 
ATOM     32  C   UNL A   1      36.204  23.656  23.927  1.00  0.00     0.000 A 
ATOM     33  C   UNL A   1      32.458  18.236  23.541  1.00  0.00     0.000 A 
ENDBRANCH   7  12
ENDBRANCH   4   6
ENDBRANCH   3   4
ENDBRANCH   2   3
ENDBRANCH   1   2
BRANCH   1  34
ATOM     34  O   UNL A   1      33.408  34.277  27.844  1.00  0.00    -0.458 OA
BRANCH  34  35
ATOM     35  C   UNL A   1      33.355  34.724  29.117  1.00  0.00     0.338 C 
ATOM     36  O   UNL A   1      32.495  35.429  29.621  1.00  0.00    -0.246 OA
BRANCH  35  37
ATOM     37  C   UNL A   1      34.524  34.225  29.855  1.00  0.00     0.060 A 
ATOM     38  C   UNL A   1      34.348  33.414  30.977  1.00  0.00     0.016 A 
ATOM     39  C   UNL A   1      35.803  34.479  29.361  1.00  0.00     0.016 A 
ATOM     40  C   UNL A   1      35.469  32.863  31.607  1.00  0.00     0.010 A 
ATOM     41  C   UNL A   1      36.906  33.842  29.928  1.00  0.00     0.010 A 
ATOM     42  C   UNL A   1      36.757  33.045  31.072  1.00  0.00    -0.014 A 
BRANCH  42  43
ATOM     43  C   UNL A   1      37.954  32.410  31.693  1.00  0.00     0.031 A 
ATOM     44  C   UNL A   1      38.468  32.885  33.029  1.00  0.00     0.074 A 
ATOM     45  C   UNL A   1      38.624  31.447  31.026  1.00  0.00     0.049 A 
ATOM     46  N   UNL A   1      39.521  32.484  33.696  1.00  0.00    -0.248 NA
ATOM     47  C   UNL A   1      37.724  33.970  33.692  1.00  0.00     0.031 C 
ATOM     48  C   UNL A   1      38.293  30.956  29.687  1.00  0.00     0.029 A 
ATOM     49  N   UNL A   1      39.731  30.715  31.380  1.00  0.00    -0.354 N 
ATOM     50  C   UNL A   1      39.591  33.293  34.824  1.00  0.00     0.074 A 
ATOM     51  C   UNL A   1      38.489  34.225  34.745  1.00  0.00     0.031 C 
ATOM     52  C   UNL A   1      39.152  29.982  29.348  1.00  0.00     0.029 A 
ATOM     53  C   UNL A   1      40.112  29.795  30.431  1.00  0.00     0.049 A 
ATOM     54  H   UNL A   1      40.207  30.837  32.233  1.00  0.00     0.167 HD
ATOM     55  C   UNL A   1      40.470  33.244  35.852  1.00  0.00     0.034 A 
ATOM     56  C   UNL A   1      41.111  28.890  30.435  1.00  0.00     0.034 A 
ATOM     57  C   UNL A   1      41.514  32.265  35.978  1.00  0.00     0.049 A 
ATOM     58  C   UNL A   1      42.003  28.780  31.638  1.00  0.00     0.074 A 
ATOM     59  C   UNL A   1      42.407  32.093  37.021  1.00  0.00     0.029 A 
ATOM     60  N   UNL A   1      41.789  31.280  35.045  1.00  0.00    -0.354 N 
ATOM     61  N   UNL A   1      41.981  29.487  32.742  1.00  0.00    -0.248 NA
ATOM     62  C   UNL A   1      43.030  27.726  31.619  1.00  0.00     0.031 C 
ATOM     63  C   UNL A   1      43.213  30.990  36.726  1.00  0.00     0.029 A 
ATOM     64  C   UNL A   1      42.821  30.479  35.499  1.00  0.00     0.049 A 
ATOM     65  H   UNL A   1      41.320  31.166  34.187  1.00  0.00     0.167 HD
ATOM     66  C   UNL A   1      42.969  28.949  33.557  1.00  0.00     0.074 A 
ATOM     67  C   UNL A   1      43.565  27.849  32.827  1.00  0.00     0.031 C 
ATOM     68  C   UNL A   1      43.356  29.345  34.793  1.00  0.00     0.034 A 
BRANCH  55  69
ATOM     69  C   UNL A   1      40.289  34.220  36.983  1.00  0.00     0.023 A 
ATOM     70  C   UNL A   1      40.681  35.560  36.793  1.00  0.00     0.012 A 
ATOM     71  C   UNL A   1      39.650  33.845  38.180  1.00  0.00     0.148 A 
ATOM     72  C   UNL A   1      40.453  36.513  37.784  1.00  0.00     0.002 A 
ATOM     73  C   UNL A   1      39.398  34.808  39.151  1.00  0.00     0.091 A 
ATOM     74  F   UNL A   1      39.297  32.563  38.340  1.00  0.00    -0.205 F 
ATOM     75  C   UNL A   1      39.803  36.139  38.957  1.00  0.00     0.022 A 
BRANCH  73  76
ATOM     76  S   UNL A   1      38.514  34.450  40.674  1.00  0.00     0.127 S 
ATOM     77  O   UNL A   1      39.531  33.734  41.444  1.00  0.00    -0.237 OA
ATOM     78  O   UNL A   1      38.205  35.790  41.171  1.00  0.00    -0.237 OA
ATOM     79  O   UNL A   1      37.354  33.656  40.292  1.00  0.00    -0.744 OA
ENDBRANCH  73  76
ENDBRANCH  55  69
BRANCH  56  80
ATOM     80  C   UNL A   1      41.235  27.938  29.297  1.00  0.00     0.023 A 
ATOM     81  C   UNL A   1      40.518  26.727  29.344  1.00  0.00     0.012 A 
ATOM     82  C   UNL A   1      41.983  28.255  28.148  1.00  0.00     0.148 A 
ATOM     83  C   UNL A   1      40.550  25.840  28.268  1.00  0.00     0.002 A 
ATOM     84  C   UNL A   1      41.980  27.384  27.063  1.00  0.00     0.091 A 
ATOM     85  F   UNL A   1      42.661  29.411  28.130  1.00  0.00    -0.205 F 
ATOM     86  C   UNL A   1      41.271  26.174  27.124  1.00  0.00     0.022 A 
BRANCH  84  87
ATOM     87  S   UNL A   1      42.793  27.767  25.507  1.00  0.00     0.127 S 
ATOM     88  O   UNL A   1      42.563  26.544  24.742  1.00  0.00    -0.237 OA
ATOM     89  O   UNL A   1      42.032  28.930  25.051  1.00  0.00    -0.237 OA
ATOM     90  O   UNL A   1      44.181  28.046  25.844  1.00  0.00    -0.744 OA
ENDBRANCH  84  87
ENDBRANCH  56  80
BRANCH  68  91
ATOM     91  C   UNL A   1      44.454  28.577  35.471  1.00  0.00     0.023 A 
ATOM     92  C   UNL A   1      45.796  28.932  35.231  1.00  0.00     0.012 A 
ATOM     93  C   UNL A   1      44.154  27.596  36.437  1.00  0.00     0.148 A 
ATOM     94  C   UNL A   1      46.825  28.313  35.939  1.00  0.00     0.002 A 
ATOM     95  C   UNL A   1      45.183  27.006  37.158  1.00  0.00     0.091 A 
ATOM     96  F   UNL A   1      42.869  27.268  36.633  1.00  0.00    -0.205 F 
ATOM     97  C   UNL A   1      46.519  27.362  36.909  1.00  0.00     0.022 A 
BRANCH  95  98
ATOM     98  S   UNL A   1      44.880  25.827  38.479  1.00  0.00     0.127 S 
ATOM     99  O   UNL A   1      46.239  25.531  38.931  1.00  0.00    -0.237 OA
ATOM    100  O   UNL A   1      44.081  26.611  39.421  1.00  0.00    -0.237 OA
ATOM    101  O   UNL A   1      44.169  24.712  37.866  1.00  0.00    -0.744 OA
ENDBRANCH  95  98
ENDBRANCH  68  91
ENDBRANCH  42  43
ENDBRANCH  35  37
ENDBRANCH  34  35
ENDBRANCH   1  34
TORSDOF 15
ENDMDL
