MODEL 1
REMARK VINA RESULT:     -12.0      0.000      0.000
REMARK SMILES Nc1c(Cl)ccc2c1C=C(C(=O)OCCOC(=O)c1ccc(-c3c4nc(c(-c5cccc(S(=O)(=O)[O-])c5F)c5ccc([nH]5)c(-c5cccc(S(=O)(=O)[O-])c5F)c5nc(c(-c6cccc(S(=O)(=O)[O-])c6F)c6ccc3[nH]6)C=C5)C=C4)cc1)[C@@H](C(F)(F)F)O2
REMARK SMILES IDX 15 1 14 2 13 3 11 4 12 5 10 6 2 7 3 8 8 9 4 10 5 11 7 12
REMARK SMILES IDX 9 13 6 14 87 15 82 16 1 17 83 20 84 21 85 22 86 23 16 24
REMARK SMILES IDX 17 25 18 26 19 27 20 28 81 29 21 30 80 31 22 32 23 33 24 34
REMARK SMILES IDX 74 35 25 36 79 37 73 38 75 39 26 40 78 41 72 42 71 43 27 45
REMARK SMILES IDX 59 46 39 47 58 48 40 49 43 50 57 51 76 52 41 53 42 54 56 56
REMARK SMILES IDX 77 57 44 58 28 59 29 60 37 61 30 62 32 63 38 64 31 65 33 66
REMARK SMILES IDX 34 67 35 68 36 69 60 70 61 71 69 72 62 73 64 74 70 75 63 76
REMARK SMILES IDX 65 77 66 78 67 79 68 80 45 81 46 82 54 83 47 84 49 85 55 86
REMARK SMILES IDX 48 87 50 88 51 89 52 90 53 91
REMARK H PARENT 1 18 1 19 75 44 43 55
REMARK Flexibility Score: inf
ROOT
ATOM      1  C   UNL A   1      36.749  20.158  24.997  1.00  0.00     0.275 C 
ENDROOT
BRANCH   1   2
ATOM      2  C   UNL A   1      35.324  20.711  24.992  1.00  0.00     0.275 C 
BRANCH   2   3
ATOM      3  O   UNL A   1      35.306  22.113  25.335  1.00  0.00    -0.459 OA
BRANCH   3   4
ATOM      4  C   UNL A   1      34.075  22.674  25.418  1.00  0.00     0.338 C 
ATOM      5  O   UNL A   1      33.102  22.210  25.983  1.00  0.00    -0.246 OA
BRANCH   4   6
ATOM      6  C   UNL A   1      34.055  23.971  24.714  1.00  0.00     0.088 C 
ATOM      7  C   UNL A   1      33.296  27.533  25.457  1.00  0.00     0.061 A 
ATOM      8  C   UNL A   1      32.981  28.683  24.703  1.00  0.00     0.064 A 
ATOM      9  C   UNL A   1      33.635  26.350  24.756  1.00  0.00     0.042 A 
ATOM     10  Cl  UNL A   1      32.471  30.142  25.483  1.00  0.00    -0.082 Cl
ATOM     11  C   UNL A   1      33.090  28.688  23.312  1.00  0.00     0.026 A 
ATOM     12  C   UNL A   1      33.756  26.368  23.359  1.00  0.00     0.130 A 
ATOM     13  C   UNL A   1      33.812  25.072  25.436  1.00  0.00     0.029 C 
ATOM     14  C   UNL A   1      33.497  27.537  22.644  1.00  0.00     0.049 A 
ATOM     15  O   UNL A   1      34.132  25.289  22.605  1.00  0.00    -0.475 OA
ATOM     16  C   UNL A   1      34.161  23.975  23.222  1.00  0.00     0.316 C 
BRANCH   7  17
ATOM     17  N   UNL A   1      33.159  27.551  26.852  1.00  0.00    -0.397 N 
ATOM     18  H   UNL A   1      33.928  27.330  27.425  1.00  0.00     0.156 HD
ATOM     19  H   UNL A   1      32.293  27.784  27.259  1.00  0.00     0.156 HD
ENDBRANCH   7  17
BRANCH  16  20
ATOM     20  C   UNL A   1      33.067  23.103  22.583  1.00  0.00     0.430 C 
ATOM     21  F   UNL A   1      31.834  23.461  23.020  1.00  0.00    -0.167 F 
ATOM     22  F   UNL A   1      33.044  23.236  21.235  1.00  0.00    -0.167 F 
ATOM     23  F   UNL A   1      33.226  21.789  22.858  1.00  0.00    -0.167 F 
ENDBRANCH  16  20
ENDBRANCH   4   6
ENDBRANCH   3   4
ENDBRANCH   2   3
ENDBRANCH   1   2
BRANCH   1  24
ATOM     24  O   UNL A   1      37.707  21.229  25.046  1.00  0.00    -0.458 OA
BRANCH  24  25
ATOM     25  C   UNL A   1      38.828  20.956  25.751  1.00  0.00     0.338 C 
ATOM     26  O   UNL A   1      39.440  19.900  25.788  1.00  0.00    -0.246 OA
BRANCH  25  27
ATOM     27  C   UNL A   1      39.292  22.158  26.457  1.00  0.00     0.060 A 
ATOM     28  C   UNL A   1      38.739  23.393  26.130  1.00  0.00     0.016 A 
ATOM     29  C   UNL A   1      40.409  22.085  27.287  1.00  0.00     0.016 A 
ATOM     30  C   UNL A   1      39.397  24.561  26.493  1.00  0.00     0.010 A 
ATOM     31  C   UNL A   1      40.986  23.264  27.763  1.00  0.00     0.010 A 
ATOM     32  C   UNL A   1      40.528  24.516  27.321  1.00  0.00    -0.014 A 
BRANCH  32  33
ATOM     33  C   UNL A   1      41.239  25.769  27.699  1.00  0.00     0.031 A 
ATOM     34  C   UNL A   1      40.545  26.823  28.528  1.00  0.00     0.074 A 
ATOM     35  C   UNL A   1      42.511  25.967  27.297  1.00  0.00     0.049 A 
ATOM     36  N   UNL A   1      40.951  28.028  28.831  1.00  0.00    -0.248 NA
ATOM     37  C   UNL A   1      39.222  26.484  29.084  1.00  0.00     0.031 C 
ATOM     38  C   UNL A   1      43.308  25.023  26.508  1.00  0.00     0.029 A 
ATOM     39  N   UNL A   1      43.359  27.031  27.489  1.00  0.00    -0.354 N 
ATOM     40  C   UNL A   1      39.913  28.614  29.547  1.00  0.00     0.074 A 
ATOM     41  C   UNL A   1      38.860  27.629  29.647  1.00  0.00     0.031 C 
ATOM     42  C   UNL A   1      44.531  25.532  26.311  1.00  0.00     0.029 A 
ATOM     43  C   UNL A   1      44.582  26.873  26.879  1.00  0.00     0.049 A 
ATOM     44  H   UNL A   1      43.115  27.828  28.012  1.00  0.00     0.167 HD
ATOM     45  C   UNL A   1      39.850  29.855  30.083  1.00  0.00     0.034 A 
ATOM     46  C   UNL A   1      45.619  27.722  26.747  1.00  0.00     0.034 A 
ATOM     47  C   UNL A   1      40.926  30.807  30.043  1.00  0.00     0.049 A 
ATOM     48  C   UNL A   1      45.519  29.097  27.335  1.00  0.00     0.074 A 
ATOM     49  C   UNL A   1      40.969  32.073  30.599  1.00  0.00     0.029 A 
ATOM     50  N   UNL A   1      42.147  30.597  29.423  1.00  0.00    -0.354 N 
ATOM     51  N   UNL A   1      44.539  29.619  28.032  1.00  0.00    -0.248 NA
ATOM     52  C   UNL A   1      46.660  29.999  27.127  1.00  0.00     0.031 C 
ATOM     53  C   UNL A   1      42.211  32.638  30.301  1.00  0.00     0.029 A 
ATOM     54  C   UNL A   1      42.948  31.715  29.577  1.00  0.00     0.049 A 
ATOM     55  H   UNL A   1      42.406  29.777  28.945  1.00  0.00     0.167 HD
ATOM     56  C   UNL A   1      44.949  30.905  28.359  1.00  0.00     0.074 A 
ATOM     57  C   UNL A   1      46.273  31.078  27.797  1.00  0.00     0.031 C 
ATOM     58  C   UNL A   1      44.280  31.857  29.050  1.00  0.00     0.034 A 
BRANCH  45  59
ATOM     59  C   UNL A   1      38.590  30.265  30.796  1.00  0.00     0.023 A 
ATOM     60  C   UNL A   1      38.447  29.993  32.170  1.00  0.00     0.012 A 
ATOM     61  C   UNL A   1      37.606  31.024  30.131  1.00  0.00     0.148 A 
ATOM     62  C   UNL A   1      37.339  30.464  32.873  1.00  0.00     0.002 A 
ATOM     63  C   UNL A   1      36.518  31.516  30.845  1.00  0.00     0.091 A 
ATOM     64  F   UNL A   1      37.760  31.262  28.821  1.00  0.00    -0.205 F 
ATOM     65  C   UNL A   1      36.382  31.234  32.214  1.00  0.00     0.022 A 
BRANCH  63  66
ATOM     66  S   UNL A   1      35.258  32.561  30.104  1.00  0.00     0.127 S 
ATOM     67  O   UNL A   1      36.045  33.724  29.695  1.00  0.00    -0.237 OA
ATOM     68  O   UNL A   1      34.781  31.728  29.001  1.00  0.00    -0.237 OA
ATOM     69  O   UNL A   1      34.278  32.817  31.150  1.00  0.00    -0.744 OA
ENDBRANCH  63  66
ENDBRANCH  45  59
BRANCH  46  70
ATOM     70  C   UNL A   1      46.841  27.268  26.031  1.00  0.00     0.023 A 
ATOM     71  C   UNL A   1      47.003  27.596  24.672  1.00  0.00     0.012 A 
ATOM     72  C   UNL A   1      47.880  26.601  26.711  1.00  0.00     0.148 A 
ATOM     73  C   UNL A   1      48.180  27.266  24.001  1.00  0.00     0.002 A 
ATOM     74  C   UNL A   1      49.066  26.314  26.048  1.00  0.00     0.091 A 
ATOM     75  F   UNL A   1      47.699  26.303  28.005  1.00  0.00    -0.205 F 
ATOM     76  C   UNL A   1      49.216  26.638  24.689  1.00  0.00     0.022 A 
BRANCH  74  77
ATOM     77  S   UNL A   1      50.493  25.604  26.875  1.00  0.00     0.127 S 
ATOM     78  O   UNL A   1      51.418  25.411  25.761  1.00  0.00    -0.237 OA
ATOM     79  O   UNL A   1      50.862  26.671  27.804  1.00  0.00    -0.237 OA
ATOM     80  O   UNL A   1      50.018  24.383  27.511  1.00  0.00    -0.744 OA
ENDBRANCH  74  77
ENDBRANCH  46  70
BRANCH  58  81
ATOM     81  C   UNL A   1      44.955  33.181  29.266  1.00  0.00     0.023 A 
ATOM     82  C   UNL A   1      45.791  33.354  30.385  1.00  0.00     0.012 A 
ATOM     83  C   UNL A   1      44.876  34.191  28.288  1.00  0.00     0.148 A 
ATOM     84  C   UNL A   1      46.540  34.521  30.530  1.00  0.00     0.002 A 
ATOM     85  C   UNL A   1      45.650  35.335  28.421  1.00  0.00     0.091 A 
ATOM     86  F   UNL A   1      44.068  33.997  27.236  1.00  0.00    -0.205 F 
ATOM     87  C   UNL A   1      46.481  35.504  29.542  1.00  0.00     0.022 A 
BRANCH  85  88
ATOM     88  S   UNL A   1      45.698  36.624  27.172  1.00  0.00     0.127 S 
ATOM     89  O   UNL A   1      44.291  37.017  27.094  1.00  0.00    -0.237 OA
ATOM     90  O   UNL A   1      46.577  37.618  27.789  1.00  0.00    -0.237 OA
ATOM     91  O   UNL A   1      46.230  36.002  25.966  1.00  0.00    -0.744 OA
ENDBRANCH  85  88
ENDBRANCH  58  81
ENDBRANCH  32  33
ENDBRANCH  25  27
ENDBRANCH  24  25
ENDBRANCH   1  24
TORSDOF 16
ENDMDL
MODEL 2
REMARK VINA RESULT:     -12.0      1.524      1.836
REMARK SMILES Nc1c(Cl)ccc2c1C=C(C(=O)OCCOC(=O)c1ccc(-c3c4nc(c(-c5cccc(S(=O)(=O)[O-])c5F)c5ccc([nH]5)c(-c5cccc(S(=O)(=O)[O-])c5F)c5nc(c(-c6cccc(S(=O)(=O)[O-])c6F)c6ccc3[nH]6)C=C5)C=C4)cc1)[C@@H](C(F)(F)F)O2
REMARK SMILES IDX 15 1 14 2 13 3 11 4 12 5 10 6 2 7 3 8 8 9 4 10 5 11 7 12
REMARK SMILES IDX 9 13 6 14 87 15 82 16 1 17 83 20 84 21 85 22 86 23 16 24
REMARK SMILES IDX 17 25 18 26 19 27 20 28 81 29 21 30 80 31 22 32 23 33 24 34
REMARK SMILES IDX 74 35 25 36 79 37 73 38 75 39 26 40 78 41 72 42 71 43 27 45
REMARK SMILES IDX 59 46 39 47 58 48 40 49 43 50 57 51 76 52 41 53 42 54 56 56
REMARK SMILES IDX 77 57 44 58 28 59 29 60 37 61 30 62 32 63 38 64 31 65 33 66
REMARK SMILES IDX 34 67 35 68 36 69 60 70 61 71 69 72 62 73 64 74 70 75 63 76
REMARK SMILES IDX 65 77 66 78 67 79 68 80 45 81 46 82 54 83 47 84 49 85 55 86
REMARK SMILES IDX 48 87 50 88 51 89 52 90 53 91
REMARK H PARENT 1 18 1 19 75 44 43 55
REMARK Flexibility Score: inf
ROOT
ATOM      1  C   UNL A   1      36.527  20.698  25.021  1.00  0.00     0.275 C 
ENDROOT
BRANCH   1   2
ATOM      2  C   UNL A   1      35.214  21.480  25.076  1.00  0.00     0.275 C 
BRANCH   2   3
ATOM      3  O   UNL A   1      35.443  22.896  24.914  1.00  0.00    -0.459 OA
BRANCH   3   4
ATOM      4  C   UNL A   1      35.225  23.378  23.666  1.00  0.00     0.338 C 
ATOM      5  O   UNL A   1      35.809  23.054  22.649  1.00  0.00    -0.246 OA
BRANCH   4   6
ATOM      6  C   UNL A   1      34.145  24.385  23.688  1.00  0.00     0.088 C 
ATOM      7  C   UNL A   1      33.166  27.380  25.659  1.00  0.00     0.061 A 
ATOM      8  C   UNL A   1      31.984  28.123  25.858  1.00  0.00     0.064 A 
ATOM      9  C   UNL A   1      33.141  26.332  24.707  1.00  0.00     0.042 A 
ATOM     10  Cl  UNL A   1      31.907  29.361  27.065  1.00  0.00    -0.082 Cl
ATOM     11  C   UNL A   1      30.849  27.900  25.076  1.00  0.00     0.026 A 
ATOM     12  C   UNL A   1      32.001  26.124  23.916  1.00  0.00     0.130 A 
ATOM     13  C   UNL A   1      34.255  25.403  24.549  1.00  0.00     0.029 C 
ATOM     14  C   UNL A   1      30.867  26.915  24.093  1.00  0.00     0.049 A 
ATOM     15  O   UNL A   1      31.908  25.174  22.935  1.00  0.00    -0.475 OA
ATOM     16  C   UNL A   1      32.924  24.139  22.859  1.00  0.00     0.316 C 
BRANCH   7  17
ATOM     17  N   UNL A   1      34.285  27.613  26.471  1.00  0.00    -0.397 N 
ATOM     18  H   UNL A   1      34.891  28.362  26.272  1.00  0.00     0.156 HD
ATOM     19  H   UNL A   1      34.464  27.026  27.241  1.00  0.00     0.156 HD
ENDBRANCH   7  17
BRANCH  16  20
ATOM     20  C   UNL A   1      32.279  22.785  23.201  1.00  0.00     0.430 C 
ATOM     21  F   UNL A   1      30.985  22.742  22.798  1.00  0.00    -0.167 F 
ATOM     22  F   UNL A   1      32.905  21.759  22.577  1.00  0.00    -0.167 F 
ATOM     23  F   UNL A   1      32.297  22.525  24.527  1.00  0.00    -0.167 F 
ENDBRANCH  16  20
ENDBRANCH   4   6
ENDBRANCH   3   4
ENDBRANCH   2   3
ENDBRANCH   1   2
BRANCH   1  24
ATOM     24  O   UNL A   1      37.648  21.595  24.954  1.00  0.00    -0.458 OA
BRANCH  24  25
ATOM     25  C   UNL A   1      38.696  21.254  25.737  1.00  0.00     0.338 C 
ATOM     26  O   UNL A   1      39.224  20.157  25.829  1.00  0.00    -0.246 OA
BRANCH  25  27
ATOM     27  C   UNL A   1      39.200  22.431  26.457  1.00  0.00     0.060 A 
ATOM     28  C   UNL A   1      38.652  23.681  26.180  1.00  0.00     0.016 A 
ATOM     29  C   UNL A   1      40.343  22.323  27.245  1.00  0.00     0.016 A 
ATOM     30  C   UNL A   1      39.337  24.832  26.550  1.00  0.00     0.010 A 
ATOM     31  C   UNL A   1      40.952  23.483  27.731  1.00  0.00     0.010 A 
ATOM     32  C   UNL A   1      40.495  24.752  27.336  1.00  0.00    -0.014 A 
BRANCH  32  33
ATOM     33  C   UNL A   1      41.235  25.986  27.722  1.00  0.00     0.031 A 
ATOM     34  C   UNL A   1      40.570  27.045  28.566  1.00  0.00     0.074 A 
ATOM     35  C   UNL A   1      42.508  26.161  27.311  1.00  0.00     0.049 A 
ATOM     36  N   UNL A   1      41.003  28.239  28.878  1.00  0.00    -0.248 NA
ATOM     37  C   UNL A   1      39.244  26.728  29.129  1.00  0.00     0.031 C 
ATOM     38  C   UNL A   1      43.278  25.209  26.507  1.00  0.00     0.029 A 
ATOM     39  N   UNL A   1      43.379  27.205  27.507  1.00  0.00    -0.354 N 
ATOM     40  C   UNL A   1      39.983  28.838  29.609  1.00  0.00     0.074 A 
ATOM     41  C   UNL A   1      38.910  27.875  29.708  1.00  0.00     0.031 C 
ATOM     42  C   UNL A   1      44.510  25.695  26.305  1.00  0.00     0.029 A 
ATOM     43  C   UNL A   1      44.593  27.029  26.886  1.00  0.00     0.049 A 
ATOM     44  H   UNL A   1      43.155  28.002  28.040  1.00  0.00     0.167 HD
ATOM     45  C   UNL A   1      39.949  30.075  30.158  1.00  0.00     0.034 A 
ATOM     46  C   UNL A   1      45.647  27.857  26.755  1.00  0.00     0.034 A 
ATOM     47  C   UNL A   1      41.044  31.004  30.119  1.00  0.00     0.049 A 
ATOM     48  C   UNL A   1      45.580  29.228  27.357  1.00  0.00     0.074 A 
ATOM     49  C   UNL A   1      41.118  32.264  30.687  1.00  0.00     0.029 A 
ATOM     50  N   UNL A   1      42.257  30.776  29.487  1.00  0.00    -0.354 N 
ATOM     51  N   UNL A   1      44.617  29.763  28.067  1.00  0.00    -0.248 NA
ATOM     52  C   UNL A   1      46.738  30.108  27.149  1.00  0.00     0.031 C 
ATOM     53  C   UNL A   1      42.369  32.806  30.385  1.00  0.00     0.029 A 
ATOM     54  C   UNL A   1      43.082  31.875  29.645  1.00  0.00     0.049 A 
ATOM     55  H   UNL A   1      42.494  29.956  28.999  1.00  0.00     0.167 HD
ATOM     56  C   UNL A   1      45.056  31.036  28.403  1.00  0.00     0.074 A 
ATOM     57  C   UNL A   1      46.379  31.188  27.832  1.00  0.00     0.031 C 
ATOM     58  C   UNL A   1      44.412  31.995  29.109  1.00  0.00     0.034 A 
BRANCH  45  59
ATOM     59  C   UNL A   1      38.704  30.504  30.885  1.00  0.00     0.023 A 
ATOM     60  C   UNL A   1      38.629  30.359  32.283  1.00  0.00     0.012 A 
ATOM     61  C   UNL A   1      37.662  31.158  30.197  1.00  0.00     0.148 A 
ATOM     62  C   UNL A   1      37.532  30.853  32.988  1.00  0.00     0.002 A 
ATOM     63  C   UNL A   1      36.586  31.675  30.909  1.00  0.00     0.091 A 
ATOM     64  F   UNL A   1      37.753  31.275  28.864  1.00  0.00    -0.205 F 
ATOM     65  C   UNL A   1      36.518  31.520  32.303  1.00  0.00     0.022 A 
BRANCH  63  66
ATOM     66  S   UNL A   1      35.254  32.595  30.131  1.00  0.00     0.127 S 
ATOM     67  O   UNL A   1      34.316  32.753  31.243  1.00  0.00    -0.237 OA
ATOM     68  O   UNL A   1      35.929  33.827  29.724  1.00  0.00    -0.237 OA
ATOM     69  O   UNL A   1      34.774  31.767  29.034  1.00  0.00    -0.744 OA
ENDBRANCH  63  66
ENDBRANCH  45  59
BRANCH  46  70
ATOM     70  C   UNL A   1      46.853  27.385  26.024  1.00  0.00     0.023 A 
ATOM     71  C   UNL A   1      47.718  26.466  26.646  1.00  0.00     0.012 A 
ATOM     72  C   UNL A   1      47.093  27.767  24.688  1.00  0.00     0.148 A 
ATOM     73  C   UNL A   1      48.804  25.934  25.950  1.00  0.00     0.002 A 
ATOM     74  C   UNL A   1      48.151  27.201  23.988  1.00  0.00     0.091 A 
ATOM     75  F   UNL A   1      46.253  28.642  24.121  1.00  0.00    -0.205 F 
ATOM     76  C   UNL A   1      49.013  26.290  24.620  1.00  0.00     0.022 A 
BRANCH  74  77
ATOM     77  S   UNL A   1      48.438  27.516  22.244  1.00  0.00     0.127 S 
ATOM     78  O   UNL A   1      49.588  28.417  22.290  1.00  0.00    -0.237 OA
ATOM     79  O   UNL A   1      48.728  26.174  21.741  1.00  0.00    -0.237 OA
ATOM     80  O   UNL A   1      47.206  28.102  21.736  1.00  0.00    -0.744 OA
ENDBRANCH  74  77
ENDBRANCH  46  70
BRANCH  58  81
ATOM     81  C   UNL A   1      45.116  33.303  29.333  1.00  0.00     0.023 A 
ATOM     82  C   UNL A   1      45.940  33.458  30.464  1.00  0.00     0.012 A 
ATOM     83  C   UNL A   1      45.075  34.313  28.353  1.00  0.00     0.148 A 
ATOM     84  C   UNL A   1      46.715  34.606  30.618  1.00  0.00     0.002 A 
ATOM     85  C   UNL A   1      45.875  35.438  28.496  1.00  0.00     0.091 A 
ATOM     86  F   UNL A   1      44.278  34.137  27.290  1.00  0.00    -0.205 F 
ATOM     87  C   UNL A   1      46.694  35.588  29.628  1.00  0.00     0.022 A 
BRANCH  85  88
ATOM     88  S   UNL A   1      45.973  36.724  27.245  1.00  0.00     0.127 S 
ATOM     89  O   UNL A   1      44.603  37.236  27.237  1.00  0.00    -0.237 OA
ATOM     90  O   UNL A   1      46.963  37.635  27.818  1.00  0.00    -0.237 OA
ATOM     91  O   UNL A   1      46.389  36.063  26.015  1.00  0.00    -0.744 OA
ENDBRANCH  85  88
ENDBRANCH  58  81
ENDBRANCH  32  33
ENDBRANCH  25  27
ENDBRANCH  24  25
ENDBRANCH   1  24
TORSDOF 16
ENDMDL
MODEL 3
REMARK VINA RESULT:     -11.9      6.015     11.724
REMARK SMILES Nc1c(Cl)ccc2c1C=C(C(=O)OCCOC(=O)c1ccc(-c3c4nc(c(-c5cccc(S(=O)(=O)[O-])c5F)c5ccc([nH]5)c(-c5cccc(S(=O)(=O)[O-])c5F)c5nc(c(-c6cccc(S(=O)(=O)[O-])c6F)c6ccc3[nH]6)C=C5)C=C4)cc1)[C@@H](C(F)(F)F)O2
REMARK SMILES IDX 15 1 14 2 13 3 11 4 12 5 10 6 2 7 3 8 8 9 4 10 5 11 7 12
REMARK SMILES IDX 9 13 6 14 87 15 82 16 1 17 83 20 84 21 85 22 86 23 16 24
REMARK SMILES IDX 17 25 18 26 19 27 20 28 81 29 21 30 80 31 22 32 23 33 24 34
REMARK SMILES IDX 74 35 25 36 79 37 73 38 75 39 26 40 78 41 72 42 71 43 27 45
REMARK SMILES IDX 59 46 39 47 58 48 40 49 43 50 57 51 76 52 41 53 42 54 56 56
REMARK SMILES IDX 77 57 44 58 28 59 29 60 37 61 30 62 32 63 38 64 31 65 33 66
REMARK SMILES IDX 34 67 35 68 36 69 60 70 61 71 69 72 62 73 64 74 70 75 63 76
REMARK SMILES IDX 65 77 66 78 67 79 68 80 45 81 46 82 54 83 47 84 49 85 55 86
REMARK SMILES IDX 48 87 50 88 51 89 52 90 53 91
REMARK H PARENT 1 18 1 19 75 44 43 55
REMARK Flexibility Score: inf
ROOT
ATOM      1  C   UNL A   1      33.367  33.782  28.256  1.00  0.00     0.275 C 
ENDROOT
BRANCH   1   2
ATOM      2  C   UNL A   1      34.151  34.949  28.857  1.00  0.00     0.275 C 
BRANCH   2   3
ATOM      3  O   UNL A   1      34.109  34.919  30.300  1.00  0.00    -0.459 OA
BRANCH   3   4
ATOM      4  C   UNL A   1      34.707  33.846  30.874  1.00  0.00     0.338 C 
ATOM      5  O   UNL A   1      34.337  32.689  30.811  1.00  0.00    -0.246 OA
BRANCH   4   6
ATOM      6  C   UNL A   1      35.914  34.268  31.613  1.00  0.00     0.088 C 
ATOM      7  C   UNL A   1      39.596  34.360  31.115  1.00  0.00     0.061 A 
ATOM      8  C   UNL A   1      40.730  34.468  31.945  1.00  0.00     0.064 A 
ATOM      9  C   UNL A   1      38.318  34.478  31.714  1.00  0.00     0.042 A 
ATOM     10  Cl  UNL A   1      42.323  34.248  31.305  1.00  0.00    -0.082 Cl
ATOM     11  C   UNL A   1      40.608  34.778  33.301  1.00  0.00     0.026 A 
ATOM     12  C   UNL A   1      38.205  34.803  33.074  1.00  0.00     0.130 A 
ATOM     13  C   UNL A   1      37.089  34.216  30.975  1.00  0.00     0.029 C 
ATOM     14  C   UNL A   1      39.346  34.965  33.858  1.00  0.00     0.049 A 
ATOM     15  O   UNL A   1      37.014  34.993  33.723  1.00  0.00    -0.475 OA
ATOM     16  C   UNL A   1      35.783  34.588  33.068  1.00  0.00     0.316 C 
BRANCH   7  17
ATOM     17  N   UNL A   1      39.748  34.029  29.761  1.00  0.00    -0.397 N 
ATOM     18  H   UNL A   1      39.059  33.495  29.304  1.00  0.00     0.156 HD
ATOM     19  H   UNL A   1      40.544  34.332  29.267  1.00  0.00     0.156 HD
ENDBRANCH   7  17
BRANCH  16  20
ATOM     20  C   UNL A   1      35.171  33.411  33.847  1.00  0.00     0.430 C 
ATOM     21  F   UNL A   1      35.416  33.521  35.176  1.00  0.00    -0.167 F 
ATOM     22  F   UNL A   1      33.824  33.366  33.712  1.00  0.00    -0.167 F 
ATOM     23  F   UNL A   1      35.659  32.216  33.445  1.00  0.00    -0.167 F 
ENDBRANCH  16  20
ENDBRANCH   4   6
ENDBRANCH   3   4
ENDBRANCH   2   3
ENDBRANCH   1   2
BRANCH   1  24
ATOM     24  O   UNL A   1      34.225  32.957  27.449  1.00  0.00    -0.458 OA
BRANCH  24  25
ATOM     25  C   UNL A   1      34.118  31.631  27.679  1.00  0.00     0.338 C 
ATOM     26  O   UNL A   1      33.111  30.944  27.597  1.00  0.00    -0.246 OA
BRANCH  25  27
ATOM     27  C   UNL A   1      35.434  31.058  27.992  1.00  0.00     0.060 A 
ATOM     28  C   UNL A   1      35.514  29.736  28.420  1.00  0.00     0.016 A 
ATOM     29  C   UNL A   1      36.552  31.887  28.058  1.00  0.00     0.016 A 
ATOM     30  C   UNL A   1      36.659  29.288  29.067  1.00  0.00     0.010 A 
ATOM     31  C   UNL A   1      37.745  31.388  28.586  1.00  0.00     0.010 A 
ATOM     32  C   UNL A   1      37.795  30.105  29.155  1.00  0.00    -0.014 A 
BRANCH  32  33
ATOM     33  C   UNL A   1      39.018  29.627  29.860  1.00  0.00     0.031 A 
ATOM     34  C   UNL A   1      39.930  28.615  29.210  1.00  0.00     0.074 A 
ATOM     35  C   UNL A   1      39.311  30.098  31.089  1.00  0.00     0.049 A 
ATOM     36  N   UNL A   1      40.952  27.982  29.724  1.00  0.00    -0.248 NA
ATOM     37  C   UNL A   1      39.659  28.264  27.804  1.00  0.00     0.031 C 
ATOM     38  C   UNL A   1      38.527  31.093  31.826  1.00  0.00     0.029 A 
ATOM     39  N   UNL A   1      40.346  29.800  31.942  1.00  0.00    -0.354 N 
ATOM     40  C   UNL A   1      41.399  27.111  28.736  1.00  0.00     0.074 A 
ATOM     41  C   UNL A   1      40.548  27.303  27.585  1.00  0.00     0.031 C 
ATOM     42  C   UNL A   1      39.120  31.344  33.000  1.00  0.00     0.029 A 
ATOM     43  C   UNL A   1      40.276  30.468  33.142  1.00  0.00     0.049 A 
ATOM     44  H   UNL A   1      41.067  29.169  31.716  1.00  0.00     0.167 HD
ATOM     45  C   UNL A   1      42.434  26.240  28.782  1.00  0.00     0.034 A 
ATOM     46  C   UNL A   1      41.026  30.365  34.256  1.00  0.00     0.034 A 
ATOM     47  C   UNL A   1      43.323  26.101  29.902  1.00  0.00     0.049 A 
ATOM     48  C   UNL A   1      42.157  29.381  34.288  1.00  0.00     0.074 A 
ATOM     49  C   UNL A   1      44.427  25.276  30.021  1.00  0.00     0.029 A 
ATOM     50  N   UNL A   1      43.218  26.807  31.090  1.00  0.00    -0.354 N 
ATOM     51  N   UNL A   1      42.579  28.588  33.333  1.00  0.00    -0.248 NA
ATOM     52  C   UNL A   1      42.917  29.276  35.541  1.00  0.00     0.031 C 
ATOM     53  C   UNL A   1      44.982  25.470  31.289  1.00  0.00     0.029 A 
ATOM     54  C   UNL A   1      44.233  26.430  31.951  1.00  0.00     0.049 A 
ATOM     55  H   UNL A   1      42.524  27.475  31.291  1.00  0.00     0.167 HD
ATOM     56  C   UNL A   1      43.662  27.900  33.862  1.00  0.00     0.074 A 
ATOM     57  C   UNL A   1      43.842  28.380  35.218  1.00  0.00     0.031 C 
ATOM     58  C   UNL A   1      44.427  26.948  33.280  1.00  0.00     0.034 A 
BRANCH  45  59
ATOM     59  C   UNL A   1      42.700  25.379  27.577  1.00  0.00     0.023 A 
ATOM     60  C   UNL A   1      43.564  25.843  26.567  1.00  0.00     0.012 A 
ATOM     61  C   UNL A   1      42.190  24.067  27.508  1.00  0.00     0.148 A 
ATOM     62  C   UNL A   1      43.913  25.015  25.500  1.00  0.00     0.002 A 
ATOM     63  C   UNL A   1      42.566  23.237  26.457  1.00  0.00     0.091 A 
ATOM     64  F   UNL A   1      41.362  23.652  28.478  1.00  0.00    -0.205 F 
ATOM     65  C   UNL A   1      43.424  23.711  25.451  1.00  0.00     0.022 A 
BRANCH  63  66
ATOM     66  S   UNL A   1      42.034  21.526  26.328  1.00  0.00     0.127 S 
ATOM     67  O   UNL A   1      40.627  21.683  25.959  1.00  0.00    -0.237 OA
ATOM     68  O   UNL A   1      42.892  21.020  25.257  1.00  0.00    -0.237 OA
ATOM     69  O   UNL A   1      42.266  20.929  27.635  1.00  0.00    -0.744 OA
ENDBRANCH  63  66
ENDBRANCH  45  59
BRANCH  46  70
ATOM     70  C   UNL A   1      40.720  31.238  35.420  1.00  0.00     0.023 A 
ATOM     71  C   UNL A   1      41.547  32.345  35.686  1.00  0.00     0.012 A 
ATOM     72  C   UNL A   1      39.565  31.033  36.202  1.00  0.00     0.148 A 
ATOM     73  C   UNL A   1      41.229  33.235  36.713  1.00  0.00     0.002 A 
ATOM     74  C   UNL A   1      39.231  31.946  37.194  1.00  0.00     0.091 A 
ATOM     75  F   UNL A   1      38.795  29.972  35.925  1.00  0.00    -0.205 F 
ATOM     76  C   UNL A   1      40.067  33.043  37.458  1.00  0.00     0.022 A 
BRANCH  74  77
ATOM     77  S   UNL A   1      37.704  31.843  38.134  1.00  0.00     0.127 S 
ATOM     78  O   UNL A   1      36.929  32.942  37.562  1.00  0.00    -0.237 OA
ATOM     79  O   UNL A   1      37.228  30.506  37.783  1.00  0.00    -0.237 OA
ATOM     80  O   UNL A   1      38.084  32.006  39.530  1.00  0.00    -0.744 OA
ENDBRANCH  74  77
ENDBRANCH  46  70
BRANCH  58  81
ATOM     81  C   UNL A   1      45.550  26.354  34.080  1.00  0.00     0.023 A 
ATOM     82  C   UNL A   1      46.811  26.978  34.069  1.00  0.00     0.012 A 
ATOM     83  C   UNL A   1      45.312  25.271  34.949  1.00  0.00     0.148 A 
ATOM     84  C   UNL A   1      47.825  26.531  34.914  1.00  0.00     0.002 A 
ATOM     85  C   UNL A   1      46.316  24.853  35.812  1.00  0.00     0.091 A 
ATOM     86  F   UNL A   1      44.102  24.695  34.933  1.00  0.00    -0.205 F 
ATOM     87  C   UNL A   1      47.574  25.479  35.794  1.00  0.00     0.022 A 
BRANCH  85  88
ATOM     88  S   UNL A   1      46.070  23.556  37.030  1.00  0.00     0.127 S 
ATOM     89  O   UNL A   1      45.042  24.145  37.888  1.00  0.00    -0.237 OA
ATOM     90  O   UNL A   1      45.611  22.441  36.203  1.00  0.00    -0.237 OA
ATOM     91  O   UNL A   1      47.363  23.351  37.671  1.00  0.00    -0.744 OA
ENDBRANCH  85  88
ENDBRANCH  58  81
ENDBRANCH  32  33
ENDBRANCH  25  27
ENDBRANCH  24  25
ENDBRANCH   1  24
TORSDOF 16
ENDMDL
