MODEL 1
REMARK VINA RESULT:     -11.2      0.000      0.000
REMARK SMILES O=C(OCCOC(=O)c1ccccc1-c1ccc(/C=C2/SC(=S)N(Cc3ccccc3)C2=O)o1)c1ccc(-c2c3nc(c(-c4cccc(S(=O)(=O)[O-])c4F)c4ccc([nH]4)c(-c4cccc(S(=O)(=O)[O-])c4F)c4nc(c(-c5cccc(S(=O)(=O)[O-])c5F)c5ccc2[nH]5)C=C4)C=C3)cc1
REMARK SMILES IDX 5 1 4 2 3 3 2 4 1 5 35 6 36 7 97 8 37 9 96 10 38 11 39 12
REMARK SMILES IDX 40 13 90 14 41 15 95 16 89 17 91 18 42 19 94 20 88 21 87 22
REMARK SMILES IDX 43 24 75 25 55 26 74 27 56 28 59 29 73 30 92 31 57 32 58 33
REMARK SMILES IDX 72 35 93 36 60 37 44 38 45 39 53 40 46 41 48 42 54 43 47 44
REMARK SMILES IDX 49 45 50 46 51 47 52 48 76 49 77 50 85 51 78 52 80 53 86 54
REMARK SMILES IDX 79 55 81 56 82 57 83 58 84 59 61 60 62 61 70 62 63 63 65 64
REMARK SMILES IDX 71 65 64 66 66 67 67 68 68 69 69 70 6 71 7 72 8 73 9 74
REMARK SMILES IDX 10 75 14 76 11 77 13 78 12 79 15 80 16 81 34 82 17 83 18 84
REMARK SMILES IDX 19 85 20 86 21 87 32 88 22 89 24 90 33 91 23 92 25 93 26 94
REMARK SMILES IDX 27 95 31 96 28 97 30 98 29 99
REMARK H PARENT 91 23 59 34
REMARK Flexibility Score: inf
ROOT
ATOM      1  C   UNL A   1      32.983  34.617  29.078  1.00  0.00     0.275 C 
ENDROOT
BRANCH   1   2
ATOM      2  C   UNL A   1      33.113  36.059  29.565  1.00  0.00     0.275 C 
BRANCH   2   3
ATOM      3  O   UNL A   1      32.561  36.274  30.876  1.00  0.00    -0.458 OA
BRANCH   3   4
ATOM      4  C   UNL A   1      32.687  35.563  32.021  1.00  0.00     0.338 C 
ATOM      5  O   UNL A   1      31.688  35.458  32.733  1.00  0.00    -0.246 OA
BRANCH   4   6
ATOM      6  C   UNL A   1      33.965  34.954  32.531  1.00  0.00     0.060 A 
ATOM      7  C   UNL A   1      35.255  35.485  32.419  1.00  0.00     0.016 A 
ATOM      8  C   UNL A   1      33.834  33.723  33.208  1.00  0.00     0.016 A 
ATOM      9  C   UNL A   1      36.364  34.839  32.977  1.00  0.00     0.010 A 
ATOM     10  C   UNL A   1      34.936  33.075  33.775  1.00  0.00     0.010 A 
ATOM     11  C   UNL A   1      36.215  33.626  33.644  1.00  0.00    -0.014 A 
BRANCH  11  12
ATOM     12  C   UNL A   1      37.411  32.843  34.028  1.00  0.00     0.031 A 
ATOM     13  C   UNL A   1      38.167  33.287  35.232  1.00  0.00     0.074 A 
ATOM     14  C   UNL A   1      37.804  31.757  33.341  1.00  0.00     0.049 A 
ATOM     15  N   UNL A   1      39.247  32.779  35.750  1.00  0.00    -0.248 NA
ATOM     16  C   UNL A   1      37.623  34.446  35.960  1.00  0.00     0.031 C 
ATOM     17  C   UNL A   1      37.078  31.220  32.211  1.00  0.00     0.029 A 
ATOM     18  N   UNL A   1      38.884  30.924  33.451  1.00  0.00    -0.354 N 
ATOM     19  C   UNL A   1      39.531  33.568  36.851  1.00  0.00     0.074 A 
ATOM     20  C   UNL A   1      38.522  34.601  36.917  1.00  0.00     0.031 C 
ATOM     21  C   UNL A   1      37.733  30.180  31.680  1.00  0.00     0.029 A 
ATOM     22  C   UNL A   1      38.963  29.995  32.433  1.00  0.00     0.049 A 
ATOM     23  H   UNL A   1      39.540  30.981  34.184  1.00  0.00     0.167 HD
ATOM     24  C   UNL A   1      40.544  33.427  37.731  1.00  0.00     0.034 A 
ATOM     25  C   UNL A   1      39.933  29.113  32.128  1.00  0.00     0.034 A 
ATOM     26  C   UNL A   1      41.548  32.410  37.614  1.00  0.00     0.049 A 
ATOM     27  C   UNL A   1      41.096  29.026  33.072  1.00  0.00     0.074 A 
ATOM     28  C   UNL A   1      42.630  32.169  38.436  1.00  0.00     0.029 A 
ATOM     29  N   UNL A   1      41.607  31.479  36.582  1.00  0.00    -0.354 N 
ATOM     30  N   UNL A   1      41.317  29.732  34.155  1.00  0.00    -0.248 NA
ATOM     31  C   UNL A   1      42.110  28.001  32.800  1.00  0.00     0.031 C 
ATOM     32  C   UNL A   1      43.366  31.119  37.878  1.00  0.00     0.029 A 
ATOM     33  C   UNL A   1      42.716  30.670  36.736  1.00  0.00     0.049 A 
ATOM     34  H   UNL A   1      40.954  31.409  35.848  1.00  0.00     0.167 HD
ATOM     35  C   UNL A   1      42.464  29.206  34.729  1.00  0.00     0.074 A 
ATOM     36  C   UNL A   1      42.897  28.124  33.863  1.00  0.00     0.031 C 
ATOM     37  C   UNL A   1      43.091  29.576  35.871  1.00  0.00     0.034 A 
BRANCH  24  38
ATOM     38  C   UNL A   1      40.602  34.435  38.842  1.00  0.00     0.023 A 
ATOM     39  C   UNL A   1      41.570  35.462  38.816  1.00  0.00     0.012 A 
ATOM     40  C   UNL A   1      39.750  34.314  39.953  1.00  0.00     0.148 A 
ATOM     41  C   UNL A   1      41.729  36.313  39.909  1.00  0.00     0.002 A 
ATOM     42  C   UNL A   1      39.881  35.197  41.017  1.00  0.00     0.091 A 
ATOM     43  F   UNL A   1      38.863  33.309  39.973  1.00  0.00    -0.205 F 
ATOM     44  C   UNL A   1      40.882  36.182  41.006  1.00  0.00     0.022 A 
BRANCH  42  45
ATOM     45  S   UNL A   1      38.797  35.148  42.445  1.00  0.00     0.127 S 
ATOM     46  O   UNL A   1      37.478  35.238  41.819  1.00  0.00    -0.237 OA
ATOM     47  O   UNL A   1      39.111  33.839  43.020  1.00  0.00    -0.237 OA
ATOM     48  O   UNL A   1      39.174  36.282  43.276  1.00  0.00    -0.744 OA
ENDBRANCH  42  45
ENDBRANCH  24  38
BRANCH  25  49
ATOM     49  C   UNL A   1      39.810  28.242  30.923  1.00  0.00     0.023 A 
ATOM     50  C   UNL A   1      39.013  27.082  30.972  1.00  0.00     0.012 A 
ATOM     51  C   UNL A   1      40.440  28.587  29.708  1.00  0.00     0.148 A 
ATOM     52  C   UNL A   1      38.864  26.271  29.844  1.00  0.00     0.002 A 
ATOM     53  C   UNL A   1      40.257  27.796  28.578  1.00  0.00     0.091 A 
ATOM     54  F   UNL A   1      41.200  29.690  29.679  1.00  0.00    -0.205 F 
ATOM     55  C   UNL A   1      39.477  26.631  28.646  1.00  0.00     0.022 A 
BRANCH  53  56
ATOM     56  S   UNL A   1      40.938  28.223  26.969  1.00  0.00     0.127 S 
ATOM     57  O   UNL A   1      42.305  28.605  27.318  1.00  0.00    -0.237 OA
ATOM     58  O   UNL A   1      40.821  26.957  26.244  1.00  0.00    -0.237 OA
ATOM     59  O   UNL A   1      40.096  29.295  26.455  1.00  0.00    -0.744 OA
ENDBRANCH  53  56
ENDBRANCH  25  49
BRANCH  37  60
ATOM     60  C   UNL A   1      44.281  28.766  36.294  1.00  0.00     0.023 A 
ATOM     61  C   UNL A   1      45.581  29.181  35.954  1.00  0.00     0.012 A 
ATOM     62  C   UNL A   1      44.097  27.652  37.136  1.00  0.00     0.148 A 
ATOM     63  C   UNL A   1      46.687  28.485  36.438  1.00  0.00     0.002 A 
ATOM     64  C   UNL A   1      45.202  27.001  37.660  1.00  0.00     0.091 A 
ATOM     65  F   UNL A   1      42.845  27.267  37.422  1.00  0.00    -0.205 F 
ATOM     66  C   UNL A   1      46.499  27.408  37.303  1.00  0.00     0.022 A 
BRANCH  64  67
ATOM     67  S   UNL A   1      45.053  25.684  38.870  1.00  0.00     0.127 S 
ATOM     68  O   UNL A   1      44.236  26.320  39.902  1.00  0.00    -0.237 OA
ATOM     69  O   UNL A   1      44.370  24.641  38.105  1.00  0.00    -0.237 OA
ATOM     70  O   UNL A   1      46.412  25.348  39.272  1.00  0.00    -0.744 OA
ENDBRANCH  64  67
ENDBRANCH  37  60
ENDBRANCH  11  12
ENDBRANCH   4   6
ENDBRANCH   3   4
ENDBRANCH   2   3
ENDBRANCH   1   2
BRANCH   1  71
ATOM     71  O   UNL A   1      34.231  33.921  29.133  1.00  0.00    -0.458 OA
BRANCH  71  72
ATOM     72  C   UNL A   1      34.838  33.687  27.940  1.00  0.00     0.338 C 
ATOM     73  O   UNL A   1      34.870  34.434  26.986  1.00  0.00    -0.246 OA
BRANCH  72  74
ATOM     74  C   UNL A   1      35.585  32.410  28.002  1.00  0.00     0.071 A 
ATOM     75  C   UNL A   1      36.886  32.470  28.533  1.00  0.00     0.016 A 
ATOM     76  C   UNL A   1      35.042  31.190  27.579  1.00  0.00     0.032 A 
ATOM     77  C   UNL A   1      37.642  31.307  28.677  1.00  0.00     0.001 A 
ATOM     78  C   UNL A   1      35.860  30.049  27.642  1.00  0.00     0.013 A 
ATOM     79  C   UNL A   1      37.133  30.097  28.221  1.00  0.00     0.001 A 
BRANCH  76  80
ATOM     80  C   UNL A   1      33.663  31.057  27.129  1.00  0.00     0.135 A 
ATOM     81  C   UNL A   1      32.453  31.552  27.547  1.00  0.00     0.051 A 
ATOM     82  O   UNL A   1      33.467  30.193  26.093  1.00  0.00    -0.457 OA
ATOM     83  C   UNL A   1      31.481  30.987  26.687  1.00  0.00     0.051 A 
ATOM     84  C   UNL A   1      32.142  30.189  25.757  1.00  0.00     0.128 A 
BRANCH  84  85
ATOM     85  C   UNL A   1      31.596  29.494  24.640  1.00  0.00     0.068 C 
ATOM     86  C   UNL A   1      31.843  28.188  24.472  1.00  0.00     0.084 C 
ATOM     87  S   UNL A   1      31.727  27.343  22.979  1.00  0.00    -0.054 SA
ATOM     88  C   UNL A   1      32.495  27.305  25.468  1.00  0.00     0.266 C 
ATOM     89  C   UNL A   1      32.975  26.184  23.481  1.00  0.00     0.148 C 
ATOM     90  N   UNL A   1      33.255  26.354  24.818  1.00  0.00    -0.288 N 
ATOM     91  O   UNL A   1      32.342  27.408  26.674  1.00  0.00    -0.268 OA
ATOM     92  S   UNL A   1      33.667  25.110  22.407  1.00  0.00    -0.052 S 
BRANCH  90  93
ATOM     93  C   UNL A   1      34.216  25.588  25.611  1.00  0.00     0.163 C 
BRANCH  93  94
ATOM     94  C   UNL A   1      33.783  24.142  25.810  1.00  0.00    -0.028 A 
ATOM     95  C   UNL A   1      32.657  23.823  26.580  1.00  0.00     0.005 A 
ATOM     96  C   UNL A   1      34.532  23.084  25.266  1.00  0.00     0.005 A 
ATOM     97  C   UNL A   1      32.294  22.487  26.792  1.00  0.00     0.000 A 
ATOM     98  C   UNL A   1      34.155  21.755  25.454  1.00  0.00     0.000 A 
ATOM     99  C   UNL A   1      33.036  21.455  26.222  1.00  0.00     0.000 A 
ENDBRANCH  93  94
ENDBRANCH  90  93
ENDBRANCH  84  85
ENDBRANCH  76  80
ENDBRANCH  72  74
ENDBRANCH  71  72
ENDBRANCH   1  71
TORSDOF 18
ENDMDL
MODEL 2
REMARK VINA RESULT:     -10.5      6.237     11.146
REMARK SMILES O=C(OCCOC(=O)c1ccccc1-c1ccc(/C=C2/SC(=S)N(Cc3ccccc3)C2=O)o1)c1ccc(-c2c3nc(c(-c4cccc(S(=O)(=O)[O-])c4F)c4ccc([nH]4)c(-c4cccc(S(=O)(=O)[O-])c4F)c4nc(c(-c5cccc(S(=O)(=O)[O-])c5F)c5ccc2[nH]5)C=C4)C=C3)cc1
REMARK SMILES IDX 5 1 4 2 3 3 2 4 1 5 35 6 36 7 97 8 37 9 96 10 38 11 39 12
REMARK SMILES IDX 40 13 90 14 41 15 95 16 89 17 91 18 42 19 94 20 88 21 87 22
REMARK SMILES IDX 43 24 75 25 55 26 74 27 56 28 59 29 73 30 92 31 57 32 58 33
REMARK SMILES IDX 72 35 93 36 60 37 44 38 45 39 53 40 46 41 48 42 54 43 47 44
REMARK SMILES IDX 49 45 50 46 51 47 52 48 76 49 77 50 85 51 78 52 80 53 86 54
REMARK SMILES IDX 79 55 81 56 82 57 83 58 84 59 61 60 62 61 70 62 63 63 65 64
REMARK SMILES IDX 71 65 64 66 66 67 67 68 68 69 69 70 6 71 7 72 8 73 9 74
REMARK SMILES IDX 10 75 14 76 11 77 13 78 12 79 15 80 16 81 34 82 17 83 18 84
REMARK SMILES IDX 19 85 20 86 21 87 32 88 22 89 24 90 33 91 23 92 25 93 26 94
REMARK SMILES IDX 27 95 31 96 28 97 30 98 29 99
REMARK H PARENT 91 23 59 34
REMARK Flexibility Score: inf
ROOT
ATOM      1  C   UNL A   1      42.562  20.478  25.996  1.00  0.00     0.275 C 
ENDROOT
BRANCH   1   2
ATOM      2  C   UNL A   1      43.739  21.431  25.795  1.00  0.00     0.275 C 
BRANCH   2   3
ATOM      3  O   UNL A   1      43.347  22.745  25.365  1.00  0.00    -0.458 OA
BRANCH   3   4
ATOM      4  C   UNL A   1      44.088  23.824  25.016  1.00  0.00     0.338 C 
ATOM      5  O   UNL A   1      44.731  23.751  23.968  1.00  0.00    -0.246 OA
BRANCH   4   6
ATOM      6  C   UNL A   1      44.249  25.073  25.839  1.00  0.00     0.060 A 
ATOM      7  C   UNL A   1      44.529  25.150  27.208  1.00  0.00     0.016 A 
ATOM      8  C   UNL A   1      44.118  26.292  25.141  1.00  0.00     0.016 A 
ATOM      9  C   UNL A   1      44.699  26.380  27.853  1.00  0.00     0.010 A 
ATOM     10  C   UNL A   1      44.294  27.525  25.777  1.00  0.00     0.010 A 
ATOM     11  C   UNL A   1      44.569  27.574  27.147  1.00  0.00    -0.014 A 
BRANCH  11  12
ATOM     12  C   UNL A   1      44.524  28.861  27.876  1.00  0.00     0.031 A 
ATOM     13  C   UNL A   1      43.214  29.285  28.445  1.00  0.00     0.074 A 
ATOM     14  C   UNL A   1      45.618  29.622  28.049  1.00  0.00     0.049 A 
ATOM     15  N   UNL A   1      42.924  30.369  29.103  1.00  0.00    -0.248 NA
ATOM     16  C   UNL A   1      42.087  28.355  28.264  1.00  0.00     0.031 C 
ATOM     17  C   UNL A   1      46.938  29.238  27.596  1.00  0.00     0.029 A 
ATOM     18  N   UNL A   1      45.820  30.852  28.614  1.00  0.00    -0.354 N 
ATOM     19  C   UNL A   1      41.575  30.268  29.395  1.00  0.00     0.074 A 
ATOM     20  C   UNL A   1      41.099  29.027  28.828  1.00  0.00     0.031 C 
ATOM     21  C   UNL A   1      47.821  30.214  27.839  1.00  0.00     0.029 A 
ATOM     22  C   UNL A   1      47.107  31.321  28.453  1.00  0.00     0.049 A 
ATOM     23  H   UNL A   1      45.116  31.352  29.088  1.00  0.00     0.167 HD
ATOM     24  C   UNL A   1      40.811  31.139  30.089  1.00  0.00     0.034 A 
ATOM     25  C   UNL A   1      47.642  32.523  28.744  1.00  0.00     0.034 A 
ATOM     26  C   UNL A   1      41.311  32.379  30.608  1.00  0.00     0.049 A 
ATOM     27  C   UNL A   1      46.755  33.512  29.441  1.00  0.00     0.074 A 
ATOM     28  C   UNL A   1      40.635  33.350  31.319  1.00  0.00     0.029 A 
ATOM     29  N   UNL A   1      42.615  32.833  30.439  1.00  0.00    -0.354 N 
ATOM     30  N   UNL A   1      45.495  33.377  29.778  1.00  0.00    -0.248 NA
ATOM     31  C   UNL A   1      47.356  34.787  29.847  1.00  0.00     0.031 C 
ATOM     32  C   UNL A   1      41.520  34.409  31.544  1.00  0.00     0.029 A 
ATOM     33  C   UNL A   1      42.762  34.078  31.019  1.00  0.00     0.049 A 
ATOM     34  H   UNL A   1      43.328  32.339  29.973  1.00  0.00     0.167 HD
ATOM     35  C   UNL A   1      45.161  34.520  30.485  1.00  0.00     0.074 A 
ATOM     36  C   UNL A   1      46.356  35.345  30.518  1.00  0.00     0.031 C 
ATOM     37  C   UNL A   1      43.982  34.850  31.063  1.00  0.00     0.034 A 
BRANCH  24  38
ATOM     38  C   UNL A   1      39.368  30.765  30.259  1.00  0.00     0.023 A 
ATOM     39  C   UNL A   1      39.008  29.703  31.116  1.00  0.00     0.012 A 
ATOM     40  C   UNL A   1      38.375  31.413  29.504  1.00  0.00     0.148 A 
ATOM     41  C   UNL A   1      37.690  29.251  31.169  1.00  0.00     0.002 A 
ATOM     42  C   UNL A   1      37.055  30.990  29.600  1.00  0.00     0.091 A 
ATOM     43  F   UNL A   1      38.744  32.394  28.668  1.00  0.00    -0.205 F 
ATOM     44  C   UNL A   1      36.715  29.898  30.415  1.00  0.00     0.022 A 
BRANCH  42  45
ATOM     45  S   UNL A   1      35.720  31.799  28.717  1.00  0.00     0.127 S 
ATOM     46  O   UNL A   1      34.746  32.015  29.787  1.00  0.00    -0.237 OA
ATOM     47  O   UNL A   1      36.371  33.016  28.231  1.00  0.00    -0.237 OA
ATOM     48  O   UNL A   1      35.308  30.872  27.673  1.00  0.00    -0.744 OA
ENDBRANCH  42  45
ENDBRANCH  24  38
BRANCH  25  49
ATOM     49  C   UNL A   1      49.068  32.813  28.416  1.00  0.00     0.023 A 
ATOM     50  C   UNL A   1      50.048  32.755  29.426  1.00  0.00     0.012 A 
ATOM     51  C   UNL A   1      49.468  33.099  27.093  1.00  0.00     0.148 A 
ATOM     52  C   UNL A   1      51.392  32.996  29.131  1.00  0.00     0.002 A 
ATOM     53  C   UNL A   1      50.813  33.301  26.798  1.00  0.00     0.091 A 
ATOM     54  F   UNL A   1      48.523  33.158  26.145  1.00  0.00    -0.205 F 
ATOM     55  C   UNL A   1      51.776  33.260  27.818  1.00  0.00     0.022 A 
BRANCH  53  56
ATOM     56  S   UNL A   1      51.415  33.564  25.125  1.00  0.00     0.127 S 
ATOM     57  O   UNL A   1      51.302  32.223  24.555  1.00  0.00    -0.237 OA
ATOM     58  O   UNL A   1      50.452  34.535  24.604  1.00  0.00    -0.237 OA
ATOM     59  O   UNL A   1      52.772  34.075  25.268  1.00  0.00    -0.744 OA
ENDBRANCH  53  56
ENDBRANCH  25  49
BRANCH  37  60
ATOM     60  C   UNL A   1      43.934  36.133  31.842  1.00  0.00     0.023 A 
ATOM     61  C   UNL A   1      44.139  36.127  33.233  1.00  0.00     0.012 A 
ATOM     62  C   UNL A   1      43.804  37.355  31.156  1.00  0.00     0.148 A 
ATOM     63  C   UNL A   1      44.200  37.329  33.936  1.00  0.00     0.002 A 
ATOM     64  C   UNL A   1      43.924  38.547  31.853  1.00  0.00     0.091 A 
ATOM     65  F   UNL A   1      43.586  37.326  29.833  1.00  0.00    -0.205 F 
ATOM     66  C   UNL A   1      44.110  38.536  33.246  1.00  0.00     0.022 A 
BRANCH  64  67
ATOM     67  S   UNL A   1      43.938  40.141  31.029  1.00  0.00     0.127 S 
ATOM     68  O   UNL A   1      44.123  41.056  32.154  1.00  0.00    -0.237 OA
ATOM     69  O   UNL A   1      45.097  40.018  30.144  1.00  0.00    -0.237 OA
ATOM     70  O   UNL A   1      42.659  40.253  30.341  1.00  0.00    -0.744 OA
ENDBRANCH  64  67
ENDBRANCH  37  60
ENDBRANCH  11  12
ENDBRANCH   4   6
ENDBRANCH   3   4
ENDBRANCH   2   3
ENDBRANCH   1   2
BRANCH   1  71
ATOM     71  O   UNL A   1      41.307  21.160  25.925  1.00  0.00    -0.458 OA
BRANCH  71  72
ATOM     72  C   UNL A   1      40.671  21.369  27.108  1.00  0.00     0.338 C 
ATOM     73  O   UNL A   1      40.601  20.594  28.038  1.00  0.00    -0.246 OA
BRANCH  72  74
ATOM     74  C   UNL A   1      40.163  22.758  27.163  1.00  0.00     0.071 A 
ATOM     75  C   UNL A   1      41.028  23.721  27.714  1.00  0.00     0.016 A 
ATOM     76  C   UNL A   1      38.899  23.126  26.682  1.00  0.00     0.032 A 
ATOM     77  C   UNL A   1      40.650  25.062  27.758  1.00  0.00     0.001 A 
ATOM     78  C   UNL A   1      38.504  24.466  26.828  1.00  0.00     0.013 A 
ATOM     79  C   UNL A   1      39.383  25.434  27.325  1.00  0.00     0.001 A 
BRANCH  76  80
ATOM     80  C   UNL A   1      38.015  22.190  26.001  1.00  0.00     0.135 A 
ATOM     81  C   UNL A   1      38.183  21.197  25.068  1.00  0.00     0.051 A 
ATOM     82  O   UNL A   1      36.686  22.340  26.267  1.00  0.00    -0.457 OA
ATOM     83  C   UNL A   1      36.889  20.695  24.791  1.00  0.00     0.051 A 
ATOM     84  C   UNL A   1      35.981  21.385  25.590  1.00  0.00     0.128 A 
BRANCH  84  85
ATOM     85  C   UNL A   1      34.581  21.168  25.728  1.00  0.00     0.068 C 
ATOM     86  C   UNL A   1      33.710  21.921  25.043  1.00  0.00     0.084 C 
ATOM     87  S   UNL A   1      32.060  22.158  25.465  1.00  0.00    -0.054 SA
ATOM     88  C   UNL A   1      34.065  22.872  23.964  1.00  0.00     0.266 C 
ATOM     89  C   UNL A   1      32.048  23.767  24.713  1.00  0.00     0.148 C 
ATOM     90  N   UNL A   1      33.207  23.952  23.995  1.00  0.00    -0.288 N 
ATOM     91  O   UNL A   1      34.968  22.688  23.163  1.00  0.00    -0.268 OA
ATOM     92  S   UNL A   1      30.784  24.835  24.932  1.00  0.00    -0.052 S 
BRANCH  90  93
ATOM     93  C   UNL A   1      33.573  25.139  23.223  1.00  0.00     0.163 C 
BRANCH  93  94
ATOM     94  C   UNL A   1      33.671  26.388  24.089  1.00  0.00    -0.028 A 
ATOM     95  C   UNL A   1      34.006  26.302  25.448  1.00  0.00     0.005 A 
ATOM     96  C   UNL A   1      33.380  27.657  23.559  1.00  0.00     0.005 A 
ATOM     97  C   UNL A   1      34.050  27.453  26.244  1.00  0.00     0.000 A 
ATOM     98  C   UNL A   1      33.451  28.806  24.347  1.00  0.00     0.000 A 
ATOM     99  C   UNL A   1      33.783  28.704  25.692  1.00  0.00     0.000 A 
ENDBRANCH  93  94
ENDBRANCH  90  93
ENDBRANCH  84  85
ENDBRANCH  76  80
ENDBRANCH  72  74
ENDBRANCH  71  72
ENDBRANCH   1  71
TORSDOF 18
ENDMDL
MODEL 3
REMARK VINA RESULT:     -10.5      3.594      5.254
REMARK SMILES O=C(OCCOC(=O)c1ccccc1-c1ccc(/C=C2/SC(=S)N(Cc3ccccc3)C2=O)o1)c1ccc(-c2c3nc(c(-c4cccc(S(=O)(=O)[O-])c4F)c4ccc([nH]4)c(-c4cccc(S(=O)(=O)[O-])c4F)c4nc(c(-c5cccc(S(=O)(=O)[O-])c5F)c5ccc2[nH]5)C=C4)C=C3)cc1
REMARK SMILES IDX 5 1 4 2 3 3 2 4 1 5 35 6 36 7 97 8 37 9 96 10 38 11 39 12
REMARK SMILES IDX 40 13 90 14 41 15 95 16 89 17 91 18 42 19 94 20 88 21 87 22
REMARK SMILES IDX 43 24 75 25 55 26 74 27 56 28 59 29 73 30 92 31 57 32 58 33
REMARK SMILES IDX 72 35 93 36 60 37 44 38 45 39 53 40 46 41 48 42 54 43 47 44
REMARK SMILES IDX 49 45 50 46 51 47 52 48 76 49 77 50 85 51 78 52 80 53 86 54
REMARK SMILES IDX 79 55 81 56 82 57 83 58 84 59 61 60 62 61 70 62 63 63 65 64
REMARK SMILES IDX 71 65 64 66 66 67 67 68 68 69 69 70 6 71 7 72 8 73 9 74
REMARK SMILES IDX 10 75 14 76 11 77 13 78 12 79 15 80 16 81 34 82 17 83 18 84
REMARK SMILES IDX 19 85 20 86 21 87 32 88 22 89 24 90 33 91 23 92 25 93 26 94
REMARK SMILES IDX 27 95 31 96 28 97 30 98 29 99
REMARK H PARENT 91 23 59 34
REMARK Flexibility Score: inf
ROOT
ATOM      1  C   UNL A   1      34.426  34.229  30.124  1.00  0.00     0.275 C 
ENDROOT
BRANCH   1   2
ATOM      2  C   UNL A   1      34.406  34.004  31.635  1.00  0.00     0.275 C 
BRANCH   2   3
ATOM      3  O   UNL A   1      35.490  33.185  32.107  1.00  0.00    -0.458 OA
BRANCH   3   4
ATOM      4  C   UNL A   1      36.783  33.488  32.370  1.00  0.00     0.338 C 
ATOM      5  O   UNL A   1      37.046  34.664  32.629  1.00  0.00    -0.246 OA
BRANCH   4   6
ATOM      6  C   UNL A   1      37.936  32.524  32.299  1.00  0.00     0.060 A 
ATOM      7  C   UNL A   1      37.993  31.238  32.849  1.00  0.00     0.016 A 
ATOM      8  C   UNL A   1      39.068  32.968  31.585  1.00  0.00     0.016 A 
ATOM      9  C   UNL A   1      39.113  30.417  32.676  1.00  0.00     0.010 A 
ATOM     10  C   UNL A   1      40.188  32.150  31.401  1.00  0.00     0.010 A 
ATOM     11  C   UNL A   1      40.221  30.872  31.965  1.00  0.00    -0.014 A 
BRANCH  11  12
ATOM     12  C   UNL A   1      41.479  30.091  31.982  1.00  0.00     0.031 A 
ATOM     13  C   UNL A   1      42.463  30.393  33.058  1.00  0.00     0.074 A 
ATOM     14  C   UNL A   1      41.732  29.126  31.081  1.00  0.00     0.049 A 
ATOM     15  N   UNL A   1      43.631  29.861  33.268  1.00  0.00    -0.248 NA
ATOM     16  C   UNL A   1      42.070  31.419  34.039  1.00  0.00     0.031 C 
ATOM     17  C   UNL A   1      40.792  28.722  30.058  1.00  0.00     0.029 A 
ATOM     18  N   UNL A   1      42.819  28.328  30.849  1.00  0.00    -0.354 N 
ATOM     19  C   UNL A   1      44.129  30.501  34.389  1.00  0.00     0.074 A 
ATOM     20  C   UNL A   1      43.145  31.475  34.806  1.00  0.00     0.031 C 
ATOM     21  C   UNL A   1      41.334  27.792  29.262  1.00  0.00     0.029 A 
ATOM     22  C   UNL A   1      42.694  27.552  29.715  1.00  0.00     0.049 A 
ATOM     23  H   UNL A   1      43.612  28.309  31.434  1.00  0.00     0.167 HD
ATOM     24  C   UNL A   1      45.304  30.280  35.016  1.00  0.00     0.034 A 
ATOM     25  C   UNL A   1      43.589  26.759  29.096  1.00  0.00     0.034 A 
ATOM     26  C   UNL A   1      46.271  29.328  34.553  1.00  0.00     0.049 A 
ATOM     27  C   UNL A   1      44.922  26.587  29.762  1.00  0.00     0.074 A 
ATOM     28  C   UNL A   1      47.502  29.018  35.095  1.00  0.00     0.029 A 
ATOM     29  N   UNL A   1      46.124  28.551  33.408  1.00  0.00    -0.354 N 
ATOM     30  N   UNL A   1      45.356  27.146  30.867  1.00  0.00    -0.248 NA
ATOM     31  C   UNL A   1      45.869  25.651  29.146  1.00  0.00     0.031 C 
ATOM     32  C   UNL A   1      48.117  28.084  34.255  1.00  0.00     0.029 A 
ATOM     33  C   UNL A   1      47.249  27.772  33.217  1.00  0.00     0.049 A 
ATOM     34  H   UNL A   1      45.335  28.557  32.820  1.00  0.00     0.167 HD
ATOM     35  C   UNL A   1      46.601  26.591  31.114  1.00  0.00     0.074 A 
ATOM     36  C   UNL A   1      46.856  25.656  30.033  1.00  0.00     0.031 C 
ATOM     37  C   UNL A   1      47.447  26.824  32.146  1.00  0.00     0.034 A 
BRANCH  24  38
ATOM     38  C   UNL A   1      45.580  31.126  36.224  1.00  0.00     0.023 A 
ATOM     39  C   UNL A   1      46.260  32.355  36.087  1.00  0.00     0.012 A 
ATOM     40  C   UNL A   1      45.239  30.662  37.506  1.00  0.00     0.148 A 
ATOM     41  C   UNL A   1      46.652  33.077  37.213  1.00  0.00     0.002 A 
ATOM     42  C   UNL A   1      45.588  31.412  38.622  1.00  0.00     0.091 A 
ATOM     43  F   UNL A   1      44.626  29.475  37.616  1.00  0.00    -0.205 F 
ATOM     44  C   UNL A   1      46.311  32.608  38.479  1.00  0.00     0.022 A 
BRANCH  42  45
ATOM     45  S   UNL A   1      45.139  30.923  40.288  1.00  0.00     0.127 S 
ATOM     46  O   UNL A   1      45.767  29.605  40.388  1.00  0.00    -0.237 OA
ATOM     47  O   UNL A   1      45.778  31.965  41.093  1.00  0.00    -0.237 OA
ATOM     48  O   UNL A   1      43.685  30.928  40.332  1.00  0.00    -0.744 OA
ENDBRANCH  42  45
ENDBRANCH  24  38
BRANCH  25  49
ATOM     49  C   UNL A   1      43.228  26.059  27.829  1.00  0.00     0.023 A 
ATOM     50  C   UNL A   1      43.477  26.676  26.588  1.00  0.00     0.012 A 
ATOM     51  C   UNL A   1      42.681  24.758  27.846  1.00  0.00     0.148 A 
ATOM     52  C   UNL A   1      43.172  26.023  25.392  1.00  0.00     0.002 A 
ATOM     53  C   UNL A   1      42.414  24.097  26.651  1.00  0.00     0.091 A 
ATOM     54  F   UNL A   1      42.443  24.187  29.035  1.00  0.00    -0.205 F 
ATOM     55  C   UNL A   1      42.649  24.732  25.422  1.00  0.00     0.022 A 
BRANCH  53  56
ATOM     56  S   UNL A   1      41.818  22.402  26.587  1.00  0.00     0.127 S 
ATOM     57  O   UNL A   1      40.376  22.589  26.726  1.00  0.00    -0.237 OA
ATOM     58  O   UNL A   1      42.256  21.975  25.258  1.00  0.00    -0.237 OA
ATOM     59  O   UNL A   1      42.472  21.710  27.690  1.00  0.00    -0.744 OA
ENDBRANCH  53  56
ENDBRANCH  25  49
BRANCH  37  60
ATOM     60  C   UNL A   1      48.707  26.009  32.198  1.00  0.00     0.023 A 
ATOM     61  C   UNL A   1      49.849  26.421  31.489  1.00  0.00     0.012 A 
ATOM     62  C   UNL A   1      48.776  24.895  33.057  1.00  0.00     0.148 A 
ATOM     63  C   UNL A   1      51.047  25.722  31.624  1.00  0.00     0.002 A 
ATOM     64  C   UNL A   1      49.985  24.241  33.230  1.00  0.00     0.091 A 
ATOM     65  F   UNL A   1      47.664  24.514  33.700  1.00  0.00    -0.205 F 
ATOM     66  C   UNL A   1      51.120  24.644  32.506  1.00  0.00     0.022 A 
BRANCH  64  67
ATOM     67  S   UNL A   1      50.197  22.923  34.430  1.00  0.00     0.127 S 
ATOM     68  O   UNL A   1      51.617  22.609  34.280  1.00  0.00    -0.237 OA
ATOM     69  O   UNL A   1      49.847  23.591  35.684  1.00  0.00    -0.237 OA
ATOM     70  O   UNL A   1      49.281  21.862  34.033  1.00  0.00    -0.744 OA
ENDBRANCH  64  67
ENDBRANCH  37  60
ENDBRANCH  11  12
ENDBRANCH   4   6
ENDBRANCH   3   4
ENDBRANCH   2   3
ENDBRANCH   1   2
BRANCH   1  71
ATOM     71  O   UNL A   1      34.269  33.005  29.401  1.00  0.00    -0.458 OA
BRANCH  71  72
ATOM     72  C   UNL A   1      34.975  32.898  28.246  1.00  0.00     0.338 C 
ATOM     73  O   UNL A   1      35.094  33.748  27.389  1.00  0.00    -0.246 OA
BRANCH  72  74
ATOM     74  C   UNL A   1      35.706  31.610  28.225  1.00  0.00     0.071 A 
ATOM     75  C   UNL A   1      36.952  31.586  28.876  1.00  0.00     0.016 A 
ATOM     76  C   UNL A   1      35.198  30.457  27.613  1.00  0.00     0.032 A 
ATOM     77  C   UNL A   1      37.685  30.402  28.950  1.00  0.00     0.001 A 
ATOM     78  C   UNL A   1      36.000  29.303  27.616  1.00  0.00     0.013 A 
ATOM     79  C   UNL A   1      37.213  29.262  28.311  1.00  0.00     0.001 A 
BRANCH  76  80
ATOM     80  C   UNL A   1      33.866  30.400  27.026  1.00  0.00     0.135 A 
ATOM     81  C   UNL A   1      32.631  30.891  27.370  1.00  0.00     0.051 A 
ATOM     82  O   UNL A   1      33.753  29.632  25.905  1.00  0.00    -0.457 OA
ATOM     83  C   UNL A   1      31.735  30.428  26.377  1.00  0.00     0.051 A 
ATOM     84  C   UNL A   1      32.466  29.693  25.448  1.00  0.00     0.128 A 
BRANCH  84  85
ATOM     85  C   UNL A   1      32.016  29.110  24.229  1.00  0.00     0.068 C 
ATOM     86  C   UNL A   1      31.684  27.812  24.184  1.00  0.00     0.084 C 
ATOM     87  S   UNL A   1      31.638  26.851  22.759  1.00  0.00    -0.054 SA
ATOM     88  C   UNL A   1      31.546  26.923  25.361  1.00  0.00     0.266 C 
ATOM     89  C   UNL A   1      32.022  25.382  23.679  1.00  0.00     0.148 C 
ATOM     90  N   UNL A   1      31.946  25.646  25.027  1.00  0.00    -0.288 N 
ATOM     91  O   UNL A   1      31.112  27.287  26.443  1.00  0.00    -0.268 OA
ATOM     92  S   UNL A   1      32.432  23.950  22.926  1.00  0.00    -0.052 S 
BRANCH  90  93
ATOM     93  C   UNL A   1      32.180  24.697  26.115  1.00  0.00     0.163 C 
BRANCH  93  94
ATOM     94  C   UNL A   1      33.556  24.048  26.033  1.00  0.00    -0.028 A 
ATOM     95  C   UNL A   1      33.743  22.702  26.379  1.00  0.00     0.005 A 
ATOM     96  C   UNL A   1      34.684  24.796  25.655  1.00  0.00     0.005 A 
ATOM     97  C   UNL A   1      35.020  22.129  26.341  1.00  0.00     0.000 A 
ATOM     98  C   UNL A   1      35.952  24.217  25.591  1.00  0.00     0.000 A 
ATOM     99  C   UNL A   1      36.121  22.882  25.938  1.00  0.00     0.000 A 
ENDBRANCH  93  94
ENDBRANCH  90  93
ENDBRANCH  84  85
ENDBRANCH  76  80
ENDBRANCH  72  74
ENDBRANCH  71  72
ENDBRANCH   1  71
TORSDOF 18
ENDMDL
