MODEL 1
REMARK VINA RESULT:     -12.6      0.000      0.000
REMARK SMILES COc1cc(/C=C2/CCc3c2nc2ccccc2c3C(=O)OCCOC(=O)c2ccc(-c3c4nc(c(-c5cccc(S(=O)(=O)[O-])c5F)c5ccc([nH]5)c(-c5cccc(S(=O)(=O)[O-])c5F)c5nc(c(-c6cccc(S(=O)(=O)[O-])c6F)c6ccc3[nH]6)C=C5)C=C4)cc2)cc(Br)c1O
REMARK SMILES IDX 24 1 23 2 22 3 20 4 21 5 19 6 6 7 7 8 8 9 11 10 9 11 10 12
REMARK SMILES IDX 12 13 13 14 18 15 14 16 17 17 15 18 16 19 5 20 3 21 4 22
REMARK SMILES IDX 94 23 92 24 91 25 93 26 2 27 1 28 95 29 25 31 26 32 27 33
REMARK SMILES IDX 28 34 29 35 90 36 30 37 89 38 31 39 32 40 33 41 83 42 34 43
REMARK SMILES IDX 88 44 82 45 84 46 35 47 87 48 81 49 80 50 36 52 68 53 48 54
REMARK SMILES IDX 67 55 49 56 52 57 66 58 85 59 50 60 51 61 65 63 86 64 53 65
REMARK SMILES IDX 37 66 38 67 46 68 39 69 41 70 47 71 40 72 42 73 43 74 44 75
REMARK SMILES IDX 45 76 69 77 70 78 78 79 71 80 73 81 79 82 72 83 74 84 75 85
REMARK SMILES IDX 76 86 77 87 54 88 55 89 63 90 56 91 58 92 64 93 57 94 59 95
REMARK SMILES IDX 60 96 61 97 62 98
REMARK H PARENT 95 30 84 51 52 62
REMARK Flexibility Score: inf
ROOT
ATOM      1  C   UNL A   1      31.801  30.470  26.446  1.00  0.00     0.275 C 
ENDROOT
BRANCH   1   2
ATOM      2  C   UNL A   1      31.567  29.300  25.487  1.00  0.00     0.275 C 
BRANCH   2   3
ATOM      3  O   UNL A   1      31.780  28.070  26.206  1.00  0.00    -0.458 OA
BRANCH   3   4
ATOM      4  C   UNL A   1      32.930  27.391  25.966  1.00  0.00     0.339 C 
ATOM      5  O   UNL A   1      34.002  27.582  26.512  1.00  0.00    -0.246 OA
BRANCH   4   6
ATOM      6  C   UNL A   1      32.573  26.227  25.118  1.00  0.00     0.074 A 
ATOM      7  C   UNL A   1      32.874  23.942  21.348  1.00  0.00     0.014 C 
ATOM      8  C   UNL A   1      32.448  25.178  21.706  1.00  0.00    -0.021 C 
ATOM      9  C   UNL A   1      33.348  26.402  21.496  1.00  0.00     0.042 C 
ATOM     10  C   UNL A   1      31.895  25.361  23.054  1.00  0.00     0.071 A 
ATOM     11  C   UNL A   1      33.323  27.221  22.814  1.00  0.00     0.043 C 
ATOM     12  C   UNL A   1      32.575  26.328  23.739  1.00  0.00    -0.006 A 
ATOM     13  N   UNL A   1      31.095  24.437  23.596  1.00  0.00    -0.248 NA
ATOM     14  C   UNL A   1      31.247  24.231  24.901  1.00  0.00     0.072 A 
ATOM     15  C   UNL A   1      32.101  25.016  25.702  1.00  0.00     0.015 A 
ATOM     16  C   UNL A   1      30.598  23.138  25.446  1.00  0.00     0.029 A 
ATOM     17  C   UNL A   1      32.435  24.515  26.987  1.00  0.00     0.011 A 
ATOM     18  C   UNL A   1      30.905  22.678  26.724  1.00  0.00     0.002 A 
ATOM     19  C   UNL A   1      31.874  23.331  27.471  1.00  0.00     0.001 A 
BRANCH   7  20
ATOM     20  C   UNL A   1      33.308  22.954  22.366  1.00  0.00    -0.020 A 
ATOM     21  C   UNL A   1      32.843  21.040  23.787  1.00  0.00     0.162 A 
ATOM     22  C   UNL A   1      32.554  21.813  22.653  1.00  0.00     0.058 A 
ATOM     23  C   UNL A   1      33.900  21.402  24.629  1.00  0.00     0.172 A 
ATOM     24  C   UNL A   1      34.698  22.501  24.311  1.00  0.00     0.064 A 
ATOM     25  C   UNL A   1      34.428  23.252  23.167  1.00  0.00     0.028 A 
ATOM     26  Br  UNL A   1      36.131  23.051  25.426  1.00  0.00    -0.047 Br
BRANCH  21  27
ATOM     27  O   UNL A   1      32.101  19.898  23.946  1.00  0.00    -0.493 OA
ATOM     28  C   UNL A   1      32.614  18.754  23.267  1.00  0.00     0.278 C 
ENDBRANCH  21  27
BRANCH  23  29
ATOM     29  O   UNL A   1      34.152  20.678  25.761  1.00  0.00    -0.503 OA
ATOM     30  H   UNL A   1      34.238  21.113  26.586  1.00  0.00     0.293 HD
ENDBRANCH  23  29
ENDBRANCH   7  20
ENDBRANCH   4   6
ENDBRANCH   3   4
ENDBRANCH   2   3
ENDBRANCH   1   2
BRANCH   1  31
ATOM     31  O   UNL A   1      33.194  30.837  26.422  1.00  0.00    -0.458 OA
BRANCH  31  32
ATOM     32  C   UNL A   1      33.589  31.780  27.311  1.00  0.00     0.338 C 
ATOM     33  O   UNL A   1      32.985  32.783  27.645  1.00  0.00    -0.246 OA
BRANCH  32  34
ATOM     34  C   UNL A   1      34.893  31.378  27.872  1.00  0.00     0.060 A 
ATOM     35  C   UNL A   1      35.940  32.278  28.055  1.00  0.00     0.016 A 
ATOM     36  C   UNL A   1      35.034  30.072  28.308  1.00  0.00     0.016 A 
ATOM     37  C   UNL A   1      37.139  31.838  28.650  1.00  0.00     0.010 A 
ATOM     38  C   UNL A   1      36.172  29.680  29.007  1.00  0.00     0.010 A 
ATOM     39  C   UNL A   1      37.267  30.532  29.161  1.00  0.00    -0.014 A 
BRANCH  39  40
ATOM     40  C   UNL A   1      38.491  30.018  29.862  1.00  0.00     0.031 A 
ATOM     41  C   UNL A   1      38.863  30.499  31.258  1.00  0.00     0.074 A 
ATOM     42  C   UNL A   1      39.360  29.215  29.211  1.00  0.00     0.049 A 
ATOM     43  N   UNL A   1      39.929  30.220  31.972  1.00  0.00    -0.248 NA
ATOM     44  C   UNL A   1      37.961  31.460  31.919  1.00  0.00     0.031 C 
ATOM     45  C   UNL A   1      39.244  28.793  27.813  1.00  0.00     0.029 A 
ATOM     46  N   UNL A   1      40.528  28.625  29.633  1.00  0.00    -0.354 N 
ATOM     47  C   UNL A   1      39.848  31.006  33.118  1.00  0.00     0.074 A 
ATOM     48  C   UNL A   1      38.664  31.822  32.983  1.00  0.00     0.031 C 
ATOM     49  C   UNL A   1      40.267  27.978  27.510  1.00  0.00     0.029 A 
ATOM     50  C   UNL A   1      41.129  27.835  28.680  1.00  0.00     0.049 A 
ATOM     51  H   UNL A   1      40.901  28.755  30.536  1.00  0.00     0.167 HD
ATOM     52  C   UNL A   1      40.641  31.014  34.217  1.00  0.00     0.034 A 
ATOM     53  C   UNL A   1      42.235  27.067  28.733  1.00  0.00     0.034 A 
ATOM     54  C   UNL A   1      41.744  30.115  34.423  1.00  0.00     0.049 A 
ATOM     55  C   UNL A   1      43.022  26.980  30.010  1.00  0.00     0.074 A 
ATOM     56  C   UNL A   1      42.497  29.932  35.570  1.00  0.00     0.029 A 
ATOM     57  N   UNL A   1      42.238  29.239  33.474  1.00  0.00    -0.354 N 
ATOM     58  N   UNL A   1      42.817  27.603  31.143  1.00  0.00    -0.248 NA
ATOM     59  C   UNL A   1      44.170  26.060  30.027  1.00  0.00     0.031 C 
ATOM     60  C   UNL A   1      43.452  28.945  35.313  1.00  0.00     0.029 A 
ATOM     61  C   UNL A   1      43.287  28.512  34.007  1.00  0.00     0.049 A 
ATOM     62  H   UNL A   1      41.895  29.146  32.556  1.00  0.00     0.167 HD
ATOM     63  C   UNL A   1      43.802  27.146  32.012  1.00  0.00     0.074 A 
ATOM     64  C   UNL A   1      44.587  26.172  31.283  1.00  0.00     0.031 C 
ATOM     65  C   UNL A   1      44.042  27.518  33.292  1.00  0.00     0.034 A 
BRANCH  52  66
ATOM     66  C   UNL A   1      40.278  31.931  35.359  1.00  0.00     0.023 A 
ATOM     67  C   UNL A   1      40.947  33.167  35.481  1.00  0.00     0.012 A 
ATOM     68  C   UNL A   1      39.207  31.638  36.227  1.00  0.00     0.148 A 
ATOM     69  C   UNL A   1      40.572  34.088  36.458  1.00  0.00     0.002 A 
ATOM     70  C   UNL A   1      38.814  32.577  37.175  1.00  0.00     0.091 A 
ATOM     71  F   UNL A   1      38.587  30.456  36.097  1.00  0.00    -0.205 F 
ATOM     72  C   UNL A   1      39.499  33.797  37.295  1.00  0.00     0.022 A 
BRANCH  70  73
ATOM     73  S   UNL A   1      37.404  32.340  38.264  1.00  0.00     0.127 S 
ATOM     74  O   UNL A   1      36.347  33.038  37.532  1.00  0.00    -0.237 OA
ATOM     75  O   UNL A   1      37.275  30.883  38.282  1.00  0.00    -0.237 OA
ATOM     76  O   UNL A   1      37.771  32.942  39.537  1.00  0.00    -0.744 OA
ENDBRANCH  70  73
ENDBRANCH  52  66
BRANCH  53  77
ATOM     77  C   UNL A   1      42.588  26.223  27.558  1.00  0.00     0.023 A 
ATOM     78  C   UNL A   1      43.474  26.740  26.593  1.00  0.00     0.012 A 
ATOM     79  C   UNL A   1      42.130  24.897  27.437  1.00  0.00     0.148 A 
ATOM     80  C   UNL A   1      43.897  25.953  25.523  1.00  0.00     0.002 A 
ATOM     81  C   UNL A   1      42.586  24.106  26.389  1.00  0.00     0.091 A 
ATOM     82  F   UNL A   1      41.288  24.431  28.369  1.00  0.00    -0.205 F 
ATOM     83  C   UNL A   1      43.462  24.634  25.426  1.00  0.00     0.022 A 
BRANCH  81  84
ATOM     84  S   UNL A   1      42.166  22.367  26.229  1.00  0.00     0.127 S 
ATOM     85  O   UNL A   1      42.726  21.811  27.459  1.00  0.00    -0.237 OA
ATOM     86  O   UNL A   1      40.704  22.417  26.184  1.00  0.00    -0.237 OA
ATOM     87  O   UNL A   1      42.798  21.918  24.996  1.00  0.00    -0.744 OA
ENDBRANCH  81  84
ENDBRANCH  53  77
BRANCH  65  88
ATOM     88  C   UNL A   1      45.204  26.888  34.007  1.00  0.00     0.023 A 
ATOM     89  C   UNL A   1      46.460  27.524  33.970  1.00  0.00     0.012 A 
ATOM     90  C   UNL A   1      45.030  25.737  34.799  1.00  0.00     0.148 A 
ATOM     91  C   UNL A   1      47.532  27.015  34.699  1.00  0.00     0.002 A 
ATOM     92  C   UNL A   1      46.096  25.253  35.550  1.00  0.00     0.091 A 
ATOM     93  F   UNL A   1      43.826  25.148  34.815  1.00  0.00    -0.205 F 
ATOM     94  C   UNL A   1      47.348  25.887  35.496  1.00  0.00     0.022 A 
BRANCH  92  95
ATOM     95  S   UNL A   1      45.942  23.846  36.657  1.00  0.00     0.127 S 
ATOM     96  O   UNL A   1      45.689  22.755  35.718  1.00  0.00    -0.237 OA
ATOM     97  O   UNL A   1      47.258  23.810  37.296  1.00  0.00    -0.237 OA
ATOM     98  O   UNL A   1      44.839  24.159  37.557  1.00  0.00    -0.744 OA
ENDBRANCH  92  95
ENDBRANCH  65  88
ENDBRANCH  39  40
ENDBRANCH  32  34
ENDBRANCH  31  32
ENDBRANCH   1  31
TORSDOF 17
ENDMDL
MODEL 2
REMARK VINA RESULT:     -12.5      4.954     10.010
REMARK SMILES COc1cc(/C=C2/CCc3c2nc2ccccc2c3C(=O)OCCOC(=O)c2ccc(-c3c4nc(c(-c5cccc(S(=O)(=O)[O-])c5F)c5ccc([nH]5)c(-c5cccc(S(=O)(=O)[O-])c5F)c5nc(c(-c6cccc(S(=O)(=O)[O-])c6F)c6ccc3[nH]6)C=C5)C=C4)cc2)cc(Br)c1O
REMARK SMILES IDX 24 1 23 2 22 3 20 4 21 5 19 6 6 7 7 8 8 9 11 10 9 11 10 12
REMARK SMILES IDX 12 13 13 14 18 15 14 16 17 17 15 18 16 19 5 20 3 21 4 22
REMARK SMILES IDX 94 23 92 24 91 25 93 26 2 27 1 28 95 29 25 31 26 32 27 33
REMARK SMILES IDX 28 34 29 35 90 36 30 37 89 38 31 39 32 40 33 41 83 42 34 43
REMARK SMILES IDX 88 44 82 45 84 46 35 47 87 48 81 49 80 50 36 52 68 53 48 54
REMARK SMILES IDX 67 55 49 56 52 57 66 58 85 59 50 60 51 61 65 63 86 64 53 65
REMARK SMILES IDX 37 66 38 67 46 68 39 69 41 70 47 71 40 72 42 73 43 74 44 75
REMARK SMILES IDX 45 76 69 77 70 78 78 79 71 80 73 81 79 82 72 83 74 84 75 85
REMARK SMILES IDX 76 86 77 87 54 88 55 89 63 90 56 91 58 92 64 93 57 94 59 95
REMARK SMILES IDX 60 96 61 97 62 98
REMARK H PARENT 95 30 84 51 52 62
REMARK Flexibility Score: inf
ROOT
ATOM      1  C   UNL A   1      37.023  21.005  24.728  1.00  0.00     0.275 C 
ENDROOT
BRANCH   1   2
ATOM      2  C   UNL A   1      35.551  21.420  24.684  1.00  0.00     0.275 C 
BRANCH   2   3
ATOM      3  O   UNL A   1      35.461  22.719  24.070  1.00  0.00    -0.458 OA
BRANCH   3   4
ATOM      4  C   UNL A   1      35.183  23.778  24.873  1.00  0.00     0.339 C 
ATOM      5  O   UNL A   1      35.996  24.449  25.482  1.00  0.00    -0.246 OA
BRANCH   4   6
ATOM      6  C   UNL A   1      33.752  24.112  24.662  1.00  0.00     0.074 A 
ATOM      7  C   UNL A   1      29.629  24.621  26.170  1.00  0.00     0.014 C 
ATOM      8  C   UNL A   1      30.515  23.597  26.082  1.00  0.00    -0.021 C 
ATOM      9  C   UNL A   1      31.331  23.169  27.308  1.00  0.00     0.042 C 
ATOM     10  C   UNL A   1      31.490  23.612  24.984  1.00  0.00     0.071 A 
ATOM     11  C   UNL A   1      32.807  23.024  26.849  1.00  0.00     0.043 C 
ATOM     12  C   UNL A   1      32.770  23.555  25.460  1.00  0.00    -0.006 A 
ATOM     13  N   UNL A   1      31.130  24.000  23.756  1.00  0.00    -0.248 NA
ATOM     14  C   UNL A   1      32.038  24.699  23.079  1.00  0.00     0.072 A 
ATOM     15  C   UNL A   1      33.345  24.916  23.559  1.00  0.00     0.015 A 
ATOM     16  C   UNL A   1      31.622  25.300  21.905  1.00  0.00     0.029 A 
ATOM     17  C   UNL A   1      34.112  25.931  22.928  1.00  0.00     0.011 A 
ATOM     18  C   UNL A   1      32.401  26.265  21.271  1.00  0.00     0.002 A 
ATOM     19  C   UNL A   1      33.621  26.627  21.822  1.00  0.00     0.001 A 
BRANCH   7  20
ATOM     20  C   UNL A   1      29.933  25.952  25.591  1.00  0.00    -0.020 A 
ATOM     21  C   UNL A   1      29.734  27.570  23.790  1.00  0.00     0.162 A 
ATOM     22  C   UNL A   1      29.257  26.440  24.470  1.00  0.00     0.058 A 
ATOM     23  C   UNL A   1      30.886  28.224  24.243  1.00  0.00     0.172 A 
ATOM     24  C   UNL A   1      31.526  27.782  25.401  1.00  0.00     0.064 A 
ATOM     25  C   UNL A   1      31.034  26.675  26.092  1.00  0.00     0.028 A 
ATOM     26  Br  UNL A   1      33.102  28.615  26.050  1.00  0.00    -0.047 Br
BRANCH  21  27
ATOM     27  O   UNL A   1      28.964  28.021  22.749  1.00  0.00    -0.493 OA
ATOM     28  C   UNL A   1      27.949  28.951  23.118  1.00  0.00     0.278 C 
ENDBRANCH  21  27
BRANCH  23  29
ATOM     29  O   UNL A   1      31.380  29.295  23.554  1.00  0.00    -0.503 OA
ATOM     30  H   UNL A   1      31.261  29.351  22.626  1.00  0.00     0.293 HD
ENDBRANCH  23  29
ENDBRANCH   7  20
ENDBRANCH   4   6
ENDBRANCH   3   4
ENDBRANCH   2   3
ENDBRANCH   1   2
BRANCH   1  31
ATOM     31  O   UNL A   1      37.604  21.435  25.975  1.00  0.00    -0.458 OA
BRANCH  31  32
ATOM     32  C   UNL A   1      38.938  21.245  26.122  1.00  0.00     0.338 C 
ATOM     33  O   UNL A   1      39.581  20.250  25.837  1.00  0.00    -0.246 OA
BRANCH  32  34
ATOM     34  C   UNL A   1      39.532  22.483  26.659  1.00  0.00     0.060 A 
ATOM     35  C   UNL A   1      40.609  22.477  27.542  1.00  0.00     0.016 A 
ATOM     36  C   UNL A   1      39.044  23.691  26.190  1.00  0.00     0.016 A 
ATOM     37  C   UNL A   1      41.164  23.700  27.970  1.00  0.00     0.010 A 
ATOM     38  C   UNL A   1      39.678  24.885  26.520  1.00  0.00     0.010 A 
ATOM     39  C   UNL A   1      40.722  24.930  27.445  1.00  0.00    -0.014 A 
BRANCH  39  40
ATOM     40  C   UNL A   1      41.310  26.261  27.809  1.00  0.00     0.031 A 
ATOM     41  C   UNL A   1      42.734  26.632  27.415  1.00  0.00     0.074 A 
ATOM     42  C   UNL A   1      40.630  27.108  28.612  1.00  0.00     0.049 A 
ATOM     43  N   UNL A   1      43.424  27.705  27.721  1.00  0.00    -0.248 NA
ATOM     44  C   UNL A   1      43.507  25.653  26.627  1.00  0.00     0.031 C 
ATOM     45  C   UNL A   1      39.324  26.840  29.219  1.00  0.00     0.029 A 
ATOM     46  N   UNL A   1      40.953  28.362  29.075  1.00  0.00    -0.354 N 
ATOM     47  C   UNL A   1      44.706  27.501  27.219  1.00  0.00     0.074 A 
ATOM     48  C   UNL A   1      44.725  26.177  26.643  1.00  0.00     0.031 C 
ATOM     49  C   UNL A   1      38.937  27.910  29.930  1.00  0.00     0.029 A 
ATOM     50  C   UNL A   1      39.975  28.935  29.856  1.00  0.00     0.049 A 
ATOM     51  H   UNL A   1      41.805  28.810  28.867  1.00  0.00     0.167 HD
ATOM     52  C   UNL A   1      45.762  28.350  27.178  1.00  0.00     0.034 A 
ATOM     53  C   UNL A   1      39.902  30.150  30.435  1.00  0.00     0.034 A 
ATOM     54  C   UNL A   1      45.719  29.715  27.628  1.00  0.00     0.049 A 
ATOM     55  C   UNL A   1      41.026  31.130  30.258  1.00  0.00     0.074 A 
ATOM     56  C   UNL A   1      46.680  30.699  27.472  1.00  0.00     0.029 A 
ATOM     57  N   UNL A   1      44.657  30.292  28.300  1.00  0.00    -0.354 N 
ATOM     58  N   UNL A   1      42.160  30.971  29.622  1.00  0.00    -0.248 NA
ATOM     59  C   UNL A   1      40.848  32.467  30.846  1.00  0.00     0.031 C 
ATOM     60  C   UNL A   1      46.199  31.875  28.056  1.00  0.00     0.029 A 
ATOM     61  C   UNL A   1      44.938  31.620  28.568  1.00  0.00     0.049 A 
ATOM     62  H   UNL A   1      43.826  29.829  28.550  1.00  0.00     0.167 HD
ATOM     63  C   UNL A   1      42.827  32.186  29.724  1.00  0.00     0.074 A 
ATOM     64  C   UNL A   1      41.959  33.082  30.459  1.00  0.00     0.031 C 
ATOM     65  C   UNL A   1      44.057  32.519  29.265  1.00  0.00     0.034 A 
BRANCH  52  66
ATOM     66  C   UNL A   1      47.031  27.887  26.504  1.00  0.00     0.023 A 
ATOM     67  C   UNL A   1      47.997  27.198  27.267  1.00  0.00     0.012 A 
ATOM     68  C   UNL A   1      47.215  28.018  25.113  1.00  0.00     0.148 A 
ATOM     69  C   UNL A   1      49.134  26.665  26.664  1.00  0.00     0.002 A 
ATOM     70  C   UNL A   1      48.333  27.450  24.512  1.00  0.00     0.091 A 
ATOM     71  F   UNL A   1      46.287  28.680  24.406  1.00  0.00    -0.205 F 
ATOM     72  C   UNL A   1      49.295  26.780  25.286  1.00  0.00     0.022 A 
BRANCH  70  73
ATOM     73  S   UNL A   1      48.614  27.479  22.737  1.00  0.00     0.127 S 
ATOM     74  O   UNL A   1      49.918  28.139  22.657  1.00  0.00    -0.237 OA
ATOM     75  O   UNL A   1      48.631  26.054  22.408  1.00  0.00    -0.237 OA
ATOM     76  O   UNL A   1      47.508  28.231  22.164  1.00  0.00    -0.744 OA
ENDBRANCH  70  73
ENDBRANCH  52  66
BRANCH  53  77
ATOM     77  C   UNL A   1      38.651  30.540  31.142  1.00  0.00     0.023 A 
ATOM     78  C   UNL A   1      38.558  30.316  32.530  1.00  0.00     0.012 A 
ATOM     79  C   UNL A   1      37.603  31.204  30.477  1.00  0.00     0.148 A 
ATOM     80  C   UNL A   1      37.440  30.745  33.245  1.00  0.00     0.002 A 
ATOM     81  C   UNL A   1      36.509  31.662  31.202  1.00  0.00     0.091 A 
ATOM     82  F   UNL A   1      37.718  31.404  29.157  1.00  0.00    -0.205 F 
ATOM     83  C   UNL A   1      36.422  31.426  32.584  1.00  0.00     0.022 A 
BRANCH  81  84
ATOM     84  S   UNL A   1      35.192  32.637  30.466  1.00  0.00     0.127 S 
ATOM     85  O   UNL A   1      34.255  32.761  31.580  1.00  0.00    -0.237 OA
ATOM     86  O   UNL A   1      35.897  33.869  30.113  1.00  0.00    -0.237 OA
ATOM     87  O   UNL A   1      34.713  31.862  29.329  1.00  0.00    -0.744 OA
ENDBRANCH  81  84
ENDBRANCH  53  77
BRANCH  65  88
ATOM     88  C   UNL A   1      44.565  33.906  29.541  1.00  0.00     0.023 A 
ATOM     89  C   UNL A   1      45.210  34.172  30.765  1.00  0.00     0.012 A 
ATOM     90  C   UNL A   1      44.504  34.910  28.555  1.00  0.00     0.148 A 
ATOM     91  C   UNL A   1      45.773  35.422  31.011  1.00  0.00     0.002 A 
ATOM     92  C   UNL A   1      45.097  36.145  28.795  1.00  0.00     0.091 A 
ATOM     93  F   UNL A   1      43.882  34.634  27.400  1.00  0.00    -0.205 F 
ATOM     94  C   UNL A   1      45.726  36.403  30.024  1.00  0.00     0.022 A 
BRANCH  92  95
ATOM     95  S   UNL A   1      45.148  37.451  27.563  1.00  0.00     0.127 S 
ATOM     96  O   UNL A   1      45.942  36.831  26.505  1.00  0.00    -0.237 OA
ATOM     97  O   UNL A   1      43.732  37.628  27.240  1.00  0.00    -0.237 OA
ATOM     98  O   UNL A   1      45.769  38.597  28.214  1.00  0.00    -0.744 OA
ENDBRANCH  92  95
ENDBRANCH  65  88
ENDBRANCH  39  40
ENDBRANCH  32  34
ENDBRANCH  31  32
ENDBRANCH   1  31
TORSDOF 17
ENDMDL
MODEL 3
REMARK VINA RESULT:     -11.9      1.064      7.333
REMARK SMILES COc1cc(/C=C2/CCc3c2nc2ccccc2c3C(=O)OCCOC(=O)c2ccc(-c3c4nc(c(-c5cccc(S(=O)(=O)[O-])c5F)c5ccc([nH]5)c(-c5cccc(S(=O)(=O)[O-])c5F)c5nc(c(-c6cccc(S(=O)(=O)[O-])c6F)c6ccc3[nH]6)C=C5)C=C4)cc2)cc(Br)c1O
REMARK SMILES IDX 24 1 23 2 22 3 20 4 21 5 19 6 6 7 7 8 8 9 11 10 9 11 10 12
REMARK SMILES IDX 12 13 13 14 18 15 14 16 17 17 15 18 16 19 5 20 3 21 4 22
REMARK SMILES IDX 94 23 92 24 91 25 93 26 2 27 1 28 95 29 25 31 26 32 27 33
REMARK SMILES IDX 28 34 29 35 90 36 30 37 89 38 31 39 32 40 33 41 83 42 34 43
REMARK SMILES IDX 88 44 82 45 84 46 35 47 87 48 81 49 80 50 36 52 68 53 48 54
REMARK SMILES IDX 67 55 49 56 52 57 66 58 85 59 50 60 51 61 65 63 86 64 53 65
REMARK SMILES IDX 37 66 38 67 46 68 39 69 41 70 47 71 40 72 42 73 43 74 44 75
REMARK SMILES IDX 45 76 69 77 70 78 78 79 71 80 73 81 79 82 72 83 74 84 75 85
REMARK SMILES IDX 76 86 77 87 54 88 55 89 63 90 56 91 58 92 64 93 57 94 59 95
REMARK SMILES IDX 60 96 61 97 62 98
REMARK H PARENT 95 30 84 51 52 62
REMARK Flexibility Score: inf
ROOT
ATOM      1  C   UNL A   1      32.050  30.134  25.500  1.00  0.00     0.275 C 
ENDROOT
BRANCH   1   2
ATOM      2  C   UNL A   1      31.332  28.785  25.427  1.00  0.00     0.275 C 
BRANCH   2   3
ATOM      3  O   UNL A   1      31.942  27.891  26.377  1.00  0.00    -0.458 OA
BRANCH   3   4
ATOM      4  C   UNL A   1      33.084  27.258  26.004  1.00  0.00     0.339 C 
ATOM      5  O   UNL A   1      34.198  27.471  26.447  1.00  0.00    -0.246 OA
BRANCH   4   6
ATOM      6  C   UNL A   1      32.681  26.106  25.160  1.00  0.00     0.074 A 
ATOM      7  C   UNL A   1      32.820  23.849  21.363  1.00  0.00     0.014 C 
ATOM      8  C   UNL A   1      32.424  25.089  21.745  1.00  0.00    -0.021 C 
ATOM      9  C   UNL A   1      33.334  26.301  21.514  1.00  0.00     0.042 C 
ATOM     10  C   UNL A   1      31.920  25.268  23.113  1.00  0.00     0.071 A 
ATOM     11  C   UNL A   1      33.367  27.110  22.839  1.00  0.00     0.043 C 
ATOM     12  C   UNL A   1      32.637  26.220  23.782  1.00  0.00    -0.006 A 
ATOM     13  N   UNL A   1      31.126  24.350  23.674  1.00  0.00    -0.248 NA
ATOM     14  C   UNL A   1      31.320  24.131  24.972  1.00  0.00     0.072 A 
ATOM     15  C   UNL A   1      32.212  24.898  25.749  1.00  0.00     0.015 A 
ATOM     16  C   UNL A   1      30.675  23.043  25.531  1.00  0.00     0.029 A 
ATOM     17  C   UNL A   1      32.583  24.381  27.018  1.00  0.00     0.011 A 
ATOM     18  C   UNL A   1      31.018  22.568  26.793  1.00  0.00     0.002 A 
ATOM     19  C   UNL A   1      32.021  23.201  27.512  1.00  0.00     0.001 A 
BRANCH   7  20
ATOM     20  C   UNL A   1      33.274  22.847  22.358  1.00  0.00    -0.020 A 
ATOM     21  C   UNL A   1      32.842  20.904  23.750  1.00  0.00     0.162 A 
ATOM     22  C   UNL A   1      32.533  21.695  22.634  1.00  0.00     0.058 A 
ATOM     23  C   UNL A   1      33.907  21.260  24.585  1.00  0.00     0.172 A 
ATOM     24  C   UNL A   1      34.692  22.370  24.277  1.00  0.00     0.064 A 
ATOM     25  C   UNL A   1      34.402  23.140  23.150  1.00  0.00     0.028 A 
ATOM     26  Br  UNL A   1      36.135  22.911  25.384  1.00  0.00    -0.047 Br
BRANCH  21  27
ATOM     27  O   UNL A   1      32.111  19.753  23.898  1.00  0.00    -0.493 OA
ATOM     28  C   UNL A   1      32.543  18.664  23.086  1.00  0.00     0.278 C 
ENDBRANCH  21  27
BRANCH  23  29
ATOM     29  O   UNL A   1      34.178  20.517  25.701  1.00  0.00    -0.503 OA
ATOM     30  H   UNL A   1      34.135  19.582  25.663  1.00  0.00     0.293 HD
ENDBRANCH  23  29
ENDBRANCH   7  20
ENDBRANCH   4   6
ENDBRANCH   3   4
ENDBRANCH   2   3
ENDBRANCH   1   2
BRANCH   1  31
ATOM     31  O   UNL A   1      32.024  30.616  26.858  1.00  0.00    -0.458 OA
BRANCH  31  32
ATOM     32  C   UNL A   1      32.615  31.814  27.088  1.00  0.00     0.338 C 
ATOM     33  O   UNL A   1      32.147  32.921  26.891  1.00  0.00    -0.246 OA
BRANCH  32  34
ATOM     34  C   UNL A   1      33.945  31.575  27.678  1.00  0.00     0.060 A 
ATOM     35  C   UNL A   1      34.834  32.607  27.966  1.00  0.00     0.016 A 
ATOM     36  C   UNL A   1      34.272  30.277  28.032  1.00  0.00     0.016 A 
ATOM     37  C   UNL A   1      36.066  32.312  28.583  1.00  0.00     0.010 A 
ATOM     38  C   UNL A   1      35.433  30.013  28.753  1.00  0.00     0.010 A 
ATOM     39  C   UNL A   1      36.378  31.007  29.011  1.00  0.00    -0.014 A 
BRANCH  39  40
ATOM     40  C   UNL A   1      37.642  30.636  29.729  1.00  0.00     0.031 A 
ATOM     41  C   UNL A   1      38.686  29.736  29.081  1.00  0.00     0.074 A 
ATOM     42  C   UNL A   1      37.818  30.988  31.021  1.00  0.00     0.049 A 
ATOM     43  N   UNL A   1      39.793  29.251  29.593  1.00  0.00    -0.248 NA
ATOM     44  C   UNL A   1      38.433  29.270  27.705  1.00  0.00     0.031 C 
ATOM     45  C   UNL A   1      36.844  31.705  31.847  1.00  0.00     0.029 A 
ATOM     46  N   UNL A   1      38.872  30.770  31.877  1.00  0.00    -0.354 N 
ATOM     47  C   UNL A   1      40.323  28.392  28.634  1.00  0.00     0.074 A 
ATOM     48  C   UNL A   1      39.390  28.368  27.533  1.00  0.00     0.031 C 
ATOM     49  C   UNL A   1      37.363  31.910  33.068  1.00  0.00     0.029 A 
ATOM     50  C   UNL A   1      38.697  31.318  33.127  1.00  0.00     0.049 A 
ATOM     51  H   UNL A   1      39.680  30.268  31.619  1.00  0.00     0.167 HD
ATOM     52  C   UNL A   1      41.504  27.728  28.629  1.00  0.00     0.034 A 
ATOM     53  C   UNL A   1      39.513  31.362  34.199  1.00  0.00     0.034 A 
ATOM     54  C   UNL A   1      42.501  27.846  29.658  1.00  0.00     0.049 A 
ATOM     55  C   UNL A   1      40.878  30.739  34.123  1.00  0.00     0.074 A 
ATOM     56  C   UNL A   1      43.793  27.350  29.660  1.00  0.00     0.029 A 
ATOM     57  N   UNL A   1      42.328  28.520  30.853  1.00  0.00    -0.354 N 
ATOM     58  N   UNL A   1      41.425  30.082  33.131  1.00  0.00    -0.248 NA
ATOM     59  C   UNL A   1      41.750  30.893  35.298  1.00  0.00     0.031 C 
ATOM     60  C   UNL A   1      44.402  27.721  30.862  1.00  0.00     0.029 A 
ATOM     61  C   UNL A   1      43.489  28.453  31.602  1.00  0.00     0.049 A 
ATOM     62  H   UNL A   1      41.503  28.980  31.130  1.00  0.00     0.167 HD
ATOM     63  C   UNL A   1      42.707  29.752  33.556  1.00  0.00     0.074 A 
ATOM     64  C   UNL A   1      42.866  30.305  34.884  1.00  0.00     0.031 C 
ATOM     65  C   UNL A   1      43.657  29.037  32.906  1.00  0.00     0.034 A 
BRANCH  52  66
ATOM     66  C   UNL A   1      41.863  26.909  27.414  1.00  0.00     0.023 A 
ATOM     67  C   UNL A   1      42.467  27.550  26.312  1.00  0.00     0.012 A 
ATOM     68  C   UNL A   1      41.724  25.506  27.405  1.00  0.00     0.148 A 
ATOM     69  C   UNL A   1      42.907  26.815  25.213  1.00  0.00     0.002 A 
ATOM     70  C   UNL A   1      42.200  24.775  26.321  1.00  0.00     0.091 A 
ATOM     71  F   UNL A   1      41.144  24.916  28.460  1.00  0.00    -0.205 F 
ATOM     72  C   UNL A   1      42.785  25.429  25.224  1.00  0.00     0.022 A 
BRANCH  70  73
ATOM     73  S   UNL A   1      42.156  22.980  26.253  1.00  0.00     0.127 S 
ATOM     74  O   UNL A   1      42.742  22.722  24.937  1.00  0.00    -0.237 OA
ATOM     75  O   UNL A   1      43.008  22.612  27.383  1.00  0.00    -0.237 OA
ATOM     76  O   UNL A   1      40.756  22.604  26.387  1.00  0.00    -0.744 OA
ENDBRANCH  70  73
ENDBRANCH  52  66
BRANCH  53  77
ATOM     77  C   UNL A   1      39.089  32.133  35.401  1.00  0.00     0.023 A 
ATOM     78  C   UNL A   1      39.249  33.532  35.398  1.00  0.00     0.012 A 
ATOM     79  C   UNL A   1      38.457  31.511  36.493  1.00  0.00     0.148 A 
ATOM     80  C   UNL A   1      38.788  34.301  36.466  1.00  0.00     0.002 A 
ATOM     81  C   UNL A   1      37.966  32.287  37.536  1.00  0.00     0.091 A 
ATOM     82  F   UNL A   1      38.318  30.178  36.468  1.00  0.00    -0.205 F 
ATOM     83  C   UNL A   1      38.138  33.681  37.529  1.00  0.00     0.022 A 
BRANCH  81  84
ATOM     84  S   UNL A   1      37.026  31.597  38.903  1.00  0.00     0.127 S 
ATOM     85  O   UNL A   1      37.963  31.745  40.014  1.00  0.00    -0.237 OA
ATOM     86  O   UNL A   1      35.869  32.492  38.949  1.00  0.00    -0.237 OA
ATOM     87  O   UNL A   1      36.720  30.226  38.522  1.00  0.00    -0.744 OA
ENDBRANCH  81  84
ENDBRANCH  53  77
BRANCH  65  88
ATOM     88  C   UNL A   1      44.962  28.790  33.610  1.00  0.00     0.023 A 
ATOM     89  C   UNL A   1      45.992  29.744  33.500  1.00  0.00     0.012 A 
ATOM     90  C   UNL A   1      45.130  27.681  34.460  1.00  0.00     0.148 A 
ATOM     91  C   UNL A   1      47.178  29.590  34.215  1.00  0.00     0.002 A 
ATOM     92  C   UNL A   1      46.302  27.550  35.196  1.00  0.00     0.091 A 
ATOM     93  F   UNL A   1      44.136  26.785  34.545  1.00  0.00    -0.205 F 
ATOM     94  C   UNL A   1      47.329  28.501  35.070  1.00  0.00     0.022 A 
BRANCH  92  95
ATOM     95  S   UNL A   1      46.566  26.218  36.372  1.00  0.00     0.127 S 
ATOM     96  O   UNL A   1      46.814  26.958  37.608  1.00  0.00    -0.237 OA
ATOM     97  O   UNL A   1      45.286  25.511  36.331  1.00  0.00    -0.237 OA
ATOM     98  O   UNL A   1      47.699  25.452  35.869  1.00  0.00    -0.744 OA
ENDBRANCH  92  95
ENDBRANCH  65  88
ENDBRANCH  39  40
ENDBRANCH  32  34
ENDBRANCH  31  32
ENDBRANCH   1  31
TORSDOF 17
ENDMDL
