MODEL 1
REMARK VINA RESULT:     -12.5      0.000      0.000
REMARK SMILES CC(C)n1c2c(c3ccccc31)[C@@H](c1ccccc1)N(CC(=O)OCCOC(=O)c1ccc(-c3c4nc(c(-c5cccc(S(=O)(=O)[O-])c5F)c5ccc([nH]5)c(-c5cccc(S(=O)(=O)[O-])c5F)c5nc(c(-c6cccc(S(=O)(=O)[O-])c6F)c6ccc3[nH]6)C=C5)C=C4)cc1)C2=O
REMARK SMILES IDX 26 1 25 2 24 3 22 4 23 5 21 6 20 7 4 8 5 9 12 10 6 11 93 12
REMARK SMILES IDX 7 13 11 14 13 15 94 16 8 17 10 18 9 19 2 20 1 21 3 22 14 23
REMARK SMILES IDX 15 24 19 25 16 26 18 27 17 28 27 29 28 30 29 31 30 32 31 33
REMARK SMILES IDX 92 34 32 35 91 36 33 37 34 38 35 39 85 40 36 41 90 42 84 43
REMARK SMILES IDX 86 44 37 45 89 46 83 47 82 48 38 50 70 51 50 52 69 53 51 54
REMARK SMILES IDX 54 55 68 56 87 57 52 58 53 59 67 61 88 62 55 63 39 64 40 65
REMARK SMILES IDX 48 66 41 67 43 68 49 69 42 70 44 71 45 72 46 73 47 74 71 75
REMARK SMILES IDX 72 76 80 77 73 78 75 79 81 80 74 81 76 82 77 83 78 84 79 85
REMARK SMILES IDX 56 86 57 87 65 88 58 89 60 90 66 91 59 92 61 93 62 94 63 95
REMARK SMILES IDX 64 96
REMARK H PARENT 86 49 54 60
REMARK Flexibility Score: inf
ROOT
ATOM      1  C   UNL A   1      34.706  33.694  28.512  1.00  0.00     0.275 C 
ENDROOT
BRANCH   1   2
ATOM      2  C   UNL A   1      34.756  32.417  27.659  1.00  0.00     0.274 C 
BRANCH   2   3
ATOM      3  O   UNL A   1      33.712  31.480  28.047  1.00  0.00    -0.461 OA
BRANCH   3   4
ATOM      4  C   UNL A   1      33.459  30.458  27.178  1.00  0.00     0.325 C 
ATOM      5  O   UNL A   1      34.332  29.731  26.714  1.00  0.00    -0.250 OA
BRANCH   4   6
ATOM      6  C   UNL A   1      31.959  30.225  26.878  1.00  0.00     0.243 C 
BRANCH   6   7
ATOM      7  N   UNL A   1      31.523  29.140  26.015  1.00  0.00    -0.315 N 
ATOM      8  N   UNL A   1      31.892  25.678  25.315  1.00  0.00    -0.334 N 
ATOM      9  C   UNL A   1      31.658  27.004  25.487  1.00  0.00     0.114 A 
ATOM     10  C   UNL A   1      32.214  25.495  23.969  1.00  0.00     0.049 A 
ATOM     11  C   UNL A   1      31.757  27.683  24.310  1.00  0.00     0.018 A 
ATOM     12  C   UNL A   1      31.459  27.874  26.584  1.00  0.00     0.272 C 
ATOM     13  C   UNL A   1      32.151  26.762  23.331  1.00  0.00     0.006 A 
ATOM     14  C   UNL A   1      32.565  24.357  23.223  1.00  0.00     0.027 A 
ATOM     15  C   UNL A   1      31.488  29.140  24.510  1.00  0.00     0.150 C 
ATOM     16  O   UNL A   1      31.401  27.584  27.770  1.00  0.00    -0.267 OA
ATOM     17  C   UNL A   1      32.452  26.877  21.961  1.00  0.00     0.011 A 
ATOM     18  C   UNL A   1      32.848  24.497  21.860  1.00  0.00     0.002 A 
ATOM     19  C   UNL A   1      32.798  25.737  21.235  1.00  0.00     0.001 A 
BRANCH   8  20
ATOM     20  C   UNL A   1      31.799  24.745  26.438  1.00  0.00     0.082 C 
ATOM     21  C   UNL A   1      30.548  23.874  26.497  1.00  0.00     0.031 C 
ATOM     22  C   UNL A   1      33.046  23.859  26.555  1.00  0.00     0.031 C 
ENDBRANCH   8  20
BRANCH  15  23
ATOM     23  C   UNL A   1      30.121  29.468  23.865  1.00  0.00    -0.021 A 
ATOM     24  C   UNL A   1      29.614  30.781  23.883  1.00  0.00     0.006 A 
ATOM     25  C   UNL A   1      29.309  28.542  23.180  1.00  0.00     0.006 A 
ATOM     26  C   UNL A   1      28.412  31.165  23.271  1.00  0.00     0.000 A 
ATOM     27  C   UNL A   1      28.106  28.915  22.553  1.00  0.00     0.000 A 
ATOM     28  C   UNL A   1      27.655  30.226  22.600  1.00  0.00     0.000 A 
ENDBRANCH  15  23
ENDBRANCH   6   7
ENDBRANCH   4   6
ENDBRANCH   3   4
ENDBRANCH   2   3
ENDBRANCH   1   2
BRANCH   1  29
ATOM     29  O   UNL A   1      35.982  33.885  29.147  1.00  0.00    -0.458 OA
BRANCH  29  30
ATOM     30  C   UNL A   1      36.058  33.443  30.424  1.00  0.00     0.338 C 
ATOM     31  O   UNL A   1      35.170  33.450  31.259  1.00  0.00    -0.246 OA
BRANCH  30  32
ATOM     32  C   UNL A   1      37.202  32.518  30.440  1.00  0.00     0.060 A 
ATOM     33  C   UNL A   1      38.537  32.873  30.425  1.00  0.00     0.016 A 
ATOM     34  C   UNL A   1      36.842  31.188  30.280  1.00  0.00     0.016 A 
ATOM     35  C   UNL A   1      39.479  31.879  30.134  1.00  0.00     0.010 A 
ATOM     36  C   UNL A   1      37.770  30.190  30.041  1.00  0.00     0.010 A 
ATOM     37  C   UNL A   1      39.084  30.548  29.868  1.00  0.00    -0.014 A 
BRANCH  37  38
ATOM     38  C   UNL A   1      40.068  29.481  29.708  1.00  0.00     0.031 A 
ATOM     39  C   UNL A   1      40.601  29.096  31.030  1.00  0.00     0.074 A 
ATOM     40  C   UNL A   1      40.463  28.821  28.596  1.00  0.00     0.049 A 
ATOM     41  N   UNL A   1      41.616  29.664  31.585  1.00  0.00    -0.248 NA
ATOM     42  C   UNL A   1      39.825  28.230  31.925  1.00  0.00     0.031 C 
ATOM     43  C   UNL A   1      39.904  28.814  27.242  1.00  0.00     0.029 A 
ATOM     44  N   UNL A   1      41.514  27.951  28.481  1.00  0.00    -0.354 N 
ATOM     45  C   UNL A   1      41.776  29.029  32.800  1.00  0.00     0.074 A 
ATOM     46  C   UNL A   1      40.542  28.325  33.050  1.00  0.00     0.031 C 
ATOM     47  C   UNL A   1      40.509  27.844  26.502  1.00  0.00     0.029 A 
ATOM     48  C   UNL A   1      41.607  27.274  27.265  1.00  0.00     0.049 A 
ATOM     49  H   UNL A   1      42.161  27.813  29.209  1.00  0.00     0.167 HD
ATOM     50  C   UNL A   1      43.014  28.937  33.348  1.00  0.00     0.034 A 
ATOM     51  C   UNL A   1      42.548  26.348  26.923  1.00  0.00     0.034 A 
ATOM     52  C   UNL A   1      43.959  29.789  32.659  1.00  0.00     0.049 A 
ATOM     53  C   UNL A   1      43.738  26.655  27.749  1.00  0.00     0.074 A 
ATOM     54  C   UNL A   1      44.051  31.143  32.403  1.00  0.00     0.029 A 
ATOM     55  N   UNL A   1      44.761  29.170  31.730  1.00  0.00    -0.354 N 
ATOM     56  N   UNL A   1      44.443  27.742  27.618  1.00  0.00    -0.248 NA
ATOM     57  C   UNL A   1      43.896  25.940  29.003  1.00  0.00     0.031 C 
ATOM     58  C   UNL A   1      44.532  31.235  31.063  1.00  0.00     0.029 A 
ATOM     59  C   UNL A   1      44.773  29.941  30.598  1.00  0.00     0.049 A 
ATOM     60  H   UNL A   1      45.245  28.321  31.856  1.00  0.00     0.167 HD
ATOM     61  C   UNL A   1      44.746  28.100  28.922  1.00  0.00     0.074 A 
ATOM     62  C   UNL A   1      44.466  26.909  29.723  1.00  0.00     0.031 C 
ATOM     63  C   UNL A   1      44.919  29.407  29.264  1.00  0.00     0.034 A 
BRANCH  50  64
ATOM     64  C   UNL A   1      43.480  27.798  34.207  1.00  0.00     0.023 A 
ATOM     65  C   UNL A   1      44.123  28.130  35.418  1.00  0.00     0.012 A 
ATOM     66  C   UNL A   1      43.583  26.461  33.760  1.00  0.00     0.148 A 
ATOM     67  C   UNL A   1      44.868  27.186  36.129  1.00  0.00     0.002 A 
ATOM     68  C   UNL A   1      44.270  25.512  34.504  1.00  0.00     0.091 A 
ATOM     69  F   UNL A   1      43.136  26.127  32.547  1.00  0.00    -0.205 F 
ATOM     70  C   UNL A   1      44.935  25.875  35.676  1.00  0.00     0.022 A 
BRANCH  68  71
ATOM     71  S   UNL A   1      44.393  23.802  33.967  1.00  0.00     0.127 S 
ATOM     72  O   UNL A   1      44.922  23.961  32.616  1.00  0.00    -0.237 OA
ATOM     73  O   UNL A   1      45.334  23.254  34.944  1.00  0.00    -0.237 OA
ATOM     74  O   UNL A   1      43.044  23.262  34.065  1.00  0.00    -0.744 OA
ENDBRANCH  68  71
ENDBRANCH  50  64
BRANCH  51  75
ATOM     75  C   UNL A   1      42.473  25.050  26.191  1.00  0.00     0.023 A 
ATOM     76  C   UNL A   1      43.567  24.656  25.376  1.00  0.00     0.012 A 
ATOM     77  C   UNL A   1      41.544  24.056  26.557  1.00  0.00     0.148 A 
ATOM     78  C   UNL A   1      43.775  23.316  25.020  1.00  0.00     0.002 A 
ATOM     79  C   UNL A   1      41.753  22.723  26.195  1.00  0.00     0.091 A 
ATOM     80  F   UNL A   1      40.511  24.400  27.336  1.00  0.00    -0.205 F 
ATOM     81  C   UNL A   1      42.879  22.346  25.448  1.00  0.00     0.022 A 
BRANCH  79  82
ATOM     82  S   UNL A   1      40.648  21.403  26.716  1.00  0.00     0.127 S 
ATOM     83  O   UNL A   1      41.255  20.229  26.086  1.00  0.00    -0.237 OA
ATOM     84  O   UNL A   1      40.778  21.452  28.169  1.00  0.00    -0.237 OA
ATOM     85  O   UNL A   1      39.338  21.757  26.185  1.00  0.00    -0.744 OA
ENDBRANCH  79  82
ENDBRANCH  51  75
BRANCH  63  86
ATOM     86  C   UNL A   1      45.062  30.418  28.159  1.00  0.00     0.023 A 
ATOM     87  C   UNL A   1      43.956  31.028  27.529  1.00  0.00     0.012 A 
ATOM     88  C   UNL A   1      46.352  30.910  27.907  1.00  0.00     0.148 A 
ATOM     89  C   UNL A   1      44.140  32.122  26.677  1.00  0.00     0.002 A 
ATOM     90  C   UNL A   1      46.527  32.019  27.092  1.00  0.00     0.091 A 
ATOM     91  F   UNL A   1      47.383  30.309  28.520  1.00  0.00    -0.205 F 
ATOM     92  C   UNL A   1      45.424  32.630  26.474  1.00  0.00     0.022 A 
BRANCH  90  93
ATOM     93  S   UNL A   1      48.135  32.782  26.875  1.00  0.00     0.127 S 
ATOM     94  O   UNL A   1      47.869  33.763  25.824  1.00  0.00    -0.237 OA
ATOM     95  O   UNL A   1      48.384  33.354  28.199  1.00  0.00    -0.237 OA
ATOM     96  O   UNL A   1      49.050  31.711  26.501  1.00  0.00    -0.744 OA
ENDBRANCH  90  93
ENDBRANCH  63  86
ENDBRANCH  37  38
ENDBRANCH  30  32
ENDBRANCH  29  30
ENDBRANCH   1  29
TORSDOF 17
ENDMDL
MODEL 2
REMARK VINA RESULT:     -12.4      3.411      6.296
REMARK SMILES CC(C)n1c2c(c3ccccc31)[C@@H](c1ccccc1)N(CC(=O)OCCOC(=O)c1ccc(-c3c4nc(c(-c5cccc(S(=O)(=O)[O-])c5F)c5ccc([nH]5)c(-c5cccc(S(=O)(=O)[O-])c5F)c5nc(c(-c6cccc(S(=O)(=O)[O-])c6F)c6ccc3[nH]6)C=C5)C=C4)cc1)C2=O
REMARK SMILES IDX 26 1 25 2 24 3 22 4 23 5 21 6 20 7 4 8 5 9 12 10 6 11 93 12
REMARK SMILES IDX 7 13 11 14 13 15 94 16 8 17 10 18 9 19 2 20 1 21 3 22 14 23
REMARK SMILES IDX 15 24 19 25 16 26 18 27 17 28 27 29 28 30 29 31 30 32 31 33
REMARK SMILES IDX 92 34 32 35 91 36 33 37 34 38 35 39 85 40 36 41 90 42 84 43
REMARK SMILES IDX 86 44 37 45 89 46 83 47 82 48 38 50 70 51 50 52 69 53 51 54
REMARK SMILES IDX 54 55 68 56 87 57 52 58 53 59 67 61 88 62 55 63 39 64 40 65
REMARK SMILES IDX 48 66 41 67 43 68 49 69 42 70 44 71 45 72 46 73 47 74 71 75
REMARK SMILES IDX 72 76 80 77 73 78 75 79 81 80 74 81 76 82 77 83 78 84 79 85
REMARK SMILES IDX 56 86 57 87 65 88 58 89 60 90 66 91 59 92 61 93 62 94 63 95
REMARK SMILES IDX 64 96
REMARK H PARENT 86 49 54 60
REMARK Flexibility Score: inf
ROOT
ATOM      1  C   UNL A   1      36.621  31.928  28.303  1.00  0.00     0.275 C 
ENDROOT
BRANCH   1   2
ATOM      2  C   UNL A   1      35.201  31.548  28.749  1.00  0.00     0.274 C 
BRANCH   2   3
ATOM      3  O   UNL A   1      34.293  31.465  27.615  1.00  0.00    -0.461 OA
BRANCH   3   4
ATOM      4  C   UNL A   1      33.827  30.221  27.298  1.00  0.00     0.325 C 
ATOM      5  O   UNL A   1      34.520  29.209  27.337  1.00  0.00    -0.250 OA
BRANCH   4   6
ATOM      6  C   UNL A   1      32.320  30.166  26.958  1.00  0.00     0.243 C 
BRANCH   6   7
ATOM      7  N   UNL A   1      31.779  29.126  26.098  1.00  0.00    -0.315 N 
ATOM      8  N   UNL A   1      31.845  25.651  25.373  1.00  0.00    -0.334 N 
ATOM      9  C   UNL A   1      31.726  26.990  25.557  1.00  0.00     0.114 A 
ATOM     10  C   UNL A   1      32.125  25.451  24.021  1.00  0.00     0.049 A 
ATOM     11  C   UNL A   1      31.859  27.667  24.382  1.00  0.00     0.018 A 
ATOM     12  C   UNL A   1      31.620  27.866  26.662  1.00  0.00     0.272 C 
ATOM     13  C   UNL A   1      32.156  26.722  23.391  1.00  0.00     0.006 A 
ATOM     14  C   UNL A   1      32.367  24.292  23.263  1.00  0.00     0.027 A 
ATOM     15  C   UNL A   1      31.716  29.139  24.594  1.00  0.00     0.150 C 
ATOM     16  O   UNL A   1      31.561  27.574  27.847  1.00  0.00    -0.267 OA
ATOM     17  C   UNL A   1      32.440  26.821  22.015  1.00  0.00     0.011 A 
ATOM     18  C   UNL A   1      32.635  24.417  21.895  1.00  0.00     0.002 A 
ATOM     19  C   UNL A   1      32.677  25.661  21.278  1.00  0.00     0.001 A 
BRANCH   8  20
ATOM     20  C   UNL A   1      31.696  24.721  26.493  1.00  0.00     0.082 C 
ATOM     21  C   UNL A   1      30.463  23.824  26.473  1.00  0.00     0.031 C 
ATOM     22  C   UNL A   1      32.951  23.863  26.701  1.00  0.00     0.031 C 
ENDBRANCH   8  20
BRANCH  15  23
ATOM     23  C   UNL A   1      30.368  29.584  23.977  1.00  0.00    -0.021 A 
ATOM     24  C   UNL A   1      29.884  30.891  24.175  1.00  0.00     0.006 A 
ATOM     25  C   UNL A   1      29.556  28.782  23.149  1.00  0.00     0.006 A 
ATOM     26  C   UNL A   1      28.703  31.383  23.602  1.00  0.00     0.000 A 
ATOM     27  C   UNL A   1      28.373  29.266  22.560  1.00  0.00     0.000 A 
ATOM     28  C   UNL A   1      27.944  30.566  22.787  1.00  0.00     0.000 A 
ENDBRANCH  15  23
ENDBRANCH   6   7
ENDBRANCH   4   6
ENDBRANCH   3   4
ENDBRANCH   2   3
ENDBRANCH   1   2
BRANCH   1  29
ATOM     29  O   UNL A   1      37.377  30.728  28.069  1.00  0.00    -0.458 OA
BRANCH  29  30
ATOM     30  C   UNL A   1      38.194  30.360  29.083  1.00  0.00     0.338 C 
ATOM     31  O   UNL A   1      37.881  30.154  30.244  1.00  0.00    -0.246 OA
BRANCH  30  32
ATOM     32  C   UNL A   1      39.373  29.773  28.429  1.00  0.00     0.060 A 
ATOM     33  C   UNL A   1      39.483  29.442  27.091  1.00  0.00     0.016 A 
ATOM     34  C   UNL A   1      40.363  29.380  29.317  1.00  0.00     0.016 A 
ATOM     35  C   UNL A   1      40.546  28.618  26.702  1.00  0.00     0.010 A 
ATOM     36  C   UNL A   1      41.444  28.608  28.932  1.00  0.00     0.010 A 
ATOM     37  C   UNL A   1      41.487  28.140  27.642  1.00  0.00    -0.014 A 
BRANCH  37  38
ATOM     38  C   UNL A   1      42.675  27.403  27.220  1.00  0.00     0.031 A 
ATOM     39  C   UNL A   1      42.325  25.987  26.990  1.00  0.00     0.074 A 
ATOM     40  C   UNL A   1      43.930  27.842  26.975  1.00  0.00     0.049 A 
ATOM     41  N   UNL A   1      42.348  25.086  27.911  1.00  0.00    -0.248 NA
ATOM     42  C   UNL A   1      41.645  25.576  25.756  1.00  0.00     0.031 C 
ATOM     43  C   UNL A   1      44.458  29.204  26.856  1.00  0.00     0.029 A 
ATOM     44  N   UNL A   1      45.044  27.078  26.750  1.00  0.00    -0.354 N 
ATOM     45  C   UNL A   1      41.945  23.918  27.296  1.00  0.00     0.074 A 
ATOM     46  C   UNL A   1      41.324  24.313  26.055  1.00  0.00     0.031 C 
ATOM     47  C   UNL A   1      45.740  29.159  26.401  1.00  0.00     0.029 A 
ATOM     48  C   UNL A   1      46.185  27.775  26.354  1.00  0.00     0.049 A 
ATOM     49  H   UNL A   1      45.039  26.101  26.859  1.00  0.00     0.167 HD
ATOM     50  C   UNL A   1      42.404  22.727  27.756  1.00  0.00     0.034 A 
ATOM     51  C   UNL A   1      47.400  27.236  26.054  1.00  0.00     0.034 A 
ATOM     52  C   UNL A   1      43.062  22.876  29.036  1.00  0.00     0.049 A 
ATOM     53  C   UNL A   1      47.475  25.961  26.802  1.00  0.00     0.074 A 
ATOM     54  C   UNL A   1      42.688  23.339  30.282  1.00  0.00     0.029 A 
ATOM     55  N   UNL A   1      44.435  22.938  29.003  1.00  0.00    -0.354 N 
ATOM     56  N   UNL A   1      47.519  25.892  28.101  1.00  0.00    -0.248 NA
ATOM     57  C   UNL A   1      47.079  24.746  26.112  1.00  0.00     0.031 C 
ATOM     58  C   UNL A   1      43.812  24.079  30.755  1.00  0.00     0.029 A 
ATOM     59  C   UNL A   1      44.832  23.971  29.810  1.00  0.00     0.049 A 
ATOM     60  H   UNL A   1      45.030  22.344  28.490  1.00  0.00     0.167 HD
ATOM     61  C   UNL A   1      46.710  24.809  28.404  1.00  0.00     0.074 A 
ATOM     62  C   UNL A   1      46.544  24.089  27.142  1.00  0.00     0.031 C 
ATOM     63  C   UNL A   1      46.020  24.761  29.578  1.00  0.00     0.034 A 
BRANCH  50  64
ATOM     64  C   UNL A   1      42.643  21.520  26.897  1.00  0.00     0.023 A 
ATOM     65  C   UNL A   1      41.968  20.334  27.255  1.00  0.00     0.012 A 
ATOM     66  C   UNL A   1      43.695  21.412  25.960  1.00  0.00     0.148 A 
ATOM     67  C   UNL A   1      42.349  19.095  26.737  1.00  0.00     0.002 A 
ATOM     68  C   UNL A   1      44.027  20.188  25.399  1.00  0.00     0.091 A 
ATOM     69  F   UNL A   1      44.473  22.468  25.705  1.00  0.00    -0.205 F 
ATOM     70  C   UNL A   1      43.374  19.021  25.803  1.00  0.00     0.022 A 
BRANCH  68  71
ATOM     71  S   UNL A   1      45.346  20.031  24.188  1.00  0.00     0.127 S 
ATOM     72  O   UNL A   1      44.610  19.557  23.020  1.00  0.00    -0.237 OA
ATOM     73  O   UNL A   1      45.832  21.408  24.103  1.00  0.00    -0.237 OA
ATOM     74  O   UNL A   1      46.300  19.093  24.766  1.00  0.00    -0.744 OA
ENDBRANCH  68  71
ENDBRANCH  50  64
BRANCH  51  75
ATOM     75  C   UNL A   1      48.399  27.522  24.981  1.00  0.00     0.023 A 
ATOM     76  C   UNL A   1      49.781  27.362  25.268  1.00  0.00     0.012 A 
ATOM     77  C   UNL A   1      48.020  27.585  23.626  1.00  0.00     0.148 A 
ATOM     78  C   UNL A   1      50.727  27.181  24.250  1.00  0.00     0.002 A 
ATOM     79  C   UNL A   1      48.968  27.409  22.616  1.00  0.00     0.091 A 
ATOM     80  F   UNL A   1      46.721  27.721  23.330  1.00  0.00    -0.205 F 
ATOM     81  C   UNL A   1      50.318  27.184  22.924  1.00  0.00     0.022 A 
BRANCH  79  82
ATOM     82  S   UNL A   1      48.521  27.387  20.874  1.00  0.00     0.127 S 
ATOM     83  O   UNL A   1      47.212  28.041  20.886  1.00  0.00    -0.237 OA
ATOM     84  O   UNL A   1      49.593  28.177  20.274  1.00  0.00    -0.237 OA
ATOM     85  O   UNL A   1      48.485  25.980  20.496  1.00  0.00    -0.744 OA
ENDBRANCH  79  82
ENDBRANCH  51  75
BRANCH  63  86
ATOM     86  C   UNL A   1      46.376  25.750  30.653  1.00  0.00     0.023 A 
ATOM     87  C   UNL A   1      47.448  25.554  31.551  1.00  0.00     0.012 A 
ATOM     88  C   UNL A   1      45.736  26.998  30.611  1.00  0.00     0.148 A 
ATOM     89  C   UNL A   1      47.882  26.598  32.375  1.00  0.00     0.002 A 
ATOM     90  C   UNL A   1      46.194  28.043  31.402  1.00  0.00     0.091 A 
ATOM     91  F   UNL A   1      44.721  27.153  29.748  1.00  0.00    -0.205 F 
ATOM     92  C   UNL A   1      47.267  27.848  32.287  1.00  0.00     0.022 A 
BRANCH  90  93
ATOM     93  S   UNL A   1      45.518  29.697  31.259  1.00  0.00     0.127 S 
ATOM     94  O   UNL A   1      44.245  29.451  30.585  1.00  0.00    -0.237 OA
ATOM     95  O   UNL A   1      45.401  30.102  32.661  1.00  0.00    -0.237 OA
ATOM     96  O   UNL A   1      46.485  30.470  30.489  1.00  0.00    -0.744 OA
ENDBRANCH  90  93
ENDBRANCH  63  86
ENDBRANCH  37  38
ENDBRANCH  30  32
ENDBRANCH  29  30
ENDBRANCH   1  29
TORSDOF 17
ENDMDL
MODEL 3
REMARK VINA RESULT:     -12.2      4.748     10.082
REMARK SMILES CC(C)n1c2c(c3ccccc31)[C@@H](c1ccccc1)N(CC(=O)OCCOC(=O)c1ccc(-c3c4nc(c(-c5cccc(S(=O)(=O)[O-])c5F)c5ccc([nH]5)c(-c5cccc(S(=O)(=O)[O-])c5F)c5nc(c(-c6cccc(S(=O)(=O)[O-])c6F)c6ccc3[nH]6)C=C5)C=C4)cc1)C2=O
REMARK SMILES IDX 26 1 25 2 24 3 22 4 23 5 21 6 20 7 4 8 5 9 12 10 6 11 93 12
REMARK SMILES IDX 7 13 11 14 13 15 94 16 8 17 10 18 9 19 2 20 1 21 3 22 14 23
REMARK SMILES IDX 15 24 19 25 16 26 18 27 17 28 27 29 28 30 29 31 30 32 31 33
REMARK SMILES IDX 92 34 32 35 91 36 33 37 34 38 35 39 85 40 36 41 90 42 84 43
REMARK SMILES IDX 86 44 37 45 89 46 83 47 82 48 38 50 70 51 50 52 69 53 51 54
REMARK SMILES IDX 54 55 68 56 87 57 52 58 53 59 67 61 88 62 55 63 39 64 40 65
REMARK SMILES IDX 48 66 41 67 43 68 49 69 42 70 44 71 45 72 46 73 47 74 71 75
REMARK SMILES IDX 72 76 80 77 73 78 75 79 81 80 74 81 76 82 77 83 78 84 79 85
REMARK SMILES IDX 56 86 57 87 65 88 58 89 60 90 66 91 59 92 61 93 62 94 63 95
REMARK SMILES IDX 64 96
REMARK H PARENT 86 49 54 60
REMARK Flexibility Score: inf
ROOT
ATOM      1  C   UNL A   1      39.739  24.281  26.699  1.00  0.00     0.275 C 
ENDROOT
BRANCH   1   2
ATOM      2  C   UNL A   1      38.675  23.179  26.804  1.00  0.00     0.274 C 
BRANCH   2   3
ATOM      3  O   UNL A   1      38.787  22.227  25.709  1.00  0.00    -0.461 OA
BRANCH   3   4
ATOM      4  C   UNL A   1      37.632  21.613  25.315  1.00  0.00     0.325 C 
ATOM      5  O   UNL A   1      37.560  20.864  24.346  1.00  0.00    -0.250 OA
BRANCH   4   6
ATOM      6  C   UNL A   1      36.421  21.869  26.242  1.00  0.00     0.243 C 
BRANCH   6   7
ATOM      7  N   UNL A   1      35.140  22.300  25.705  1.00  0.00    -0.315 N 
ATOM      8  N   UNL A   1      32.973  25.081  25.282  1.00  0.00    -0.334 N 
ATOM      9  C   UNL A   1      33.713  23.948  25.374  1.00  0.00     0.114 A 
ATOM     10  C   UNL A   1      31.707  24.782  25.788  1.00  0.00     0.049 A 
ATOM     11  C   UNL A   1      32.975  22.911  25.863  1.00  0.00     0.018 A 
ATOM     12  C   UNL A   1      35.073  23.596  25.209  1.00  0.00     0.272 C 
ATOM     13  C   UNL A   1      31.707  23.416  26.177  1.00  0.00     0.006 A 
ATOM     14  C   UNL A   1      30.547  25.555  25.962  1.00  0.00     0.027 A 
ATOM     15  C   UNL A   1      33.797  21.665  25.951  1.00  0.00     0.150 C 
ATOM     16  O   UNL A   1      35.996  24.317  24.859  1.00  0.00    -0.267 OA
ATOM     17  C   UNL A   1      30.553  22.845  26.747  1.00  0.00     0.011 A 
ATOM     18  C   UNL A   1      29.410  24.960  26.520  1.00  0.00     0.002 A 
ATOM     19  C   UNL A   1      29.410  23.627  26.912  1.00  0.00     0.001 A 
BRANCH   8  20
ATOM     20  C   UNL A   1      33.548  26.314  24.742  1.00  0.00     0.082 C 
ATOM     21  C   UNL A   1      32.799  26.964  23.584  1.00  0.00     0.031 C 
ATOM     22  C   UNL A   1      33.804  27.357  25.837  1.00  0.00     0.031 C 
ENDBRANCH   8  20
BRANCH  15  23
ATOM     23  C   UNL A   1      33.302  20.686  24.860  1.00  0.00    -0.021 A 
ATOM     24  C   UNL A   1      33.415  19.294  25.038  1.00  0.00     0.006 A 
ATOM     25  C   UNL A   1      32.668  21.069  23.660  1.00  0.00     0.006 A 
ATOM     26  C   UNL A   1      32.938  18.347  24.122  1.00  0.00     0.000 A 
ATOM     27  C   UNL A   1      32.176  20.129  22.736  1.00  0.00     0.000 A 
ATOM     28  C   UNL A   1      32.313  18.767  22.965  1.00  0.00     0.000 A 
ENDBRANCH  15  23
ENDBRANCH   6   7
ENDBRANCH   4   6
ENDBRANCH   3   4
ENDBRANCH   2   3
ENDBRANCH   1   2
BRANCH   1  29
ATOM     29  O   UNL A   1      39.563  25.210  27.782  1.00  0.00    -0.458 OA
BRANCH  29  30
ATOM     30  C   UNL A   1      40.701  25.568  28.420  1.00  0.00     0.338 C 
ATOM     31  O   UNL A   1      41.835  25.195  28.169  1.00  0.00    -0.246 OA
BRANCH  30  32
ATOM     32  C   UNL A   1      40.377  26.834  29.095  1.00  0.00     0.060 A 
ATOM     33  C   UNL A   1      41.235  27.903  29.276  1.00  0.00     0.016 A 
ATOM     34  C   UNL A   1      39.147  26.824  29.736  1.00  0.00     0.016 A 
ATOM     35  C   UNL A   1      40.868  28.891  30.198  1.00  0.00     0.010 A 
ATOM     36  C   UNL A   1      38.755  27.822  30.610  1.00  0.00     0.010 A 
ATOM     37  C   UNL A   1      39.656  28.809  30.921  1.00  0.00    -0.014 A 
BRANCH  37  38
ATOM     38  C   UNL A   1      39.204  29.906  31.772  1.00  0.00     0.031 A 
ATOM     39  C   UNL A   1      38.104  30.630  31.104  1.00  0.00     0.074 A 
ATOM     40  C   UNL A   1      39.597  30.262  33.016  1.00  0.00     0.049 A 
ATOM     41  N   UNL A   1      38.285  31.613  30.290  1.00  0.00    -0.248 NA
ATOM     42  C   UNL A   1      36.742  30.084  31.103  1.00  0.00     0.031 C 
ATOM     43  C   UNL A   1      40.443  29.562  33.985  1.00  0.00     0.029 A 
ATOM     44  N   UNL A   1      39.260  31.402  33.694  1.00  0.00    -0.354 N 
ATOM     45  C   UNL A   1      37.021  31.992  29.883  1.00  0.00     0.074 A 
ATOM     46  C   UNL A   1      36.144  30.901  30.230  1.00  0.00     0.031 C 
ATOM     47  C   UNL A   1      40.398  30.208  35.183  1.00  0.00     0.029 A 
ATOM     48  C   UNL A   1      39.661  31.452  35.029  1.00  0.00     0.049 A 
ATOM     49  H   UNL A   1      38.767  32.139  33.267  1.00  0.00     0.167 HD
ATOM     50  C   UNL A   1      36.791  33.284  29.539  1.00  0.00     0.034 A 
ATOM     51  C   UNL A   1      39.425  32.466  35.909  1.00  0.00     0.034 A 
ATOM     52  C   UNL A   1      38.028  34.021  29.401  1.00  0.00     0.049 A 
ATOM     53  C   UNL A   1      39.267  33.687  35.087  1.00  0.00     0.074 A 
ATOM     54  C   UNL A   1      39.159  33.899  28.618  1.00  0.00     0.029 A 
ATOM     55  N   UNL A   1      38.392  34.793  30.479  1.00  0.00    -0.354 N 
ATOM     56  N   UNL A   1      40.233  34.218  34.394  1.00  0.00    -0.248 NA
ATOM     57  C   UNL A   1      37.921  34.079  34.708  1.00  0.00     0.031 C 
ATOM     58  C   UNL A   1      40.247  34.211  29.488  1.00  0.00     0.029 A 
ATOM     59  C   UNL A   1      39.721  34.573  30.728  1.00  0.00     0.049 A 
ATOM     60  H   UNL A   1      37.802  35.399  30.984  1.00  0.00     0.167 HD
ATOM     61  C   UNL A   1      39.619  34.612  33.217  1.00  0.00     0.074 A 
ATOM     62  C   UNL A   1      38.185  34.588  33.503  1.00  0.00     0.031 C 
ATOM     63  C   UNL A   1      40.313  34.642  32.045  1.00  0.00     0.034 A 
BRANCH  50  64
ATOM     64  C   UNL A   1      35.483  33.994  29.733  1.00  0.00     0.023 A 
ATOM     65  C   UNL A   1      34.881  34.556  28.587  1.00  0.00     0.012 A 
ATOM     66  C   UNL A   1      34.975  34.386  30.992  1.00  0.00     0.148 A 
ATOM     67  C   UNL A   1      33.852  35.493  28.690  1.00  0.00     0.002 A 
ATOM     68  C   UNL A   1      33.909  35.268  31.088  1.00  0.00     0.091 A 
ATOM     69  F   UNL A   1      35.606  34.016  32.110  1.00  0.00    -0.205 F 
ATOM     70  C   UNL A   1      33.359  35.844  29.941  1.00  0.00     0.022 A 
BRANCH  68  71
ATOM     71  S   UNL A   1      33.233  35.761  32.678  1.00  0.00     0.127 S 
ATOM     72  O   UNL A   1      32.158  36.659  32.268  1.00  0.00    -0.237 OA
ATOM     73  O   UNL A   1      32.797  34.476  33.224  1.00  0.00    -0.237 OA
ATOM     74  O   UNL A   1      34.338  36.376  33.401  1.00  0.00    -0.744 OA
ENDBRANCH  68  71
ENDBRANCH  50  64
BRANCH  51  75
ATOM     75  C   UNL A   1      39.029  32.488  37.348  1.00  0.00     0.023 A 
ATOM     76  C   UNL A   1      39.526  33.524  38.183  1.00  0.00     0.012 A 
ATOM     77  C   UNL A   1      37.917  31.758  37.812  1.00  0.00     0.148 A 
ATOM     78  C   UNL A   1      38.889  33.874  39.381  1.00  0.00     0.002 A 
ATOM     79  C   UNL A   1      37.288  32.108  39.009  1.00  0.00     0.091 A 
ATOM     80  F   UNL A   1      37.420  30.786  37.036  1.00  0.00    -0.205 F 
ATOM     81  C   UNL A   1      37.757  33.179  39.784  1.00  0.00     0.022 A 
BRANCH  79  82
ATOM     82  S   UNL A   1      35.811  31.268  39.598  1.00  0.00     0.127 S 
ATOM     83  O   UNL A   1      36.048  31.208  41.041  1.00  0.00    -0.237 OA
ATOM     84  O   UNL A   1      34.754  32.188  39.190  1.00  0.00    -0.237 OA
ATOM     85  O   UNL A   1      35.810  29.969  38.938  1.00  0.00    -0.744 OA
ENDBRANCH  79  82
ENDBRANCH  51  75
BRANCH  63  86
ATOM     86  C   UNL A   1      41.811  34.522  32.102  1.00  0.00     0.023 A 
ATOM     87  C   UNL A   1      42.654  35.604  32.437  1.00  0.00     0.012 A 
ATOM     88  C   UNL A   1      42.353  33.231  32.017  1.00  0.00     0.148 A 
ATOM     89  C   UNL A   1      44.011  35.389  32.702  1.00  0.00     0.002 A 
ATOM     90  C   UNL A   1      43.691  33.016  32.318  1.00  0.00     0.091 A 
ATOM     91  F   UNL A   1      41.527  32.224  31.696  1.00  0.00    -0.205 F 
ATOM     92  C   UNL A   1      44.525  34.092  32.660  1.00  0.00     0.022 A 
BRANCH  90  93
ATOM     93  S   UNL A   1      44.386  31.365  32.386  1.00  0.00     0.127 S 
ATOM     94  O   UNL A   1      43.529  30.711  33.373  1.00  0.00    -0.237 OA
ATOM     95  O   UNL A   1      44.204  30.898  31.011  1.00  0.00    -0.237 OA
ATOM     96  O   UNL A   1      45.779  31.523  32.787  1.00  0.00    -0.744 OA
ENDBRANCH  90  93
ENDBRANCH  63  86
ENDBRANCH  37  38
ENDBRANCH  30  32
ENDBRANCH  29  30
ENDBRANCH   1  29
TORSDOF 17
ENDMDL
