MODEL 1
REMARK VINA RESULT:     -10.5      0.000      0.000
REMARK SMILES C[NH+](C)CC(C)(C)CNc1cccc(F)c1C(=O)OCCOC(=O)c1ccc(-c2c3nc(c(-c4cccc(S(=O)(=O)[O-])c4F)c4ccc([nH]4)c(-c4cccc(S(=O)(=O)[O-])c4F)c4nc(c(-c5cccc(S(=O)(=O)[O-])c5F)c5ccc2[nH]5)C=C4)C=C3)cc1
REMARK SMILES IDX 20 1 19 2 17 3 18 4 16 5 10 6 11 7 12 8 14 9 13 10 15 11
REMARK SMILES IDX 9 12 8 14 5 15 6 16 7 17 4 18 2 19 1 20 3 21 21 23 22 24
REMARK SMILES IDX 23 25 24 26 25 27 26 28 87 29 27 30 86 31 28 32 29 33 30 34
REMARK SMILES IDX 80 35 31 36 85 37 79 38 81 39 32 40 84 41 78 42 77 43 33 45
REMARK SMILES IDX 65 46 45 47 64 48 46 49 49 50 63 51 82 52 47 53 48 54 62 56
REMARK SMILES IDX 83 57 50 58 34 59 35 60 43 61 36 62 38 63 44 64 37 65 39 66
REMARK SMILES IDX 40 67 41 68 42 69 66 70 67 71 75 72 68 73 70 74 76 75 69 76
REMARK SMILES IDX 71 77 72 78 73 79 74 80 51 81 52 82 60 83 53 84 55 85 61 86
REMARK SMILES IDX 54 87 56 88 57 89 58 90 59 91
REMARK H PARENT 9 13 2 22 81 44 49 55
REMARK Flexibility Score: inf
ROOT
ATOM      1  C   UNL A   1      31.679  27.935  26.812  1.00  0.00     0.275 C 
ENDROOT
BRANCH   1   2
ATOM      2  O   UNL A   1      31.646  26.780  25.945  1.00  0.00    -0.458 OA
BRANCH   2   3
ATOM      3  C   UNL A   1      32.860  26.402  25.459  1.00  0.00     0.343 C 
ATOM      4  O   UNL A   1      33.870  26.345  26.129  1.00  0.00    -0.246 OA
BRANCH   3   5
ATOM      5  C   UNL A   1      32.822  26.126  24.000  1.00  0.00     0.118 A 
ATOM      6  C   UNL A   1      32.373  24.885  23.485  1.00  0.00     0.052 A 
ATOM      7  C   UNL A   1      32.390  24.702  22.088  1.00  0.00     0.027 A 
ATOM      8  C   UNL A   1      32.889  25.680  21.227  1.00  0.00     0.005 A 
ATOM      9  C   UNL A   1      33.351  27.085  23.127  1.00  0.00     0.139 A 
ATOM     10  C   UNL A   1      33.380  26.870  21.750  1.00  0.00     0.040 A 
ATOM     11  F   UNL A   1      33.872  28.233  23.586  1.00  0.00    -0.206 F 
BRANCH   6  12
ATOM     12  N   UNL A   1      31.693  23.956  24.262  1.00  0.00    -0.383 N 
ATOM     13  H   UNL A   1      31.167  24.300  25.020  1.00  0.00     0.160 HD
BRANCH  12  14
ATOM     14  C   UNL A   1      31.694  22.510  24.048  1.00  0.00     0.125 C 
BRANCH  14  15
ATOM     15  C   UNL A   1      32.780  21.733  24.835  1.00  0.00     0.031 C 
ATOM     16  C   UNL A   1      32.885  22.401  26.225  1.00  0.00     0.019 C 
ATOM     17  C   UNL A   1      34.176  21.911  24.194  1.00  0.00     0.019 C 
BRANCH  15  18
ATOM     18  C   UNL A   1      32.544  20.197  24.943  1.00  0.00     0.269 C 
BRANCH  18  19
ATOM     19  N   UNL A   1      33.104  19.208  24.018  1.00  0.00    -0.339 N 
ATOM     20  C   UNL A   1      33.909  18.170  24.627  1.00  0.00     0.332 C 
ATOM     21  C   UNL A   1      32.177  18.704  23.024  1.00  0.00     0.332 C 
ATOM     22  H   UNL A   1      33.773  19.768  23.492  1.00  0.00     0.347 HD
ENDBRANCH  18  19
ENDBRANCH  15  18
ENDBRANCH  14  15
ENDBRANCH  12  14
ENDBRANCH   6  12
ENDBRANCH   3   5
ENDBRANCH   2   3
ENDBRANCH   1   2
BRANCH   1  23
ATOM     23  C   UNL A   1      31.618  29.241  26.020  1.00  0.00     0.275 C 
BRANCH  23  24
ATOM     24  O   UNL A   1      32.917  29.855  25.892  1.00  0.00    -0.458 OA
BRANCH  24  25
ATOM     25  C   UNL A   1      33.121  30.945  26.670  1.00  0.00     0.338 C 
ATOM     26  O   UNL A   1      32.333  31.854  26.881  1.00  0.00    -0.246 OA
BRANCH  25  27
ATOM     27  C   UNL A   1      34.378  30.802  27.431  1.00  0.00     0.060 A 
ATOM     28  C   UNL A   1      34.689  29.509  27.833  1.00  0.00     0.016 A 
ATOM     29  C   UNL A   1      35.197  31.861  27.824  1.00  0.00     0.016 A 
ATOM     30  C   UNL A   1      35.859  29.246  28.547  1.00  0.00     0.010 A 
ATOM     31  C   UNL A   1      36.363  31.601  28.577  1.00  0.00     0.010 A 
ATOM     32  C   UNL A   1      36.721  30.286  28.917  1.00  0.00    -0.014 A 
BRANCH  32  33
ATOM     33  C   UNL A   1      37.908  29.942  29.752  1.00  0.00     0.031 A 
ATOM     34  C   UNL A   1      39.047  29.207  29.112  1.00  0.00     0.074 A 
ATOM     35  C   UNL A   1      38.048  30.382  31.019  1.00  0.00     0.049 A 
ATOM     36  N   UNL A   1      40.156  28.781  29.653  1.00  0.00    -0.248 NA
ATOM     37  C   UNL A   1      38.917  28.906  27.678  1.00  0.00     0.031 C 
ATOM     38  C   UNL A   1      37.052  31.152  31.750  1.00  0.00     0.029 A 
ATOM     39  N   UNL A   1      39.100  30.289  31.907  1.00  0.00    -0.354 N 
ATOM     40  C   UNL A   1      40.808  28.070  28.655  1.00  0.00     0.074 A 
ATOM     41  C   UNL A   1      40.017  28.204  27.451  1.00  0.00     0.031 C 
ATOM     42  C   UNL A   1      37.573  31.564  32.917  1.00  0.00     0.029 A 
ATOM     43  C   UNL A   1      38.897  30.970  33.090  1.00  0.00     0.049 A 
ATOM     44  H   UNL A   1      39.922  29.784  31.713  1.00  0.00     0.167 HD
ATOM     45  C   UNL A   1      41.930  27.323  28.755  1.00  0.00     0.034 A 
ATOM     46  C   UNL A   1      39.658  31.062  34.204  1.00  0.00     0.034 A 
ATOM     47  C   UNL A   1      42.708  27.185  29.956  1.00  0.00     0.049 A 
ATOM     48  C   UNL A   1      40.912  30.229  34.288  1.00  0.00     0.074 A 
ATOM     49  C   UNL A   1      43.819  26.391  30.170  1.00  0.00     0.029 A 
ATOM     50  N   UNL A   1      42.454  27.848  31.148  1.00  0.00    -0.354 N 
ATOM     51  N   UNL A   1      41.487  29.508  33.355  1.00  0.00    -0.248 NA
ATOM     52  C   UNL A   1      41.596  30.178  35.590  1.00  0.00     0.031 C 
ATOM     53  C   UNL A   1      44.219  26.548  31.499  1.00  0.00     0.029 A 
ATOM     54  C   UNL A   1      43.389  27.481  32.099  1.00  0.00     0.049 A 
ATOM     55  H   UNL A   1      41.718  28.484  31.294  1.00  0.00     0.167 HD
ATOM     56  C   UNL A   1      42.582  28.903  33.961  1.00  0.00     0.074 A 
ATOM     57  C   UNL A   1      42.629  29.387  35.325  1.00  0.00     0.031 C 
ATOM     58  C   UNL A   1      43.448  27.994  33.444  1.00  0.00     0.034 A 
BRANCH  45  59
ATOM     59  C   UNL A   1      42.326  26.515  27.553  1.00  0.00     0.023 A 
ATOM     60  C   UNL A   1      43.090  27.092  26.520  1.00  0.00     0.012 A 
ATOM     61  C   UNL A   1      41.957  25.158  27.473  1.00  0.00     0.148 A 
ATOM     62  C   UNL A   1      43.461  26.329  25.412  1.00  0.00     0.002 A 
ATOM     63  C   UNL A   1      42.376  24.393  26.395  1.00  0.00     0.091 A 
ATOM     64  F   UNL A   1      41.201  24.644  28.455  1.00  0.00    -0.205 F 
ATOM     65  C   UNL A   1      43.116  24.980  25.356  1.00  0.00     0.022 A 
BRANCH  63  66
ATOM     66  S   UNL A   1      42.055  22.631  26.277  1.00  0.00     0.127 S 
ATOM     67  O   UNL A   1      42.693  22.300  25.003  1.00  0.00    -0.237 OA
ATOM     68  O   UNL A   1      42.748  22.118  27.459  1.00  0.00    -0.237 OA
ATOM     69  O   UNL A   1      40.608  22.479  26.302  1.00  0.00    -0.744 OA
ENDBRANCH  63  66
ENDBRANCH  45  59
BRANCH  46  70
ATOM     70  C   UNL A   1      39.244  31.924  35.359  1.00  0.00     0.023 A 
ATOM     71  C   UNL A   1      38.406  31.399  36.365  1.00  0.00     0.012 A 
ATOM     72  C   UNL A   1      39.677  33.260  35.475  1.00  0.00     0.148 A 
ATOM     73  C   UNL A   1      38.013  32.182  37.455  1.00  0.00     0.002 A 
ATOM     74  C   UNL A   1      39.359  34.003  36.607  1.00  0.00     0.091 A 
ATOM     75  F   UNL A   1      40.406  33.781  34.479  1.00  0.00    -0.205 F 
ATOM     76  C   UNL A   1      38.509  33.476  37.589  1.00  0.00     0.022 A 
BRANCH  74  77
ATOM     77  S   UNL A   1      40.113  35.599  36.939  1.00  0.00     0.127 S 
ATOM     78  O   UNL A   1      39.604  35.901  38.273  1.00  0.00    -0.237 OA
ATOM     79  O   UNL A   1      41.540  35.276  36.879  1.00  0.00    -0.237 OA
ATOM     80  O   UNL A   1      39.655  36.476  35.870  1.00  0.00    -0.744 OA
ENDBRANCH  74  77
ENDBRANCH  46  70
BRANCH  58  81
ATOM     81  C   UNL A   1      44.536  27.463  34.341  1.00  0.00     0.023 A 
ATOM     82  C   UNL A   1      45.751  28.166  34.467  1.00  0.00     0.012 A 
ATOM     83  C   UNL A   1      44.310  26.325  35.140  1.00  0.00     0.148 A 
ATOM     84  C   UNL A   1      46.734  27.730  35.356  1.00  0.00     0.002 A 
ATOM     85  C   UNL A   1      45.271  25.927  36.061  1.00  0.00     0.091 A 
ATOM     86  F   UNL A   1      43.154  25.661  34.992  1.00  0.00    -0.205 F 
ATOM     87  C   UNL A   1      46.487  26.620  36.162  1.00  0.00     0.022 A 
BRANCH  85  88
ATOM     88  S   UNL A   1      44.997  24.577  37.214  1.00  0.00     0.127 S 
ATOM     89  O   UNL A   1      44.923  23.427  36.312  1.00  0.00    -0.237 OA
ATOM     90  O   UNL A   1      46.202  24.627  38.041  1.00  0.00    -0.237 OA
ATOM     91  O   UNL A   1      43.763  24.894  37.920  1.00  0.00    -0.744 OA
ENDBRANCH  85  88
ENDBRANCH  58  81
ENDBRANCH  32  33
ENDBRANCH  25  27
ENDBRANCH  24  25
ENDBRANCH  23  24
ENDBRANCH   1  23
TORSDOF 19
ENDMDL
MODEL 2
REMARK VINA RESULT:     -10.0      1.675      7.834
REMARK SMILES C[NH+](C)CC(C)(C)CNc1cccc(F)c1C(=O)OCCOC(=O)c1ccc(-c2c3nc(c(-c4cccc(S(=O)(=O)[O-])c4F)c4ccc([nH]4)c(-c4cccc(S(=O)(=O)[O-])c4F)c4nc(c(-c5cccc(S(=O)(=O)[O-])c5F)c5ccc2[nH]5)C=C4)C=C3)cc1
REMARK SMILES IDX 20 1 19 2 17 3 18 4 16 5 10 6 11 7 12 8 14 9 13 10 15 11
REMARK SMILES IDX 9 12 8 14 5 15 6 16 7 17 4 18 2 19 1 20 3 21 21 23 22 24
REMARK SMILES IDX 23 25 24 26 25 27 26 28 87 29 27 30 86 31 28 32 29 33 30 34
REMARK SMILES IDX 80 35 31 36 85 37 79 38 81 39 32 40 84 41 78 42 77 43 33 45
REMARK SMILES IDX 65 46 45 47 64 48 46 49 49 50 63 51 82 52 47 53 48 54 62 56
REMARK SMILES IDX 83 57 50 58 34 59 35 60 43 61 36 62 38 63 44 64 37 65 39 66
REMARK SMILES IDX 40 67 41 68 42 69 66 70 67 71 75 72 68 73 70 74 76 75 69 76
REMARK SMILES IDX 71 77 72 78 73 79 74 80 51 81 52 82 60 83 53 84 55 85 61 86
REMARK SMILES IDX 54 87 56 88 57 89 58 90 59 91
REMARK H PARENT 9 13 2 22 81 44 49 55
REMARK Flexibility Score: inf
ROOT
ATOM      1  C   UNL A   1      31.748  28.782  27.321  1.00  0.00     0.275 C 
ENDROOT
BRANCH   1   2
ATOM      2  O   UNL A   1      32.192  27.856  26.306  1.00  0.00    -0.458 OA
BRANCH   2   3
ATOM      3  C   UNL A   1      31.271  26.914  25.959  1.00  0.00     0.343 C 
ATOM      4  O   UNL A   1      30.441  26.464  26.720  1.00  0.00    -0.246 OA
BRANCH   3   5
ATOM      5  C   UNL A   1      31.438  26.454  24.555  1.00  0.00     0.118 A 
ATOM      6  C   UNL A   1      31.792  25.118  24.243  1.00  0.00     0.052 A 
ATOM      7  C   UNL A   1      31.948  24.774  22.886  1.00  0.00     0.027 A 
ATOM      8  C   UNL A   1      31.823  25.723  21.871  1.00  0.00     0.005 A 
ATOM      9  C   UNL A   1      31.348  27.402  23.529  1.00  0.00     0.139 A 
ATOM     10  C   UNL A   1      31.533  27.042  22.196  1.00  0.00     0.040 A 
ATOM     11  F   UNL A   1      31.108  28.696  23.794  1.00  0.00    -0.206 F 
BRANCH   6  12
ATOM     12  N   UNL A   1      31.743  24.094  25.181  1.00  0.00    -0.383 N 
ATOM     13  H   UNL A   1      31.000  23.452  25.109  1.00  0.00     0.160 HD
BRANCH  12  14
ATOM     14  C   UNL A   1      32.703  23.891  26.264  1.00  0.00     0.125 C 
BRANCH  14  15
ATOM     15  C   UNL A   1      34.078  23.329  25.823  1.00  0.00     0.031 C 
ATOM     16  C   UNL A   1      34.841  22.956  27.115  1.00  0.00     0.019 C 
ATOM     17  C   UNL A   1      34.940  24.420  25.145  1.00  0.00     0.019 C 
BRANCH  15  18
ATOM     18  C   UNL A   1      34.014  22.140  24.820  1.00  0.00     0.269 C 
BRANCH  18  19
ATOM     19  N   UNL A   1      33.566  20.788  25.167  1.00  0.00    -0.339 N 
ATOM     20  C   UNL A   1      32.156  20.527  24.965  1.00  0.00     0.332 C 
ATOM     21  C   UNL A   1      34.420  19.718  24.691  1.00  0.00     0.332 C 
ATOM     22  H   UNL A   1      33.679  20.783  26.180  1.00  0.00     0.347 HD
ENDBRANCH  18  19
ENDBRANCH  15  18
ENDBRANCH  14  15
ENDBRANCH  12  14
ENDBRANCH   6  12
ENDBRANCH   3   5
ENDBRANCH   2   3
ENDBRANCH   1   2
BRANCH   1  23
ATOM     23  C   UNL A   1      31.749  30.224  26.812  1.00  0.00     0.275 C 
BRANCH  23  24
ATOM     24  O   UNL A   1      33.080  30.685  26.498  1.00  0.00    -0.458 OA
BRANCH  24  25
ATOM     25  C   UNL A   1      33.523  31.725  27.244  1.00  0.00     0.338 C 
ATOM     26  O   UNL A   1      32.886  32.711  27.579  1.00  0.00    -0.246 OA
BRANCH  25  27
ATOM     27  C   UNL A   1      34.857  31.423  27.803  1.00  0.00     0.060 A 
ATOM     28  C   UNL A   1      35.063  30.100  28.172  1.00  0.00     0.016 A 
ATOM     29  C   UNL A   1      35.852  32.370  28.047  1.00  0.00     0.016 A 
ATOM     30  C   UNL A   1      36.289  29.689  28.699  1.00  0.00     0.010 A 
ATOM     31  C   UNL A   1      37.079  31.963  28.614  1.00  0.00     0.010 A 
ATOM     32  C   UNL A   1      37.320  30.612  28.915  1.00  0.00    -0.014 A 
BRANCH  32  33
ATOM     33  C   UNL A   1      38.571  30.120  29.561  1.00  0.00     0.031 A 
ATOM     34  C   UNL A   1      38.834  30.491  30.990  1.00  0.00     0.074 A 
ATOM     35  C   UNL A   1      39.402  29.250  28.951  1.00  0.00     0.049 A 
ATOM     36  N   UNL A   1      39.866  30.203  31.736  1.00  0.00    -0.248 NA
ATOM     37  C   UNL A   1      37.804  31.298  31.663  1.00  0.00     0.031 C 
ATOM     38  C   UNL A   1      39.243  28.759  27.590  1.00  0.00     0.029 A 
ATOM     39  N   UNL A   1      40.520  28.584  29.407  1.00  0.00    -0.354 N 
ATOM     40  C   UNL A   1      39.663  30.879  32.930  1.00  0.00     0.074 A 
ATOM     41  C   UNL A   1      38.364  31.513  32.844  1.00  0.00     0.031 C 
ATOM     42  C   UNL A   1      40.144  27.791  27.356  1.00  0.00     0.029 A 
ATOM     43  C   UNL A   1      41.044  27.683  28.502  1.00  0.00     0.049 A 
ATOM     44  H   UNL A   1      40.910  28.738  30.298  1.00  0.00     0.167 HD
ATOM     45  C   UNL A   1      40.511  31.009  33.974  1.00  0.00     0.034 A 
ATOM     46  C   UNL A   1      42.147  26.902  28.561  1.00  0.00     0.034 A 
ATOM     47  C   UNL A   1      41.803  30.385  34.051  1.00  0.00     0.049 A 
ATOM     48  C   UNL A   1      43.072  27.056  29.742  1.00  0.00     0.074 A 
ATOM     49  C   UNL A   1      42.761  30.519  35.039  1.00  0.00     0.029 A 
ATOM     50  N   UNL A   1      42.324  29.517  33.103  1.00  0.00    -0.354 N 
ATOM     51  N   UNL A   1      42.898  27.750  30.842  1.00  0.00    -0.248 NA
ATOM     52  C   UNL A   1      44.368  26.363  29.673  1.00  0.00     0.031 C 
ATOM     53  C   UNL A   1      43.875  29.758  34.674  1.00  0.00     0.029 A 
ATOM     54  C   UNL A   1      43.590  29.107  33.484  1.00  0.00     0.049 A 
ATOM     55  H   UNL A   1      41.863  29.235  32.281  1.00  0.00     0.167 HD
ATOM     56  C   UNL A   1      44.066  27.596  31.580  1.00  0.00     0.074 A 
ATOM     57  C   UNL A   1      44.918  26.694  30.834  1.00  0.00     0.031 C 
ATOM     58  C   UNL A   1      44.417  28.183  32.752  1.00  0.00     0.034 A 
BRANCH  45  59
ATOM     59  C   UNL A   1      40.104  31.944  35.076  1.00  0.00     0.023 A 
ATOM     60  C   UNL A   1      40.586  33.267  35.112  1.00  0.00     0.012 A 
ATOM     61  C   UNL A   1      39.203  31.504  36.066  1.00  0.00     0.148 A 
ATOM     62  C   UNL A   1      40.192  34.130  36.134  1.00  0.00     0.002 A 
ATOM     63  C   UNL A   1      38.775  32.385  37.048  1.00  0.00     0.091 A 
ATOM     64  F   UNL A   1      38.786  30.230  36.027  1.00  0.00    -0.205 F 
ATOM     65  C   UNL A   1      39.279  33.694  37.093  1.00  0.00     0.022 A 
BRANCH  63  66
ATOM     66  S   UNL A   1      37.538  31.942  38.271  1.00  0.00     0.127 S 
ATOM     67  O   UNL A   1      38.221  32.285  39.518  1.00  0.00    -0.237 OA
ATOM     68  O   UNL A   1      36.431  32.830  37.916  1.00  0.00    -0.237 OA
ATOM     69  O   UNL A   1      37.270  30.524  38.082  1.00  0.00    -0.744 OA
ENDBRANCH  63  66
ENDBRANCH  45  59
BRANCH  46  70
ATOM     70  C   UNL A   1      42.482  25.946  27.457  1.00  0.00     0.023 A 
ATOM     71  C   UNL A   1      43.360  26.341  26.425  1.00  0.00     0.012 A 
ATOM     72  C   UNL A   1      41.945  24.644  27.420  1.00  0.00     0.148 A 
ATOM     73  C   UNL A   1      43.694  25.462  25.389  1.00  0.00     0.002 A 
ATOM     74  C   UNL A   1      42.352  23.746  26.439  1.00  0.00     0.091 A 
ATOM     75  F   UNL A   1      41.050  24.298  28.355  1.00  0.00    -0.205 F 
ATOM     76  C   UNL A   1      43.210  24.157  25.409  1.00  0.00     0.022 A 
BRANCH  74  77
ATOM     77  S   UNL A   1      41.923  22.004  26.508  1.00  0.00     0.127 S 
ATOM     78  O   UNL A   1      42.465  21.611  27.806  1.00  0.00    -0.237 OA
ATOM     79  O   UNL A   1      40.461  22.050  26.437  1.00  0.00    -0.237 OA
ATOM     80  O   UNL A   1      42.559  21.399  25.346  1.00  0.00    -0.744 OA
ENDBRANCH  74  77
ENDBRANCH  46  70
BRANCH  58  81
ATOM     81  C   UNL A   1      45.775  27.867  33.323  1.00  0.00     0.023 A 
ATOM     82  C   UNL A   1      46.872  28.706  33.039  1.00  0.00     0.012 A 
ATOM     83  C   UNL A   1      45.938  26.800  34.228  1.00  0.00     0.148 A 
ATOM     84  C   UNL A   1      48.115  28.471  33.628  1.00  0.00     0.002 A 
ATOM     85  C   UNL A   1      47.163  26.604  34.851  1.00  0.00     0.091 A 
ATOM     86  F   UNL A   1      44.886  26.003  34.470  1.00  0.00    -0.205 F 
ATOM     87  C   UNL A   1      48.256  27.431  34.543  1.00  0.00     0.022 A 
BRANCH  85  88
ATOM     88  S   UNL A   1      47.409  25.358  36.122  1.00  0.00     0.127 S 
ATOM     89  O   UNL A   1      46.297  25.638  37.030  1.00  0.00    -0.237 OA
ATOM     90  O   UNL A   1      47.281  24.114  35.364  1.00  0.00    -0.237 OA
ATOM     91  O   UNL A   1      48.737  25.600  36.671  1.00  0.00    -0.744 OA
ENDBRANCH  85  88
ENDBRANCH  58  81
ENDBRANCH  32  33
ENDBRANCH  25  27
ENDBRANCH  24  25
ENDBRANCH  23  24
ENDBRANCH   1  23
TORSDOF 19
ENDMDL
MODEL 3
REMARK VINA RESULT:      -9.9      4.955      7.840
REMARK SMILES C[NH+](C)CC(C)(C)CNc1cccc(F)c1C(=O)OCCOC(=O)c1ccc(-c2c3nc(c(-c4cccc(S(=O)(=O)[O-])c4F)c4ccc([nH]4)c(-c4cccc(S(=O)(=O)[O-])c4F)c4nc(c(-c5cccc(S(=O)(=O)[O-])c5F)c5ccc2[nH]5)C=C4)C=C3)cc1
REMARK SMILES IDX 20 1 19 2 17 3 18 4 16 5 10 6 11 7 12 8 14 9 13 10 15 11
REMARK SMILES IDX 9 12 8 14 5 15 6 16 7 17 4 18 2 19 1 20 3 21 21 23 22 24
REMARK SMILES IDX 23 25 24 26 25 27 26 28 87 29 27 30 86 31 28 32 29 33 30 34
REMARK SMILES IDX 80 35 31 36 85 37 79 38 81 39 32 40 84 41 78 42 77 43 33 45
REMARK SMILES IDX 65 46 45 47 64 48 46 49 49 50 63 51 82 52 47 53 48 54 62 56
REMARK SMILES IDX 83 57 50 58 34 59 35 60 43 61 36 62 38 63 44 64 37 65 39 66
REMARK SMILES IDX 40 67 41 68 42 69 66 70 67 71 75 72 68 73 70 74 76 75 69 76
REMARK SMILES IDX 71 77 72 78 73 79 74 80 51 81 52 82 60 83 53 84 55 85 61 86
REMARK SMILES IDX 54 87 56 88 57 89 58 90 59 91
REMARK H PARENT 9 13 2 22 81 44 49 55
REMARK Flexibility Score: inf
ROOT
ATOM      1  C   UNL A   1      36.086  19.922  24.978  1.00  0.00     0.275 C 
ENDROOT
BRANCH   1   2
ATOM      2  O   UNL A   1      35.411  21.100  25.473  1.00  0.00    -0.458 OA
BRANCH   2   3
ATOM      3  C   UNL A   1      34.075  20.940  25.682  1.00  0.00     0.343 C 
ATOM      4  O   UNL A   1      33.544  21.026  26.769  1.00  0.00    -0.246 OA
BRANCH   3   5
ATOM      5  C   UNL A   1      33.348  20.589  24.434  1.00  0.00     0.118 A 
ATOM      6  C   UNL A   1      32.995  21.568  23.473  1.00  0.00     0.052 A 
ATOM      7  C   UNL A   1      32.288  21.149  22.329  1.00  0.00     0.027 A 
ATOM      8  C   UNL A   1      31.886  19.823  22.162  1.00  0.00     0.005 A 
ATOM      9  C   UNL A   1      32.910  19.270  24.269  1.00  0.00     0.139 A 
ATOM     10  C   UNL A   1      32.189  18.885  23.140  1.00  0.00     0.040 A 
ATOM     11  F   UNL A   1      33.143  18.335  25.203  1.00  0.00    -0.206 F 
BRANCH   6  12
ATOM     12  N   UNL A   1      33.525  22.852  23.486  1.00  0.00    -0.383 N 
ATOM     13  H   UNL A   1      33.917  23.171  24.331  1.00  0.00     0.160 HD
BRANCH  12  14
ATOM     14  C   UNL A   1      33.547  23.770  22.348  1.00  0.00     0.125 C 
BRANCH  14  15
ATOM     15  C   UNL A   1      32.755  25.086  22.553  1.00  0.00     0.031 C 
ATOM     16  C   UNL A   1      32.585  25.724  21.156  1.00  0.00     0.019 C 
ATOM     17  C   UNL A   1      33.574  26.114  23.370  1.00  0.00     0.019 C 
BRANCH  15  18
ATOM     18  C   UNL A   1      31.394  24.928  23.293  1.00  0.00     0.269 C 
BRANCH  18  19
ATOM     19  N   UNL A   1      30.815  25.938  24.183  1.00  0.00    -0.339 N 
ATOM     20  C   UNL A   1      30.010  26.953  23.536  1.00  0.00     0.332 C 
ATOM     21  C   UNL A   1      30.213  25.415  25.394  1.00  0.00     0.332 C 
ATOM     22  H   UNL A   1      31.644  26.439  24.499  1.00  0.00     0.347 HD
ENDBRANCH  18  19
ENDBRANCH  15  18
ENDBRANCH  14  15
ENDBRANCH  12  14
ENDBRANCH   6  12
ENDBRANCH   3   5
ENDBRANCH   2   3
ENDBRANCH   1   2
BRANCH   1  23
ATOM     23  C   UNL A   1      37.584  20.164  24.791  1.00  0.00     0.275 C 
BRANCH  23  24
ATOM     24  O   UNL A   1      38.080  21.187  25.678  1.00  0.00    -0.458 OA
BRANCH  24  25
ATOM     25  C   UNL A   1      39.293  20.938  26.227  1.00  0.00     0.338 C 
ATOM     26  O   UNL A   1      39.916  19.889  26.185  1.00  0.00    -0.246 OA
BRANCH  25  27
ATOM     27  C   UNL A   1      39.895  22.191  26.727  1.00  0.00     0.060 A 
ATOM     28  C   UNL A   1      39.379  23.359  26.182  1.00  0.00     0.016 A 
ATOM     29  C   UNL A   1      40.966  22.260  27.619  1.00  0.00     0.016 A 
ATOM     30  C   UNL A   1      39.858  24.607  26.587  1.00  0.00     0.010 A 
ATOM     31  C   UNL A   1      41.476  23.520  28.002  1.00  0.00     0.010 A 
ATOM     32  C   UNL A   1      40.904  24.706  27.514  1.00  0.00    -0.014 A 
BRANCH  32  33
ATOM     33  C   UNL A   1      41.423  26.067  27.834  1.00  0.00     0.031 A 
ATOM     34  C   UNL A   1      42.685  26.528  27.169  1.00  0.00     0.074 A 
ATOM     35  C   UNL A   1      40.731  26.941  28.594  1.00  0.00     0.049 A 
ATOM     36  N   UNL A   1      43.331  27.653  27.324  1.00  0.00    -0.248 NA
ATOM     37  C   UNL A   1      43.305  25.600  26.212  1.00  0.00     0.031 C 
ATOM     38  C   UNL A   1      39.467  26.652  29.256  1.00  0.00     0.029 A 
ATOM     39  N   UNL A   1      40.963  28.265  28.903  1.00  0.00    -0.354 N 
ATOM     40  C   UNL A   1      44.486  27.526  26.567  1.00  0.00     0.074 A 
ATOM     41  C   UNL A   1      44.407  26.256  25.879  1.00  0.00     0.031 C 
ATOM     42  C   UNL A   1      38.974  27.782  29.790  1.00  0.00     0.029 A 
ATOM     43  C   UNL A   1      39.952  28.855  29.635  1.00  0.00     0.049 A 
ATOM     44  H   UNL A   1      41.776  28.745  28.626  1.00  0.00     0.167 HD
ATOM     45  C   UNL A   1      45.543  28.366  26.505  1.00  0.00     0.034 A 
ATOM     46  C   UNL A   1      39.846  30.095  30.165  1.00  0.00     0.034 A 
ATOM     47  C   UNL A   1      45.622  29.623  27.198  1.00  0.00     0.049 A 
ATOM     48  C   UNL A   1      41.034  31.019  30.072  1.00  0.00     0.074 A 
ATOM     49  C   UNL A   1      46.684  30.506  27.251  1.00  0.00     0.029 A 
ATOM     50  N   UNL A   1      44.605  30.172  27.965  1.00  0.00    -0.354 N 
ATOM     51  N   UNL A   1      42.152  30.862  29.403  1.00  0.00    -0.248 NA
ATOM     52  C   UNL A   1      40.973  32.269  30.846  1.00  0.00     0.031 C 
ATOM     53  C   UNL A   1      46.323  31.575  28.075  1.00  0.00     0.029 A 
ATOM     54  C   UNL A   1      45.016  31.384  28.493  1.00  0.00     0.049 A 
ATOM     55  H   UNL A   1      43.723  29.762  28.111  1.00  0.00     0.167 HD
ATOM     56  C   UNL A   1      42.931  31.976  29.693  1.00  0.00     0.074 A 
ATOM     57  C   UNL A   1      42.138  32.832  30.550  1.00  0.00     0.031 C 
ATOM     58  C   UNL A   1      44.207  32.245  29.317  1.00  0.00     0.034 A 
BRANCH  45  59
ATOM     59  C   UNL A   1      46.745  27.900  25.734  1.00  0.00     0.023 A 
ATOM     60  C   UNL A   1      46.840  28.125  24.347  1.00  0.00     0.012 A 
ATOM     61  C   UNL A   1      47.803  27.263  26.411  1.00  0.00     0.148 A 
ATOM     62  C   UNL A   1      47.965  27.698  23.642  1.00  0.00     0.002 A 
ATOM     63  C   UNL A   1      48.941  26.890  25.712  1.00  0.00     0.091 A 
ATOM     64  F   UNL A   1      47.672  27.032  27.725  1.00  0.00    -0.205 F 
ATOM     65  C   UNL A   1      49.019  27.093  24.325  1.00  0.00     0.022 A 
BRANCH  63  66
ATOM     66  S   UNL A   1      50.382  26.185  26.517  1.00  0.00     0.127 S 
ATOM     67  O   UNL A   1      51.205  25.803  25.370  1.00  0.00    -0.237 OA
ATOM     68  O   UNL A   1      50.890  27.326  27.280  1.00  0.00    -0.237 OA
ATOM     69  O   UNL A   1      49.895  25.076  27.325  1.00  0.00    -0.744 OA
ENDBRANCH  63  66
ENDBRANCH  45  59
BRANCH  46  70
ATOM     70  C   UNL A   1      38.604  30.529  30.881  1.00  0.00     0.023 A 
ATOM     71  C   UNL A   1      38.493  30.344  32.276  1.00  0.00     0.012 A 
ATOM     72  C   UNL A   1      37.530  31.133  30.198  1.00  0.00     0.148 A 
ATOM     73  C   UNL A   1      37.347  30.749  32.967  1.00  0.00     0.002 A 
ATOM     74  C   UNL A   1      36.433  31.616  30.903  1.00  0.00     0.091 A 
ATOM     75  F   UNL A   1      37.602  31.235  28.864  1.00  0.00    -0.205 F 
ATOM     76  C   UNL A   1      36.327  31.407  32.285  1.00  0.00     0.022 A 
BRANCH  74  77
ATOM     77  S   UNL A   1      35.178  32.638  30.124  1.00  0.00     0.127 S 
ATOM     78  O   UNL A   1      34.271  32.901  31.238  1.00  0.00    -0.237 OA
ATOM     79  O   UNL A   1      35.961  33.791  29.678  1.00  0.00    -0.237 OA
ATOM     80  O   UNL A   1      34.635  31.830  29.041  1.00  0.00    -0.744 OA
ENDBRANCH  74  77
ENDBRANCH  46  70
BRANCH  58  81
ATOM     81  C   UNL A   1      44.835  33.522  29.809  1.00  0.00     0.023 A 
ATOM     82  C   UNL A   1      45.556  33.533  31.021  1.00  0.00     0.012 A 
ATOM     83  C   UNL A   1      44.802  34.686  29.016  1.00  0.00     0.148 A 
ATOM     84  C   UNL A   1      46.212  34.688  31.446  1.00  0.00     0.002 A 
ATOM     85  C   UNL A   1      45.502  35.816  29.418  1.00  0.00     0.091 A 
ATOM     86  F   UNL A   1      44.097  34.660  27.875  1.00  0.00    -0.205 F 
ATOM     87  C   UNL A   1      46.197  35.824  30.638  1.00  0.00     0.022 A 
BRANCH  85  88
ATOM     88  S   UNL A   1      45.628  37.286  28.393  1.00  0.00     0.127 S 
ATOM     89  O   UNL A   1      46.226  36.746  27.172  1.00  0.00    -0.237 OA
ATOM     90  O   UNL A   1      44.229  37.691  28.260  1.00  0.00    -0.237 OA
ATOM     91  O   UNL A   1      46.463  38.223  29.133  1.00  0.00    -0.744 OA
ENDBRANCH  85  88
ENDBRANCH  58  81
ENDBRANCH  32  33
ENDBRANCH  25  27
ENDBRANCH  24  25
ENDBRANCH  23  24
ENDBRANCH   1  23
TORSDOF 19
ENDMDL
