MODEL 1
REMARK VINA RESULT:     -13.6      0.000      0.000
REMARK SMILES CC(=O)Nc1ccc(/C=C2/CCc3oc(C(=O)OCCOC(=O)c4ccc(-c5c6nc(c(-c7cccc(S(=O)(=O)[O-])c7F)c7ccc([nH]7)c(-c7cccc(S(=O)(=O)[O-])c7F)c7nc(c(-c8cccc(S(=O)(=O)[O-])c8F)c8ccc5[nH]8)C=C7)C=C6)cc4)c(C)c3C2=O)cc1
REMARK SMILES IDX 20 1 19 2 18 3 16 4 17 5 15 6 9 7 10 8 11 9 90 10 12 11
REMARK SMILES IDX 89 12 91 13 13 14 87 15 14 16 88 17 8 18 5 19 6 20 93 21
REMARK SMILES IDX 7 22 92 23 4 24 1 25 2 26 3 27 21 29 22 30 23 31 24 32 25 33
REMARK SMILES IDX 86 34 26 35 85 36 27 37 28 38 29 39 79 40 30 41 84 42 78 43
REMARK SMILES IDX 80 44 31 45 83 46 77 47 76 48 32 50 64 51 44 52 63 53 45 54
REMARK SMILES IDX 48 55 62 56 81 57 46 58 47 59 61 61 82 62 49 63 33 64 34 65
REMARK SMILES IDX 42 66 35 67 37 68 43 69 36 70 38 71 39 72 40 73 41 74 65 75
REMARK SMILES IDX 66 76 74 77 67 78 69 79 75 80 68 81 70 82 71 83 72 84 73 85
REMARK SMILES IDX 50 86 51 87 59 88 52 89 54 90 60 91 53 92 55 93 56 94 57 95
REMARK SMILES IDX 58 96
REMARK H PARENT 4 28 80 49 48 60
REMARK Flexibility Score: inf
ROOT
ATOM      1  C   UNL A   1      37.773  19.850  24.983  1.00  0.00     0.275 C 
ENDROOT
BRANCH   1   2
ATOM      2  C   UNL A   1      36.467  20.633  24.985  1.00  0.00     0.275 C 
BRANCH   2   3
ATOM      3  O   UNL A   1      36.689  22.046  24.830  1.00  0.00    -0.456 OA
BRANCH   3   4
ATOM      4  C   UNL A   1      36.029  22.661  23.804  1.00  0.00     0.374 C 
ATOM      5  O   UNL A   1      36.524  22.897  22.701  1.00  0.00    -0.242 OA
BRANCH   4   6
ATOM      6  C   UNL A   1      34.661  22.941  24.183  1.00  0.00     0.215 A 
ATOM      7  C   UNL A   1      30.067  25.680  25.636  1.00  0.00     0.016 C 
ATOM      8  C   UNL A   1      30.593  24.442  25.523  1.00  0.00     0.001 C 
ATOM      9  C   UNL A   1      30.856  23.539  26.724  1.00  0.00     0.048 C 
ATOM     10  C   UNL A   1      31.094  23.845  24.238  1.00  0.00     0.192 C 
ATOM     11  C   UNL A   1      32.364  23.268  26.928  1.00  0.00     0.081 C 
ATOM     12  C   UNL A   1      32.480  23.456  24.371  1.00  0.00     0.067 A 
ATOM     13  O   UNL A   1      30.412  23.695  23.237  1.00  0.00    -0.289 OA
ATOM     14  C   UNL A   1      33.021  23.187  25.605  1.00  0.00     0.116 A 
ATOM     15  C   UNL A   1      33.538  23.299  23.432  1.00  0.00     0.014 A 
ATOM     16  O   UNL A   1      34.327  22.871  25.517  1.00  0.00    -0.453 OA
ATOM     17  C   UNL A   1      33.428  23.508  21.963  1.00  0.00     0.049 C 
BRANCH   7  18
ATOM     18  C   UNL A   1      29.875  26.777  24.655  1.00  0.00    -0.025 A 
ATOM     19  C   UNL A   1      29.294  28.880  22.830  1.00  0.00     0.041 A 
ATOM     20  C   UNL A   1      30.527  28.811  23.465  1.00  0.00     0.027 A 
ATOM     21  C   UNL A   1      28.363  27.872  23.063  1.00  0.00     0.027 A 
ATOM     22  C   UNL A   1      30.794  27.799  24.394  1.00  0.00     0.010 A 
ATOM     23  C   UNL A   1      28.657  26.829  23.957  1.00  0.00     0.010 A 
BRANCH  19  24
ATOM     24  N   UNL A   1      29.089  29.953  21.952  1.00  0.00    -0.326 N 
ATOM     25  C   UNL A   1      27.671  31.375  23.407  1.00  0.00     0.114 C 
ATOM     26  C   UNL A   1      28.282  31.047  22.072  1.00  0.00     0.221 C 
ATOM     27  O   UNL A   1      28.133  31.801  21.109  1.00  0.00    -0.275 OA
ATOM     28  H   UNL A   1      29.608  29.910  21.117  1.00  0.00     0.169 HD
ENDBRANCH  19  24
ENDBRANCH   7  18
ENDBRANCH   4   6
ENDBRANCH   3   4
ENDBRANCH   2   3
ENDBRANCH   1   2
BRANCH   1  29
ATOM     29  O   UNL A   1      38.858  20.669  25.408  1.00  0.00    -0.458 OA
BRANCH  29  30
ATOM     30  C   UNL A   1      39.999  20.004  25.693  1.00  0.00     0.338 C 
ATOM     31  O   UNL A   1      40.201  18.807  25.572  1.00  0.00    -0.246 OA
BRANCH  30  32
ATOM     32  C   UNL A   1      40.912  20.905  26.396  1.00  0.00     0.060 A 
ATOM     33  C   UNL A   1      40.850  20.892  27.792  1.00  0.00     0.016 A 
ATOM     34  C   UNL A   1      41.553  21.929  25.684  1.00  0.00     0.016 A 
ATOM     35  C   UNL A   1      41.246  22.022  28.468  1.00  0.00     0.010 A 
ATOM     36  C   UNL A   1      41.934  23.061  26.358  1.00  0.00     0.010 A 
ATOM     37  C   UNL A   1      41.697  23.121  27.728  1.00  0.00    -0.014 A 
BRANCH  37  38
ATOM     38  C   UNL A   1      42.066  24.316  28.451  1.00  0.00     0.031 A 
ATOM     39  C   UNL A   1      41.108  25.415  28.196  1.00  0.00     0.074 A 
ATOM     40  C   UNL A   1      43.101  24.337  29.311  1.00  0.00     0.049 A 
ATOM     41  N   UNL A   1      41.319  26.498  27.526  1.00  0.00    -0.248 NA
ATOM     42  C   UNL A   1      39.689  25.174  28.514  1.00  0.00     0.031 C 
ATOM     43  C   UNL A   1      43.895  23.204  29.799  1.00  0.00     0.029 A 
ATOM     44  N   UNL A   1      43.573  25.374  30.049  1.00  0.00    -0.354 N 
ATOM     45  C   UNL A   1      40.115  27.193  27.582  1.00  0.00     0.074 A 
ATOM     46  C   UNL A   1      39.112  26.238  27.957  1.00  0.00     0.031 C 
ATOM     47  C   UNL A   1      44.541  23.571  30.930  1.00  0.00     0.029 A 
ATOM     48  C   UNL A   1      44.304  24.985  31.169  1.00  0.00     0.049 A 
ATOM     49  H   UNL A   1      43.413  26.316  29.815  1.00  0.00     0.167 HD
ATOM     50  C   UNL A   1      40.106  28.551  27.641  1.00  0.00     0.034 A 
ATOM     51  C   UNL A   1      44.588  25.757  32.250  1.00  0.00     0.034 A 
ATOM     52  C   UNL A   1      41.369  29.095  27.203  1.00  0.00     0.049 A 
ATOM     53  C   UNL A   1      44.397  27.170  31.842  1.00  0.00     0.074 A 
ATOM     54  C   UNL A   1      42.111  29.022  26.041  1.00  0.00     0.029 A 
ATOM     55  N   UNL A   1      42.238  29.501  28.187  1.00  0.00    -0.354 N 
ATOM     56  N   UNL A   1      45.146  27.767  30.958  1.00  0.00    -0.248 NA
ATOM     57  C   UNL A   1      43.084  27.761  32.054  1.00  0.00     0.031 C 
ATOM     58  C   UNL A   1      43.465  28.934  26.476  1.00  0.00     0.029 A 
ATOM     59  C   UNL A   1      43.485  29.038  27.868  1.00  0.00     0.049 A 
ATOM     60  H   UNL A   1      42.003  30.032  28.983  1.00  0.00     0.167 HD
ATOM     61  C   UNL A   1      44.248  28.484  30.178  1.00  0.00     0.074 A 
ATOM     62  C   UNL A   1      43.010  28.522  30.959  1.00  0.00     0.031 C 
ATOM     63  C   UNL A   1      44.491  28.708  28.853  1.00  0.00     0.034 A 
BRANCH  50  64
ATOM     64  C   UNL A   1      39.153  29.357  28.498  1.00  0.00     0.023 A 
ATOM     65  C   UNL A   1      39.280  29.208  29.896  1.00  0.00     0.012 A 
ATOM     66  C   UNL A   1      37.981  29.998  28.029  1.00  0.00     0.148 A 
ATOM     67  C   UNL A   1      38.263  29.602  30.772  1.00  0.00     0.002 A 
ATOM     68  C   UNL A   1      37.006  30.455  28.908  1.00  0.00     0.091 A 
ATOM     69  F   UNL A   1      37.718  30.064  26.724  1.00  0.00    -0.205 F 
ATOM     70  C   UNL A   1      37.125  30.227  30.278  1.00  0.00     0.022 A 
BRANCH  68  71
ATOM     71  S   UNL A   1      35.530  31.301  28.321  1.00  0.00     0.127 S 
ATOM     72  O   UNL A   1      34.863  30.238  27.575  1.00  0.00    -0.237 OA
ATOM     73  O   UNL A   1      34.886  31.675  29.580  1.00  0.00    -0.237 OA
ATOM     74  O   UNL A   1      36.005  32.432  27.536  1.00  0.00    -0.744 OA
ENDBRANCH  68  71
ENDBRANCH  50  64
BRANCH  51  75
ATOM     75  C   UNL A   1      44.680  25.372  33.682  1.00  0.00     0.023 A 
ATOM     76  C   UNL A   1      43.509  25.284  34.464  1.00  0.00     0.012 A 
ATOM     77  C   UNL A   1      45.869  24.816  34.207  1.00  0.00     0.148 A 
ATOM     78  C   UNL A   1      43.517  24.640  35.710  1.00  0.00     0.002 A 
ATOM     79  C   UNL A   1      45.873  24.185  35.448  1.00  0.00     0.091 A 
ATOM     80  F   UNL A   1      46.972  24.820  33.448  1.00  0.00    -0.205 F 
ATOM     81  C   UNL A   1      44.697  24.084  36.198  1.00  0.00     0.022 A 
BRANCH  79  82
ATOM     82  S   UNL A   1      47.354  23.420  36.126  1.00  0.00     0.127 S 
ATOM     83  O   UNL A   1      47.631  22.373  35.140  1.00  0.00    -0.237 OA
ATOM     84  O   UNL A   1      48.300  24.532  36.119  1.00  0.00    -0.237 OA
ATOM     85  O   UNL A   1      46.978  22.918  37.441  1.00  0.00    -0.744 OA
ENDBRANCH  79  82
ENDBRANCH  51  75
BRANCH  63  86
ATOM     86  C   UNL A   1      45.861  28.376  28.319  1.00  0.00     0.023 A 
ATOM     87  C   UNL A   1      46.976  29.226  28.485  1.00  0.00     0.012 A 
ATOM     88  C   UNL A   1      46.058  27.092  27.790  1.00  0.00     0.148 A 
ATOM     89  C   UNL A   1      48.257  28.804  28.112  1.00  0.00     0.002 A 
ATOM     90  C   UNL A   1      47.336  26.660  27.465  1.00  0.00     0.091 A 
ATOM     91  F   UNL A   1      44.986  26.298  27.644  1.00  0.00    -0.205 F 
ATOM     92  C   UNL A   1      48.439  27.516  27.614  1.00  0.00     0.022 A 
BRANCH  90  93
ATOM     93  S   UNL A   1      47.643  24.974  26.939  1.00  0.00     0.127 S 
ATOM     94  O   UNL A   1      47.383  25.051  25.503  1.00  0.00    -0.237 OA
ATOM     95  O   UNL A   1      49.051  24.785  27.297  1.00  0.00    -0.237 OA
ATOM     96  O   UNL A   1      46.720  24.141  27.699  1.00  0.00    -0.744 OA
ENDBRANCH  90  93
ENDBRANCH  63  86
ENDBRANCH  37  38
ENDBRANCH  30  32
ENDBRANCH  29  30
ENDBRANCH   1  29
TORSDOF 16
ENDMDL
MODEL 2
REMARK VINA RESULT:     -13.5      4.821      9.878
REMARK SMILES CC(=O)Nc1ccc(/C=C2/CCc3oc(C(=O)OCCOC(=O)c4ccc(-c5c6nc(c(-c7cccc(S(=O)(=O)[O-])c7F)c7ccc([nH]7)c(-c7cccc(S(=O)(=O)[O-])c7F)c7nc(c(-c8cccc(S(=O)(=O)[O-])c8F)c8ccc5[nH]8)C=C7)C=C6)cc4)c(C)c3C2=O)cc1
REMARK SMILES IDX 20 1 19 2 18 3 16 4 17 5 15 6 9 7 10 8 11 9 90 10 12 11
REMARK SMILES IDX 89 12 91 13 13 14 87 15 14 16 88 17 8 18 5 19 6 20 93 21
REMARK SMILES IDX 7 22 92 23 4 24 1 25 2 26 3 27 21 29 22 30 23 31 24 32 25 33
REMARK SMILES IDX 86 34 26 35 85 36 27 37 28 38 29 39 79 40 30 41 84 42 78 43
REMARK SMILES IDX 80 44 31 45 83 46 77 47 76 48 32 50 64 51 44 52 63 53 45 54
REMARK SMILES IDX 48 55 62 56 81 57 46 58 47 59 61 61 82 62 49 63 33 64 34 65
REMARK SMILES IDX 42 66 35 67 37 68 43 69 36 70 38 71 39 72 40 73 41 74 65 75
REMARK SMILES IDX 66 76 74 77 67 78 69 79 75 80 68 81 70 82 71 83 72 84 73 85
REMARK SMILES IDX 50 86 51 87 59 88 52 89 54 90 60 91 53 92 55 93 56 94 57 95
REMARK SMILES IDX 58 96
REMARK H PARENT 4 28 80 49 48 60
REMARK Flexibility Score: inf
ROOT
ATOM      1  C   UNL A   1      31.498  32.127  26.620  1.00  0.00     0.275 C 
ENDROOT
BRANCH   1   2
ATOM      2  C   UNL A   1      31.366  30.738  26.009  1.00  0.00     0.275 C 
BRANCH   2   3
ATOM      3  O   UNL A   1      32.244  29.790  26.639  1.00  0.00    -0.456 OA
BRANCH   3   4
ATOM      4  C   UNL A   1      31.726  28.552  26.896  1.00  0.00     0.374 C 
ATOM      5  O   UNL A   1      31.224  28.218  27.970  1.00  0.00    -0.242 OA
BRANCH   4   6
ATOM      6  C   UNL A   1      31.805  27.719  25.716  1.00  0.00     0.215 A 
ATOM      7  C   UNL A   1      33.245  23.642  22.249  1.00  0.00     0.016 C 
ATOM      8  C   UNL A   1      32.589  24.820  22.313  1.00  0.00     0.001 C 
ATOM      9  C   UNL A   1      33.064  26.076  21.591  1.00  0.00     0.048 C 
ATOM     10  C   UNL A   1      31.392  25.079  23.185  1.00  0.00     0.192 C 
ATOM     11  C   UNL A   1      33.477  27.192  22.579  1.00  0.00     0.081 C 
ATOM     12  C   UNL A   1      31.650  26.189  24.075  1.00  0.00     0.067 A 
ATOM     13  O   UNL A   1      30.349  24.449  23.127  1.00  0.00    -0.289 OA
ATOM     14  C   UNL A   1      32.592  27.138  23.763  1.00  0.00     0.116 A 
ATOM     15  C   UNL A   1      31.126  26.554  25.347  1.00  0.00     0.014 A 
ATOM     16  O   UNL A   1      32.700  28.069  24.729  1.00  0.00    -0.453 OA
ATOM     17  C   UNL A   1      30.086  25.804  26.102  1.00  0.00     0.049 C 
BRANCH   7  18
ATOM     18  C   UNL A   1      33.071  22.360  22.974  1.00  0.00    -0.025 A 
ATOM     19  C   UNL A   1      32.709  19.804  24.169  1.00  0.00     0.041 A 
ATOM     20  C   UNL A   1      33.544  20.749  24.751  1.00  0.00     0.027 A 
ATOM     21  C   UNL A   1      32.010  20.147  23.015  1.00  0.00     0.027 A 
ATOM     22  C   UNL A   1      33.752  21.989  24.137  1.00  0.00     0.010 A 
ATOM     23  C   UNL A   1      32.183  21.414  22.433  1.00  0.00     0.010 A 
BRANCH  19  24
ATOM     24  N   UNL A   1      32.594  18.568  24.819  1.00  0.00    -0.326 N 
ATOM     25  C   UNL A   1      33.952  17.190  23.269  1.00  0.00     0.114 C 
ATOM     26  C   UNL A   1      33.006  17.326  24.431  1.00  0.00     0.221 C 
ATOM     27  O   UNL A   1      32.668  16.340  25.088  1.00  0.00    -0.275 OA
ATOM     28  H   UNL A   1      32.144  18.600  25.694  1.00  0.00     0.169 HD
ENDBRANCH  19  24
ENDBRANCH   7  18
ENDBRANCH   4   6
ENDBRANCH   3   4
ENDBRANCH   2   3
ENDBRANCH   1   2
BRANCH   1  29
ATOM     29  O   UNL A   1      32.658  32.214  27.440  1.00  0.00    -0.458 OA
BRANCH  29  30
ATOM     30  C   UNL A   1      32.861  33.418  28.018  1.00  0.00     0.338 C 
ATOM     31  O   UNL A   1      32.169  34.415  27.899  1.00  0.00    -0.246 OA
BRANCH  30  32
ATOM     32  C   UNL A   1      34.182  33.427  28.648  1.00  0.00     0.060 A 
ATOM     33  C   UNL A   1      35.235  33.931  27.879  1.00  0.00     0.016 A 
ATOM     34  C   UNL A   1      34.396  32.675  29.811  1.00  0.00     0.016 A 
ATOM     35  C   UNL A   1      36.508  33.496  28.163  1.00  0.00     0.010 A 
ATOM     36  C   UNL A   1      35.664  32.230  30.083  1.00  0.00     0.010 A 
ATOM     37  C   UNL A   1      36.685  32.580  29.206  1.00  0.00    -0.014 A 
BRANCH  37  38
ATOM     38  C   UNL A   1      38.023  32.097  29.460  1.00  0.00     0.031 A 
ATOM     39  C   UNL A   1      38.163  30.675  29.076  1.00  0.00     0.074 A 
ATOM     40  C   UNL A   1      39.003  32.911  29.896  1.00  0.00     0.049 A 
ATOM     41  N   UNL A   1      38.312  29.663  29.862  1.00  0.00    -0.248 NA
ATOM     42  C   UNL A   1      37.862  30.311  27.679  1.00  0.00     0.031 C 
ATOM     43  C   UNL A   1      38.977  34.372  30.019  1.00  0.00     0.029 A 
ATOM     44  N   UNL A   1      40.294  32.608  30.187  1.00  0.00    -0.354 N 
ATOM     45  C   UNL A   1      38.395  28.562  29.016  1.00  0.00     0.074 A 
ATOM     46  C   UNL A   1      37.859  28.979  27.752  1.00  0.00     0.031 C 
ATOM     47  C   UNL A   1      40.248  34.833  30.087  1.00  0.00     0.029 A 
ATOM     48  C   UNL A   1      41.157  33.700  30.137  1.00  0.00     0.049 A 
ATOM     49  H   UNL A   1      40.594  31.699  30.414  1.00  0.00     0.167 HD
ATOM     50  C   UNL A   1      39.200  27.511  29.329  1.00  0.00     0.034 A 
ATOM     51  C   UNL A   1      42.510  33.650  30.033  1.00  0.00     0.034 A 
ATOM     52  C   UNL A   1      39.532  27.516  30.733  1.00  0.00     0.049 A 
ATOM     53  C   UNL A   1      42.930  32.287  30.441  1.00  0.00     0.074 A 
ATOM     54  C   UNL A   1      38.806  27.475  31.906  1.00  0.00     0.029 A 
ATOM     55  N   UNL A   1      40.775  27.996  31.068  1.00  0.00    -0.354 N 
ATOM     56  N   UNL A   1      42.797  31.831  31.656  1.00  0.00    -0.248 NA
ATOM     57  C   UNL A   1      43.045  31.277  29.400  1.00  0.00     0.031 C 
ATOM     58  C   UNL A   1      39.487  28.362  32.790  1.00  0.00     0.029 A 
ATOM     59  C   UNL A   1      40.631  28.832  32.141  1.00  0.00     0.049 A 
ATOM     60  H   UNL A   1      41.622  27.776  30.616  1.00  0.00     0.167 HD
ATOM     61  C   UNL A   1      42.333  30.534  31.483  1.00  0.00     0.074 A 
ATOM     62  C   UNL A   1      42.600  30.216  30.079  1.00  0.00     0.031 C 
ATOM     63  C   UNL A   1      41.502  29.957  32.400  1.00  0.00     0.034 A 
BRANCH  50  64
ATOM     64  C   UNL A   1      40.039  26.755  28.320  1.00  0.00     0.023 A 
ATOM     65  C   UNL A   1      40.076  25.350  28.454  1.00  0.00     0.012 A 
ATOM     66  C   UNL A   1      41.002  27.340  27.463  1.00  0.00     0.148 A 
ATOM     67  C   UNL A   1      41.064  24.580  27.834  1.00  0.00     0.002 A 
ATOM     68  C   UNL A   1      41.937  26.563  26.789  1.00  0.00     0.091 A 
ATOM     69  F   UNL A   1      41.123  28.665  27.379  1.00  0.00    -0.205 F 
ATOM     70  C   UNL A   1      41.995  25.186  27.000  1.00  0.00     0.022 A 
BRANCH  68  71
ATOM     71  S   UNL A   1      43.142  27.294  25.672  1.00  0.00     0.127 S 
ATOM     72  O   UNL A   1      43.873  28.181  26.573  1.00  0.00    -0.237 OA
ATOM     73  O   UNL A   1      43.883  26.115  25.225  1.00  0.00    -0.237 OA
ATOM     74  O   UNL A   1      42.370  27.946  24.623  1.00  0.00    -0.744 OA
ENDBRANCH  68  71
ENDBRANCH  50  64
BRANCH  51  75
ATOM     75  C   UNL A   1      43.432  34.555  29.299  1.00  0.00     0.023 A 
ATOM     76  C   UNL A   1      44.103  35.586  29.990  1.00  0.00     0.012 A 
ATOM     77  C   UNL A   1      43.875  34.236  27.996  1.00  0.00     0.148 A 
ATOM     78  C   UNL A   1      45.193  36.254  29.414  1.00  0.00     0.002 A 
ATOM     79  C   UNL A   1      44.952  34.908  27.424  1.00  0.00     0.091 A 
ATOM     80  F   UNL A   1      43.302  33.209  27.355  1.00  0.00    -0.205 F 
ATOM     81  C   UNL A   1      45.622  35.910  28.134  1.00  0.00     0.022 A 
BRANCH  79  82
ATOM     82  S   UNL A   1      45.577  34.495  25.788  1.00  0.00     0.127 S 
ATOM     83  O   UNL A   1      46.534  35.576  25.550  1.00  0.00    -0.237 OA
ATOM     84  O   UNL A   1      46.178  33.184  26.016  1.00  0.00    -0.237 OA
ATOM     85  O   UNL A   1      44.420  34.514  24.902  1.00  0.00    -0.744 OA
ENDBRANCH  79  82
ENDBRANCH  51  75
BRANCH  63  86
ATOM     86  C   UNL A   1      41.300  30.665  33.716  1.00  0.00     0.023 A 
ATOM     87  C   UNL A   1      42.208  30.559  34.792  1.00  0.00     0.012 A 
ATOM     88  C   UNL A   1      40.256  31.598  33.798  1.00  0.00     0.148 A 
ATOM     89  C   UNL A   1      42.061  31.357  35.932  1.00  0.00     0.002 A 
ATOM     90  C   UNL A   1      40.141  32.421  34.909  1.00  0.00     0.091 A 
ATOM     91  F   UNL A   1      39.406  31.687  32.763  1.00  0.00    -0.205 F 
ATOM     92  C   UNL A   1      41.035  32.298  35.985  1.00  0.00     0.022 A 
BRANCH  90  93
ATOM     93  S   UNL A   1      38.918  33.730  34.975  1.00  0.00     0.127 S 
ATOM     94  O   UNL A   1      37.681  32.981  35.188  1.00  0.00    -0.237 OA
ATOM     95  O   UNL A   1      39.363  34.517  36.127  1.00  0.00    -0.237 OA
ATOM     96  O   UNL A   1      39.013  34.434  33.703  1.00  0.00    -0.744 OA
ENDBRANCH  90  93
ENDBRANCH  63  86
ENDBRANCH  37  38
ENDBRANCH  30  32
ENDBRANCH  29  30
ENDBRANCH   1  29
TORSDOF 16
ENDMDL
MODEL 3
REMARK VINA RESULT:     -13.4      3.353      8.375
REMARK SMILES CC(=O)Nc1ccc(/C=C2/CCc3oc(C(=O)OCCOC(=O)c4ccc(-c5c6nc(c(-c7cccc(S(=O)(=O)[O-])c7F)c7ccc([nH]7)c(-c7cccc(S(=O)(=O)[O-])c7F)c7nc(c(-c8cccc(S(=O)(=O)[O-])c8F)c8ccc5[nH]8)C=C7)C=C6)cc4)c(C)c3C2=O)cc1
REMARK SMILES IDX 20 1 19 2 18 3 16 4 17 5 15 6 9 7 10 8 11 9 90 10 12 11
REMARK SMILES IDX 89 12 91 13 13 14 87 15 14 16 88 17 8 18 5 19 6 20 93 21
REMARK SMILES IDX 7 22 92 23 4 24 1 25 2 26 3 27 21 29 22 30 23 31 24 32 25 33
REMARK SMILES IDX 86 34 26 35 85 36 27 37 28 38 29 39 79 40 30 41 84 42 78 43
REMARK SMILES IDX 80 44 31 45 83 46 77 47 76 48 32 50 64 51 44 52 63 53 45 54
REMARK SMILES IDX 48 55 62 56 81 57 46 58 47 59 61 61 82 62 49 63 33 64 34 65
REMARK SMILES IDX 42 66 35 67 37 68 43 69 36 70 38 71 39 72 40 73 41 74 65 75
REMARK SMILES IDX 66 76 74 77 67 78 69 79 75 80 68 81 70 82 71 83 72 84 73 85
REMARK SMILES IDX 50 86 51 87 59 88 52 89 54 90 60 91 53 92 55 93 56 94 57 95
REMARK SMILES IDX 58 96
REMARK H PARENT 4 28 80 49 48 60
REMARK Flexibility Score: inf
ROOT
ATOM      1  C   UNL A   1      33.628  31.567  27.606  1.00  0.00     0.275 C 
ENDROOT
BRANCH   1   2
ATOM      2  C   UNL A   1      32.623  30.621  26.962  1.00  0.00     0.275 C 
BRANCH   2   3
ATOM      3  O   UNL A   1      33.006  29.244  27.121  1.00  0.00    -0.456 OA
BRANCH   3   4
ATOM      4  C   UNL A   1      31.996  28.323  27.120  1.00  0.00     0.374 C 
ATOM      5  O   UNL A   1      31.168  28.200  28.023  1.00  0.00    -0.242 OA
BRANCH   4   6
ATOM      6  C   UNL A   1      32.013  27.560  25.891  1.00  0.00     0.215 A 
ATOM      7  C   UNL A   1      33.252  23.683  22.130  1.00  0.00     0.016 C 
ATOM      8  C   UNL A   1      32.611  24.860  22.293  1.00  0.00     0.001 C 
ATOM      9  C   UNL A   1      33.067  26.153  21.624  1.00  0.00     0.048 C 
ATOM     10  C   UNL A   1      31.458  25.077  23.232  1.00  0.00     0.192 C 
ATOM     11  C   UNL A   1      33.536  27.205  22.656  1.00  0.00     0.081 C 
ATOM     12  C   UNL A   1      31.768  26.131  24.173  1.00  0.00     0.067 A 
ATOM     13  O   UNL A   1      30.407  24.459  23.185  1.00  0.00    -0.289 OA
ATOM     14  C   UNL A   1      32.705  27.089  23.874  1.00  0.00     0.116 A 
ATOM     15  C   UNL A   1      31.306  26.425  25.487  1.00  0.00     0.014 A 
ATOM     16  O   UNL A   1      32.866  27.961  24.887  1.00  0.00    -0.453 OA
ATOM     17  C   UNL A   1      30.293  25.640  26.243  1.00  0.00     0.049 C 
BRANCH   7  18
ATOM     18  C   UNL A   1      33.097  22.361  22.787  1.00  0.00    -0.025 A 
ATOM     19  C   UNL A   1      32.850  19.926  24.236  1.00  0.00     0.041 A 
ATOM     20  C   UNL A   1      32.058  20.174  23.122  1.00  0.00     0.027 A 
ATOM     21  C   UNL A   1      33.805  20.871  24.602  1.00  0.00     0.027 A 
ATOM     22  C   UNL A   1      32.153  21.391  22.438  1.00  0.00     0.010 A 
ATOM     23  C   UNL A   1      33.932  22.068  23.878  1.00  0.00     0.010 A 
BRANCH  19  24
ATOM     24  N   UNL A   1      32.659  18.705  24.895  1.00  0.00    -0.326 N 
ATOM     25  C   UNL A   1      33.956  17.238  23.375  1.00  0.00     0.114 C 
ATOM     26  C   UNL A   1      33.006  17.438  24.523  1.00  0.00     0.221 C 
ATOM     27  O   UNL A   1      32.605  16.479  25.185  1.00  0.00    -0.275 OA
ATOM     28  H   UNL A   1      32.202  18.771  25.765  1.00  0.00     0.169 HD
ENDBRANCH  19  24
ENDBRANCH   7  18
ENDBRANCH   4   6
ENDBRANCH   3   4
ENDBRANCH   2   3
ENDBRANCH   1   2
BRANCH   1  29
ATOM     29  O   UNL A   1      34.955  31.069  27.472  1.00  0.00    -0.458 OA
BRANCH  29  30
ATOM     30  C   UNL A   1      35.922  31.882  27.949  1.00  0.00     0.338 C 
ATOM     31  O   UNL A   1      36.116  33.048  27.646  1.00  0.00    -0.246 OA
BRANCH  30  32
ATOM     32  C   UNL A   1      36.869  31.089  28.732  1.00  0.00     0.060 A 
ATOM     33  C   UNL A   1      37.996  31.760  29.215  1.00  0.00     0.016 A 
ATOM     34  C   UNL A   1      36.787  29.689  28.701  1.00  0.00     0.016 A 
ATOM     35  C   UNL A   1      39.129  31.024  29.467  1.00  0.00     0.010 A 
ATOM     36  C   UNL A   1      37.922  28.958  28.938  1.00  0.00     0.010 A 
ATOM     37  C   UNL A   1      39.095  29.644  29.236  1.00  0.00    -0.014 A 
BRANCH  37  38
ATOM     38  C   UNL A   1      40.308  28.892  29.462  1.00  0.00     0.031 A 
ATOM     39  C   UNL A   1      40.540  28.669  30.906  1.00  0.00     0.074 A 
ATOM     40  C   UNL A   1      41.040  28.398  28.446  1.00  0.00     0.049 A 
ATOM     41  N   UNL A   1      41.461  29.196  31.642  1.00  0.00    -0.248 NA
ATOM     42  C   UNL A   1      39.488  27.974  31.669  1.00  0.00     0.031 C 
ATOM     43  C   UNL A   1      40.696  28.356  27.021  1.00  0.00     0.029 A 
ATOM     44  N   UNL A   1      42.196  27.688  28.496  1.00  0.00    -0.354 N 
ATOM     45  C   UNL A   1      41.250  28.668  32.912  1.00  0.00     0.074 A 
ATOM     46  C   UNL A   1      39.909  28.157  32.921  1.00  0.00     0.031 C 
ATOM     47  C   UNL A   1      41.473  27.434  26.405  1.00  0.00     0.029 A 
ATOM     48  C   UNL A   1      42.439  26.920  27.361  1.00  0.00     0.049 A 
ATOM     49  H   UNL A   1      42.809  27.714  29.266  1.00  0.00     0.167 HD
ATOM     50  C   UNL A   1      42.302  28.401  33.731  1.00  0.00     0.034 A 
ATOM     51  C   UNL A   1      43.298  25.871  27.269  1.00  0.00     0.034 A 
ATOM     52  C   UNL A   1      43.481  29.114  33.305  1.00  0.00     0.049 A 
ATOM     53  C   UNL A   1      44.242  25.978  28.407  1.00  0.00     0.074 A 
ATOM     54  C   UNL A   1      43.801  30.444  33.117  1.00  0.00     0.029 A 
ATOM     55  N   UNL A   1      44.416  28.392  32.602  1.00  0.00    -0.354 N 
ATOM     56  N   UNL A   1      45.107  26.946  28.531  1.00  0.00    -0.248 NA
ATOM     57  C   UNL A   1      43.894  25.286  29.639  1.00  0.00     0.031 C 
ATOM     58  C   UNL A   1      44.615  30.463  31.947  1.00  0.00     0.029 A 
ATOM     59  C   UNL A   1      44.815  29.144  31.531  1.00  0.00     0.049 A 
ATOM     60  H   UNL A   1      44.742  27.491  32.830  1.00  0.00     0.167 HD
ATOM     61  C   UNL A   1      45.040  27.293  29.874  1.00  0.00     0.074 A 
ATOM     62  C   UNL A   1      44.353  26.175  30.524  1.00  0.00     0.031 C 
ATOM     63  C   UNL A   1      45.264  28.578  30.280  1.00  0.00     0.034 A 
BRANCH  50  64
ATOM     64  C   UNL A   1      42.394  27.179  34.621  1.00  0.00     0.023 A 
ATOM     65  C   UNL A   1      41.975  27.339  35.960  1.00  0.00     0.012 A 
ATOM     66  C   UNL A   1      43.124  26.005  34.317  1.00  0.00     0.148 A 
ATOM     67  C   UNL A   1      42.331  26.423  36.955  1.00  0.00     0.002 A 
ATOM     68  C   UNL A   1      43.412  25.059  35.294  1.00  0.00     0.091 A 
ATOM     69  F   UNL A   1      43.668  25.835  33.112  1.00  0.00    -0.205 F 
ATOM     70  C   UNL A   1      43.049  25.282  36.622  1.00  0.00     0.022 A 
BRANCH  68  71
ATOM     71  S   UNL A   1      44.309  23.548  34.909  1.00  0.00     0.127 S 
ATOM     72  O   UNL A   1      45.534  24.080  34.320  1.00  0.00    -0.237 OA
ATOM     73  O   UNL A   1      44.465  22.953  36.236  1.00  0.00    -0.237 OA
ATOM     74  O   UNL A   1      43.446  22.790  34.013  1.00  0.00    -0.744 OA
ENDBRANCH  68  71
ENDBRANCH  50  64
BRANCH  51  75
ATOM     75  C   UNL A   1      43.167  24.613  26.489  1.00  0.00     0.023 A 
ATOM     76  C   UNL A   1      44.237  24.172  25.682  1.00  0.00     0.012 A 
ATOM     77  C   UNL A   1      42.120  23.702  26.754  1.00  0.00     0.148 A 
ATOM     78  C   UNL A   1      44.274  22.863  25.181  1.00  0.00     0.002 A 
ATOM     79  C   UNL A   1      42.157  22.406  26.249  1.00  0.00     0.091 A 
ATOM     80  F   UNL A   1      41.135  24.076  27.582  1.00  0.00    -0.205 F 
ATOM     81  C   UNL A   1      43.239  21.977  25.471  1.00  0.00     0.022 A 
BRANCH  79  82
ATOM     82  S   UNL A   1      40.869  21.202  26.607  1.00  0.00     0.127 S 
ATOM     83  O   UNL A   1      39.708  21.797  25.944  1.00  0.00    -0.237 OA
ATOM     84  O   UNL A   1      41.391  19.999  25.964  1.00  0.00    -0.237 OA
ATOM     85  O   UNL A   1      40.766  21.148  28.060  1.00  0.00    -0.744 OA
ENDBRANCH  79  82
ENDBRANCH  51  75
BRANCH  63  86
ATOM     86  C   UNL A   1      45.825  29.550  29.273  1.00  0.00     0.023 A 
ATOM     87  C   UNL A   1      47.197  29.605  28.941  1.00  0.00     0.012 A 
ATOM     88  C   UNL A   1      44.913  30.302  28.519  1.00  0.00     0.148 A 
ATOM     89  C   UNL A   1      47.645  30.412  27.890  1.00  0.00     0.002 A 
ATOM     90  C   UNL A   1      45.355  31.064  27.447  1.00  0.00     0.091 A 
ATOM     91  F   UNL A   1      43.614  30.232  28.847  1.00  0.00    -0.205 F 
ATOM     92  C   UNL A   1      46.722  31.132  27.134  1.00  0.00     0.022 A 
BRANCH  90  93
ATOM     93  S   UNL A   1      44.201  31.909  26.367  1.00  0.00     0.127 S 
ATOM     94  O   UNL A   1      43.244  30.849  26.054  1.00  0.00    -0.237 OA
ATOM     95  O   UNL A   1      43.679  32.969  27.232  1.00  0.00    -0.237 OA
ATOM     96  O   UNL A   1      44.987  32.396  25.240  1.00  0.00    -0.744 OA
ENDBRANCH  90  93
ENDBRANCH  63  86
ENDBRANCH  37  38
ENDBRANCH  30  32
ENDBRANCH  29  30
ENDBRANCH   1  29
TORSDOF 16
ENDMDL
