MODEL 1
REMARK VINA RESULT:     -11.2      0.000      0.000
REMARK SMILES CCC[C@@H](CNC(=O)NCc1c(C)nn(C)c1C)C(=O)OCCOC(=O)c1ccc(-c2c3nc(c(-c4cccc(S(=O)(=O)[O-])c4F)c4ccc([nH]4)c(-c4cccc(S(=O)(=O)[O-])c4F)c4nc(c(-c5cccc(S(=O)(=O)[O-])c5F)c5ccc2[nH]5)C=C4)C=C3)cc1
REMARK SMILES IDX 22 1 21 2 19 3 20 4 4 5 3 6 2 7 1 8 5 9 6 10 7 11 8 13 9 14
REMARK SMILES IDX 10 16 11 17 12 18 17 19 13 20 14 21 15 22 18 23 16 24 23 25
REMARK SMILES IDX 24 26 25 27 26 28 27 29 28 30 89 31 29 32 88 33 30 34 31 35
REMARK SMILES IDX 32 36 82 37 33 38 87 39 81 40 83 41 34 42 86 43 80 44 79 45
REMARK SMILES IDX 35 47 67 48 47 49 66 50 48 51 51 52 65 53 84 54 49 55 50 56
REMARK SMILES IDX 64 58 85 59 52 60 36 61 37 62 45 63 38 64 40 65 46 66 39 67
REMARK SMILES IDX 41 68 42 69 43 70 44 71 68 72 69 73 77 74 70 75 72 76 78 77
REMARK SMILES IDX 71 78 73 79 74 80 75 81 76 82 53 83 54 84 62 85 55 86 57 87
REMARK SMILES IDX 63 88 56 89 58 90 59 91 60 92 61 93
REMARK H PARENT 6 12 9 15 83 46 51 57
REMARK Flexibility Score: inf
ROOT
ATOM      1  C   UNL A   1      31.287  29.346  25.438  1.00  0.00     0.274 C 
ENDROOT
BRANCH   1   2
ATOM      2  O   UNL A   1      32.405  28.920  24.635  1.00  0.00    -0.462 OA
BRANCH   2   3
ATOM      3  C   UNL A   1      32.197  28.908  23.292  1.00  0.00     0.310 C 
ATOM      4  O   UNL A   1      33.072  29.094  22.454  1.00  0.00    -0.252 OA
BRANCH   3   5
ATOM      5  C   UNL A   1      30.744  28.671  22.912  1.00  0.00     0.118 C 
BRANCH   5   6
ATOM      6  C   UNL A   1      30.183  29.779  22.000  1.00  0.00     0.017 C 
BRANCH   6   7
ATOM      7  C   UNL A   1      28.658  29.782  21.831  1.00  0.00    -0.002 C 
ATOM      8  C   UNL A   1      27.887  29.636  23.136  1.00  0.00     0.004 C 
ENDBRANCH   6   7
ENDBRANCH   5   6
BRANCH   5   9
ATOM      9  C   UNL A   1      30.525  27.253  22.376  1.00  0.00     0.133 C 
BRANCH   9  10
ATOM     10  N   UNL A   1      31.672  26.709  21.679  1.00  0.00    -0.337 N 
ATOM     11  C   UNL A   1      32.266  25.510  21.674  1.00  0.00     0.315 C 
ATOM     12  H   UNL A   1      32.107  27.359  21.083  1.00  0.00     0.165 HD
ATOM     13  O   UNL A   1      33.279  25.377  20.981  1.00  0.00    -0.249 OA
ATOM     14  N   UNL A   1      31.829  24.443  22.348  1.00  0.00    -0.334 N 
ATOM     15  H   UNL A   1      32.384  23.647  22.186  1.00  0.00     0.165 HD
BRANCH  14  16
ATOM     16  C   UNL A   1      30.739  24.172  23.258  1.00  0.00     0.157 C 
BRANCH  16  17
ATOM     17  C   UNL A   1      31.178  23.886  24.659  1.00  0.00     0.015 A 
ATOM     18  C   UNL A   1      30.816  24.705  25.777  1.00  0.00     0.065 A 
ATOM     19  C   UNL A   1      31.968  22.884  25.217  1.00  0.00     0.040 A 
ATOM     20  C   UNL A   1      29.954  25.918  25.809  1.00  0.00     0.069 C 
ATOM     21  N   UNL A   1      31.366  24.274  26.911  1.00  0.00    -0.178 NA
ATOM     22  N   UNL A   1      32.087  23.206  26.548  1.00  0.00    -0.272 N 
ATOM     23  C   UNL A   1      32.640  21.686  24.650  1.00  0.00     0.067 C 
ATOM     24  C   UNL A   1      32.896  22.571  27.562  1.00  0.00     0.174 C 
ENDBRANCH  16  17
ENDBRANCH  14  16
ENDBRANCH   9  10
ENDBRANCH   5   9
ENDBRANCH   3   5
ENDBRANCH   2   3
ENDBRANCH   1   2
BRANCH   1  25
ATOM     25  C   UNL A   1      31.680  30.411  26.466  1.00  0.00     0.275 C 
BRANCH  25  26
ATOM     26  O   UNL A   1      33.054  30.814  26.329  1.00  0.00    -0.458 OA
BRANCH  26  27
ATOM     27  C   UNL A   1      33.463  31.766  27.197  1.00  0.00     0.338 C 
ATOM     28  O   UNL A   1      32.836  32.749  27.563  1.00  0.00    -0.246 OA
BRANCH  27  29
ATOM     29  C   UNL A   1      34.763  31.394  27.773  1.00  0.00     0.060 A 
ATOM     30  C   UNL A   1      34.953  30.070  28.180  1.00  0.00     0.016 A 
ATOM     31  C   UNL A   1      35.743  32.357  28.005  1.00  0.00     0.016 A 
ATOM     32  C   UNL A   1      36.124  29.697  28.830  1.00  0.00     0.010 A 
ATOM     33  C   UNL A   1      36.917  31.985  28.666  1.00  0.00     0.010 A 
ATOM     34  C   UNL A   1      37.104  30.659  29.096  1.00  0.00    -0.014 A 
BRANCH  34  35
ATOM     35  C   UNL A   1      38.289  30.301  29.908  1.00  0.00     0.031 A 
ATOM     36  C   UNL A   1      39.295  29.336  29.349  1.00  0.00     0.074 A 
ATOM     37  C   UNL A   1      38.453  30.829  31.134  1.00  0.00     0.049 A 
ATOM     38  N   UNL A   1      40.333  28.797  29.930  1.00  0.00    -0.248 NA
ATOM     39  C   UNL A   1      39.103  28.922  27.948  1.00  0.00     0.031 C 
ATOM     40  C   UNL A   1      37.555  31.800  31.762  1.00  0.00     0.029 A 
ATOM     41  N   UNL A   1      39.419  30.601  32.081  1.00  0.00    -0.354 N 
ATOM     42  C   UNL A   1      40.897  27.950  28.983  1.00  0.00     0.074 A 
ATOM     43  C   UNL A   1      40.088  28.048  27.788  1.00  0.00     0.031 C 
ATOM     44  C   UNL A   1      37.999  32.064  33.002  1.00  0.00     0.029 A 
ATOM     45  C   UNL A   1      39.185  31.254  33.268  1.00  0.00     0.049 A 
ATOM     46  H   UNL A   1      40.202  30.026  31.926  1.00  0.00     0.167 HD
ATOM     47  C   UNL A   1      41.996  27.170  29.101  1.00  0.00     0.034 A 
ATOM     48  C   UNL A   1      39.841  31.183  34.443  1.00  0.00     0.034 A 
ATOM     49  C   UNL A   1      42.813  27.103  30.281  1.00  0.00     0.049 A 
ATOM     50  C   UNL A   1      41.049  30.291  34.550  1.00  0.00     0.074 A 
ATOM     51  C   UNL A   1      43.952  26.349  30.499  1.00  0.00     0.029 A 
ATOM     52  N   UNL A   1      42.579  27.822  31.443  1.00  0.00    -0.354 N 
ATOM     53  N   UNL A   1      41.610  29.546  33.627  1.00  0.00    -0.248 NA
ATOM     54  C   UNL A   1      41.731  30.247  35.852  1.00  0.00     0.031 C 
ATOM     55  C   UNL A   1      44.408  26.612  31.796  1.00  0.00     0.029 A 
ATOM     56  C   UNL A   1      43.556  27.536  32.380  1.00  0.00     0.049 A 
ATOM     57  H   UNL A   1      41.830  28.445  31.581  1.00  0.00     0.167 HD
ATOM     58  C   UNL A   1      42.727  28.974  34.225  1.00  0.00     0.074 A 
ATOM     59  C   UNL A   1      42.773  29.471  35.584  1.00  0.00     0.031 C 
ATOM     60  C   UNL A   1      43.623  28.100  33.704  1.00  0.00     0.034 A 
BRANCH  47  61
ATOM     61  C   UNL A   1      42.400  26.349  27.906  1.00  0.00     0.023 A 
ATOM     62  C   UNL A   1      43.272  26.905  26.949  1.00  0.00     0.012 A 
ATOM     63  C   UNL A   1      41.967  25.017  27.759  1.00  0.00     0.148 A 
ATOM     64  C   UNL A   1      43.689  26.155  25.850  1.00  0.00     0.002 A 
ATOM     65  C   UNL A   1      42.416  24.265  26.680  1.00  0.00     0.091 A 
ATOM     66  F   UNL A   1      41.118  24.517  28.667  1.00  0.00    -0.205 F 
ATOM     67  C   UNL A   1      43.271  24.833  25.722  1.00  0.00     0.022 A 
BRANCH  65  68
ATOM     68  S   UNL A   1      41.983  22.534  26.462  1.00  0.00     0.127 S 
ATOM     69  O   UNL A   1      42.606  22.234  25.174  1.00  0.00    -0.237 OA
ATOM     70  O   UNL A   1      42.629  21.905  27.614  1.00  0.00    -0.237 OA
ATOM     71  O   UNL A   1      40.527  22.482  26.482  1.00  0.00    -0.744 OA
ENDBRANCH  65  68
ENDBRANCH  47  61
BRANCH  48  72
ATOM     72  C   UNL A   1      39.390  32.005  35.601  1.00  0.00     0.023 A 
ATOM     73  C   UNL A   1      38.517  31.439  36.551  1.00  0.00     0.012 A 
ATOM     74  C   UNL A   1      39.834  33.329  35.782  1.00  0.00     0.148 A 
ATOM     75  C   UNL A   1      38.075  32.185  37.644  1.00  0.00     0.002 A 
ATOM     76  C   UNL A   1      39.433  34.048  36.902  1.00  0.00     0.091 A 
ATOM     77  F   UNL A   1      40.644  33.862  34.856  1.00  0.00    -0.205 F 
ATOM     78  C   UNL A   1      38.542  33.484  37.827  1.00  0.00     0.022 A 
BRANCH  76  79
ATOM     79  S   UNL A   1      40.096  35.677  37.269  1.00  0.00     0.127 S 
ATOM     80  O   UNL A   1      39.653  36.450  36.113  1.00  0.00    -0.237 OA
ATOM     81  O   UNL A   1      39.425  36.011  38.527  1.00  0.00    -0.237 OA
ATOM     82  O   UNL A   1      41.534  35.483  37.398  1.00  0.00    -0.744 OA
ENDBRANCH  76  79
ENDBRANCH  48  72
BRANCH  60  83
ATOM     83  C   UNL A   1      44.758  27.654  34.586  1.00  0.00     0.023 A 
ATOM     84  C   UNL A   1      45.934  28.426  34.648  1.00  0.00     0.012 A 
ATOM     85  C   UNL A   1      44.623  26.524  35.415  1.00  0.00     0.148 A 
ATOM     86  C   UNL A   1      46.970  28.067  35.509  1.00  0.00     0.002 A 
ATOM     87  C   UNL A   1      45.642  26.196  36.301  1.00  0.00     0.091 A 
ATOM     88  F   UNL A   1      43.503  25.791  35.323  1.00  0.00    -0.205 F 
ATOM     89  C   UNL A   1      46.819  26.961  36.344  1.00  0.00     0.022 A 
BRANCH  87  90
ATOM     90  S   UNL A   1      45.492  24.842  37.472  1.00  0.00     0.127 S 
ATOM     91  O   UNL A   1      45.409  23.685  36.583  1.00  0.00    -0.237 OA
ATOM     92  O   UNL A   1      46.740  24.941  38.230  1.00  0.00    -0.237 OA
ATOM     93  O   UNL A   1      44.293  25.124  38.252  1.00  0.00    -0.744 OA
ENDBRANCH  87  90
ENDBRANCH  60  83
ENDBRANCH  34  35
ENDBRANCH  27  29
ENDBRANCH  26  27
ENDBRANCH  25  26
ENDBRANCH   1  25
TORSDOF 20
ENDMDL
MODEL 2
REMARK VINA RESULT:     -10.9      1.420      2.412
REMARK SMILES CCC[C@@H](CNC(=O)NCc1c(C)nn(C)c1C)C(=O)OCCOC(=O)c1ccc(-c2c3nc(c(-c4cccc(S(=O)(=O)[O-])c4F)c4ccc([nH]4)c(-c4cccc(S(=O)(=O)[O-])c4F)c4nc(c(-c5cccc(S(=O)(=O)[O-])c5F)c5ccc2[nH]5)C=C4)C=C3)cc1
REMARK SMILES IDX 22 1 21 2 19 3 20 4 4 5 3 6 2 7 1 8 5 9 6 10 7 11 8 13 9 14
REMARK SMILES IDX 10 16 11 17 12 18 17 19 13 20 14 21 15 22 18 23 16 24 23 25
REMARK SMILES IDX 24 26 25 27 26 28 27 29 28 30 89 31 29 32 88 33 30 34 31 35
REMARK SMILES IDX 32 36 82 37 33 38 87 39 81 40 83 41 34 42 86 43 80 44 79 45
REMARK SMILES IDX 35 47 67 48 47 49 66 50 48 51 51 52 65 53 84 54 49 55 50 56
REMARK SMILES IDX 64 58 85 59 52 60 36 61 37 62 45 63 38 64 40 65 46 66 39 67
REMARK SMILES IDX 41 68 42 69 43 70 44 71 68 72 69 73 77 74 70 75 72 76 78 77
REMARK SMILES IDX 71 78 73 79 74 80 75 81 76 82 53 83 54 84 62 85 55 86 57 87
REMARK SMILES IDX 63 88 56 89 58 90 59 91 60 92 61 93
REMARK H PARENT 6 12 9 15 83 46 51 57
REMARK Flexibility Score: inf
ROOT
ATOM      1  C   UNL A   1      31.628  28.589  27.507  1.00  0.00     0.274 C 
ENDROOT
BRANCH   1   2
ATOM      2  O   UNL A   1      31.129  27.341  26.989  1.00  0.00    -0.462 OA
BRANCH   2   3
ATOM      3  C   UNL A   1      31.788  26.844  25.908  1.00  0.00     0.310 C 
ATOM      4  O   UNL A   1      33.005  26.725  25.833  1.00  0.00    -0.252 OA
BRANCH   3   5
ATOM      5  C   UNL A   1      30.861  26.471  24.762  1.00  0.00     0.118 C 
BRANCH   5   6
ATOM      6  C   UNL A   1      31.296  27.097  23.423  1.00  0.00     0.017 C 
BRANCH   6   7
ATOM      7  C   UNL A   1      31.932  26.125  22.420  1.00  0.00    -0.002 C 
ATOM      8  C   UNL A   1      33.350  26.496  22.007  1.00  0.00     0.004 C 
ENDBRANCH   6   7
ENDBRANCH   5   6
BRANCH   5   9
ATOM      9  C   UNL A   1      30.628  24.958  24.695  1.00  0.00     0.133 C 
BRANCH   9  10
ATOM     10  N   UNL A   1      30.273  24.365  25.969  1.00  0.00    -0.337 N 
ATOM     11  C   UNL A   1      30.448  23.151  26.502  1.00  0.00     0.315 C 
ATOM     12  H   UNL A   1      29.804  24.988  26.568  1.00  0.00     0.165 HD
ATOM     13  O   UNL A   1      29.979  22.948  27.626  1.00  0.00    -0.249 OA
ATOM     14  N   UNL A   1      31.110  22.151  25.914  1.00  0.00    -0.334 N 
ATOM     15  H   UNL A   1      31.157  21.350  26.484  1.00  0.00     0.165 HD
BRANCH  14  16
ATOM     16  C   UNL A   1      31.775  21.959  24.646  1.00  0.00     0.157 C 
BRANCH  16  17
ATOM     17  C   UNL A   1      33.224  21.610  24.769  1.00  0.00     0.015 A 
ATOM     18  C   UNL A   1      33.702  20.262  24.848  1.00  0.00     0.065 A 
ATOM     19  C   UNL A   1      34.380  22.383  24.844  1.00  0.00     0.040 A 
ATOM     20  C   UNL A   1      32.932  18.990  24.792  1.00  0.00     0.069 C 
ATOM     21  N   UNL A   1      35.025  20.210  25.000  1.00  0.00    -0.178 NA
ATOM     22  N   UNL A   1      35.408  21.492  25.038  1.00  0.00    -0.272 N 
ATOM     23  C   UNL A   1      34.630  23.847  24.781  1.00  0.00     0.067 C 
ATOM     24  C   UNL A   1      36.802  21.764  25.302  1.00  0.00     0.174 C 
ENDBRANCH  16  17
ENDBRANCH  14  16
ENDBRANCH   9  10
ENDBRANCH   5   9
ENDBRANCH   3   5
ENDBRANCH   2   3
ENDBRANCH   1   2
BRANCH   1  25
ATOM     25  C   UNL A   1      31.580  29.713  26.467  1.00  0.00     0.275 C 
BRANCH  25  26
ATOM     26  O   UNL A   1      32.885  30.250  26.191  1.00  0.00    -0.458 OA
BRANCH  26  27
ATOM     27  C   UNL A   1      33.269  31.269  26.993  1.00  0.00     0.338 C 
ATOM     28  O   UNL A   1      32.607  32.247  27.311  1.00  0.00    -0.246 OA
BRANCH  27  29
ATOM     29  C   UNL A   1      34.592  30.986  27.565  1.00  0.00     0.060 A 
ATOM     30  C   UNL A   1      34.901  29.664  27.898  1.00  0.00     0.016 A 
ATOM     31  C   UNL A   1      35.476  32.020  27.867  1.00  0.00     0.016 A 
ATOM     32  C   UNL A   1      36.095  29.363  28.542  1.00  0.00     0.010 A 
ATOM     33  C   UNL A   1      36.674  31.720  28.522  1.00  0.00     0.010 A 
ATOM     34  C   UNL A   1      36.979  30.394  28.878  1.00  0.00    -0.014 A 
BRANCH  34  35
ATOM     35  C   UNL A   1      38.185  30.100  29.685  1.00  0.00     0.031 A 
ATOM     36  C   UNL A   1      39.223  29.165  29.135  1.00  0.00     0.074 A 
ATOM     37  C   UNL A   1      38.338  30.658  30.898  1.00  0.00     0.049 A 
ATOM     38  N   UNL A   1      40.287  28.680  29.716  1.00  0.00    -0.248 NA
ATOM     39  C   UNL A   1      39.036  28.715  27.745  1.00  0.00     0.031 C 
ATOM     40  C   UNL A   1      37.408  31.606  31.516  1.00  0.00     0.029 A 
ATOM     41  N   UNL A   1      39.321  30.489  31.840  1.00  0.00    -0.354 N 
ATOM     42  C   UNL A   1      40.876  27.836  28.781  1.00  0.00     0.074 A 
ATOM     43  C   UNL A   1      40.053  27.878  27.593  1.00  0.00     0.031 C 
ATOM     44  C   UNL A   1      37.852  31.912  32.746  1.00  0.00     0.029 A 
ATOM     45  C   UNL A   1      39.072  31.156  33.016  1.00  0.00     0.049 A 
ATOM     46  H   UNL A   1      40.125  29.942  31.689  1.00  0.00     0.167 HD
ATOM     47  C   UNL A   1      42.007  27.104  28.903  1.00  0.00     0.034 A 
ATOM     48  C   UNL A   1      39.741  31.135  34.186  1.00  0.00     0.034 A 
ATOM     49  C   UNL A   1      42.837  27.093  30.076  1.00  0.00     0.049 A 
ATOM     50  C   UNL A   1      40.985  30.294  34.299  1.00  0.00     0.074 A 
ATOM     51  C   UNL A   1      44.007  26.390  30.298  1.00  0.00     0.029 A 
ATOM     52  N   UNL A   1      42.585  27.825  31.226  1.00  0.00    -0.354 N 
ATOM     53  N   UNL A   1      41.567  29.554  33.385  1.00  0.00    -0.248 NA
ATOM     54  C   UNL A   1      41.680  30.303  35.594  1.00  0.00     0.031 C 
ATOM     55  C   UNL A   1      44.463  26.697  31.585  1.00  0.00     0.029 A 
ATOM     56  C   UNL A   1      43.581  27.598  32.159  1.00  0.00     0.049 A 
ATOM     57  H   UNL A   1      41.812  28.421  31.359  1.00  0.00     0.167 HD
ATOM     58  C   UNL A   1      42.711  29.038  33.983  1.00  0.00     0.074 A 
ATOM     59  C   UNL A   1      42.750  29.565  35.332  1.00  0.00     0.031 C 
ATOM     60  C   UNL A   1      43.637  28.190  33.471  1.00  0.00     0.034 A 
BRANCH  47  61
ATOM     61  C   UNL A   1      42.432  26.276  27.721  1.00  0.00     0.023 A 
ATOM     62  C   UNL A   1      43.329  26.822  26.782  1.00  0.00     0.012 A 
ATOM     63  C   UNL A   1      41.994  24.946  27.569  1.00  0.00     0.148 A 
ATOM     64  C   UNL A   1      43.766  26.066  25.696  1.00  0.00     0.002 A 
ATOM     65  C   UNL A   1      42.463  24.186  26.504  1.00  0.00     0.091 A 
ATOM     66  F   UNL A   1      41.122  24.455  28.460  1.00  0.00    -0.205 F 
ATOM     67  C   UNL A   1      43.343  24.746  25.563  1.00  0.00     0.022 A 
BRANCH  65  68
ATOM     68  S   UNL A   1      42.024  22.458  26.282  1.00  0.00     0.127 S 
ATOM     69  O   UNL A   1      40.564  22.527  26.243  1.00  0.00    -0.237 OA
ATOM     70  O   UNL A   1      42.654  22.139  25.001  1.00  0.00    -0.237 OA
ATOM     71  O   UNL A   1      42.588  21.753  27.425  1.00  0.00    -0.744 OA
ENDBRANCH  65  68
ENDBRANCH  47  61
BRANCH  48  72
ATOM     72  C   UNL A   1      39.268  31.961  35.332  1.00  0.00     0.023 A 
ATOM     73  C   UNL A   1      38.346  31.413  36.244  1.00  0.00     0.012 A 
ATOM     74  C   UNL A   1      39.740  33.272  35.538  1.00  0.00     0.148 A 
ATOM     75  C   UNL A   1      37.882  32.163  37.325  1.00  0.00     0.002 A 
ATOM     76  C   UNL A   1      39.315  33.995  36.647  1.00  0.00     0.091 A 
ATOM     77  F   UNL A   1      40.597  33.789  34.647  1.00  0.00    -0.205 F 
ATOM     78  C   UNL A   1      38.375  33.449  37.534  1.00  0.00     0.022 A 
BRANCH  76  79
ATOM     79  S   UNL A   1      40.005  35.604  37.050  1.00  0.00     0.127 S 
ATOM     80  O   UNL A   1      41.426  35.298  37.183  1.00  0.00    -0.237 OA
ATOM     81  O   UNL A   1      39.654  36.399  35.872  1.00  0.00    -0.237 OA
ATOM     82  O   UNL A   1      39.321  36.018  38.269  1.00  0.00    -0.744 OA
ENDBRANCH  76  79
ENDBRANCH  48  72
BRANCH  60  83
ATOM     83  C   UNL A   1      44.797  27.808  34.350  1.00  0.00     0.023 A 
ATOM     84  C   UNL A   1      45.948  28.619  34.372  1.00  0.00     0.012 A 
ATOM     85  C   UNL A   1      44.709  26.701  35.215  1.00  0.00     0.148 A 
ATOM     86  C   UNL A   1      47.006  28.320  35.229  1.00  0.00     0.002 A 
ATOM     87  C   UNL A   1      45.750  26.433  36.097  1.00  0.00     0.091 A 
ATOM     88  F   UNL A   1      43.612  25.931  35.162  1.00  0.00    -0.205 F 
ATOM     89  C   UNL A   1      46.902  27.236  36.100  1.00  0.00     0.022 A 
BRANCH  87  90
ATOM     90  S   UNL A   1      45.658  25.112  37.311  1.00  0.00     0.127 S 
ATOM     91  O   UNL A   1      47.017  24.577  37.274  1.00  0.00    -0.237 OA
ATOM     92  O   UNL A   1      45.320  25.835  38.537  1.00  0.00    -0.237 OA
ATOM     93  O   UNL A   1      44.613  24.212  36.838  1.00  0.00    -0.744 OA
ENDBRANCH  87  90
ENDBRANCH  60  83
ENDBRANCH  34  35
ENDBRANCH  27  29
ENDBRANCH  26  27
ENDBRANCH  25  26
ENDBRANCH   1  25
TORSDOF 20
ENDMDL
MODEL 3
REMARK VINA RESULT:     -10.7      5.271      8.271
REMARK SMILES CCC[C@@H](CNC(=O)NCc1c(C)nn(C)c1C)C(=O)OCCOC(=O)c1ccc(-c2c3nc(c(-c4cccc(S(=O)(=O)[O-])c4F)c4ccc([nH]4)c(-c4cccc(S(=O)(=O)[O-])c4F)c4nc(c(-c5cccc(S(=O)(=O)[O-])c5F)c5ccc2[nH]5)C=C4)C=C3)cc1
REMARK SMILES IDX 22 1 21 2 19 3 20 4 4 5 3 6 2 7 1 8 5 9 6 10 7 11 8 13 9 14
REMARK SMILES IDX 10 16 11 17 12 18 17 19 13 20 14 21 15 22 18 23 16 24 23 25
REMARK SMILES IDX 24 26 25 27 26 28 27 29 28 30 89 31 29 32 88 33 30 34 31 35
REMARK SMILES IDX 32 36 82 37 33 38 87 39 81 40 83 41 34 42 86 43 80 44 79 45
REMARK SMILES IDX 35 47 67 48 47 49 66 50 48 51 51 52 65 53 84 54 49 55 50 56
REMARK SMILES IDX 64 58 85 59 52 60 36 61 37 62 45 63 38 64 40 65 46 66 39 67
REMARK SMILES IDX 41 68 42 69 43 70 44 71 68 72 69 73 77 74 70 75 72 76 78 77
REMARK SMILES IDX 71 78 73 79 74 80 75 81 76 82 53 83 54 84 62 85 55 86 57 87
REMARK SMILES IDX 63 88 56 89 58 90 59 91 60 92 61 93
REMARK H PARENT 6 12 9 15 83 46 51 57
REMARK Flexibility Score: inf
ROOT
ATOM      1  C   UNL A   1      36.740  21.271  25.592  1.00  0.00     0.274 C 
ENDROOT
BRANCH   1   2
ATOM      2  O   UNL A   1      35.594  20.738  24.900  1.00  0.00    -0.462 OA
BRANCH   2   3
ATOM      3  C   UNL A   1      34.416  20.796  25.576  1.00  0.00     0.310 C 
ATOM      4  O   UNL A   1      34.274  21.312  26.679  1.00  0.00    -0.252 OA
BRANCH   3   5
ATOM      5  C   UNL A   1      33.270  20.119  24.842  1.00  0.00     0.118 C 
BRANCH   5   6
ATOM      6  C   UNL A   1      32.860  18.783  25.490  1.00  0.00     0.017 C 
BRANCH   6   7
ATOM      7  C   UNL A   1      33.403  17.524  24.799  1.00  0.00    -0.002 C 
ATOM      8  C   UNL A   1      33.293  17.550  23.282  1.00  0.00     0.004 C 
ENDBRANCH   6   7
ENDBRANCH   5   6
BRANCH   5   9
ATOM      9  C   UNL A   1      32.102  21.082  24.609  1.00  0.00     0.133 C 
BRANCH   9  10
ATOM     10  N   UNL A   1      31.646  21.748  25.812  1.00  0.00    -0.337 N 
ATOM     11  C   UNL A   1      31.028  22.912  26.045  1.00  0.00     0.315 C 
ATOM     12  H   UNL A   1      31.830  21.236  26.632  1.00  0.00     0.165 HD
ATOM     13  O   UNL A   1      30.808  23.215  27.221  1.00  0.00    -0.249 OA
ATOM     14  N   UNL A   1      30.615  23.756  25.096  1.00  0.00    -0.334 N 
ATOM     15  H   UNL A   1      30.152  24.540  25.471  1.00  0.00     0.165 HD
BRANCH  14  16
ATOM     16  C   UNL A   1      30.683  23.800  23.654  1.00  0.00     0.157 C 
BRANCH  16  17
ATOM     17  C   UNL A   1      31.650  24.810  23.124  1.00  0.00     0.015 A 
ATOM     18  C   UNL A   1      32.842  24.457  22.413  1.00  0.00     0.065 A 
ATOM     19  C   UNL A   1      31.683  26.202  23.167  1.00  0.00     0.040 A 
ATOM     20  C   UNL A   1      33.340  23.108  22.030  1.00  0.00     0.069 C 
ATOM     21  N   UNL A   1      33.564  25.528  22.085  1.00  0.00    -0.178 NA
ATOM     22  N   UNL A   1      32.874  26.561  22.582  1.00  0.00    -0.272 N 
ATOM     23  C   UNL A   1      30.750  27.224  23.708  1.00  0.00     0.067 C 
ATOM     24  C   UNL A   1      33.466  27.874  22.473  1.00  0.00     0.174 C 
ENDBRANCH  16  17
ENDBRANCH  14  16
ENDBRANCH   9  10
ENDBRANCH   5   9
ENDBRANCH   3   5
ENDBRANCH   2   3
ENDBRANCH   1   2
BRANCH   1  25
ATOM     25  C   UNL A   1      37.989  20.404  25.406  1.00  0.00     0.275 C 
BRANCH  25  26
ATOM     26  O   UNL A   1      39.194  21.189  25.387  1.00  0.00    -0.458 OA
BRANCH  26  27
ATOM     27  C   UNL A   1      39.943  21.119  26.510  1.00  0.00     0.338 C 
ATOM     28  O   UNL A   1      40.409  20.112  27.024  1.00  0.00    -0.246 OA
BRANCH  27  29
ATOM     29  C   UNL A   1      40.251  22.472  26.993  1.00  0.00     0.060 A 
ATOM     30  C   UNL A   1      39.683  23.559  26.322  1.00  0.00     0.016 A 
ATOM     31  C   UNL A   1      41.167  22.672  28.024  1.00  0.00     0.016 A 
ATOM     32  C   UNL A   1      40.030  24.859  26.672  1.00  0.00     0.010 A 
ATOM     33  C   UNL A   1      41.523  23.978  28.372  1.00  0.00     0.010 A 
ATOM     34  C   UNL A   1      40.971  25.075  27.685  1.00  0.00    -0.014 A 
BRANCH  34  35
ATOM     35  C   UNL A   1      41.448  26.447  27.969  1.00  0.00     0.031 A 
ATOM     36  C   UNL A   1      42.871  26.807  27.653  1.00  0.00     0.074 A 
ATOM     37  C   UNL A   1      40.616  27.352  28.513  1.00  0.00     0.049 A 
ATOM     38  N   UNL A   1      43.526  27.903  27.927  1.00  0.00    -0.248 NA
ATOM     39  C   UNL A   1      43.663  25.795  26.932  1.00  0.00     0.031 C 
ATOM     40  C   UNL A   1      39.206  27.120  28.831  1.00  0.00     0.029 A 
ATOM     41  N   UNL A   1      40.844  28.643  28.919  1.00  0.00    -0.354 N 
ATOM     42  C   UNL A   1      44.816  27.702  27.451  1.00  0.00     0.074 A 
ATOM     43  C   UNL A   1      44.852  26.379  26.867  1.00  0.00     0.031 C 
ATOM     44  C   UNL A   1      38.702  28.223  29.408  1.00  0.00     0.029 A 
ATOM     45  C   UNL A   1      39.760  29.222  29.535  1.00  0.00     0.049 A 
ATOM     46  H   UNL A   1      41.701  29.108  28.783  1.00  0.00     0.167 HD
ATOM     47  C   UNL A   1      45.869  28.549  27.490  1.00  0.00     0.034 A 
ATOM     48  C   UNL A   1      39.647  30.413  30.155  1.00  0.00     0.034 A 
ATOM     49  C   UNL A   1      45.816  29.875  28.044  1.00  0.00     0.049 A 
ATOM     50  C   UNL A   1      40.842  31.328  30.200  1.00  0.00     0.074 A 
ATOM     51  C   UNL A   1      46.827  30.816  28.125  1.00  0.00     0.029 A 
ATOM     52  N   UNL A   1      44.687  30.449  28.606  1.00  0.00    -0.354 N 
ATOM     53  N   UNL A   1      42.037  31.152  29.688  1.00  0.00    -0.248 NA
ATOM     54  C   UNL A   1      40.669  32.616  30.887  1.00  0.00     0.031 C 
ATOM     55  C   UNL A   1      46.307  31.961  28.740  1.00  0.00     0.029 A 
ATOM     56  C   UNL A   1      44.972  31.734  29.031  1.00  0.00     0.049 A 
ATOM     57  H   UNL A   1      43.810  30.008  28.690  1.00  0.00     0.167 HD
ATOM     58  C   UNL A   1      42.745  32.316  29.960  1.00  0.00     0.074 A 
ATOM     59  C   UNL A   1      41.840  33.199  30.667  1.00  0.00     0.031 C 
ATOM     60  C   UNL A   1      44.033  32.622  29.668  1.00  0.00     0.034 A 
BRANCH  47  61
ATOM     61  C   UNL A   1      47.165  28.080  26.887  1.00  0.00     0.023 A 
ATOM     62  C   UNL A   1      48.220  27.689  27.734  1.00  0.00     0.012 A 
ATOM     63  C   UNL A   1      47.319  27.971  25.491  1.00  0.00     0.148 A 
ATOM     64  C   UNL A   1      49.420  27.218  27.201  1.00  0.00     0.002 A 
ATOM     65  C   UNL A   1      48.504  27.467  24.969  1.00  0.00     0.091 A 
ATOM     66  F   UNL A   1      46.312  28.373  24.703  1.00  0.00    -0.205 F 
ATOM     67  C   UNL A   1      49.558  27.096  25.821  1.00  0.00     0.022 A 
BRANCH  65  68
ATOM     68  S   UNL A   1      48.754  27.214  23.207  1.00  0.00     0.127 S 
ATOM     69  O   UNL A   1      48.057  28.368  22.641  1.00  0.00    -0.237 OA
ATOM     70  O   UNL A   1      50.211  27.263  23.090  1.00  0.00    -0.237 OA
ATOM     71  O   UNL A   1      48.166  25.916  22.903  1.00  0.00    -0.744 OA
ENDBRANCH  65  68
ENDBRANCH  47  61
BRANCH  48  72
ATOM     72  C   UNL A   1      38.344  30.824  30.751  1.00  0.00     0.023 A 
ATOM     73  C   UNL A   1      38.064  30.493  32.091  1.00  0.00     0.012 A 
ATOM     74  C   UNL A   1      37.395  31.556  30.013  1.00  0.00     0.148 A 
ATOM     75  C   UNL A   1      36.853  30.861  32.676  1.00  0.00     0.002 A 
ATOM     76  C   UNL A   1      36.212  31.966  30.618  1.00  0.00     0.091 A 
ATOM     77  F   UNL A   1      37.665  31.841  28.731  1.00  0.00    -0.205 F 
ATOM     78  C   UNL A   1      35.932  31.608  31.945  1.00  0.00     0.022 A 
BRANCH  76  79
ATOM     79  S   UNL A   1      35.041  33.039  29.779  1.00  0.00     0.127 S 
ATOM     80  O   UNL A   1      35.906  34.114  29.302  1.00  0.00    -0.237 OA
ATOM     81  O   UNL A   1      34.511  32.164  28.731  1.00  0.00    -0.237 OA
ATOM     82  O   UNL A   1      34.063  33.405  30.796  1.00  0.00    -0.744 OA
ENDBRANCH  76  79
ENDBRANCH  48  72
BRANCH  60  83
ATOM     83  C   UNL A   1      44.537  33.982  30.072  1.00  0.00     0.023 A 
ATOM     84  C   UNL A   1      45.218  34.135  31.295  1.00  0.00     0.012 A 
ATOM     85  C   UNL A   1      44.413  35.082  29.202  1.00  0.00     0.148 A 
ATOM     86  C   UNL A   1      45.752  35.371  31.656  1.00  0.00     0.002 A 
ATOM     87  C   UNL A   1      44.983  36.301  29.550  1.00  0.00     0.091 A 
ATOM     88  F   UNL A   1      43.741  34.918  28.053  1.00  0.00    -0.205 F 
ATOM     89  C   UNL A   1      45.645  36.450  30.779  1.00  0.00     0.022 A 
BRANCH  87  90
ATOM     90  S   UNL A   1      44.968  37.714  28.441  1.00  0.00     0.127 S 
ATOM     91  O   UNL A   1      43.637  38.267  28.678  1.00  0.00    -0.237 OA
ATOM     92  O   UNL A   1      46.069  38.529  28.955  1.00  0.00    -0.237 OA
ATOM     93  O   UNL A   1      45.196  37.172  27.106  1.00  0.00    -0.744 OA
ENDBRANCH  87  90
ENDBRANCH  60  83
ENDBRANCH  34  35
ENDBRANCH  27  29
ENDBRANCH  26  27
ENDBRANCH  25  26
ENDBRANCH   1  25
TORSDOF 20
ENDMDL
