MODEL 1
REMARK VINA RESULT:     -11.4      0.000      0.000
REMARK SMILES CC1(C)[C@H](C#N)C(SCC(=O)OCCOC(=O)c2ccc(-c3c4nc(c(-c5cccc(S(=O)(=O)[O-])c5F)c5ccc([nH]5)c(-c5cccc(S(=O)(=O)[O-])c5F)c5nc(c(-c6cccc(S(=O)(=O)[O-])c6F)c6ccc3[nH]6)C=C5)C=C4)cc2)=NC(=O)[C@@H]1C#N
REMARK SMILES IDX 13 1 12 2 10 3 11 4 9 5 8 6 7 7 1 8 2 9 3 10 4 11 84 12
REMARK SMILES IDX 82 13 81 14 83 15 5 16 6 17 85 18 86 19 14 20 15 21 16 22
REMARK SMILES IDX 17 23 18 24 19 25 80 26 20 27 79 28 21 29 22 30 23 31 73 32
REMARK SMILES IDX 24 33 78 34 72 35 74 36 25 37 77 38 71 39 70 40 26 42 58 43
REMARK SMILES IDX 38 44 57 45 39 46 42 47 56 48 75 49 40 50 41 51 55 53 76 54
REMARK SMILES IDX 43 55 27 56 28 57 36 58 29 59 31 60 37 61 30 62 32 63 33 64
REMARK SMILES IDX 34 65 35 66 59 67 60 68 68 69 61 70 63 71 69 72 62 73 64 74
REMARK SMILES IDX 65 75 66 76 67 77 44 78 45 79 53 80 46 81 48 82 54 83 47 84
REMARK SMILES IDX 49 85 50 86 51 87 52 88
REMARK H PARENT 74 41 42 52
REMARK Flexibility Score: inf
ROOT
ATOM      1  C   UNL A   1      35.405  20.905  25.142  1.00  0.00     0.274 C 
ENDROOT
BRANCH   1   2
ATOM      2  O   UNL A   1      34.409  19.973  24.685  1.00  0.00    -0.461 OA
BRANCH   2   3
ATOM      3  C   UNL A   1      33.113  20.385  24.764  1.00  0.00     0.316 C 
ATOM      4  O   UNL A   1      32.153  19.625  24.802  1.00  0.00    -0.251 OA
BRANCH   3   5
ATOM      5  C   UNL A   1      32.942  21.888  24.750  1.00  0.00     0.198 C 
BRANCH   5   6
ATOM      6  S   UNL A   1      32.138  22.533  23.285  1.00  0.00    -0.097 SA
BRANCH   6   7
ATOM      7  C   UNL A   1      31.673  24.195  23.644  1.00  0.00     0.095 C 
ATOM      8  C   UNL A   1      33.692  26.407  25.613  1.00  0.00     0.015 C 
ATOM      9  C   UNL A   1      32.806  26.481  24.344  1.00  0.00     0.012 C 
ATOM     10  C   UNL A   1      33.514  27.617  23.495  1.00  0.00     0.015 C 
ATOM     11  C   UNL A   1      32.846  25.087  23.636  1.00  0.00     0.156 C 
ATOM     12  C   UNL A   1      31.349  26.839  24.728  1.00  0.00     0.191 C 
ATOM     13  C   UNL A   1      30.270  25.973  24.072  1.00  0.00     0.264 C 
ATOM     14  N   UNL A   1      30.480  24.630  23.776  1.00  0.00    -0.209 NA
ATOM     15  O   UNL A   1      29.157  26.457  23.919  1.00  0.00    -0.271 OA
BRANCH  11  16
ATOM     16  C   UNL A   1      33.081  25.398  22.167  1.00  0.00     0.073 C 
ATOM     17  N   UNL A   1      33.277  25.655  20.948  1.00  0.00    -0.198 NA
ENDBRANCH  11  16
BRANCH  12  18
ATOM     18  C   UNL A   1      31.026  28.259  24.442  1.00  0.00     0.076 C 
ATOM     19  N   UNL A   1      30.773  29.347  24.135  1.00  0.00    -0.197 NA
ENDBRANCH  12  18
ENDBRANCH   6   7
ENDBRANCH   5   6
ENDBRANCH   3   5
ENDBRANCH   2   3
ENDBRANCH   1   2
BRANCH   1  20
ATOM     20  C   UNL A   1      36.797  20.298  25.001  1.00  0.00     0.275 C 
BRANCH  20  21
ATOM     21  O   UNL A   1      37.787  21.349  24.984  1.00  0.00    -0.458 OA
BRANCH  21  22
ATOM     22  C   UNL A   1      38.862  21.112  25.770  1.00  0.00     0.338 C 
ATOM     23  O   UNL A   1      39.438  20.038  25.882  1.00  0.00    -0.246 OA
BRANCH  22  24
ATOM     24  C   UNL A   1      39.296  22.326  26.500  1.00  0.00     0.060 A 
ATOM     25  C   UNL A   1      38.809  23.587  26.142  1.00  0.00     0.016 A 
ATOM     26  C   UNL A   1      40.420  22.231  27.317  1.00  0.00     0.016 A 
ATOM     27  C   UNL A   1      39.520  24.743  26.478  1.00  0.00     0.010 A 
ATOM     28  C   UNL A   1      41.078  23.395  27.735  1.00  0.00     0.010 A 
ATOM     29  C   UNL A   1      40.663  24.660  27.286  1.00  0.00    -0.014 A 
BRANCH  29  30
ATOM     30  C   UNL A   1      41.342  25.891  27.770  1.00  0.00     0.031 A 
ATOM     31  C   UNL A   1      40.626  26.971  28.541  1.00  0.00     0.074 A 
ATOM     32  C   UNL A   1      42.628  26.065  27.409  1.00  0.00     0.049 A 
ATOM     33  N   UNL A   1      41.051  28.162  28.887  1.00  0.00    -0.248 NA
ATOM     34  C   UNL A   1      39.258  26.684  28.984  1.00  0.00     0.031 C 
ATOM     35  C   UNL A   1      43.431  25.091  26.667  1.00  0.00     0.029 A 
ATOM     36  N   UNL A   1      43.467  27.135  27.575  1.00  0.00    -0.354 N 
ATOM     37  C   UNL A   1      39.991  28.775  29.551  1.00  0.00     0.074 A 
ATOM     38  C   UNL A   1      38.905  27.820  29.572  1.00  0.00     0.031 C 
ATOM     39  C   UNL A   1      44.636  25.616  26.416  1.00  0.00     0.029 A 
ATOM     40  C   UNL A   1      44.665  26.982  26.918  1.00  0.00     0.049 A 
ATOM     41  H   UNL A   1      43.236  27.930  28.108  1.00  0.00     0.167 HD
ATOM     42  C   UNL A   1      39.926  30.020  30.087  1.00  0.00     0.034 A 
ATOM     43  C   UNL A   1      45.658  27.859  26.691  1.00  0.00     0.034 A 
ATOM     44  C   UNL A   1      41.013  30.966  30.049  1.00  0.00     0.049 A 
ATOM     45  C   UNL A   1      45.540  29.249  27.241  1.00  0.00     0.074 A 
ATOM     46  C   UNL A   1      41.070  32.235  30.600  1.00  0.00     0.029 A 
ATOM     47  N   UNL A   1      42.223  30.761  29.403  1.00  0.00    -0.354 N 
ATOM     48  N   UNL A   1      44.573  29.779  27.948  1.00  0.00    -0.248 NA
ATOM     49  C   UNL A   1      46.668  30.154  26.986  1.00  0.00     0.031 C 
ATOM     50  C   UNL A   1      42.290  32.817  30.239  1.00  0.00     0.029 A 
ATOM     51  C   UNL A   1      43.022  31.888  29.516  1.00  0.00     0.049 A 
ATOM     52  H   UNL A   1      42.478  29.934  28.931  1.00  0.00     0.167 HD
ATOM     53  C   UNL A   1      44.994  31.065  28.261  1.00  0.00     0.074 A 
ATOM     54  C   UNL A   1      46.312  31.226  27.679  1.00  0.00     0.031 C 
ATOM     55  C   UNL A   1      44.346  32.026  28.966  1.00  0.00     0.034 A 
BRANCH  42  56
ATOM     56  C   UNL A   1      38.637  30.446  30.754  1.00  0.00     0.023 A 
ATOM     57  C   UNL A   1      38.443  30.215  32.131  1.00  0.00     0.012 A 
ATOM     58  C   UNL A   1      37.643  31.139  30.031  1.00  0.00     0.148 A 
ATOM     59  C   UNL A   1      37.270  30.626  32.766  1.00  0.00     0.002 A 
ATOM     60  C   UNL A   1      36.497  31.589  30.680  1.00  0.00     0.091 A 
ATOM     61  F   UNL A   1      37.834  31.347  28.720  1.00  0.00    -0.205 F 
ATOM     62  C   UNL A   1      36.303  31.321  32.044  1.00  0.00     0.022 A 
BRANCH  60  63
ATOM     63  S   UNL A   1      35.232  32.568  29.859  1.00  0.00     0.127 S 
ATOM     64  O   UNL A   1      34.281  32.799  30.945  1.00  0.00    -0.237 OA
ATOM     65  O   UNL A   1      35.982  33.755  29.445  1.00  0.00    -0.237 OA
ATOM     66  O   UNL A   1      34.735  31.750  28.761  1.00  0.00    -0.744 OA
ENDBRANCH  60  63
ENDBRANCH  42  56
BRANCH  43  67
ATOM     67  C   UNL A   1      46.859  27.428  25.926  1.00  0.00     0.023 A 
ATOM     68  C   UNL A   1      46.921  27.692  24.544  1.00  0.00     0.012 A 
ATOM     69  C   UNL A   1      47.948  26.800  26.561  1.00  0.00     0.148 A 
ATOM     70  C   UNL A   1      48.033  27.302  23.800  1.00  0.00     0.002 A 
ATOM     71  C   UNL A   1      49.077  26.468  25.824  1.00  0.00     0.091 A 
ATOM     72  F   UNL A   1      47.866  26.563  27.878  1.00  0.00    -0.205 F 
ATOM     73  C   UNL A   1      49.113  26.700  24.440  1.00  0.00     0.022 A 
BRANCH  71  74
ATOM     74  S   UNL A   1      50.566  25.807  26.580  1.00  0.00     0.127 S 
ATOM     75  O   UNL A   1      50.063  24.596  27.221  1.00  0.00    -0.237 OA
ATOM     76  O   UNL A   1      51.418  25.579  25.412  1.00  0.00    -0.237 OA
ATOM     77  O   UNL A   1      51.047  26.843  27.483  1.00  0.00    -0.744 OA
ENDBRANCH  71  74
ENDBRANCH  43  67
BRANCH  55  78
ATOM     78  C   UNL A   1      45.076  33.325  29.195  1.00  0.00     0.023 A 
ATOM     79  C   UNL A   1      45.905  33.486  30.324  1.00  0.00     0.012 A 
ATOM     80  C   UNL A   1      44.972  34.375  28.262  1.00  0.00     0.148 A 
ATOM     81  C   UNL A   1      46.582  34.686  30.542  1.00  0.00     0.002 A 
ATOM     82  C   UNL A   1      45.694  35.545  28.455  1.00  0.00     0.091 A 
ATOM     83  F   UNL A   1      44.164  34.212  27.203  1.00  0.00    -0.205 F 
ATOM     84  C   UNL A   1      46.486  35.709  29.602  1.00  0.00     0.022 A 
BRANCH  82  85
ATOM     85  S   UNL A   1      45.710  36.880  27.254  1.00  0.00     0.127 S 
ATOM     86  O   UNL A   1      44.287  37.205  27.151  1.00  0.00    -0.237 OA
ATOM     87  O   UNL A   1      46.519  37.894  27.932  1.00  0.00    -0.237 OA
ATOM     88  O   UNL A   1      46.310  36.333  26.045  1.00  0.00    -0.744 OA
ENDBRANCH  82  85
ENDBRANCH  55  78
ENDBRANCH  29  30
ENDBRANCH  22  24
ENDBRANCH  21  22
ENDBRANCH  20  21
ENDBRANCH   1  20
TORSDOF 18
ENDMDL
MODEL 2
REMARK VINA RESULT:     -11.0      5.231     10.130
REMARK SMILES CC1(C)[C@H](C#N)C(SCC(=O)OCCOC(=O)c2ccc(-c3c4nc(c(-c5cccc(S(=O)(=O)[O-])c5F)c5ccc([nH]5)c(-c5cccc(S(=O)(=O)[O-])c5F)c5nc(c(-c6cccc(S(=O)(=O)[O-])c6F)c6ccc3[nH]6)C=C5)C=C4)cc2)=NC(=O)[C@@H]1C#N
REMARK SMILES IDX 13 1 12 2 10 3 11 4 9 5 8 6 7 7 1 8 2 9 3 10 4 11 84 12
REMARK SMILES IDX 82 13 81 14 83 15 5 16 6 17 85 18 86 19 14 20 15 21 16 22
REMARK SMILES IDX 17 23 18 24 19 25 80 26 20 27 79 28 21 29 22 30 23 31 73 32
REMARK SMILES IDX 24 33 78 34 72 35 74 36 25 37 77 38 71 39 70 40 26 42 58 43
REMARK SMILES IDX 38 44 57 45 39 46 42 47 56 48 75 49 40 50 41 51 55 53 76 54
REMARK SMILES IDX 43 55 27 56 28 57 36 58 29 59 31 60 37 61 30 62 32 63 33 64
REMARK SMILES IDX 34 65 35 66 59 67 60 68 68 69 61 70 63 71 69 72 62 73 64 74
REMARK SMILES IDX 65 75 66 76 67 77 44 78 45 79 53 80 46 81 48 82 54 83 47 84
REMARK SMILES IDX 49 85 50 86 51 87 52 88
REMARK H PARENT 74 41 42 52
REMARK Flexibility Score: inf
ROOT
ATOM      1  C   UNL A   1      31.473  30.005  25.206  1.00  0.00     0.274 C 
ENDROOT
BRANCH   1   2
ATOM      2  O   UNL A   1      31.404  28.646  25.674  1.00  0.00    -0.461 OA
BRANCH   2   3
ATOM      3  C   UNL A   1      31.017  27.712  24.762  1.00  0.00     0.316 C 
ATOM      4  O   UNL A   1      30.030  26.997  24.890  1.00  0.00    -0.251 OA
BRANCH   3   5
ATOM      5  C   UNL A   1      31.949  27.584  23.577  1.00  0.00     0.198 C 
BRANCH   5   6
ATOM      6  S   UNL A   1      33.647  27.206  24.001  1.00  0.00    -0.097 SA
BRANCH   6   7
ATOM      7  C   UNL A   1      33.793  25.450  24.020  1.00  0.00     0.095 C 
ATOM      8  C   UNL A   1      36.328  23.720  25.871  1.00  0.00     0.015 C 
ATOM      9  C   UNL A   1      34.825  23.546  25.540  1.00  0.00     0.012 C 
ATOM     10  C   UNL A   1      34.273  22.800  26.825  1.00  0.00     0.015 C 
ATOM     11  C   UNL A   1      34.197  24.966  25.352  1.00  0.00     0.156 C 
ATOM     12  C   UNL A   1      34.653  22.715  24.245  1.00  0.00     0.191 C 
ATOM     13  C   UNL A   1      33.664  23.290  23.227  1.00  0.00     0.264 C 
ATOM     14  N   UNL A   1      33.481  24.659  23.067  1.00  0.00    -0.209 NA
ATOM     15  O   UNL A   1      33.115  22.514  22.457  1.00  0.00    -0.271 OA
BRANCH  11  16
ATOM     16  C   UNL A   1      32.907  24.936  26.156  1.00  0.00     0.073 C 
ATOM     17  N   UNL A   1      31.837  24.911  26.823  1.00  0.00    -0.198 NA
ENDBRANCH  11  16
BRANCH  12  18
ATOM     18  C   UNL A   1      34.253  21.314  24.526  1.00  0.00     0.076 C 
ATOM     19  N   UNL A   1      33.971  20.199  24.667  1.00  0.00    -0.197 NA
ENDBRANCH  12  18
ENDBRANCH   6   7
ENDBRANCH   5   6
ENDBRANCH   3   5
ENDBRANCH   2   3
ENDBRANCH   1   2
BRANCH   1  20
ATOM     20  C   UNL A   1      31.643  30.960  26.384  1.00  0.00     0.275 C 
BRANCH  20  21
ATOM     21  O   UNL A   1      32.777  30.555  27.179  1.00  0.00    -0.458 OA
BRANCH  21  22
ATOM     22  C   UNL A   1      33.579  31.575  27.562  1.00  0.00     0.338 C 
ATOM     23  O   UNL A   1      33.232  32.742  27.693  1.00  0.00    -0.246 OA
BRANCH  22  24
ATOM     24  C   UNL A   1      34.966  31.124  27.827  1.00  0.00     0.060 A 
ATOM     25  C   UNL A   1      35.227  29.804  28.209  1.00  0.00     0.016 A 
ATOM     26  C   UNL A   1      35.948  32.096  28.000  1.00  0.00     0.016 A 
ATOM     27  C   UNL A   1      36.404  29.484  28.892  1.00  0.00     0.010 A 
ATOM     28  C   UNL A   1      37.169  31.754  28.597  1.00  0.00     0.010 A 
ATOM     29  C   UNL A   1      37.394  30.458  29.089  1.00  0.00    -0.014 A 
BRANCH  29  30
ATOM     30  C   UNL A   1      38.709  30.095  29.681  1.00  0.00     0.031 A 
ATOM     31  C   UNL A   1      39.617  29.052  29.081  1.00  0.00     0.074 A 
ATOM     32  C   UNL A   1      39.032  30.671  30.855  1.00  0.00     0.049 A 
ATOM     33  N   UNL A   1      40.712  28.526  29.573  1.00  0.00    -0.248 NA
ATOM     34  C   UNL A   1      39.257  28.530  27.759  1.00  0.00     0.031 C 
ATOM     35  C   UNL A   1      38.238  31.697  31.534  1.00  0.00     0.029 A 
ATOM     36  N   UNL A   1      40.084  30.445  31.703  1.00  0.00    -0.354 N 
ATOM     37  C   UNL A   1      41.145  27.587  28.639  1.00  0.00     0.074 A 
ATOM     38  C   UNL A   1      40.202  27.624  27.544  1.00  0.00     0.031 C 
ATOM     39  C   UNL A   1      38.813  31.992  32.706  1.00  0.00     0.029 A 
ATOM     40  C   UNL A   1      39.972  31.131  32.889  1.00  0.00     0.049 A 
ATOM     41  H   UNL A   1      40.840  29.852  31.487  1.00  0.00     0.167 HD
ATOM     42  C   UNL A   1      42.224  26.765  28.694  1.00  0.00     0.034 A 
ATOM     43  C   UNL A   1      40.686  31.040  34.024  1.00  0.00     0.034 A 
ATOM     44  C   UNL A   1      43.150  26.731  29.798  1.00  0.00     0.049 A 
ATOM     45  C   UNL A   1      41.838  30.083  34.085  1.00  0.00     0.074 A 
ATOM     46  C   UNL A   1      44.300  25.972  29.935  1.00  0.00     0.029 A 
ATOM     47  N   UNL A   1      43.021  27.466  30.967  1.00  0.00    -0.354 N 
ATOM     48  N   UNL A   1      42.289  29.274  33.158  1.00  0.00    -0.248 NA
ATOM     49  C   UNL A   1      42.597  30.048  35.340  1.00  0.00     0.031 C 
ATOM     50  C   UNL A   1      44.833  26.206  31.207  1.00  0.00     0.029 A 
ATOM     51  C   UNL A   1      44.051  27.159  31.841  1.00  0.00     0.049 A 
ATOM     52  H   UNL A   1      42.300  28.114  31.150  1.00  0.00     0.167 HD
ATOM     53  C   UNL A   1      43.414  28.666  33.702  1.00  0.00     0.074 A 
ATOM     54  C   UNL A   1      43.581  29.214  35.033  1.00  0.00     0.031 C 
ATOM     55  C   UNL A   1      44.232  27.736  33.149  1.00  0.00     0.034 A 
BRANCH  42  56
ATOM     56  C   UNL A   1      42.465  25.823  27.535  1.00  0.00     0.023 A 
ATOM     57  C   UNL A   1      43.248  26.237  26.439  1.00  0.00     0.012 A 
ATOM     58  C   UNL A   1      41.974  24.501  27.564  1.00  0.00     0.148 A 
ATOM     59  C   UNL A   1      43.502  25.370  25.375  1.00  0.00     0.002 A 
ATOM     60  C   UNL A   1      42.270  23.626  26.523  1.00  0.00     0.091 A 
ATOM     61  F   UNL A   1      41.224  24.120  28.608  1.00  0.00    -0.205 F 
ATOM     62  C   UNL A   1      43.022  24.063  25.421  1.00  0.00     0.022 A 
BRANCH  60  63
ATOM     63  S   UNL A   1      41.772  21.898  26.530  1.00  0.00     0.127 S 
ATOM     64  O   UNL A   1      42.251  21.455  27.839  1.00  0.00    -0.237 OA
ATOM     65  O   UNL A   1      40.317  21.996  26.417  1.00  0.00    -0.237 OA
ATOM     66  O   UNL A   1      42.431  21.282  25.386  1.00  0.00    -0.744 OA
ENDBRANCH  60  63
ENDBRANCH  42  56
BRANCH  43  67
ATOM     67  C   UNL A   1      40.336  31.906  35.183  1.00  0.00     0.023 A 
ATOM     68  C   UNL A   1      41.077  33.081  35.408  1.00  0.00     0.012 A 
ATOM     69  C   UNL A   1      39.255  31.594  36.032  1.00  0.00     0.148 A 
ATOM     70  C   UNL A   1      40.773  33.913  36.485  1.00  0.00     0.002 A 
ATOM     71  C   UNL A   1      38.921  32.458  37.065  1.00  0.00     0.091 A 
ATOM     72  F   UNL A   1      38.562  30.472  35.794  1.00  0.00    -0.205 F 
ATOM     73  C   UNL A   1      39.690  33.608  37.306  1.00  0.00     0.022 A 
BRANCH  71  74
ATOM     74  S   UNL A   1      37.469  32.219  38.095  1.00  0.00     0.127 S 
ATOM     75  O   UNL A   1      37.901  32.807  39.360  1.00  0.00    -0.237 OA
ATOM     76  O   UNL A   1      36.458  32.990  37.371  1.00  0.00    -0.237 OA
ATOM     77  O   UNL A   1      37.230  30.783  38.119  1.00  0.00    -0.744 OA
ENDBRANCH  71  74
ENDBRANCH  43  67
BRANCH  55  78
ATOM     78  C   UNL A   1      45.420  27.289  33.963  1.00  0.00     0.023 A 
ATOM     79  C   UNL A   1      46.635  27.999  33.897  1.00  0.00     0.012 A 
ATOM     80  C   UNL A   1      45.313  26.184  34.829  1.00  0.00     0.148 A 
ATOM     81  C   UNL A   1      47.738  27.589  34.646  1.00  0.00     0.002 A 
ATOM     82  C   UNL A   1      46.396  25.817  35.617  1.00  0.00     0.091 A 
ATOM     83  F   UNL A   1      44.154  25.508  34.865  1.00  0.00    -0.205 F 
ATOM     84  C   UNL A   1      47.615  26.507  35.514  1.00  0.00     0.022 A 
BRANCH  82  85
ATOM     85  S   UNL A   1      46.305  24.498  36.832  1.00  0.00     0.127 S 
ATOM     86  O   UNL A   1      46.094  23.325  35.984  1.00  0.00    -0.237 OA
ATOM     87  O   UNL A   1      47.625  24.566  37.460  1.00  0.00    -0.237 OA
ATOM     88  O   UNL A   1      45.195  24.833  37.713  1.00  0.00    -0.744 OA
ENDBRANCH  82  85
ENDBRANCH  55  78
ENDBRANCH  29  30
ENDBRANCH  22  24
ENDBRANCH  21  22
ENDBRANCH  20  21
ENDBRANCH   1  20
TORSDOF 18
ENDMDL
MODEL 3
REMARK VINA RESULT:     -11.0      4.986     10.199
REMARK SMILES CC1(C)[C@H](C#N)C(SCC(=O)OCCOC(=O)c2ccc(-c3c4nc(c(-c5cccc(S(=O)(=O)[O-])c5F)c5ccc([nH]5)c(-c5cccc(S(=O)(=O)[O-])c5F)c5nc(c(-c6cccc(S(=O)(=O)[O-])c6F)c6ccc3[nH]6)C=C5)C=C4)cc2)=NC(=O)[C@@H]1C#N
REMARK SMILES IDX 13 1 12 2 10 3 11 4 9 5 8 6 7 7 1 8 2 9 3 10 4 11 84 12
REMARK SMILES IDX 82 13 81 14 83 15 5 16 6 17 85 18 86 19 14 20 15 21 16 22
REMARK SMILES IDX 17 23 18 24 19 25 80 26 20 27 79 28 21 29 22 30 23 31 73 32
REMARK SMILES IDX 24 33 78 34 72 35 74 36 25 37 77 38 71 39 70 40 26 42 58 43
REMARK SMILES IDX 38 44 57 45 39 46 42 47 56 48 75 49 40 50 41 51 55 53 76 54
REMARK SMILES IDX 43 55 27 56 28 57 36 58 29 59 31 60 37 61 30 62 32 63 33 64
REMARK SMILES IDX 34 65 35 66 59 67 60 68 68 69 61 70 63 71 69 72 62 73 64 74
REMARK SMILES IDX 65 75 66 76 67 77 44 78 45 79 53 80 46 81 48 82 54 83 47 84
REMARK SMILES IDX 49 85 50 86 51 87 52 88
REMARK H PARENT 74 41 42 52
REMARK Flexibility Score: inf
ROOT
ATOM      1  C   UNL A   1      31.449  29.809  24.979  1.00  0.00     0.274 C 
ENDROOT
BRANCH   1   2
ATOM      2  O   UNL A   1      31.442  28.544  25.664  1.00  0.00    -0.461 OA
BRANCH   2   3
ATOM      3  C   UNL A   1      31.470  27.431  24.879  1.00  0.00     0.316 C 
ATOM      4  O   UNL A   1      30.504  26.699  24.693  1.00  0.00    -0.251 OA
BRANCH   3   5
ATOM      5  C   UNL A   1      32.826  27.133  24.279  1.00  0.00     0.198 C 
BRANCH   5   6
ATOM      6  S   UNL A   1      33.952  26.273  25.374  1.00  0.00    -0.097 SA
BRANCH   6   7
ATOM      7  C   UNL A   1      33.440  24.588  25.419  1.00  0.00     0.095 C 
ATOM      8  C   UNL A   1      30.682  23.333  23.505  1.00  0.00     0.015 C 
ATOM      9  C   UNL A   1      32.098  22.865  23.924  1.00  0.00     0.012 C 
ATOM     10  C   UNL A   1      32.536  21.956  22.703  1.00  0.00     0.015 C 
ATOM     11  C   UNL A   1      33.003  24.131  24.088  1.00  0.00     0.156 C 
ATOM     12  C   UNL A   1      32.032  22.085  25.260  1.00  0.00     0.191 C 
ATOM     13  C   UNL A   1      33.074  22.492  26.306  1.00  0.00     0.264 C 
ATOM     14  N   UNL A   1      33.535  23.799  26.419  1.00  0.00    -0.209 NA
ATOM     15  O   UNL A   1      33.412  21.659  27.136  1.00  0.00    -0.271 OA
BRANCH  11  16
ATOM     16  C   UNL A   1      34.292  23.790  23.358  1.00  0.00     0.073 C 
ATOM     17  N   UNL A   1      35.361  23.508  22.752  1.00  0.00    -0.198 NA
ENDBRANCH  11  16
BRANCH  12  18
ATOM     18  C   UNL A   1      32.140  20.619  25.059  1.00  0.00     0.076 C 
ATOM     19  N   UNL A   1      32.211  19.464  24.988  1.00  0.00    -0.197 NA
ENDBRANCH  12  18
ENDBRANCH   6   7
ENDBRANCH   5   6
ENDBRANCH   3   5
ENDBRANCH   2   3
ENDBRANCH   1   2
BRANCH   1  20
ATOM     20  C   UNL A   1      31.405  30.953  25.987  1.00  0.00     0.275 C 
BRANCH  20  21
ATOM     21  O   UNL A   1      32.378  30.723  27.028  1.00  0.00    -0.458 OA
BRANCH  21  22
ATOM     22  C   UNL A   1      33.176  31.785  27.287  1.00  0.00     0.338 C 
ATOM     23  O   UNL A   1      32.830  32.959  27.252  1.00  0.00    -0.246 OA
BRANCH  22  24
ATOM     24  C   UNL A   1      34.554  31.373  27.640  1.00  0.00     0.060 A 
ATOM     25  C   UNL A   1      34.847  30.038  27.935  1.00  0.00     0.016 A 
ATOM     26  C   UNL A   1      35.468  32.368  27.980  1.00  0.00     0.016 A 
ATOM     27  C   UNL A   1      35.975  29.712  28.694  1.00  0.00     0.010 A 
ATOM     28  C   UNL A   1      36.647  32.030  28.657  1.00  0.00     0.010 A 
ATOM     29  C   UNL A   1      36.893  30.707  29.060  1.00  0.00    -0.014 A 
BRANCH  29  30
ATOM     30  C   UNL A   1      38.168  30.352  29.738  1.00  0.00     0.031 A 
ATOM     31  C   UNL A   1      39.168  29.390  29.149  1.00  0.00     0.074 A 
ATOM     32  C   UNL A   1      38.366  30.852  30.973  1.00  0.00     0.049 A 
ATOM     33  N   UNL A   1      40.240  28.871  29.697  1.00  0.00    -0.248 NA
ATOM     34  C   UNL A   1      38.945  28.953  27.768  1.00  0.00     0.031 C 
ATOM     35  C   UNL A   1      37.473  31.795  31.650  1.00  0.00     0.029 A 
ATOM     36  N   UNL A   1      39.350  30.604  31.892  1.00  0.00    -0.354 N 
ATOM     37  C   UNL A   1      40.791  28.020  28.742  1.00  0.00     0.074 A 
ATOM     38  C   UNL A   1      39.944  28.101  27.573  1.00  0.00     0.031 C 
ATOM     39  C   UNL A   1      37.932  32.025  32.885  1.00  0.00     0.029 A 
ATOM     40  C   UNL A   1      39.108  31.196  33.109  1.00  0.00     0.049 A 
ATOM     41  H   UNL A   1      40.147  30.058  31.702  1.00  0.00     0.167 HD
ATOM     42  C   UNL A   1      41.897  27.237  28.834  1.00  0.00     0.034 A 
ATOM     43  C   UNL A   1      39.727  31.050  34.293  1.00  0.00     0.034 A 
ATOM     44  C   UNL A   1      42.727  27.157  30.009  1.00  0.00     0.049 A 
ATOM     45  C   UNL A   1      40.910  30.135  34.388  1.00  0.00     0.074 A 
ATOM     46  C   UNL A   1      43.893  26.434  30.194  1.00  0.00     0.029 A 
ATOM     47  N   UNL A   1      42.467  27.800  31.211  1.00  0.00    -0.354 N 
ATOM     48  N   UNL A   1      41.474  29.413  33.450  1.00  0.00    -0.248 NA
ATOM     49  C   UNL A   1      41.562  30.037  35.699  1.00  0.00     0.031 C 
ATOM     50  C   UNL A   1      44.305  26.595  31.521  1.00  0.00     0.029 A 
ATOM     51  C   UNL A   1      43.432  27.468  32.148  1.00  0.00     0.049 A 
ATOM     52  H   UNL A   1      41.706  28.404  31.375  1.00  0.00     0.167 HD
ATOM     53  C   UNL A   1      42.574  28.811  34.047  1.00  0.00     0.074 A 
ATOM     54  C   UNL A   1      42.604  29.266  35.422  1.00  0.00     0.031 C 
ATOM     55  C   UNL A   1      43.476  27.955  33.504  1.00  0.00     0.034 A 
BRANCH  42  56
ATOM     56  C   UNL A   1      42.276  26.392  27.638  1.00  0.00     0.023 A 
ATOM     57  C   UNL A   1      43.081  26.935  26.615  1.00  0.00     0.012 A 
ATOM     58  C   UNL A   1      41.893  25.036  27.560  1.00  0.00     0.148 A 
ATOM     59  C   UNL A   1      43.462  26.159  25.519  1.00  0.00     0.002 A 
ATOM     60  C   UNL A   1      42.316  24.255  26.488  1.00  0.00     0.091 A 
ATOM     61  F   UNL A   1      41.122  24.533  28.534  1.00  0.00    -0.205 F 
ATOM     62  C   UNL A   1      43.088  24.818  25.460  1.00  0.00     0.022 A 
BRANCH  60  63
ATOM     63  S   UNL A   1      41.961  22.497  26.365  1.00  0.00     0.127 S 
ATOM     64  O   UNL A   1      42.646  22.141  25.122  1.00  0.00    -0.237 OA
ATOM     65  O   UNL A   1      42.589  21.970  27.576  1.00  0.00    -0.237 OA
ATOM     66  O   UNL A   1      40.510  22.377  26.331  1.00  0.00    -0.744 OA
ENDBRANCH  60  63
ENDBRANCH  42  56
BRANCH  43  67
ATOM     67  C   UNL A   1      39.243  31.815  35.474  1.00  0.00     0.023 A 
ATOM     68  C   UNL A   1      38.340  31.202  36.364  1.00  0.00     0.012 A 
ATOM     69  C   UNL A   1      39.701  33.120  35.741  1.00  0.00     0.148 A 
ATOM     70  C   UNL A   1      37.870  31.892  37.479  1.00  0.00     0.002 A 
ATOM     71  C   UNL A   1      39.274  33.779  36.887  1.00  0.00     0.091 A 
ATOM     72  F   UNL A   1      40.564  33.681  34.882  1.00  0.00    -0.205 F 
ATOM     73  C   UNL A   1      38.343  33.174  37.746  1.00  0.00     0.022 A 
BRANCH  71  74
ATOM     74  S   UNL A   1      39.924  35.378  37.383  1.00  0.00     0.127 S 
ATOM     75  O   UNL A   1      41.334  35.071  37.604  1.00  0.00    -0.237 OA
ATOM     76  O   UNL A   1      39.649  36.193  36.199  1.00  0.00    -0.237 OA
ATOM     77  O   UNL A   1      39.171  35.763  38.568  1.00  0.00    -0.744 OA
ENDBRANCH  71  74
ENDBRANCH  43  67
BRANCH  55  78
ATOM     78  C   UNL A   1      44.609  27.495  34.385  1.00  0.00     0.023 A 
ATOM     79  C   UNL A   1      45.811  28.228  34.441  1.00  0.00     0.012 A 
ATOM     80  C   UNL A   1      44.461  26.351  35.195  1.00  0.00     0.148 A 
ATOM     81  C   UNL A   1      46.863  27.807  35.254  1.00  0.00     0.002 A 
ATOM     82  C   UNL A   1      45.491  25.970  36.046  1.00  0.00     0.091 A 
ATOM     83  F   UNL A   1      43.318  25.654  35.115  1.00  0.00    -0.205 F 
ATOM     84  C   UNL A   1      46.699  26.686  36.064  1.00  0.00     0.022 A 
BRANCH  82  85
ATOM     85  S   UNL A   1      45.337  24.599  37.195  1.00  0.00     0.127 S 
ATOM     86  O   UNL A   1      45.117  23.472  36.287  1.00  0.00    -0.237 OA
ATOM     87  O   UNL A   1      46.643  24.602  37.855  1.00  0.00    -0.237 OA
ATOM     88  O   UNL A   1      44.215  24.921  38.065  1.00  0.00    -0.744 OA
ENDBRANCH  82  85
ENDBRANCH  55  78
ENDBRANCH  29  30
ENDBRANCH  22  24
ENDBRANCH  21  22
ENDBRANCH  20  21
ENDBRANCH   1  20
TORSDOF 18
ENDMDL
