MODEL 1
REMARK VINA RESULT:     -12.4      0.000      0.000
REMARK SMILES CC1(C)OC(=O)C(=CNc2ccccc2C(=O)OCCOC(=O)c2ccc(-c3c4nc(c(-c5cccc(S(=O)(=O)[O-])c5F)c5ccc([nH]5)c(-c5cccc(S(=O)(=O)[O-])c5F)c5nc(c(-c6cccc(S(=O)(=O)[O-])c6F)c6ccc3[nH]6)C=C5)C=C4)cc2)C(=O)O1
REMARK SMILES IDX 20 1 19 2 18 3 16 4 17 5 15 6 10 7 11 8 12 9 14 10 13 11
REMARK SMILES IDX 9 12 8 14 1 15 2 16 3 17 4 18 89 19 5 20 87 21 6 22 7 23
REMARK SMILES IDX 88 24 21 25 22 26 23 27 24 28 25 29 86 30 26 31 85 32 27 33
REMARK SMILES IDX 28 34 29 35 79 36 30 37 84 38 78 39 80 40 31 41 83 42 77 43
REMARK SMILES IDX 76 44 32 46 64 47 44 48 63 49 45 50 48 51 62 52 81 53 46 54
REMARK SMILES IDX 47 55 61 57 82 58 49 59 33 60 34 61 42 62 35 63 37 64 43 65
REMARK SMILES IDX 36 66 38 67 39 68 40 69 41 70 65 71 66 72 74 73 67 74 69 75
REMARK SMILES IDX 75 76 68 77 70 78 71 79 72 80 73 81 50 82 51 83 59 84 52 85
REMARK SMILES IDX 54 86 60 87 53 88 55 89 56 90 57 91 58 92
REMARK H PARENT 9 13 80 45 48 56
REMARK Flexibility Score: inf
ROOT
ATOM      1  C   UNL A   1      36.949  21.397  24.261  1.00  0.00     0.275 C 
ENDROOT
BRANCH   1   2
ATOM      2  C   UNL A   1      36.629  22.672  23.486  1.00  0.00     0.275 C 
BRANCH   2   3
ATOM      3  O   UNL A   1      35.923  23.615  24.322  1.00  0.00    -0.458 OA
BRANCH   3   4
ATOM      4  C   UNL A   1      34.671  23.956  23.914  1.00  0.00     0.340 C 
ATOM      5  O   UNL A   1      34.349  24.289  22.788  1.00  0.00    -0.246 OA
BRANCH   4   6
ATOM      6  C   UNL A   1      33.677  23.801  25.006  1.00  0.00     0.083 A 
ATOM      7  C   UNL A   1      32.550  24.623  25.193  1.00  0.00     0.053 A 
ATOM      8  C   UNL A   1      31.726  24.349  26.307  1.00  0.00     0.027 A 
ATOM      9  C   UNL A   1      32.009  23.317  27.207  1.00  0.00     0.002 A 
ATOM     10  C   UNL A   1      33.928  22.733  25.893  1.00  0.00     0.018 A 
ATOM     11  C   UNL A   1      33.114  22.506  26.998  1.00  0.00     0.001 A 
BRANCH   7  12
ATOM     12  N   UNL A   1      32.096  25.642  24.331  1.00  0.00    -0.360 N 
ATOM     13  H   UNL A   1      31.972  25.374  23.392  1.00  0.00     0.166 HD
BRANCH  12  14
ATOM     14  C   UNL A   1      31.798  26.953  24.612  1.00  0.00     0.106 C 
ATOM     15  C   UNL A   1      28.096  28.477  23.163  1.00  0.00     0.106 C 
ATOM     16  C   UNL A   1      29.297  29.236  22.590  1.00  0.00     0.252 C 
ATOM     17  C   UNL A   1      28.800  30.344  21.663  1.00  0.00     0.106 C 
ATOM     18  O   UNL A   1      30.026  29.889  23.630  1.00  0.00    -0.419 OA
ATOM     19  O   UNL A   1      30.097  28.370  21.784  1.00  0.00    -0.419 OA
ATOM     20  C   UNL A   1      30.928  29.186  24.341  1.00  0.00     0.350 C 
ATOM     21  C   UNL A   1      30.960  27.539  22.398  1.00  0.00     0.350 C 
ATOM     22  O   UNL A   1      31.406  29.629  25.377  1.00  0.00    -0.246 OA
ATOM     23  C   UNL A   1      31.268  27.875  23.789  1.00  0.00     0.161 C 
ATOM     24  O   UNL A   1      31.465  26.590  21.808  1.00  0.00    -0.246 OA
ENDBRANCH  12  14
ENDBRANCH   7  12
ENDBRANCH   4   6
ENDBRANCH   3   4
ENDBRANCH   2   3
ENDBRANCH   1   2
BRANCH   1  25
ATOM     25  O   UNL A   1      37.345  21.752  25.593  1.00  0.00    -0.458 OA
BRANCH  25  26
ATOM     26  C   UNL A   1      38.605  21.408  25.932  1.00  0.00     0.338 C 
ATOM     27  O   UNL A   1      39.188  20.361  25.695  1.00  0.00    -0.246 OA
BRANCH  26  28
ATOM     28  C   UNL A   1      39.244  22.570  26.555  1.00  0.00     0.060 A 
ATOM     29  C   UNL A   1      38.774  23.835  26.208  1.00  0.00     0.016 A 
ATOM     30  C   UNL A   1      40.349  22.426  27.388  1.00  0.00     0.016 A 
ATOM     31  C   UNL A   1      39.458  24.973  26.622  1.00  0.00     0.010 A 
ATOM     32  C   UNL A   1      40.988  23.573  27.869  1.00  0.00     0.010 A 
ATOM     33  C   UNL A   1      40.576  24.858  27.460  1.00  0.00    -0.014 A 
BRANCH  33  34
ATOM     34  C   UNL A   1      41.350  26.063  27.865  1.00  0.00     0.031 A 
ATOM     35  C   UNL A   1      40.681  27.139  28.683  1.00  0.00     0.074 A 
ATOM     36  C   UNL A   1      42.641  26.208  27.501  1.00  0.00     0.049 A 
ATOM     37  N   UNL A   1      41.096  28.348  28.962  1.00  0.00    -0.248 NA
ATOM     38  C   UNL A   1      39.359  26.817  29.249  1.00  0.00     0.031 C 
ATOM     39  C   UNL A   1      43.422  25.235  26.736  1.00  0.00     0.029 A 
ATOM     40  N   UNL A   1      43.522  27.241  27.715  1.00  0.00    -0.354 N 
ATOM     41  C   UNL A   1      40.062  28.952  29.669  1.00  0.00     0.074 A 
ATOM     42  C   UNL A   1      39.001  27.976  29.783  1.00  0.00     0.031 C 
ATOM     43  C   UNL A   1      44.663  25.709  26.552  1.00  0.00     0.029 A 
ATOM     44  C   UNL A   1      44.747  27.051  27.117  1.00  0.00     0.049 A 
ATOM     45  H   UNL A   1      43.297  28.041  28.244  1.00  0.00     0.167 HD
ATOM     46  C   UNL A   1      40.008  30.202  30.189  1.00  0.00     0.034 A 
ATOM     47  C   UNL A   1      45.804  27.879  26.997  1.00  0.00     0.034 A 
ATOM     48  C   UNL A   1      41.095  31.142  30.139  1.00  0.00     0.049 A 
ATOM     49  C   UNL A   1      45.719  29.260  27.590  1.00  0.00     0.074 A 
ATOM     50  C   UNL A   1      41.144  32.432  30.639  1.00  0.00     0.029 A 
ATOM     51  N   UNL A   1      42.336  30.884  29.577  1.00  0.00    -0.354 N 
ATOM     52  N   UNL A   1      44.739  29.808  28.266  1.00  0.00    -0.248 NA
ATOM     53  C   UNL A   1      46.890  30.131  27.415  1.00  0.00     0.031 C 
ATOM     54  C   UNL A   1      42.416  32.952  30.383  1.00  0.00     0.029 A 
ATOM     55  C   UNL A   1      43.163  31.983  29.733  1.00  0.00     0.049 A 
ATOM     56  H   UNL A   1      42.592  30.044  29.133  1.00  0.00     0.167 HD
ATOM     57  C   UNL A   1      45.183  31.078  28.616  1.00  0.00     0.074 A 
ATOM     58  C   UNL A   1      46.532  31.205  28.105  1.00  0.00     0.031 C 
ATOM     59  C   UNL A   1      44.526  32.062  29.276  1.00  0.00     0.034 A 
BRANCH  46  60
ATOM     60  C   UNL A   1      38.744  30.616  30.897  1.00  0.00     0.023 A 
ATOM     61  C   UNL A   1      38.630  30.418  32.287  1.00  0.00     0.012 A 
ATOM     62  C   UNL A   1      37.700  31.259  30.201  1.00  0.00     0.148 A 
ATOM     63  C   UNL A   1      37.486  30.830  32.971  1.00  0.00     0.002 A 
ATOM     64  C   UNL A   1      36.580  31.703  30.897  1.00  0.00     0.091 A 
ATOM     65  F   UNL A   1      37.819  31.421  28.876  1.00  0.00    -0.205 F 
ATOM     66  C   UNL A   1      36.468  31.481  32.279  1.00  0.00     0.022 A 
BRANCH  64  67
ATOM     67  S   UNL A   1      35.247  32.616  30.111  1.00  0.00     0.127 S 
ATOM     68  O   UNL A   1      34.797  31.666  29.095  1.00  0.00    -0.237 OA
ATOM     69  O   UNL A   1      34.312  32.811  31.220  1.00  0.00    -0.237 OA
ATOM     70  O   UNL A   1      35.846  33.841  29.599  1.00  0.00    -0.744 OA
ENDBRANCH  64  67
ENDBRANCH  46  60
BRANCH  47  71
ATOM     71  C   UNL A   1      47.038  27.424  26.292  1.00  0.00     0.023 A 
ATOM     72  C   UNL A   1      47.235  27.777  24.943  1.00  0.00     0.012 A 
ATOM     73  C   UNL A   1      48.024  26.664  26.950  1.00  0.00     0.148 A 
ATOM     74  C   UNL A   1      48.375  27.359  24.256  1.00  0.00     0.002 A 
ATOM     75  C   UNL A   1      49.187  26.303  26.279  1.00  0.00     0.091 A 
ATOM     76  F   UNL A   1      47.811  26.307  28.226  1.00  0.00    -0.205 F 
ATOM     77  C   UNL A   1      49.358  26.634  24.927  1.00  0.00     0.022 A 
BRANCH  75  78
ATOM     78  S   UNL A   1      50.551  25.500  27.126  1.00  0.00     0.127 S 
ATOM     79  O   UNL A   1      51.510  25.309  26.043  1.00  0.00    -0.237 OA
ATOM     80  O   UNL A   1      50.936  26.503  28.121  1.00  0.00    -0.237 OA
ATOM     81  O   UNL A   1      49.979  24.289  27.700  1.00  0.00    -0.744 OA
ENDBRANCH  75  78
ENDBRANCH  47  71
BRANCH  59  82
ATOM     82  C   UNL A   1      45.268  33.348  29.521  1.00  0.00     0.023 A 
ATOM     83  C   UNL A   1      46.063  33.483  30.676  1.00  0.00     0.012 A 
ATOM     84  C   UNL A   1      45.229  34.393  28.578  1.00  0.00     0.148 A 
ATOM     85  C   UNL A   1      46.785  34.654  30.905  1.00  0.00     0.002 A 
ATOM     86  C   UNL A   1      45.986  35.539  28.792  1.00  0.00     0.091 A 
ATOM     87  F   UNL A   1      44.450  34.251  27.496  1.00  0.00    -0.205 F 
ATOM     88  C   UNL A   1      46.755  35.675  29.959  1.00  0.00     0.022 A 
BRANCH  86  89
ATOM     89  S   UNL A   1      46.075  36.868  27.586  1.00  0.00     0.127 S 
ATOM     90  O   UNL A   1      44.695  37.351  27.573  1.00  0.00    -0.237 OA
ATOM     91  O   UNL A   1      47.036  37.784  28.200  1.00  0.00    -0.237 OA
ATOM     92  O   UNL A   1      46.536  36.253  26.349  1.00  0.00    -0.744 OA
ENDBRANCH  86  89
ENDBRANCH  59  82
ENDBRANCH  33  34
ENDBRANCH  26  28
ENDBRANCH  25  26
ENDBRANCH   1  25
TORSDOF 16
ENDMDL
MODEL 2
REMARK VINA RESULT:     -12.4      2.229      3.127
REMARK SMILES CC1(C)OC(=O)C(=CNc2ccccc2C(=O)OCCOC(=O)c2ccc(-c3c4nc(c(-c5cccc(S(=O)(=O)[O-])c5F)c5ccc([nH]5)c(-c5cccc(S(=O)(=O)[O-])c5F)c5nc(c(-c6cccc(S(=O)(=O)[O-])c6F)c6ccc3[nH]6)C=C5)C=C4)cc2)C(=O)O1
REMARK SMILES IDX 20 1 19 2 18 3 16 4 17 5 15 6 10 7 11 8 12 9 14 10 13 11
REMARK SMILES IDX 9 12 8 14 1 15 2 16 3 17 4 18 89 19 5 20 87 21 6 22 7 23
REMARK SMILES IDX 88 24 21 25 22 26 23 27 24 28 25 29 86 30 26 31 85 32 27 33
REMARK SMILES IDX 28 34 29 35 79 36 30 37 84 38 78 39 80 40 31 41 83 42 77 43
REMARK SMILES IDX 76 44 32 46 64 47 44 48 63 49 45 50 48 51 62 52 81 53 46 54
REMARK SMILES IDX 47 55 61 57 82 58 49 59 33 60 34 61 42 62 35 63 37 64 43 65
REMARK SMILES IDX 36 66 38 67 39 68 40 69 41 70 65 71 66 72 74 73 67 74 69 75
REMARK SMILES IDX 75 76 68 77 70 78 71 79 72 80 73 81 50 82 51 83 59 84 52 85
REMARK SMILES IDX 54 86 60 87 53 88 55 89 56 90 57 91 58 92
REMARK H PARENT 9 13 80 45 48 56
REMARK Flexibility Score: inf
ROOT
ATOM      1  C   UNL A   1      37.470  20.705  25.024  1.00  0.00     0.275 C 
ENDROOT
BRANCH   1   2
ATOM      2  C   UNL A   1      36.297  21.352  25.754  1.00  0.00     0.275 C 
BRANCH   2   3
ATOM      3  O   UNL A   1      35.104  21.314  24.941  1.00  0.00    -0.458 OA
BRANCH   3   4
ATOM      4  C   UNL A   1      34.080  20.555  25.415  1.00  0.00     0.340 C 
ATOM      5  O   UNL A   1      33.516  20.697  26.485  1.00  0.00    -0.246 OA
BRANCH   4   6
ATOM      6  C   UNL A   1      33.645  19.539  24.423  1.00  0.00     0.083 A 
ATOM      7  C   UNL A   1      32.634  19.731  23.462  1.00  0.00     0.053 A 
ATOM      8  C   UNL A   1      32.328  18.642  22.617  1.00  0.00     0.027 A 
ATOM      9  C   UNL A   1      32.981  17.410  22.724  1.00  0.00     0.002 A 
ATOM     10  C   UNL A   1      34.329  18.308  24.492  1.00  0.00     0.018 A 
ATOM     11  C   UNL A   1      33.986  17.243  23.665  1.00  0.00     0.001 A 
BRANCH   7  12
ATOM     12  N   UNL A   1      31.951  20.933  23.185  1.00  0.00    -0.360 N 
ATOM     13  H   UNL A   1      31.002  20.947  23.446  1.00  0.00     0.166 HD
BRANCH  12  14
ATOM     14  C   UNL A   1      32.418  22.088  22.606  1.00  0.00     0.106 C 
ATOM     15  C   UNL A   1      34.795  24.667  25.020  1.00  0.00     0.106 C 
ATOM     16  C   UNL A   1      33.515  25.352  24.529  1.00  0.00     0.252 C 
ATOM     17  C   UNL A   1      33.478  26.788  25.049  1.00  0.00     0.106 C 
ATOM     18  O   UNL A   1      33.507  25.448  23.105  1.00  0.00    -0.419 OA
ATOM     19  O   UNL A   1      32.364  24.703  25.067  1.00  0.00    -0.419 OA
ATOM     20  C   UNL A   1      33.108  24.388  22.376  1.00  0.00     0.350 C 
ATOM     21  C   UNL A   1      31.937  23.566  24.485  1.00  0.00     0.350 C 
ATOM     22  O   UNL A   1      33.297  24.337  21.169  1.00  0.00    -0.246 OA
ATOM     23  C   UNL A   1      32.457  23.322  23.139  1.00  0.00     0.161 C 
ATOM     24  O   UNL A   1      31.145  22.817  25.046  1.00  0.00    -0.246 OA
ENDBRANCH  12  14
ENDBRANCH   7  12
ENDBRANCH   4   6
ENDBRANCH   3   4
ENDBRANCH   2   3
ENDBRANCH   1   2
BRANCH   1  25
ATOM     25  O   UNL A   1      38.621  21.549  25.157  1.00  0.00    -0.458 OA
BRANCH  25  26
ATOM     26  C   UNL A   1      39.462  21.226  26.161  1.00  0.00     0.338 C 
ATOM     27  O   UNL A   1      39.852  20.115  26.487  1.00  0.00    -0.246 OA
BRANCH  26  28
ATOM     28  C   UNL A   1      39.954  22.468  26.762  1.00  0.00     0.060 A 
ATOM     29  C   UNL A   1      39.458  23.673  26.267  1.00  0.00     0.016 A 
ATOM     30  C   UNL A   1      40.957  22.455  27.726  1.00  0.00     0.016 A 
ATOM     31  C   UNL A   1      40.022  24.878  26.669  1.00  0.00     0.010 A 
ATOM     32  C   UNL A   1      41.469  23.673  28.188  1.00  0.00     0.010 A 
ATOM     33  C   UNL A   1      41.036  24.896  27.637  1.00  0.00    -0.014 A 
BRANCH  33  34
ATOM     34  C   UNL A   1      41.686  26.175  28.034  1.00  0.00     0.031 A 
ATOM     35  C   UNL A   1      40.888  27.218  28.774  1.00  0.00     0.074 A 
ATOM     36  C   UNL A   1      42.979  26.414  27.733  1.00  0.00     0.049 A 
ATOM     37  N   UNL A   1      41.187  28.466  29.027  1.00  0.00    -0.248 NA
ATOM     38  C   UNL A   1      39.567  26.807  29.282  1.00  0.00     0.031 C 
ATOM     39  C   UNL A   1      43.877  25.483  27.047  1.00  0.00     0.029 A 
ATOM     40  N   UNL A   1      43.760  27.523  27.952  1.00  0.00    -0.354 N 
ATOM     41  C   UNL A   1      40.071  29.006  29.655  1.00  0.00     0.074 A 
ATOM     42  C   UNL A   1      39.087  27.950  29.751  1.00  0.00     0.031 C 
ATOM     43  C   UNL A   1      45.084  26.052  26.910  1.00  0.00     0.029 A 
ATOM     44  C   UNL A   1      45.027  27.415  27.426  1.00  0.00     0.049 A 
ATOM     45  H   UNL A   1      43.442  28.319  28.437  1.00  0.00     0.167 HD
ATOM     46  C   UNL A   1      39.887  30.264  30.124  1.00  0.00     0.034 A 
ATOM     47  C   UNL A   1      46.018  28.324  27.329  1.00  0.00     0.034 A 
ATOM     48  C   UNL A   1      40.894  31.290  30.093  1.00  0.00     0.049 A 
ATOM     49  C   UNL A   1      45.789  29.712  27.863  1.00  0.00     0.074 A 
ATOM     50  C   UNL A   1      40.810  32.596  30.544  1.00  0.00     0.029 A 
ATOM     51  N   UNL A   1      42.182  31.117  29.608  1.00  0.00    -0.354 N 
ATOM     52  N   UNL A   1      44.732  30.200  28.466  1.00  0.00    -0.248 NA
ATOM     53  C   UNL A   1      46.894  30.671  27.716  1.00  0.00     0.031 C 
ATOM     54  C   UNL A   1      42.049  33.211  30.336  1.00  0.00     0.029 A 
ATOM     55  C   UNL A   1      42.906  32.285  29.763  1.00  0.00     0.049 A 
ATOM     56  H   UNL A   1      42.529  30.286  29.210  1.00  0.00     0.167 HD
ATOM     57  C   UNL A   1      45.052  31.514  28.789  1.00  0.00     0.074 A 
ATOM     58  C   UNL A   1      46.412  31.734  28.344  1.00  0.00     0.031 C 
ATOM     59  C   UNL A   1      44.282  32.462  29.375  1.00  0.00     0.034 A 
BRANCH  46  60
ATOM     60  C   UNL A   1      38.556  30.596  30.748  1.00  0.00     0.023 A 
ATOM     61  C   UNL A   1      38.324  30.276  32.100  1.00  0.00     0.012 A 
ATOM     62  C   UNL A   1      37.563  31.282  30.019  1.00  0.00     0.148 A 
ATOM     63  C   UNL A   1      37.115  30.609  32.712  1.00  0.00     0.002 A 
ATOM     64  C   UNL A   1      36.376  31.647  30.647  1.00  0.00     0.091 A 
ATOM     65  F   UNL A   1      37.795  31.561  28.729  1.00  0.00    -0.205 F 
ATOM     66  C   UNL A   1      36.148  31.302  31.989  1.00  0.00     0.022 A 
BRANCH  64  67
ATOM     67  S   UNL A   1      35.097  32.605  29.826  1.00  0.00     0.127 S 
ATOM     68  O   UNL A   1      34.639  31.670  28.800  1.00  0.00    -0.237 OA
ATOM     69  O   UNL A   1      34.142  32.837  30.910  1.00  0.00    -0.237 OA
ATOM     70  O   UNL A   1      35.753  33.806  29.327  1.00  0.00    -0.744 OA
ENDBRANCH  64  67
ENDBRANCH  46  60
BRANCH  47  71
ATOM     71  C   UNL A   1      47.322  27.949  26.708  1.00  0.00     0.023 A 
ATOM     72  C   UNL A   1      48.417  27.632  27.533  1.00  0.00     0.012 A 
ATOM     73  C   UNL A   1      47.480  27.886  25.310  1.00  0.00     0.148 A 
ATOM     74  C   UNL A   1      49.651  27.286  26.980  1.00  0.00     0.002 A 
ATOM     75  C   UNL A   1      48.693  27.480  24.765  1.00  0.00     0.091 A 
ATOM     76  F   UNL A   1      46.439  28.220  24.532  1.00  0.00    -0.205 F 
ATOM     77  C   UNL A   1      49.786  27.196  25.597  1.00  0.00     0.022 A 
BRANCH  75  78
ATOM     78  S   UNL A   1      48.886  27.201  23.001  1.00  0.00     0.127 S 
ATOM     79  O   UNL A   1      48.228  28.374  22.436  1.00  0.00    -0.237 OA
ATOM     80  O   UNL A   1      50.342  27.177  22.845  1.00  0.00    -0.237 OA
ATOM     81  O   UNL A   1      48.243  25.918  22.749  1.00  0.00    -0.744 OA
ENDBRANCH  75  78
ENDBRANCH  47  71
BRANCH  59  82
ATOM     82  C   UNL A   1      44.902  33.812  29.608  1.00  0.00     0.023 A 
ATOM     83  C   UNL A   1      45.573  34.070  30.820  1.00  0.00     0.012 A 
ATOM     84  C   UNL A   1      44.877  34.800  28.605  1.00  0.00     0.148 A 
ATOM     85  C   UNL A   1      46.183  35.304  31.043  1.00  0.00     0.002 A 
ATOM     86  C   UNL A   1      45.525  36.011  28.817  1.00  0.00     0.091 A 
ATOM     87  F   UNL A   1      44.215  34.541  27.468  1.00  0.00    -0.205 F 
ATOM     88  C   UNL A   1      46.169  36.268  30.038  1.00  0.00     0.022 A 
BRANCH  86  89
ATOM     89  S   UNL A   1      45.630  37.277  27.546  1.00  0.00     0.127 S 
ATOM     90  O   UNL A   1      46.203  36.529  26.428  1.00  0.00    -0.237 OA
ATOM     91  O   UNL A   1      44.229  37.660  27.370  1.00  0.00    -0.237 OA
ATOM     92  O   UNL A   1      46.476  38.327  28.099  1.00  0.00    -0.744 OA
ENDBRANCH  86  89
ENDBRANCH  59  82
ENDBRANCH  33  34
ENDBRANCH  26  28
ENDBRANCH  25  26
ENDBRANCH   1  25
TORSDOF 16
ENDMDL
MODEL 3
REMARK VINA RESULT:     -12.4      4.674      9.851
REMARK SMILES CC1(C)OC(=O)C(=CNc2ccccc2C(=O)OCCOC(=O)c2ccc(-c3c4nc(c(-c5cccc(S(=O)(=O)[O-])c5F)c5ccc([nH]5)c(-c5cccc(S(=O)(=O)[O-])c5F)c5nc(c(-c6cccc(S(=O)(=O)[O-])c6F)c6ccc3[nH]6)C=C5)C=C4)cc2)C(=O)O1
REMARK SMILES IDX 20 1 19 2 18 3 16 4 17 5 15 6 10 7 11 8 12 9 14 10 13 11
REMARK SMILES IDX 9 12 8 14 1 15 2 16 3 17 4 18 89 19 5 20 87 21 6 22 7 23
REMARK SMILES IDX 88 24 21 25 22 26 23 27 24 28 25 29 86 30 26 31 85 32 27 33
REMARK SMILES IDX 28 34 29 35 79 36 30 37 84 38 78 39 80 40 31 41 83 42 77 43
REMARK SMILES IDX 76 44 32 46 64 47 44 48 63 49 45 50 48 51 62 52 81 53 46 54
REMARK SMILES IDX 47 55 61 57 82 58 49 59 33 60 34 61 42 62 35 63 37 64 43 65
REMARK SMILES IDX 36 66 38 67 39 68 40 69 41 70 65 71 66 72 74 73 67 74 69 75
REMARK SMILES IDX 75 76 68 77 70 78 71 79 72 80 73 81 50 82 51 83 59 84 52 85
REMARK SMILES IDX 54 86 60 87 53 88 55 89 56 90 57 91 58 92
REMARK H PARENT 9 13 80 45 48 56
REMARK Flexibility Score: inf
ROOT
ATOM      1  C   UNL A   1      31.740  29.964  25.613  1.00  0.00     0.275 C 
ENDROOT
BRANCH   1   2
ATOM      2  C   UNL A   1      32.183  28.655  24.966  1.00  0.00     0.275 C 
BRANCH   2   3
ATOM      3  O   UNL A   1      32.180  28.769  23.526  1.00  0.00    -0.458 OA
BRANCH   3   4
ATOM      4  C   UNL A   1      31.417  27.864  22.856  1.00  0.00     0.340 C 
ATOM      5  O   UNL A   1      31.824  26.883  22.260  1.00  0.00    -0.246 OA
BRANCH   4   6
ATOM      6  C   UNL A   1      29.969  28.159  22.992  1.00  0.00     0.083 A 
ATOM      7  C   UNL A   1      29.002  27.252  23.466  1.00  0.00     0.053 A 
ATOM      8  C   UNL A   1      27.661  27.693  23.500  1.00  0.00     0.027 A 
ATOM      9  C   UNL A   1      27.286  28.970  23.071  1.00  0.00     0.002 A 
ATOM     10  C   UNL A   1      29.587  29.461  22.606  1.00  0.00     0.018 A 
ATOM     11  C   UNL A   1      28.253  29.858  22.624  1.00  0.00     0.001 A 
BRANCH   7  12
ATOM     12  N   UNL A   1      29.239  25.970  24.003  1.00  0.00    -0.360 N 
ATOM     13  H   UNL A   1      28.746  25.235  23.573  1.00  0.00     0.166 HD
BRANCH  12  14
ATOM     14  C   UNL A   1      30.062  25.598  25.038  1.00  0.00     0.106 C 
ATOM     15  C   UNL A   1      34.156  24.870  24.125  1.00  0.00     0.106 C 
ATOM     16  C   UNL A   1      33.460  23.627  24.691  1.00  0.00     0.252 C 
ATOM     17  C   UNL A   1      34.465  22.479  24.775  1.00  0.00     0.106 C 
ATOM     18  O   UNL A   1      33.017  23.862  26.028  1.00  0.00    -0.419 OA
ATOM     19  O   UNL A   1      32.426  23.189  23.811  1.00  0.00    -0.419 OA
ATOM     20  C   UNL A   1      31.845  24.495  26.230  1.00  0.00     0.350 C 
ATOM     21  C   UNL A   1      31.240  23.826  23.847  1.00  0.00     0.350 C 
ATOM     22  O   UNL A   1      31.533  24.918  27.334  1.00  0.00    -0.246 OA
ATOM     23  C   UNL A   1      31.006  24.640  25.040  1.00  0.00     0.161 C 
ATOM     24  O   UNL A   1      30.416  23.698  22.949  1.00  0.00    -0.246 OA
ENDBRANCH  12  14
ENDBRANCH   7  12
ENDBRANCH   4   6
ENDBRANCH   3   4
ENDBRANCH   2   3
ENDBRANCH   1   2
BRANCH   1  25
ATOM     25  O   UNL A   1      32.392  30.097  26.883  1.00  0.00    -0.458 OA
BRANCH  25  26
ATOM     26  C   UNL A   1      32.973  31.293  27.112  1.00  0.00     0.338 C 
ATOM     27  O   UNL A   1      32.472  32.403  27.016  1.00  0.00    -0.246 OA
BRANCH  26  28
ATOM     28  C   UNL A   1      34.323  31.054  27.628  1.00  0.00     0.060 A 
ATOM     29  C   UNL A   1      34.674  29.746  27.955  1.00  0.00     0.016 A 
ATOM     30  C   UNL A   1      35.196  32.108  27.879  1.00  0.00     0.016 A 
ATOM     31  C   UNL A   1      35.868  29.487  28.618  1.00  0.00     0.010 A 
ATOM     32  C   UNL A   1      36.433  31.835  28.474  1.00  0.00     0.010 A 
ATOM     33  C   UNL A   1      36.766  30.529  28.886  1.00  0.00    -0.014 A 
BRANCH  33  34
ATOM     34  C   UNL A   1      38.022  30.274  29.644  1.00  0.00     0.031 A 
ATOM     35  C   UNL A   1      39.089  29.393  29.044  1.00  0.00     0.074 A 
ATOM     36  C   UNL A   1      38.213  30.816  30.865  1.00  0.00     0.049 A 
ATOM     37  N   UNL A   1      40.150  28.876  29.607  1.00  0.00    -0.248 NA
ATOM     38  C   UNL A   1      38.931  29.032  27.625  1.00  0.00     0.031 C 
ATOM     39  C   UNL A   1      37.279  31.709  31.553  1.00  0.00     0.029 A 
ATOM     40  N   UNL A   1      39.253  30.681  31.752  1.00  0.00    -0.354 N 
ATOM     41  C   UNL A   1      40.743  28.074  28.638  1.00  0.00     0.074 A 
ATOM     42  C   UNL A   1      39.928  28.176  27.448  1.00  0.00     0.031 C 
ATOM     43  C   UNL A   1      37.789  32.049  32.746  1.00  0.00     0.029 A 
ATOM     44  C   UNL A   1      39.048  31.339  32.944  1.00  0.00     0.049 A 
ATOM     45  H   UNL A   1      40.066  30.161  31.555  1.00  0.00     0.167 HD
ATOM     46  C   UNL A   1      41.873  27.332  28.727  1.00  0.00     0.034 A 
ATOM     47  C   UNL A   1      39.767  31.337  34.084  1.00  0.00     0.034 A 
ATOM     48  C   UNL A   1      42.721  27.292  29.888  1.00  0.00     0.049 A 
ATOM     49  C   UNL A   1      41.022  30.509  34.152  1.00  0.00     0.074 A 
ATOM     50  C   UNL A   1      43.889  26.575  30.079  1.00  0.00     0.029 A 
ATOM     51  N   UNL A   1      42.506  28.022  31.047  1.00  0.00    -0.354 N 
ATOM     52  N   UNL A   1      41.573  29.768  33.222  1.00  0.00    -0.248 NA
ATOM     53  C   UNL A   1      41.759  30.526  35.424  1.00  0.00     0.031 C 
ATOM     54  C   UNL A   1      44.384  26.876  31.352  1.00  0.00     0.029 A 
ATOM     55  C   UNL A   1      43.528  27.787  31.950  1.00  0.00     0.049 A 
ATOM     56  H   UNL A   1      41.740  28.619  31.205  1.00  0.00     0.167 HD
ATOM     57  C   UNL A   1      42.733  29.250  33.787  1.00  0.00     0.074 A 
ATOM     58  C   UNL A   1      42.820  29.787  35.129  1.00  0.00     0.031 C 
ATOM     59  C   UNL A   1      43.631  28.386  33.256  1.00  0.00     0.034 A 
BRANCH  46  60
ATOM     60  C   UNL A   1      42.285  26.528  27.521  1.00  0.00     0.023 A 
ATOM     61  C   UNL A   1      43.043  27.141  26.504  1.00  0.00     0.012 A 
ATOM     62  C   UNL A   1      41.980  25.155  27.425  1.00  0.00     0.148 A 
ATOM     63  C   UNL A   1      43.470  26.408  25.397  1.00  0.00     0.002 A 
ATOM     64  C   UNL A   1      42.443  24.421  26.338  1.00  0.00     0.091 A 
ATOM     65  F   UNL A   1      41.241  24.595  28.393  1.00  0.00    -0.205 F 
ATOM     66  C   UNL A   1      43.180  25.048  25.319  1.00  0.00     0.022 A 
BRANCH  64  67
ATOM     67  S   UNL A   1      42.186  22.650  26.180  1.00  0.00     0.127 S 
ATOM     68  O   UNL A   1      40.726  22.564  26.156  1.00  0.00    -0.237 OA
ATOM     69  O   UNL A   1      42.835  22.356  24.902  1.00  0.00    -0.237 OA
ATOM     70  O   UNL A   1      42.827  22.046  27.341  1.00  0.00    -0.744 OA
ENDBRANCH  64  67
ENDBRANCH  46  60
BRANCH  47  71
ATOM     71  C   UNL A   1      39.324  32.153  35.252  1.00  0.00     0.023 A 
ATOM     72  C   UNL A   1      38.462  31.583  36.208  1.00  0.00     0.012 A 
ATOM     73  C   UNL A   1      39.764  33.479  35.434  1.00  0.00     0.148 A 
ATOM     74  C   UNL A   1      38.025  32.325  37.307  1.00  0.00     0.002 A 
ATOM     75  C   UNL A   1      39.375  34.192  36.562  1.00  0.00     0.091 A 
ATOM     76  F   UNL A   1      40.560  34.022  34.501  1.00  0.00    -0.205 F 
ATOM     77  C   UNL A   1      38.492  33.624  37.492  1.00  0.00     0.022 A 
BRANCH  75  78
ATOM     78  S   UNL A   1      40.058  35.811  36.933  1.00  0.00     0.127 S 
ATOM     79  O   UNL A   1      39.389  36.142  38.187  1.00  0.00    -0.237 OA
ATOM     80  O   UNL A   1      41.489  35.527  37.055  1.00  0.00    -0.237 OA
ATOM     81  O   UNL A   1      39.715  36.638  35.783  1.00  0.00    -0.744 OA
ENDBRANCH  75  78
ENDBRANCH  47  71
BRANCH  59  82
ATOM     82  C   UNL A   1      44.808  27.997  34.109  1.00  0.00     0.023 A 
ATOM     83  C   UNL A   1      45.978  28.782  34.078  1.00  0.00     0.012 A 
ATOM     84  C   UNL A   1      44.731  26.897  34.984  1.00  0.00     0.148 A 
ATOM     85  C   UNL A   1      47.067  28.458  34.885  1.00  0.00     0.002 A 
ATOM     86  C   UNL A   1      45.805  26.607  35.817  1.00  0.00     0.091 A 
ATOM     87  F   UNL A   1      43.616  26.153  34.982  1.00  0.00    -0.205 F 
ATOM     88  C   UNL A   1      46.977  27.380  35.761  1.00  0.00     0.022 A 
BRANCH  86  89
ATOM     89  S   UNL A   1      45.743  25.290  37.037  1.00  0.00     0.127 S 
ATOM     90  O   UNL A   1      46.205  24.141  36.259  1.00  0.00    -0.237 OA
ATOM     91  O   UNL A   1      46.687  25.758  38.052  1.00  0.00    -0.237 OA
ATOM     92  O   UNL A   1      44.359  25.228  37.487  1.00  0.00    -0.744 OA
ENDBRANCH  86  89
ENDBRANCH  59  82
ENDBRANCH  33  34
ENDBRANCH  26  28
ENDBRANCH  25  26
ENDBRANCH   1  25
TORSDOF 16
ENDMDL
