MODEL 1
REMARK VINA RESULT:     -10.8      0.000      0.000
REMARK SMILES CN1CC[N@H+](CC(=O)OCCOC(=O)c2ccc(-c3c4nc(c(-c5cccc(S(=O)(=O)[O-])c5F)c5ccc([nH]5)c(-c5cccc(S(=O)(=O)[O-])c5F)c5nc(c(-c6cccc(S(=O)(=O)[O-])c6F)c6ccc3[nH]6)C=C5)C=C4)cc2)C(C)(C)C1=O
REMARK SMILES IDX 11 1 10 2 9 3 7 4 8 5 6 6 5 7 1 8 2 9 3 10 81 11 4 12 78 13
REMARK SMILES IDX 82 14 79 15 80 16 12 18 13 19 14 20 15 21 16 22 77 23 17 24
REMARK SMILES IDX 76 25 18 26 19 27 20 28 70 29 21 30 75 31 69 32 71 33 22 34
REMARK SMILES IDX 74 35 68 36 67 37 23 39 55 40 35 41 54 42 36 43 39 44 53 45
REMARK SMILES IDX 72 46 37 47 38 48 52 50 73 51 40 52 24 53 25 54 33 55 26 56
REMARK SMILES IDX 28 57 34 58 27 59 29 60 30 61 31 62 32 63 56 64 57 65 65 66
REMARK SMILES IDX 58 67 60 68 66 69 59 70 61 71 62 72 63 73 64 74 41 75 42 76
REMARK SMILES IDX 50 77 43 78 45 79 51 80 44 81 46 82 47 83 48 84 49 85
REMARK H PARENT 5 17 71 38 39 49
REMARK Flexibility Score: inf
ROOT
ATOM      1  C   UNL A   1      31.751  30.415  25.854  1.00  0.00     0.275 C 
ENDROOT
BRANCH   1   2
ATOM      2  C   UNL A   1      31.440  29.189  25.002  1.00  0.00     0.274 C 
BRANCH   2   3
ATOM      3  O   UNL A   1      32.387  29.067  23.923  1.00  0.00    -0.458 OA
BRANCH   3   4
ATOM      4  C   UNL A   1      32.931  27.842  23.724  1.00  0.00     0.361 C 
ATOM      5  O   UNL A   1      33.436  27.475  22.667  1.00  0.00    -0.245 OA
BRANCH   4   6
ATOM      6  C   UNL A   1      32.830  26.902  24.925  1.00  0.00     0.387 C 
BRANCH   6   7
ATOM      7  N   UNL A   1      32.710  25.452  24.675  1.00  0.00    -0.312 N 
ATOM      8  C   UNL A   1      33.218  22.463  27.717  1.00  0.00     0.147 C 
ATOM      9  N   UNL A   1      32.949  23.314  26.576  1.00  0.00    -0.335 N 
ATOM     10  C   UNL A   1      33.929  23.359  25.504  1.00  0.00     0.180 C 
ATOM     11  C   UNL A   1      31.712  23.933  26.431  1.00  0.00     0.283 C 
ATOM     12  C   UNL A   1      33.979  24.728  24.811  1.00  0.00     0.285 C 
ATOM     13  C   UNL A   1      31.487  24.731  25.105  1.00  0.00     0.172 C 
ATOM     14  O   UNL A   1      30.819  23.808  27.273  1.00  0.00    -0.268 OA
ATOM     15  C   UNL A   1      31.111  23.733  23.987  1.00  0.00     0.090 C 
ATOM     16  C   UNL A   1      30.257  25.653  25.278  1.00  0.00     0.090 C 
ATOM     17  H   UNL A   1      32.490  25.449  23.679  1.00  0.00     0.349 HD
ENDBRANCH   6   7
ENDBRANCH   4   6
ENDBRANCH   3   4
ENDBRANCH   2   3
ENDBRANCH   1   2
BRANCH   1  18
ATOM     18  O   UNL A   1      33.136  30.394  26.239  1.00  0.00    -0.458 OA
BRANCH  18  19
ATOM     19  C   UNL A   1      33.517  31.362  27.100  1.00  0.00     0.338 C 
ATOM     20  O   UNL A   1      32.942  32.403  27.362  1.00  0.00    -0.246 OA
BRANCH  19  21
ATOM     21  C   UNL A   1      34.784  30.982  27.736  1.00  0.00     0.060 A 
ATOM     22  C   UNL A   1      34.962  29.683  28.217  1.00  0.00     0.016 A 
ATOM     23  C   UNL A   1      35.753  31.962  27.949  1.00  0.00     0.016 A 
ATOM     24  C   UNL A   1      36.099  29.372  28.956  1.00  0.00     0.010 A 
ATOM     25  C   UNL A   1      36.924  31.629  28.631  1.00  0.00     0.010 A 
ATOM     26  C   UNL A   1      37.097  30.337  29.153  1.00  0.00    -0.014 A 
BRANCH  26  27
ATOM     27  C   UNL A   1      38.357  29.972  29.842  1.00  0.00     0.031 A 
ATOM     28  C   UNL A   1      39.317  28.992  29.233  1.00  0.00     0.074 A 
ATOM     29  C   UNL A   1      38.602  30.508  31.053  1.00  0.00     0.049 A 
ATOM     30  N   UNL A   1      40.430  28.519  29.728  1.00  0.00    -0.248 NA
ATOM     31  C   UNL A   1      38.981  28.466  27.900  1.00  0.00     0.031 C 
ATOM     32  C   UNL A   1      37.717  31.445  31.750  1.00  0.00     0.029 A 
ATOM     33  N   UNL A   1      39.650  30.332  31.918  1.00  0.00    -0.354 N 
ATOM     34  C   UNL A   1      40.911  27.612  28.791  1.00  0.00     0.074 A 
ATOM     35  C   UNL A   1      39.967  27.602  27.694  1.00  0.00     0.031 C 
ATOM     36  C   UNL A   1      38.260  31.763  32.934  1.00  0.00     0.029 A 
ATOM     37  C   UNL A   1      39.506  31.024  33.098  1.00  0.00     0.049 A 
ATOM     38  H   UNL A   1      40.429  29.767  31.715  1.00  0.00     0.167 HD
ATOM     39  C   UNL A   1      42.041  26.869  28.839  1.00  0.00     0.034 A 
ATOM     40  C   UNL A   1      40.282  31.046  34.199  1.00  0.00     0.034 A 
ATOM     41  C   UNL A   1      42.992  26.914  29.920  1.00  0.00     0.049 A 
ATOM     42  C   UNL A   1      41.543  30.233  34.210  1.00  0.00     0.074 A 
ATOM     43  C   UNL A   1      44.196  26.242  30.038  1.00  0.00     0.029 A 
ATOM     44  N   UNL A   1      42.845  27.673  31.072  1.00  0.00    -0.354 N 
ATOM     45  N   UNL A   1      42.038  29.470  33.265  1.00  0.00    -0.248 NA
ATOM     46  C   UNL A   1      42.365  30.302  35.425  1.00  0.00     0.031 C 
ATOM     47  C   UNL A   1      44.773  26.588  31.265  1.00  0.00     0.029 A 
ATOM     48  C   UNL A   1      43.931  27.481  31.910  1.00  0.00     0.049 A 
ATOM     49  H   UNL A   1      42.080  28.261  31.267  1.00  0.00     0.167 HD
ATOM     50  C   UNL A   1      43.234  28.973  33.767  1.00  0.00     0.074 A 
ATOM     51  C   UNL A   1      43.406  29.553  35.085  1.00  0.00     0.031 C 
ATOM     52  C   UNL A   1      44.099  28.096  33.201  1.00  0.00     0.034 A 
BRANCH  39  53
ATOM     53  C   UNL A   1      42.342  25.971  27.668  1.00  0.00     0.023 A 
ATOM     54  C   UNL A   1      43.121  26.465  26.602  1.00  0.00     0.012 A 
ATOM     55  C   UNL A   1      41.915  24.629  27.650  1.00  0.00     0.148 A 
ATOM     56  C   UNL A   1      43.456  25.642  25.527  1.00  0.00     0.002 A 
ATOM     57  C   UNL A   1      42.280  23.806  26.589  1.00  0.00     0.091 A 
ATOM     58  F   UNL A   1      41.152  24.185  28.659  1.00  0.00    -0.205 F 
ATOM     59  C   UNL A   1      43.045  24.312  25.525  1.00  0.00     0.022 A 
BRANCH  57  60
ATOM     60  S   UNL A   1      41.849  22.062  26.531  1.00  0.00     0.127 S 
ATOM     61  O   UNL A   1      42.601  21.610  25.362  1.00  0.00    -0.237 OA
ATOM     62  O   UNL A   1      42.359  21.570  27.812  1.00  0.00    -0.237 OA
ATOM     63  O   UNL A   1      40.398  22.017  26.404  1.00  0.00    -0.744 OA
ENDBRANCH  57  60
ENDBRANCH  39  53
BRANCH  40  64
ATOM     64  C   UNL A   1      39.898  31.914  35.345  1.00  0.00     0.023 A 
ATOM     65  C   UNL A   1      40.297  33.263  35.350  1.00  0.00     0.012 A 
ATOM     66  C   UNL A   1      39.072  31.437  36.381  1.00  0.00     0.148 A 
ATOM     67  C   UNL A   1      39.890  34.120  36.374  1.00  0.00     0.002 A 
ATOM     68  C   UNL A   1      38.623  32.310  37.366  1.00  0.00     0.091 A 
ATOM     69  F   UNL A   1      38.720  30.143  36.374  1.00  0.00    -0.205 F 
ATOM     70  C   UNL A   1      39.041  33.648  37.371  1.00  0.00     0.022 A 
BRANCH  68  71
ATOM     71  S   UNL A   1      37.404  31.806  38.587  1.00  0.00     0.127 S 
ATOM     72  O   UNL A   1      38.144  31.965  39.835  1.00  0.00    -0.237 OA
ATOM     73  O   UNL A   1      36.332  32.781  38.378  1.00  0.00    -0.237 OA
ATOM     74  O   UNL A   1      37.043  30.441  38.223  1.00  0.00    -0.744 OA
ENDBRANCH  68  71
ENDBRANCH  40  64
BRANCH  52  75
ATOM     75  C   UNL A   1      45.303  27.705  34.014  1.00  0.00     0.023 A 
ATOM     76  C   UNL A   1      46.443  28.532  33.996  1.00  0.00     0.012 A 
ATOM     77  C   UNL A   1      45.295  26.554  34.823  1.00  0.00     0.148 A 
ATOM     78  C   UNL A   1      47.569  28.204  34.747  1.00  0.00     0.002 A 
ATOM     79  C   UNL A   1      46.409  26.253  35.600  1.00  0.00     0.091 A 
ATOM     80  F   UNL A   1      44.212  25.763  34.806  1.00  0.00    -0.205 F 
ATOM     81  C   UNL A   1      47.549  27.070  35.557  1.00  0.00     0.022 A 
BRANCH  79  82
ATOM     82  S   UNL A   1      46.425  24.852  36.725  1.00  0.00     0.127 S 
ATOM     83  O   UNL A   1      45.325  25.180  37.629  1.00  0.00    -0.237 OA
ATOM     84  O   UNL A   1      46.164  23.722  35.832  1.00  0.00    -0.237 OA
ATOM     85  O   UNL A   1      47.756  24.847  37.320  1.00  0.00    -0.744 OA
ENDBRANCH  79  82
ENDBRANCH  52  75
ENDBRANCH  26  27
ENDBRANCH  19  21
ENDBRANCH  18  19
ENDBRANCH   1  18
TORSDOF 15
ENDMDL
MODEL 2
REMARK VINA RESULT:     -10.7      5.427     10.254
REMARK SMILES CN1CC[N@H+](CC(=O)OCCOC(=O)c2ccc(-c3c4nc(c(-c5cccc(S(=O)(=O)[O-])c5F)c5ccc([nH]5)c(-c5cccc(S(=O)(=O)[O-])c5F)c5nc(c(-c6cccc(S(=O)(=O)[O-])c6F)c6ccc3[nH]6)C=C5)C=C4)cc2)C(C)(C)C1=O
REMARK SMILES IDX 11 1 10 2 9 3 7 4 8 5 6 6 5 7 1 8 2 9 3 10 81 11 4 12 78 13
REMARK SMILES IDX 82 14 79 15 80 16 12 18 13 19 14 20 15 21 16 22 77 23 17 24
REMARK SMILES IDX 76 25 18 26 19 27 20 28 70 29 21 30 75 31 69 32 71 33 22 34
REMARK SMILES IDX 74 35 68 36 67 37 23 39 55 40 35 41 54 42 36 43 39 44 53 45
REMARK SMILES IDX 72 46 37 47 38 48 52 50 73 51 40 52 24 53 25 54 33 55 26 56
REMARK SMILES IDX 28 57 34 58 27 59 29 60 30 61 31 62 32 63 56 64 57 65 65 66
REMARK SMILES IDX 58 67 60 68 66 69 59 70 61 71 62 72 63 73 64 74 41 75 42 76
REMARK SMILES IDX 50 77 43 78 45 79 51 80 44 81 46 82 47 83 48 84 49 85
REMARK H PARENT 5 17 71 38 39 49
REMARK Flexibility Score: inf
ROOT
ATOM      1  C   UNL A   1      36.505  20.408  25.016  1.00  0.00     0.275 C 
ENDROOT
BRANCH   1   2
ATOM      2  C   UNL A   1      35.158  20.954  24.555  1.00  0.00     0.274 C 
BRANCH   2   3
ATOM      3  O   UNL A   1      35.327  22.210  23.871  1.00  0.00    -0.458 OA
BRANCH   3   4
ATOM      4  C   UNL A   1      34.200  22.824  23.437  1.00  0.00     0.361 C 
ATOM      5  O   UNL A   1      34.097  23.393  22.354  1.00  0.00    -0.245 OA
BRANCH   4   6
ATOM      6  C   UNL A   1      33.042  22.801  24.435  1.00  0.00     0.387 C 
BRANCH   6   7
ATOM      7  N   UNL A   1      32.632  24.071  25.066  1.00  0.00    -0.312 N 
ATOM      8  C   UNL A   1      33.867  27.936  23.659  1.00  0.00     0.147 C 
ATOM      9  N   UNL A   1      33.294  26.740  24.241  1.00  0.00    -0.335 N 
ATOM     10  C   UNL A   1      33.773  26.313  25.545  1.00  0.00     0.180 C 
ATOM     11  C   UNL A   1      32.200  26.119  23.650  1.00  0.00     0.283 C 
ATOM     12  C   UNL A   1      33.738  24.787  25.713  1.00  0.00     0.285 C 
ATOM     13  C   UNL A   1      31.587  24.907  24.426  1.00  0.00     0.172 C 
ATOM     14  O   UNL A   1      31.700  26.540  22.603  1.00  0.00    -0.268 OA
ATOM     15  C   UNL A   1      30.668  25.450  25.542  1.00  0.00     0.090 C 
ATOM     16  C   UNL A   1      30.665  24.115  23.470  1.00  0.00     0.090 C 
ATOM     17  H   UNL A   1      32.042  23.725  25.823  1.00  0.00     0.349 HD
ENDBRANCH   6   7
ENDBRANCH   4   6
ENDBRANCH   3   4
ENDBRANCH   2   3
ENDBRANCH   1   2
BRANCH   1  18
ATOM     18  O   UNL A   1      37.232  21.439  25.705  1.00  0.00    -0.458 OA
BRANCH  18  19
ATOM     19  C   UNL A   1      38.542  21.188  25.916  1.00  0.00     0.338 C 
ATOM     20  O   UNL A   1      39.139  20.137  25.765  1.00  0.00    -0.246 OA
BRANCH  19  21
ATOM     21  C   UNL A   1      39.210  22.415  26.366  1.00  0.00     0.060 A 
ATOM     22  C   UNL A   1      38.708  23.662  25.988  1.00  0.00     0.016 A 
ATOM     23  C   UNL A   1      40.405  22.312  27.077  1.00  0.00     0.016 A 
ATOM     24  C   UNL A   1      39.430  24.814  26.284  1.00  0.00     0.010 A 
ATOM     25  C   UNL A   1      41.092  23.473  27.432  1.00  0.00     0.010 A 
ATOM     26  C   UNL A   1      40.618  24.730  27.024  1.00  0.00    -0.014 A 
BRANCH  26  27
ATOM     27  C   UNL A   1      41.325  25.965  27.436  1.00  0.00     0.031 A 
ATOM     28  C   UNL A   1      40.634  27.018  28.253  1.00  0.00     0.074 A 
ATOM     29  C   UNL A   1      42.594  26.144  27.022  1.00  0.00     0.049 A 
ATOM     30  N   UNL A   1      41.087  28.179  28.646  1.00  0.00    -0.248 NA
ATOM     31  C   UNL A   1      39.253  26.735  28.678  1.00  0.00     0.031 C 
ATOM     32  C   UNL A   1      43.347  25.198  26.193  1.00  0.00     0.029 A 
ATOM     33  N   UNL A   1      43.466  27.182  27.220  1.00  0.00    -0.354 N 
ATOM     34  C   UNL A   1      40.040  28.786  29.329  1.00  0.00     0.074 A 
ATOM     35  C   UNL A   1      38.926  27.861  29.299  1.00  0.00     0.031 C 
ATOM     36  C   UNL A   1      44.568  25.698  25.957  1.00  0.00     0.029 A 
ATOM     37  C   UNL A   1      44.671  27.013  26.577  1.00  0.00     0.049 A 
ATOM     38  H   UNL A   1      43.251  27.971  27.767  1.00  0.00     0.167 HD
ATOM     39  C   UNL A   1      40.018  29.997  29.935  1.00  0.00     0.034 A 
ATOM     40  C   UNL A   1      45.734  27.834  26.483  1.00  0.00     0.034 A 
ATOM     41  C   UNL A   1      41.143  30.893  29.988  1.00  0.00     0.049 A 
ATOM     42  C   UNL A   1      45.689  29.157  27.189  1.00  0.00     0.074 A 
ATOM     43  C   UNL A   1      41.239  32.118  30.625  1.00  0.00     0.029 A 
ATOM     44  N   UNL A   1      42.368  30.663  29.380  1.00  0.00    -0.354 N 
ATOM     45  N   UNL A   1      44.731  29.664  27.928  1.00  0.00    -0.248 NA
ATOM     46  C   UNL A   1      46.878  30.011  27.073  1.00  0.00     0.031 C 
ATOM     47  C   UNL A   1      42.520  32.633  30.395  1.00  0.00     0.029 A 
ATOM     48  C   UNL A   1      43.225  31.725  29.619  1.00  0.00     0.049 A 
ATOM     49  H   UNL A   1      42.595  29.863  28.854  1.00  0.00     0.167 HD
ATOM     50  C   UNL A   1      45.203  30.893  28.371  1.00  0.00     0.074 A 
ATOM     51  C   UNL A   1      46.548  31.035  27.848  1.00  0.00     0.031 C 
ATOM     52  C   UNL A   1      44.571  31.830  29.119  1.00  0.00     0.034 A 
BRANCH  39  53
ATOM     53  C   UNL A   1      38.747  30.410  30.631  1.00  0.00     0.023 A 
ATOM     54  C   UNL A   1      38.607  30.167  32.012  1.00  0.00     0.012 A 
ATOM     55  C   UNL A   1      37.728  31.095  29.941  1.00  0.00     0.148 A 
ATOM     56  C   UNL A   1      37.462  30.582  32.693  1.00  0.00     0.002 A 
ATOM     57  C   UNL A   1      36.604  31.534  30.634  1.00  0.00     0.091 A 
ATOM     58  F   UNL A   1      37.867  31.294  28.623  1.00  0.00    -0.205 F 
ATOM     59  C   UNL A   1      36.467  31.273  32.007  1.00  0.00     0.022 A 
BRANCH  57  60
ATOM     60  S   UNL A   1      35.299  32.487  29.847  1.00  0.00     0.127 S 
ATOM     61  O   UNL A   1      34.374  32.696  30.960  1.00  0.00    -0.237 OA
ATOM     62  O   UNL A   1      36.009  33.689  29.410  1.00  0.00    -0.237 OA
ATOM     63  O   UNL A   1      34.800  31.653  28.762  1.00  0.00    -0.744 OA
ENDBRANCH  57  60
ENDBRANCH  39  53
BRANCH  40  64
ATOM     64  C   UNL A   1      46.938  27.386  25.733  1.00  0.00     0.023 A 
ATOM     65  C   UNL A   1      47.809  26.452  26.324  1.00  0.00     0.012 A 
ATOM     66  C   UNL A   1      47.178  27.810  24.412  1.00  0.00     0.148 A 
ATOM     67  C   UNL A   1      48.906  25.958  25.616  1.00  0.00     0.002 A 
ATOM     68  C   UNL A   1      48.238  27.269  23.693  1.00  0.00     0.091 A 
ATOM     69  F   UNL A   1      46.352  28.717  23.872  1.00  0.00    -0.205 F 
ATOM     70  C   UNL A   1      49.111  26.353  24.298  1.00  0.00     0.022 A 
BRANCH  68  71
ATOM     71  S   UNL A   1      48.465  27.615  21.943  1.00  0.00     0.127 S 
ATOM     72  O   UNL A   1      48.731  26.284  21.405  1.00  0.00    -0.237 OA
ATOM     73  O   UNL A   1      47.169  28.184  21.567  1.00  0.00    -0.237 OA
ATOM     74  O   UNL A   1      49.569  28.564  21.884  1.00  0.00    -0.744 OA
ENDBRANCH  68  71
ENDBRANCH  40  64
BRANCH  52  75
ATOM     75  C   UNL A   1      45.330  33.098  29.406  1.00  0.00     0.023 A 
ATOM     76  C   UNL A   1      46.162  33.158  30.541  1.00  0.00     0.012 A 
ATOM     77  C   UNL A   1      45.256  34.204  28.541  1.00  0.00     0.148 A 
ATOM     78  C   UNL A   1      46.886  34.313  30.828  1.00  0.00     0.002 A 
ATOM     79  C   UNL A   1      46.012  35.340  28.813  1.00  0.00     0.091 A 
ATOM     80  F   UNL A   1      44.438  34.139  27.480  1.00  0.00    -0.205 F 
ATOM     81  C   UNL A   1      46.820  35.400  29.959  1.00  0.00     0.022 A 
BRANCH  79  82
ATOM     82  S   UNL A   1      46.036  36.748  27.697  1.00  0.00     0.127 S 
ATOM     83  O   UNL A   1      44.823  37.463  28.089  1.00  0.00    -0.237 OA
ATOM     84  O   UNL A   1      47.284  37.420  28.059  1.00  0.00    -0.237 OA
ATOM     85  O   UNL A   1      46.032  36.180  26.354  1.00  0.00    -0.744 OA
ENDBRANCH  79  82
ENDBRANCH  52  75
ENDBRANCH  26  27
ENDBRANCH  19  21
ENDBRANCH  18  19
ENDBRANCH   1  18
TORSDOF 15
ENDMDL
MODEL 3
REMARK VINA RESULT:     -10.7      5.291      9.960
REMARK SMILES CN1CC[N@H+](CC(=O)OCCOC(=O)c2ccc(-c3c4nc(c(-c5cccc(S(=O)(=O)[O-])c5F)c5ccc([nH]5)c(-c5cccc(S(=O)(=O)[O-])c5F)c5nc(c(-c6cccc(S(=O)(=O)[O-])c6F)c6ccc3[nH]6)C=C5)C=C4)cc2)C(C)(C)C1=O
REMARK SMILES IDX 11 1 10 2 9 3 7 4 8 5 6 6 5 7 1 8 2 9 3 10 81 11 4 12 78 13
REMARK SMILES IDX 82 14 79 15 80 16 12 18 13 19 14 20 15 21 16 22 77 23 17 24
REMARK SMILES IDX 76 25 18 26 19 27 20 28 70 29 21 30 75 31 69 32 71 33 22 34
REMARK SMILES IDX 74 35 68 36 67 37 23 39 55 40 35 41 54 42 36 43 39 44 53 45
REMARK SMILES IDX 72 46 37 47 38 48 52 50 73 51 40 52 24 53 25 54 33 55 26 56
REMARK SMILES IDX 28 57 34 58 27 59 29 60 30 61 31 62 32 63 56 64 57 65 65 66
REMARK SMILES IDX 58 67 60 68 66 69 59 70 61 71 62 72 63 73 64 74 41 75 42 76
REMARK SMILES IDX 50 77 43 78 45 79 51 80 44 81 46 82 47 83 48 84 49 85
REMARK H PARENT 5 17 71 38 39 49
REMARK Flexibility Score: inf
ROOT
ATOM      1  C   UNL A   1      36.016  20.710  24.920  1.00  0.00     0.275 C 
ENDROOT
BRANCH   1   2
ATOM      2  C   UNL A   1      34.752  21.506  24.616  1.00  0.00     0.274 C 
BRANCH   2   3
ATOM      3  O   UNL A   1      35.072  22.707  23.887  1.00  0.00    -0.458 OA
BRANCH   3   4
ATOM      4  C   UNL A   1      34.030  23.484  23.506  1.00  0.00     0.361 C 
ATOM      5  O   UNL A   1      34.038  24.215  22.519  1.00  0.00    -0.245 OA
BRANCH   4   6
ATOM      6  C   UNL A   1      32.821  23.425  24.440  1.00  0.00     0.387 C 
BRANCH   6   7
ATOM      7  N   UNL A   1      32.371  24.673  25.088  1.00  0.00    -0.312 N 
ATOM      8  C   UNL A   1      33.466  28.594  23.719  1.00  0.00     0.147 C 
ATOM      9  N   UNL A   1      32.937  27.372  24.291  1.00  0.00    -0.335 N 
ATOM     10  C   UNL A   1      33.436  26.947  25.587  1.00  0.00     0.180 C 
ATOM     11  C   UNL A   1      31.862  26.721  23.697  1.00  0.00     0.283 C 
ATOM     12  C   UNL A   1      33.455  25.420  25.738  1.00  0.00     0.285 C 
ATOM     13  C   UNL A   1      31.295  25.480  24.462  1.00  0.00     0.172 C 
ATOM     14  O   UNL A   1      31.343  27.136  22.657  1.00  0.00    -0.268 OA
ATOM     15  C   UNL A   1      30.363  25.978  25.588  1.00  0.00     0.090 C 
ATOM     16  C   UNL A   1      30.396  24.667  23.501  1.00  0.00     0.090 C 
ATOM     17  H   UNL A   1      31.797  24.298  25.843  1.00  0.00     0.349 HD
ENDBRANCH   6   7
ENDBRANCH   4   6
ENDBRANCH   3   4
ENDBRANCH   2   3
ENDBRANCH   1   2
BRANCH   1  18
ATOM     18  O   UNL A   1      36.844  21.452  25.832  1.00  0.00    -0.458 OA
BRANCH  18  19
ATOM     19  C   UNL A   1      38.169  21.202  25.752  1.00  0.00     0.338 C 
ATOM     20  O   UNL A   1      38.720  20.168  25.420  1.00  0.00    -0.246 OA
BRANCH  19  21
ATOM     21  C   UNL A   1      38.918  22.408  26.126  1.00  0.00     0.060 A 
ATOM     22  C   UNL A   1      40.054  22.303  26.931  1.00  0.00     0.016 A 
ATOM     23  C   UNL A   1      38.416  23.656  25.760  1.00  0.00     0.016 A 
ATOM     24  C   UNL A   1      40.668  23.455  27.410  1.00  0.00     0.010 A 
ATOM     25  C   UNL A   1      39.074  24.810  26.185  1.00  0.00     0.010 A 
ATOM     26  C   UNL A   1      40.194  24.718  27.027  1.00  0.00    -0.014 A 
BRANCH  26  27
ATOM     27  C   UNL A   1      40.917  25.941  27.445  1.00  0.00     0.031 A 
ATOM     28  C   UNL A   1      40.225  27.020  28.227  1.00  0.00     0.074 A 
ATOM     29  C   UNL A   1      42.202  26.086  27.069  1.00  0.00     0.049 A 
ATOM     30  N   UNL A   1      40.692  28.176  28.619  1.00  0.00    -0.248 NA
ATOM     31  C   UNL A   1      38.826  26.774  28.613  1.00  0.00     0.031 C 
ATOM     32  C   UNL A   1      42.958  25.112  26.276  1.00  0.00     0.029 A 
ATOM     33  N   UNL A   1      43.091  27.106  27.281  1.00  0.00    -0.354 N 
ATOM     34  C   UNL A   1      39.639  28.815  29.262  1.00  0.00     0.074 A 
ATOM     35  C   UNL A   1      38.506  27.916  29.209  1.00  0.00     0.031 C 
ATOM     36  C   UNL A   1      44.197  25.581  26.072  1.00  0.00     0.029 A 
ATOM     37  C   UNL A   1      44.311  26.901  26.679  1.00  0.00     0.049 A 
ATOM     38  H   UNL A   1      42.878  27.907  27.812  1.00  0.00     0.167 HD
ATOM     39  C   UNL A   1      39.626  30.034  29.852  1.00  0.00     0.034 A 
ATOM     40  C   UNL A   1      45.395  27.697  26.608  1.00  0.00     0.034 A 
ATOM     41  C   UNL A   1      40.770  30.906  29.929  1.00  0.00     0.049 A 
ATOM     42  C   UNL A   1      45.359  29.030  27.296  1.00  0.00     0.074 A 
ATOM     43  C   UNL A   1      40.875  32.136  30.554  1.00  0.00     0.029 A 
ATOM     44  N   UNL A   1      42.008  30.640  29.363  1.00  0.00    -0.354 N 
ATOM     45  N   UNL A   1      44.390  29.568  27.997  1.00  0.00    -0.248 NA
ATOM     46  C   UNL A   1      46.571  29.855  27.206  1.00  0.00     0.031 C 
ATOM     47  C   UNL A   1      42.174  32.619  30.357  1.00  0.00     0.029 A 
ATOM     48  C   UNL A   1      42.881  31.685  29.615  1.00  0.00     0.049 A 
ATOM     49  H   UNL A   1      42.233  29.828  28.854  1.00  0.00     0.167 HD
ATOM     50  C   UNL A   1      44.877  30.792  28.440  1.00  0.00     0.074 A 
ATOM     51  C   UNL A   1      46.240  30.897  27.958  1.00  0.00     0.031 C 
ATOM     52  C   UNL A   1      44.244  31.753  29.157  1.00  0.00     0.034 A 
BRANCH  39  53
ATOM     53  C   UNL A   1      38.345  30.486  30.502  1.00  0.00     0.023 A 
ATOM     54  C   UNL A   1      38.117  30.184  31.860  1.00  0.00     0.012 A 
ATOM     55  C   UNL A   1      37.403  31.260  29.798  1.00  0.00     0.148 A 
ATOM     56  C   UNL A   1      36.962  30.631  32.502  1.00  0.00     0.002 A 
ATOM     57  C   UNL A   1      36.269  31.728  30.454  1.00  0.00     0.091 A 
ATOM     58  F   UNL A   1      37.623  31.514  28.500  1.00  0.00    -0.205 F 
ATOM     59  C   UNL A   1      36.044  31.410  31.803  1.00  0.00     0.022 A 
BRANCH  57  60
ATOM     60  S   UNL A   1      35.062  32.791  29.651  1.00  0.00     0.127 S 
ATOM     61  O   UNL A   1      34.151  33.089  30.755  1.00  0.00    -0.237 OA
ATOM     62  O   UNL A   1      35.882  33.922  29.215  1.00  0.00    -0.237 OA
ATOM     63  O   UNL A   1      34.499  32.001  28.565  1.00  0.00    -0.744 OA
ENDBRANCH  57  60
ENDBRANCH  39  53
BRANCH  40  64
ATOM     64  C   UNL A   1      46.611  27.212  25.901  1.00  0.00     0.023 A 
ATOM     65  C   UNL A   1      46.748  27.454  24.522  1.00  0.00     0.012 A 
ATOM     66  C   UNL A   1      47.667  26.592  26.598  1.00  0.00     0.148 A 
ATOM     67  C   UNL A   1      47.909  27.077  23.846  1.00  0.00     0.002 A 
ATOM     68  C   UNL A   1      48.844  26.272  25.931  1.00  0.00     0.091 A 
ATOM     69  F   UNL A   1      47.511  26.347  27.907  1.00  0.00    -0.205 F 
ATOM     70  C   UNL A   1      48.962  26.502  24.552  1.00  0.00     0.022 A 
BRANCH  68  71
ATOM     71  S   UNL A   1      50.294  25.676  26.810  1.00  0.00     0.127 S 
ATOM     72  O   UNL A   1      49.790  24.453  27.428  1.00  0.00    -0.237 OA
ATOM     73  O   UNL A   1      51.254  25.469  25.725  1.00  0.00    -0.237 OA
ATOM     74  O   UNL A   1      50.654  26.755  27.722  1.00  0.00    -0.744 OA
ENDBRANCH  68  71
ENDBRANCH  40  64
BRANCH  52  75
ATOM     75  C   UNL A   1      45.023  33.006  29.451  1.00  0.00     0.023 A 
ATOM     76  C   UNL A   1      45.808  33.069  30.620  1.00  0.00     0.012 A 
ATOM     77  C   UNL A   1      45.014  34.097  28.563  1.00  0.00     0.148 A 
ATOM     78  C   UNL A   1      46.549  34.210  30.914  1.00  0.00     0.002 A 
ATOM     79  C   UNL A   1      45.787  35.218  28.845  1.00  0.00     0.091 A 
ATOM     80  F   UNL A   1      44.239  34.031  27.470  1.00  0.00    -0.205 F 
ATOM     81  C   UNL A   1      46.547  35.281  30.023  1.00  0.00     0.022 A 
BRANCH  79  82
ATOM     82  S   UNL A   1      45.894  36.603  27.705  1.00  0.00     0.127 S 
ATOM     83  O   UNL A   1      46.859  37.471  28.376  1.00  0.00    -0.237 OA
ATOM     84  O   UNL A   1      46.390  35.971  26.482  1.00  0.00    -0.237 OA
ATOM     85  O   UNL A   1      44.537  37.125  27.598  1.00  0.00    -0.744 OA
ENDBRANCH  79  82
ENDBRANCH  52  75
ENDBRANCH  26  27
ENDBRANCH  19  21
ENDBRANCH  18  19
ENDBRANCH   1  18
TORSDOF 15
ENDMDL
