MODEL 1
REMARK VINA RESULT:     -11.9      0.000      0.000
REMARK SMILES CS(=O)(=O)c1ccc(N2N=C(C(=O)OCCOC(=O)c3ccc(-c4c5nc(c(-c6cccc(S(=O)(=O)[O-])c6F)c6ccc([nH]6)c(-c6cccc(S(=O)(=O)[O-])c6F)c6nc(c(-c7cccc(S(=O)(=O)[O-])c7F)c7ccc4[nH]7)C=C6)C=C5)cc3)C[C@H]2c2cccs2)cc1
REMARK SMILES IDX 16 1 15 2 14 3 12 4 13 5 11 6 9 7 10 8 84 9 83 10 8 11 5 12
REMARK SMILES IDX 6 13 91 14 7 15 90 16 2 17 1 18 3 19 4 20 85 21 86 22 89 23
REMARK SMILES IDX 87 24 88 25 17 26 18 27 19 28 20 29 21 30 82 31 22 32 81 33
REMARK SMILES IDX 23 34 24 35 25 36 75 37 26 38 80 39 74 40 76 41 27 42 79 43
REMARK SMILES IDX 73 44 72 45 28 47 60 48 40 49 59 50 41 51 44 52 58 53 77 54
REMARK SMILES IDX 42 55 43 56 57 58 78 59 45 60 29 61 30 62 38 63 31 64 33 65
REMARK SMILES IDX 39 66 32 67 34 68 35 69 36 70 37 71 61 72 62 73 70 74 63 75
REMARK SMILES IDX 65 76 71 77 64 78 66 79 67 80 68 81 69 82 46 83 47 84 55 85
REMARK SMILES IDX 48 86 50 87 56 88 49 89 51 90 52 91 53 92 54 93
REMARK H PARENT 76 46 44 57
REMARK Flexibility Score: inf
ROOT
ATOM      1  C   UNL A   1      32.376  29.650  24.870  1.00  0.00     0.275 C 
ENDROOT
BRANCH   1   2
ATOM      2  C   UNL A   1      33.273  28.677  24.104  1.00  0.00     0.275 C 
BRANCH   2   3
ATOM      3  O   UNL A   1      32.521  27.513  23.709  1.00  0.00    -0.458 OA
BRANCH   3   4
ATOM      4  C   UNL A   1      33.235  26.557  23.076  1.00  0.00     0.354 C 
ATOM      5  O   UNL A   1      33.767  26.617  21.996  1.00  0.00    -0.245 OA
BRANCH   4   6
ATOM      6  C   UNL A   1      33.333  25.328  23.947  1.00  0.00     0.148 C 
ATOM      7  N   UNL A   1      33.283  23.302  24.535  1.00  0.00    -0.256 N 
ATOM      8  N   UNL A   1      33.295  24.125  23.462  1.00  0.00    -0.169 NA
ATOM      9  C   UNL A   1      33.051  24.011  25.796  1.00  0.00     0.154 C 
ATOM     10  C   UNL A   1      33.511  25.432  25.425  1.00  0.00     0.099 C 
BRANCH   7  11
ATOM     11  C   UNL A   1      33.434  21.935  24.387  1.00  0.00     0.060 A 
ATOM     12  C   UNL A   1      33.717  19.137  24.240  1.00  0.00     0.067 A 
ATOM     13  C   UNL A   1      34.786  19.916  24.682  1.00  0.00     0.022 A 
ATOM     14  C   UNL A   1      32.532  19.744  23.820  1.00  0.00     0.022 A 
ATOM     15  C   UNL A   1      34.643  21.310  24.736  1.00  0.00     0.029 A 
ATOM     16  C   UNL A   1      32.398  21.132  23.900  1.00  0.00     0.029 A 
BRANCH  12  17
ATOM     17  S   UNL A   1      33.807  17.361  24.243  1.00  0.00     0.175 S 
ATOM     18  C   UNL A   1      32.545  16.787  25.345  1.00  0.00     0.163 C 
ATOM     19  O   UNL A   1      35.090  17.002  24.822  1.00  0.00    -0.224 OA
ATOM     20  O   UNL A   1      33.465  16.943  22.897  1.00  0.00    -0.224 OA
ENDBRANCH  12  17
ENDBRANCH   7  11
BRANCH   9  21
ATOM     21  C   UNL A   1      31.624  23.945  26.314  1.00  0.00     0.030 A 
ATOM     22  C   UNL A   1      31.008  22.860  26.915  1.00  0.00     0.017 A 
ATOM     23  S   UNL A   1      30.515  25.246  26.126  1.00  0.00    -0.147 S 
ATOM     24  C   UNL A   1      29.633  23.095  27.200  1.00  0.00     0.012 A 
ATOM     25  C   UNL A   1      29.241  24.361  26.836  1.00  0.00     0.065 A 
ENDBRANCH   9  21
ENDBRANCH   4   6
ENDBRANCH   3   4
ENDBRANCH   2   3
ENDBRANCH   1   2
BRANCH   1  26
ATOM     26  O   UNL A   1      32.677  29.625  26.276  1.00  0.00    -0.458 OA
BRANCH  26  27
ATOM     27  C   UNL A   1      33.067  30.810  26.804  1.00  0.00     0.338 C 
ATOM     28  O   UNL A   1      32.437  31.854  26.826  1.00  0.00    -0.246 OA
BRANCH  27  29
ATOM     29  C   UNL A   1      34.360  30.631  27.478  1.00  0.00     0.060 A 
ATOM     30  C   UNL A   1      34.732  29.340  27.840  1.00  0.00     0.016 A 
ATOM     31  C   UNL A   1      35.161  31.717  27.819  1.00  0.00     0.016 A 
ATOM     32  C   UNL A   1      35.880  29.117  28.589  1.00  0.00     0.010 A 
ATOM     33  C   UNL A   1      36.349  31.490  28.525  1.00  0.00     0.010 A 
ATOM     34  C   UNL A   1      36.709  30.191  28.926  1.00  0.00    -0.014 A 
BRANCH  34  35
ATOM     35  C   UNL A   1      37.960  29.943  29.682  1.00  0.00     0.031 A 
ATOM     36  C   UNL A   1      39.020  29.043  29.120  1.00  0.00     0.074 A 
ATOM     37  C   UNL A   1      38.133  30.527  30.884  1.00  0.00     0.049 A 
ATOM     38  N   UNL A   1      40.127  28.626  29.676  1.00  0.00    -0.248 NA
ATOM     39  C   UNL A   1      38.809  28.541  27.751  1.00  0.00     0.031 C 
ATOM     40  C   UNL A   1      37.181  31.440  31.522  1.00  0.00     0.029 A 
ATOM     41  N   UNL A   1      39.157  30.428  31.791  1.00  0.00    -0.354 N 
ATOM     42  C   UNL A   1      40.719  27.774  28.754  1.00  0.00     0.074 A 
ATOM     43  C   UNL A   1      39.855  27.741  27.593  1.00  0.00     0.031 C 
ATOM     44  C   UNL A   1      37.663  31.813  32.717  1.00  0.00     0.029 A 
ATOM     45  C   UNL A   1      38.928  31.126  32.954  1.00  0.00     0.049 A 
ATOM     46  H   UNL A   1      39.976  29.907  31.627  1.00  0.00     0.167 HD
ATOM     47  C   UNL A   1      41.882  27.091  28.865  1.00  0.00     0.034 A 
ATOM     48  C   UNL A   1      39.638  31.181  34.097  1.00  0.00     0.034 A 
ATOM     49  C   UNL A   1      42.758  27.165  30.003  1.00  0.00     0.049 A 
ATOM     50  C   UNL A   1      40.913  30.393  34.200  1.00  0.00     0.074 A 
ATOM     51  C   UNL A   1      43.985  26.550  30.184  1.00  0.00     0.029 A 
ATOM     52  N   UNL A   1      42.502  27.894  31.153  1.00  0.00    -0.354 N 
ATOM     53  N   UNL A   1      41.501  29.657  33.287  1.00  0.00    -0.248 NA
ATOM     54  C   UNL A   1      41.628  30.447  35.482  1.00  0.00     0.031 C 
ATOM     55  C   UNL A   1      44.466  26.902  31.451  1.00  0.00     0.029 A 
ATOM     56  C   UNL A   1      43.540  27.738  32.055  1.00  0.00     0.049 A 
ATOM     57  H   UNL A   1      41.699  28.443  31.306  1.00  0.00     0.167 HD
ATOM     58  C   UNL A   1      42.659  29.169  33.880  1.00  0.00     0.074 A 
ATOM     59  C   UNL A   1      42.705  29.717  35.221  1.00  0.00     0.031 C 
ATOM     60  C   UNL A   1      43.588  28.323  33.370  1.00  0.00     0.034 A 
BRANCH  47  61
ATOM     61  C   UNL A   1      42.295  26.225  27.706  1.00  0.00     0.023 A 
ATOM     62  C   UNL A   1      43.144  26.755  26.715  1.00  0.00     0.012 A 
ATOM     63  C   UNL A   1      41.892  24.879  27.627  1.00  0.00     0.148 A 
ATOM     64  C   UNL A   1      43.571  25.963  25.651  1.00  0.00     0.002 A 
ATOM     65  C   UNL A   1      42.345  24.086  26.579  1.00  0.00     0.091 A 
ATOM     66  F   UNL A   1      41.059  24.403  28.564  1.00  0.00    -0.205 F 
ATOM     67  C   UNL A   1      43.180  24.628  25.588  1.00  0.00     0.022 A 
BRANCH  65  68
ATOM     68  S   UNL A   1      41.938  22.340  26.450  1.00  0.00     0.127 S 
ATOM     69  O   UNL A   1      40.483  22.387  26.317  1.00  0.00    -0.237 OA
ATOM     70  O   UNL A   1      42.649  21.942  25.235  1.00  0.00    -0.237 OA
ATOM     71  O   UNL A   1      42.442  21.728  27.670  1.00  0.00    -0.744 OA
ENDBRANCH  65  68
ENDBRANCH  47  61
BRANCH  48  72
ATOM     72  C   UNL A   1      39.160  32.031  35.223  1.00  0.00     0.023 A 
ATOM     73  C   UNL A   1      38.254  31.492  36.156  1.00  0.00     0.012 A 
ATOM     74  C   UNL A   1      39.637  33.343  35.408  1.00  0.00     0.148 A 
ATOM     75  C   UNL A   1      37.827  32.248  37.248  1.00  0.00     0.002 A 
ATOM     76  C   UNL A   1      39.249  34.071  36.527  1.00  0.00     0.091 A 
ATOM     77  F   UNL A   1      40.475  33.853  34.494  1.00  0.00    -0.205 F 
ATOM     78  C   UNL A   1      38.334  33.530  37.443  1.00  0.00     0.022 A 
BRANCH  76  79
ATOM     79  S   UNL A   1      39.972  35.671  36.910  1.00  0.00     0.127 S 
ATOM     80  O   UNL A   1      41.385  35.334  37.064  1.00  0.00    -0.237 OA
ATOM     81  O   UNL A   1      39.653  36.453  35.714  1.00  0.00    -0.237 OA
ATOM     82  O   UNL A   1      39.285  36.122  38.113  1.00  0.00    -0.744 OA
ENDBRANCH  76  79
ENDBRANCH  48  72
BRANCH  60  83
ATOM     83  C   UNL A   1      44.729  27.927  34.265  1.00  0.00     0.023 A 
ATOM     84  C   UNL A   1      45.896  28.717  34.277  1.00  0.00     0.012 A 
ATOM     85  C   UNL A   1      44.620  26.834  35.145  1.00  0.00     0.148 A 
ATOM     86  C   UNL A   1      46.947  28.413  35.142  1.00  0.00     0.002 A 
ATOM     87  C   UNL A   1      45.657  26.560  36.031  1.00  0.00     0.091 A 
ATOM     88  F   UNL A   1      43.509  26.085  35.101  1.00  0.00    -0.205 F 
ATOM     89  C   UNL A   1      46.822  27.344  36.026  1.00  0.00     0.022 A 
BRANCH  87  90
ATOM     90  S   UNL A   1      45.546  25.255  37.261  1.00  0.00     0.127 S 
ATOM     91  O   UNL A   1      45.278  24.083  36.429  1.00  0.00    -0.237 OA
ATOM     92  O   UNL A   1      46.878  25.282  37.867  1.00  0.00    -0.237 OA
ATOM     93  O   UNL A   1      44.469  25.648  38.160  1.00  0.00    -0.744 OA
ENDBRANCH  87  90
ENDBRANCH  60  83
ENDBRANCH  34  35
ENDBRANCH  27  29
ENDBRANCH  26  27
ENDBRANCH   1  26
TORSDOF 17
ENDMDL
MODEL 2
REMARK VINA RESULT:     -11.5      1.997      3.143
REMARK SMILES CS(=O)(=O)c1ccc(N2N=C(C(=O)OCCOC(=O)c3ccc(-c4c5nc(c(-c6cccc(S(=O)(=O)[O-])c6F)c6ccc([nH]6)c(-c6cccc(S(=O)(=O)[O-])c6F)c6nc(c(-c7cccc(S(=O)(=O)[O-])c7F)c7ccc4[nH]7)C=C6)C=C5)cc3)C[C@H]2c2cccs2)cc1
REMARK SMILES IDX 16 1 15 2 14 3 12 4 13 5 11 6 9 7 10 8 84 9 83 10 8 11 5 12
REMARK SMILES IDX 6 13 91 14 7 15 90 16 2 17 1 18 3 19 4 20 85 21 86 22 89 23
REMARK SMILES IDX 87 24 88 25 17 26 18 27 19 28 20 29 21 30 82 31 22 32 81 33
REMARK SMILES IDX 23 34 24 35 25 36 75 37 26 38 80 39 74 40 76 41 27 42 79 43
REMARK SMILES IDX 73 44 72 45 28 47 60 48 40 49 59 50 41 51 44 52 58 53 77 54
REMARK SMILES IDX 42 55 43 56 57 58 78 59 45 60 29 61 30 62 38 63 31 64 33 65
REMARK SMILES IDX 39 66 32 67 34 68 35 69 36 70 37 71 61 72 62 73 70 74 63 75
REMARK SMILES IDX 65 76 71 77 64 78 66 79 67 80 68 81 69 82 46 83 47 84 55 85
REMARK SMILES IDX 48 86 50 87 56 88 49 89 51 90 52 91 53 92 54 93
REMARK H PARENT 76 46 44 57
REMARK Flexibility Score: inf
ROOT
ATOM      1  C   UNL A   1      32.674  29.761  25.292  1.00  0.00     0.275 C 
ENDROOT
BRANCH   1   2
ATOM      2  C   UNL A   1      32.759  28.640  24.255  1.00  0.00     0.275 C 
BRANCH   2   3
ATOM      3  O   UNL A   1      33.205  27.420  24.878  1.00  0.00    -0.458 OA
BRANCH   3   4
ATOM      4  C   UNL A   1      33.591  26.448  24.023  1.00  0.00     0.354 C 
ATOM      5  O   UNL A   1      33.551  26.456  22.819  1.00  0.00    -0.245 OA
BRANCH   4   6
ATOM      6  C   UNL A   1      34.151  25.277  24.795  1.00  0.00     0.148 C 
ATOM      7  N   UNL A   1      35.455  23.725  25.379  1.00  0.00    -0.256 N 
ATOM      8  N   UNL A   1      35.359  24.839  24.618  1.00  0.00    -0.169 NA
ATOM      9  C   UNL A   1      34.161  23.270  25.892  1.00  0.00     0.154 C 
ATOM     10  C   UNL A   1      33.346  24.575  25.838  1.00  0.00     0.099 C 
BRANCH   7  11
ATOM     11  C   UNL A   1      36.673  23.100  25.578  1.00  0.00     0.060 A 
ATOM     12  C   UNL A   1      39.109  21.800  26.130  1.00  0.00     0.067 A 
ATOM     13  C   UNL A   1      38.926  23.122  26.534  1.00  0.00     0.022 A 
ATOM     14  C   UNL A   1      38.112  21.141  25.408  1.00  0.00     0.022 A 
ATOM     15  C   UNL A   1      37.717  23.768  26.240  1.00  0.00     0.029 A 
ATOM     16  C   UNL A   1      36.905  21.792  25.141  1.00  0.00     0.029 A 
BRANCH  12  17
ATOM     17  S   UNL A   1      40.582  20.900  26.561  1.00  0.00     0.175 S 
ATOM     18  C   UNL A   1      41.935  21.721  25.766  1.00  0.00     0.163 C 
ATOM     19  O   UNL A   1      40.461  19.580  25.968  1.00  0.00    -0.224 OA
ATOM     20  O   UNL A   1      40.734  21.050  27.996  1.00  0.00    -0.224 OA
ENDBRANCH  12  17
ENDBRANCH   7  11
BRANCH   9  21
ATOM     21  C   UNL A   1      33.533  22.123  25.118  1.00  0.00     0.030 A 
ATOM     22  C   UNL A   1      32.990  22.178  23.846  1.00  0.00     0.017 A 
ATOM     23  S   UNL A   1      33.328  20.557  25.799  1.00  0.00    -0.147 S 
ATOM     24  C   UNL A   1      32.395  20.947  23.447  1.00  0.00     0.012 A 
ATOM     25  C   UNL A   1      32.525  19.976  24.411  1.00  0.00     0.065 A 
ENDBRANCH   9  21
ENDBRANCH   4   6
ENDBRANCH   3   4
ENDBRANCH   2   3
ENDBRANCH   1   2
BRANCH   1  26
ATOM     26  O   UNL A   1      33.773  29.685  26.219  1.00  0.00    -0.458 OA
BRANCH  26  27
ATOM     27  C   UNL A   1      33.921  30.761  27.027  1.00  0.00     0.338 C 
ATOM     28  O   UNL A   1      33.133  31.678  27.190  1.00  0.00    -0.246 OA
BRANCH  27  29
ATOM     29  C   UNL A   1      35.159  30.612  27.803  1.00  0.00     0.060 A 
ATOM     30  C   UNL A   1      35.350  29.423  28.501  1.00  0.00     0.016 A 
ATOM     31  C   UNL A   1      36.083  31.647  27.909  1.00  0.00     0.016 A 
ATOM     32  C   UNL A   1      36.437  29.267  29.351  1.00  0.00     0.010 A 
ATOM     33  C   UNL A   1      37.210  31.471  28.721  1.00  0.00     0.010 A 
ATOM     34  C   UNL A   1      37.387  30.286  29.458  1.00  0.00    -0.014 A 
BRANCH  34  35
ATOM     35  C   UNL A   1      38.573  30.096  30.327  1.00  0.00     0.031 A 
ATOM     36  C   UNL A   1      39.699  29.207  29.889  1.00  0.00     0.074 A 
ATOM     37  C   UNL A   1      38.626  30.721  31.519  1.00  0.00     0.049 A 
ATOM     38  N   UNL A   1      40.763  28.838  30.553  1.00  0.00    -0.248 NA
ATOM     39  C   UNL A   1      39.621  28.657  28.525  1.00  0.00     0.031 C 
ATOM     40  C   UNL A   1      37.600  31.628  32.040  1.00  0.00     0.029 A 
ATOM     41  N   UNL A   1      39.569  30.679  32.515  1.00  0.00    -0.354 N 
ATOM     42  C   UNL A   1      41.454  27.973  29.715  1.00  0.00     0.074 A 
ATOM     43  C   UNL A   1      40.696  27.881  28.485  1.00  0.00     0.031 C 
ATOM     44  C   UNL A   1      37.967  32.051  33.259  1.00  0.00     0.029 A 
ATOM     45  C   UNL A   1      39.222  31.406  33.629  1.00  0.00     0.049 A 
ATOM     46  H   UNL A   1      40.411  30.174  32.439  1.00  0.00     0.167 HD
ATOM     47  C   UNL A   1      42.618  27.325  29.949  1.00  0.00     0.034 A 
ATOM     48  C   UNL A   1      39.828  31.517  34.827  1.00  0.00     0.034 A 
ATOM     49  C   UNL A   1      43.390  27.458  31.156  1.00  0.00     0.049 A 
ATOM     50  C   UNL A   1      41.108  30.767  35.066  1.00  0.00     0.074 A 
ATOM     51  C   UNL A   1      44.610  26.883  31.463  1.00  0.00     0.029 A 
ATOM     52  N   UNL A   1      43.016  28.217  32.254  1.00  0.00    -0.354 N 
ATOM     53  N   UNL A   1      41.791  30.018  34.233  1.00  0.00    -0.248 NA
ATOM     54  C   UNL A   1      41.706  30.880  36.403  1.00  0.00     0.031 C 
ATOM     55  C   UNL A   1      44.970  27.287  32.755  1.00  0.00     0.029 A 
ATOM     56  C   UNL A   1      43.975  28.116  33.248  1.00  0.00     0.049 A 
ATOM     57  H   UNL A   1      42.190  28.748  32.319  1.00  0.00     0.167 HD
ATOM     58  C   UNL A   1      42.903  29.580  34.940  1.00  0.00     0.074 A 
ATOM     59  C   UNL A   1      42.818  30.171  36.261  1.00  0.00     0.031 C 
ATOM     60  C   UNL A   1      43.893  28.743  34.541  1.00  0.00     0.034 A 
BRANCH  47  61
ATOM     61  C   UNL A   1      43.152  26.434  28.861  1.00  0.00     0.023 A 
ATOM     62  C   UNL A   1      42.707  25.100  28.780  1.00  0.00     0.012 A 
ATOM     63  C   UNL A   1      44.043  26.929  27.891  1.00  0.00     0.148 A 
ATOM     64  C   UNL A   1      43.157  24.265  27.759  1.00  0.00     0.002 A 
ATOM     65  C   UNL A   1      44.465  26.098  26.859  1.00  0.00     0.091 A 
ATOM     66  F   UNL A   1      44.478  28.192  28.004  1.00  0.00    -0.205 F 
ATOM     67  C   UNL A   1      44.028  24.766  26.794  1.00  0.00     0.022 A 
BRANCH  65  68
ATOM     68  S   UNL A   1      45.541  26.678  25.541  1.00  0.00     0.127 S 
ATOM     69  O   UNL A   1      45.609  25.499  24.678  1.00  0.00    -0.237 OA
ATOM     70  O   UNL A   1      44.780  27.797  24.984  1.00  0.00    -0.237 OA
ATOM     71  O   UNL A   1      46.787  27.060  26.188  1.00  0.00    -0.744 OA
ENDBRANCH  65  68
ENDBRANCH  47  61
BRANCH  48  72
ATOM     72  C   UNL A   1      39.232  32.388  35.877  1.00  0.00     0.023 A 
ATOM     73  C   UNL A   1      38.198  31.882  36.686  1.00  0.00     0.012 A 
ATOM     74  C   UNL A   1      39.721  33.687  36.119  1.00  0.00     0.148 A 
ATOM     75  C   UNL A   1      37.654  32.659  37.711  1.00  0.00     0.002 A 
ATOM     76  C   UNL A   1      39.212  34.435  37.175  1.00  0.00     0.091 A 
ATOM     77  F   UNL A   1      40.686  34.165  35.320  1.00  0.00    -0.205 F 
ATOM     78  C   UNL A   1      38.170  33.927  37.965  1.00  0.00     0.022 A 
BRANCH  76  79
ATOM     79  S   UNL A   1      39.927  36.016  37.643  1.00  0.00     0.127 S 
ATOM     80  O   UNL A   1      41.293  35.637  37.993  1.00  0.00    -0.237 OA
ATOM     81  O   UNL A   1      39.800  36.793  36.410  1.00  0.00    -0.237 OA
ATOM     82  O   UNL A   1      39.095  36.501  38.737  1.00  0.00    -0.744 OA
ENDBRANCH  76  79
ENDBRANCH  48  72
BRANCH  60  83
ATOM     83  C   UNL A   1      44.961  28.407  35.545  1.00  0.00     0.023 A 
ATOM     84  C   UNL A   1      46.168  29.133  35.530  1.00  0.00     0.012 A 
ATOM     85  C   UNL A   1      44.744  27.440  36.544  1.00  0.00     0.148 A 
ATOM     86  C   UNL A   1      47.152  28.888  36.487  1.00  0.00     0.002 A 
ATOM     87  C   UNL A   1      45.714  27.227  37.517  1.00  0.00     0.091 A 
ATOM     88  F   UNL A   1      43.596  26.746  36.525  1.00  0.00    -0.205 F 
ATOM     89  C   UNL A   1      46.921  27.945  37.486  1.00  0.00     0.022 A 
BRANCH  87  90
ATOM     90  S   UNL A   1      45.465  26.093  38.888  1.00  0.00     0.127 S 
ATOM     91  O   UNL A   1      45.367  24.808  38.198  1.00  0.00    -0.237 OA
ATOM     92  O   UNL A   1      46.687  26.274  39.671  1.00  0.00    -0.237 OA
ATOM     93  O   UNL A   1      44.251  26.542  39.557  1.00  0.00    -0.744 OA
ENDBRANCH  87  90
ENDBRANCH  60  83
ENDBRANCH  34  35
ENDBRANCH  27  29
ENDBRANCH  26  27
ENDBRANCH   1  26
TORSDOF 17
ENDMDL
MODEL 3
REMARK VINA RESULT:     -11.3      2.519      3.725
REMARK SMILES CS(=O)(=O)c1ccc(N2N=C(C(=O)OCCOC(=O)c3ccc(-c4c5nc(c(-c6cccc(S(=O)(=O)[O-])c6F)c6ccc([nH]6)c(-c6cccc(S(=O)(=O)[O-])c6F)c6nc(c(-c7cccc(S(=O)(=O)[O-])c7F)c7ccc4[nH]7)C=C6)C=C5)cc3)C[C@H]2c2cccs2)cc1
REMARK SMILES IDX 16 1 15 2 14 3 12 4 13 5 11 6 9 7 10 8 84 9 83 10 8 11 5 12
REMARK SMILES IDX 6 13 91 14 7 15 90 16 2 17 1 18 3 19 4 20 85 21 86 22 89 23
REMARK SMILES IDX 87 24 88 25 17 26 18 27 19 28 20 29 21 30 82 31 22 32 81 33
REMARK SMILES IDX 23 34 24 35 25 36 75 37 26 38 80 39 74 40 76 41 27 42 79 43
REMARK SMILES IDX 73 44 72 45 28 47 60 48 40 49 59 50 41 51 44 52 58 53 77 54
REMARK SMILES IDX 42 55 43 56 57 58 78 59 45 60 29 61 30 62 38 63 31 64 33 65
REMARK SMILES IDX 39 66 32 67 34 68 35 69 36 70 37 71 61 72 62 73 70 74 63 75
REMARK SMILES IDX 65 76 71 77 64 78 66 79 67 80 68 81 69 82 46 83 47 84 55 85
REMARK SMILES IDX 48 86 50 87 56 88 49 89 51 90 52 91 53 92 54 93
REMARK H PARENT 76 46 44 57
REMARK Flexibility Score: inf
ROOT
ATOM      1  C   UNL A   1      33.101  33.072  27.418  1.00  0.00     0.275 C 
ENDROOT
BRANCH   1   2
ATOM      2  C   UNL A   1      32.807  31.580  27.576  1.00  0.00     0.275 C 
BRANCH   2   3
ATOM      3  O   UNL A   1      33.720  30.806  26.773  1.00  0.00    -0.458 OA
BRANCH   3   4
ATOM      4  C   UNL A   1      34.171  29.671  27.350  1.00  0.00     0.354 C 
ATOM      5  O   UNL A   1      35.119  29.534  28.082  1.00  0.00    -0.245 OA
BRANCH   4   6
ATOM      6  C   UNL A   1      33.273  28.515  26.982  1.00  0.00     0.148 C 
ATOM      7  N   UNL A   1      32.639  26.671  26.177  1.00  0.00    -0.256 N 
ATOM      8  N   UNL A   1      33.731  27.405  26.494  1.00  0.00    -0.169 NA
ATOM      9  C   UNL A   1      31.396  27.443  26.233  1.00  0.00     0.154 C 
ATOM     10  C   UNL A   1      31.796  28.579  27.193  1.00  0.00     0.099 C 
BRANCH   7  11
ATOM     11  C   UNL A   1      32.756  25.344  25.804  1.00  0.00     0.060 A 
ATOM     12  C   UNL A   1      32.841  22.645  25.006  1.00  0.00     0.067 A 
ATOM     13  C   UNL A   1      32.350  22.976  26.269  1.00  0.00     0.022 A 
ATOM     14  C   UNL A   1      33.339  23.640  24.162  1.00  0.00     0.022 A 
ATOM     15  C   UNL A   1      32.327  24.321  26.665  1.00  0.00     0.029 A 
ATOM     16  C   UNL A   1      33.289  24.977  24.564  1.00  0.00     0.029 A 
BRANCH  12  17
ATOM     17  S   UNL A   1      32.804  20.969  24.413  1.00  0.00     0.175 S 
ATOM     18  C   UNL A   1      32.245  21.033  22.734  1.00  0.00     0.163 C 
ATOM     19  O   UNL A   1      31.792  20.267  25.184  1.00  0.00    -0.224 OA
ATOM     20  O   UNL A   1      34.181  20.513  24.420  1.00  0.00    -0.224 OA
ENDBRANCH  12  17
ENDBRANCH   7  11
BRANCH   9  21
ATOM     21  C   UNL A   1      30.884  27.930  24.888  1.00  0.00     0.030 A 
ATOM     22  C   UNL A   1      30.968  29.216  24.382  1.00  0.00     0.017 A 
ATOM     23  S   UNL A   1      30.010  26.910  23.813  1.00  0.00    -0.147 S 
ATOM     24  C   UNL A   1      30.304  29.361  23.131  1.00  0.00     0.012 A 
ATOM     25  C   UNL A   1      29.754  28.178  22.700  1.00  0.00     0.065 A 
ENDBRANCH   9  21
ENDBRANCH   4   6
ENDBRANCH   3   4
ENDBRANCH   2   3
ENDBRANCH   1   2
BRANCH   1  26
ATOM     26  O   UNL A   1      32.537  33.823  28.509  1.00  0.00    -0.458 OA
BRANCH  26  27
ATOM     27  C   UNL A   1      33.336  34.791  29.016  1.00  0.00     0.338 C 
ATOM     28  O   UNL A   1      33.074  35.976  29.139  1.00  0.00    -0.246 OA
BRANCH  27  29
ATOM     29  C   UNL A   1      34.569  34.178  29.528  1.00  0.00     0.060 A 
ATOM     30  C   UNL A   1      34.459  33.293  30.596  1.00  0.00     0.016 A 
ATOM     31  C   UNL A   1      35.818  34.521  29.022  1.00  0.00     0.016 A 
ATOM     32  C   UNL A   1      35.595  32.776  31.207  1.00  0.00     0.010 A 
ATOM     33  C   UNL A   1      36.963  33.957  29.599  1.00  0.00     0.010 A 
ATOM     34  C   UNL A   1      36.859  33.091  30.703  1.00  0.00    -0.014 A 
BRANCH  34  35
ATOM     35  C   UNL A   1      38.067  32.497  31.325  1.00  0.00     0.031 A 
ATOM     36  C   UNL A   1      38.750  31.325  30.686  1.00  0.00     0.074 A 
ATOM     37  C   UNL A   1      38.540  33.014  32.476  1.00  0.00     0.049 A 
ATOM     38  N   UNL A   1      39.748  30.609  31.132  1.00  0.00    -0.248 NA
ATOM     39  C   UNL A   1      38.244  30.896  29.370  1.00  0.00     0.031 C 
ATOM     40  C   UNL A   1      37.972  34.168  33.177  1.00  0.00     0.029 A 
ATOM     41  N   UNL A   1      39.592  32.629  33.267  1.00  0.00    -0.354 N 
ATOM     42  C   UNL A   1      39.958  29.615  30.186  1.00  0.00     0.074 A 
ATOM     43  C   UNL A   1      38.991  29.826  29.130  1.00  0.00     0.031 C 
ATOM     44  C   UNL A   1      38.678  34.394  34.295  1.00  0.00     0.029 A 
ATOM     45  C   UNL A   1      39.712  33.372  34.419  1.00  0.00     0.049 A 
ATOM     46  H   UNL A   1      40.202  31.892  33.034  1.00  0.00     0.167 HD
ATOM     47  C   UNL A   1      40.880  28.626  30.195  1.00  0.00     0.034 A 
ATOM     48  C   UNL A   1      40.537  33.227  35.473  1.00  0.00     0.034 A 
ATOM     49  C   UNL A   1      41.869  28.450  31.225  1.00  0.00     0.049 A 
ATOM     50  C   UNL A   1      41.536  32.104  35.466  1.00  0.00     0.074 A 
ATOM     51  C   UNL A   1      42.880  27.508  31.294  1.00  0.00     0.029 A 
ATOM     52  N   UNL A   1      41.970  29.231  32.366  1.00  0.00    -0.354 N 
ATOM     53  N   UNL A   1      41.776  31.222  34.524  1.00  0.00    -0.248 NA
ATOM     54  C   UNL A   1      42.382  31.957  36.658  1.00  0.00     0.031 C 
ATOM     55  C   UNL A   1      43.588  27.714  32.484  1.00  0.00     0.029 A 
ATOM     56  C   UNL A   1      43.018  28.787  33.153  1.00  0.00     0.049 A 
ATOM     57  H   UNL A   1      41.382  29.990  32.585  1.00  0.00     0.167 HD
ATOM     58  C   UNL A   1      42.806  30.424  35.005  1.00  0.00     0.074 A 
ATOM     59  C   UNL A   1      43.165  30.945  36.309  1.00  0.00     0.031 C 
ATOM     60  C   UNL A   1      43.386  29.342  34.430  1.00  0.00     0.034 A 
BRANCH  47  61
ATOM     61  C   UNL A   1      40.888  27.669  29.034  1.00  0.00     0.023 A 
ATOM     62  C   UNL A   1      39.946  26.622  28.995  1.00  0.00     0.012 A 
ATOM     63  C   UNL A   1      41.783  27.838  27.961  1.00  0.00     0.148 A 
ATOM     64  C   UNL A   1      39.908  25.745  27.913  1.00  0.00     0.002 A 
ATOM     65  C   UNL A   1      41.720  26.976  26.872  1.00  0.00     0.091 A 
ATOM     66  F   UNL A   1      42.691  28.821  28.033  1.00  0.00    -0.205 F 
ATOM     67  C   UNL A   1      40.787  25.927  26.848  1.00  0.00     0.022 A 
BRANCH  65  68
ATOM     68  S   UNL A   1      42.776  27.173  25.431  1.00  0.00     0.127 S 
ATOM     69  O   UNL A   1      42.498  25.942  24.693  1.00  0.00    -0.237 OA
ATOM     70  O   UNL A   1      42.240  28.387  24.814  1.00  0.00    -0.237 OA
ATOM     71  O   UNL A   1      44.129  27.309  25.950  1.00  0.00    -0.744 OA
ENDBRANCH  65  68
ENDBRANCH  47  61
BRANCH  48  72
ATOM     72  C   UNL A   1      40.459  34.186  36.609  1.00  0.00     0.023 A 
ATOM     73  C   UNL A   1      40.945  35.496  36.439  1.00  0.00     0.012 A 
ATOM     74  C   UNL A   1      39.855  33.831  37.831  1.00  0.00     0.148 A 
ATOM     75  C   UNL A   1      40.840  36.431  37.470  1.00  0.00     0.002 A 
ATOM     76  C   UNL A   1      39.704  34.782  38.834  1.00  0.00     0.091 A 
ATOM     77  F   UNL A   1      39.423  32.571  37.988  1.00  0.00    -0.205 F 
ATOM     78  C   UNL A   1      40.207  36.081  38.660  1.00  0.00     0.022 A 
BRANCH  76  79
ATOM     79  S   UNL A   1      38.776  34.436  40.333  1.00  0.00     0.127 S 
ATOM     80  O   UNL A   1      37.692  33.597  39.829  1.00  0.00    -0.237 OA
ATOM     81  O   UNL A   1      39.763  33.736  41.157  1.00  0.00    -0.237 OA
ATOM     82  O   UNL A   1      38.389  35.741  40.852  1.00  0.00    -0.744 OA
ENDBRANCH  76  79
ENDBRANCH  48  72
BRANCH  60  83
ATOM     83  C   UNL A   1      44.463  28.639  35.208  1.00  0.00     0.023 A 
ATOM     84  C   UNL A   1      45.805  29.029  35.027  1.00  0.00     0.012 A 
ATOM     85  C   UNL A   1      44.148  27.659  36.168  1.00  0.00     0.148 A 
ATOM     86  C   UNL A   1      46.820  28.440  35.780  1.00  0.00     0.002 A 
ATOM     87  C   UNL A   1      45.161  27.103  36.942  1.00  0.00     0.091 A 
ATOM     88  F   UNL A   1      42.866  27.289  36.308  1.00  0.00    -0.205 F 
ATOM     89  C   UNL A   1      46.497  27.488  36.744  1.00  0.00     0.022 A 
BRANCH  87  90
ATOM     90  S   UNL A   1      44.826  25.932  38.262  1.00  0.00     0.127 S 
ATOM     91  O   UNL A   1      44.365  24.764  37.515  1.00  0.00    -0.237 OA
ATOM     92  O   UNL A   1      46.141  25.779  38.886  1.00  0.00    -0.237 OA
ATOM     93  O   UNL A   1      43.829  26.569  39.113  1.00  0.00    -0.744 OA
ENDBRANCH  87  90
ENDBRANCH  60  83
ENDBRANCH  34  35
ENDBRANCH  27  29
ENDBRANCH  26  27
ENDBRANCH   1  26
TORSDOF 17
ENDMDL
