MODEL 1
REMARK VINA RESULT:     -12.5      0.000      0.000
REMARK SMILES Cc1cc(Cl)c2c(c1)C=C(C(=O)OCCOC(=O)c1ccc(-c3c4nc(c(-c5cccc(S(=O)(=O)[O-])c5F)c5ccc([nH]5)c(-c5cccc(S(=O)(=O)[O-])c5F)c5nc(c(-c6cccc(S(=O)(=O)[O-])c6F)c6ccc3[nH]6)C=C5)C=C4)cc1)[C@@H](C(F)(F)F)O2
REMARK SMILES IDX 15 1 14 2 13 3 11 4 12 5 10 6 1 7 2 8 3 9 8 10 4 11 7 12
REMARK SMILES IDX 5 13 6 14 9 15 87 16 82 17 83 18 84 19 85 20 86 21 16 22
REMARK SMILES IDX 17 23 18 24 19 25 20 26 81 27 21 28 80 29 22 30 23 31 24 32
REMARK SMILES IDX 74 33 25 34 79 35 73 36 75 37 26 38 78 39 72 40 71 41 27 43
REMARK SMILES IDX 59 44 39 45 58 46 40 47 43 48 57 49 76 50 41 51 42 52 56 54
REMARK SMILES IDX 77 55 44 56 28 57 29 58 37 59 30 60 32 61 38 62 31 63 33 64
REMARK SMILES IDX 34 65 35 66 36 67 60 68 61 69 69 70 62 71 64 72 70 73 63 74
REMARK SMILES IDX 65 75 66 76 67 77 68 78 45 79 46 80 54 81 47 82 49 83 55 84
REMARK SMILES IDX 48 85 50 86 51 87 52 88 53 89
REMARK H PARENT 75 42 43 53
REMARK Flexibility Score: inf
ROOT
ATOM      1  C   UNL A   1      31.721  30.404  25.594  1.00  0.00     0.275 C 
ENDROOT
BRANCH   1   2
ATOM      2  C   UNL A   1      31.581  28.995  25.015  1.00  0.00     0.275 C 
BRANCH   2   3
ATOM      3  O   UNL A   1      32.450  28.053  25.685  1.00  0.00    -0.459 OA
BRANCH   3   4
ATOM      4  C   UNL A   1      31.820  27.097  26.404  1.00  0.00     0.338 C 
ATOM      5  O   UNL A   1      30.995  27.276  27.288  1.00  0.00    -0.246 OA
BRANCH   4   6
ATOM      6  C   UNL A   1      32.258  25.752  25.991  1.00  0.00     0.087 C 
ATOM      7  C   UNL A   1      37.404  22.616  24.686  1.00  0.00     0.044 C 
ATOM      8  C   UNL A   1      35.923  22.845  24.797  1.00  0.00    -0.049 A 
ATOM      9  C   UNL A   1      35.015  21.927  24.259  1.00  0.00     0.028 A 
ATOM     10  C   UNL A   1      35.428  24.006  25.395  1.00  0.00     0.015 A 
ATOM     11  C   UNL A   1      33.635  22.162  24.337  1.00  0.00     0.084 A 
ATOM     12  C   UNL A   1      34.048  24.247  25.455  1.00  0.00     0.019 A 
ATOM     13  Cl  UNL A   1      32.567  20.988  23.650  1.00  0.00    -0.080 Cl
ATOM     14  C   UNL A   1      33.140  23.327  24.933  1.00  0.00     0.146 A 
ATOM     15  C   UNL A   1      33.568  25.489  26.023  1.00  0.00     0.027 C 
ATOM     16  O   UNL A   1      31.782  23.515  24.993  1.00  0.00    -0.474 OA
ATOM     17  C   UNL A   1      31.254  24.808  25.404  1.00  0.00     0.316 C 
BRANCH  17  18
ATOM     18  C   UNL A   1      30.516  25.446  24.215  1.00  0.00     0.430 C 
ATOM     19  F   UNL A   1      31.363  26.154  23.431  1.00  0.00    -0.167 F 
ATOM     20  F   UNL A   1      29.953  24.506  23.415  1.00  0.00    -0.167 F 
ATOM     21  F   UNL A   1      29.531  26.283  24.611  1.00  0.00    -0.167 F 
ENDBRANCH  17  18
ENDBRANCH   4   6
ENDBRANCH   3   4
ENDBRANCH   2   3
ENDBRANCH   1   2
BRANCH   1  22
ATOM     22  O   UNL A   1      32.314  30.359  26.905  1.00  0.00    -0.458 OA
BRANCH  22  23
ATOM     23  C   UNL A   1      32.998  31.472  27.250  1.00  0.00     0.338 C 
ATOM     24  O   UNL A   1      32.546  32.592  27.418  1.00  0.00    -0.246 OA
BRANCH  23  25
ATOM     25  C   UNL A   1      34.408  31.156  27.518  1.00  0.00     0.060 A 
ATOM     26  C   UNL A   1      34.737  29.840  27.814  1.00  0.00     0.016 A 
ATOM     27  C   UNL A   1      35.328  32.174  27.742  1.00  0.00     0.016 A 
ATOM     28  C   UNL A   1      35.893  29.562  28.534  1.00  0.00     0.010 A 
ATOM     29  C   UNL A   1      36.569  31.861  28.310  1.00  0.00     0.010 A 
ATOM     30  C   UNL A   1      36.839  30.564  28.784  1.00  0.00    -0.014 A 
BRANCH  30  31
ATOM     31  C   UNL A   1      38.080  30.272  29.562  1.00  0.00     0.031 A 
ATOM     32  C   UNL A   1      39.148  29.376  28.978  1.00  0.00     0.074 A 
ATOM     33  C   UNL A   1      38.261  30.796  30.793  1.00  0.00     0.049 A 
ATOM     34  N   UNL A   1      40.168  28.809  29.570  1.00  0.00    -0.248 NA
ATOM     35  C   UNL A   1      39.049  29.063  27.541  1.00  0.00     0.031 C 
ATOM     36  C   UNL A   1      37.345  31.719  31.467  1.00  0.00     0.029 A 
ATOM     37  N   UNL A   1      39.273  30.619  31.705  1.00  0.00    -0.354 N 
ATOM     38  C   UNL A   1      40.776  28.008  28.607  1.00  0.00     0.074 A 
ATOM     39  C   UNL A   1      40.016  28.168  27.387  1.00  0.00     0.031 C 
ATOM     40  C   UNL A   1      37.847  32.051  32.664  1.00  0.00     0.029 A 
ATOM     41  C   UNL A   1      39.055  31.272  32.898  1.00  0.00     0.049 A 
ATOM     42  H   UNL A   1      40.076  30.078  31.524  1.00  0.00     0.167 HD
ATOM     43  C   UNL A   1      41.870  27.218  28.729  1.00  0.00     0.034 A 
ATOM     44  C   UNL A   1      39.705  31.207  34.075  1.00  0.00     0.034 A 
ATOM     45  C   UNL A   1      42.662  27.125  29.928  1.00  0.00     0.049 A 
ATOM     46  C   UNL A   1      40.890  30.295  34.198  1.00  0.00     0.074 A 
ATOM     47  C   UNL A   1      43.805  26.376  30.146  1.00  0.00     0.029 A 
ATOM     48  N   UNL A   1      42.404  27.809  31.106  1.00  0.00    -0.354 N 
ATOM     49  N   UNL A   1      41.456  29.550  33.279  1.00  0.00    -0.248 NA
ATOM     50  C   UNL A   1      41.533  30.219  35.516  1.00  0.00     0.031 C 
ATOM     51  C   UNL A   1      44.221  26.586  31.464  1.00  0.00     0.029 A 
ATOM     52  C   UNL A   1      43.360  27.494  32.058  1.00  0.00     0.049 A 
ATOM     53  H   UNL A   1      41.651  28.429  31.247  1.00  0.00     0.167 HD
ATOM     54  C   UNL A   1      42.530  28.927  33.904  1.00  0.00     0.074 A 
ATOM     55  C   UNL A   1      42.558  29.414  35.268  1.00  0.00     0.031 C 
ATOM     56  C   UNL A   1      43.398  28.016  33.400  1.00  0.00     0.034 A 
BRANCH  43  57
ATOM     57  C   UNL A   1      42.301  26.401  27.535  1.00  0.00     0.023 A 
ATOM     58  C   UNL A   1      43.145  26.968  26.559  1.00  0.00     0.012 A 
ATOM     59  C   UNL A   1      41.939  25.041  27.426  1.00  0.00     0.148 A 
ATOM     60  C   UNL A   1      43.601  26.207  25.483  1.00  0.00     0.002 A 
ATOM     61  C   UNL A   1      42.439  24.275  26.378  1.00  0.00     0.091 A 
ATOM     62  F   UNL A   1      41.122  24.522  28.351  1.00  0.00    -0.205 F 
ATOM     63  C   UNL A   1      43.259  24.859  25.399  1.00  0.00     0.022 A 
BRANCH  61  64
ATOM     64  S   UNL A   1      42.133  22.510  26.228  1.00  0.00     0.127 S 
ATOM     65  O   UNL A   1      40.673  22.468  26.164  1.00  0.00    -0.237 OA
ATOM     66  O   UNL A   1      42.807  22.190  24.970  1.00  0.00    -0.237 OA
ATOM     67  O   UNL A   1      42.720  21.897  27.411  1.00  0.00    -0.744 OA
ENDBRANCH  61  64
ENDBRANCH  43  57
BRANCH  44  68
ATOM     68  C   UNL A   1      39.236  32.033  35.226  1.00  0.00     0.023 A 
ATOM     69  C   UNL A   1      38.361  31.464  36.170  1.00  0.00     0.012 A 
ATOM     70  C   UNL A   1      39.701  33.350  35.429  1.00  0.00     0.148 A 
ATOM     71  C   UNL A   1      37.945  32.193  37.285  1.00  0.00     0.002 A 
ATOM     72  C   UNL A   1      39.339  34.044  36.577  1.00  0.00     0.091 A 
ATOM     73  F   UNL A   1      40.520  33.883  34.511  1.00  0.00    -0.205 F 
ATOM     74  C   UNL A   1      38.447  33.474  37.498  1.00  0.00     0.022 A 
BRANCH  72  75
ATOM     75  S   UNL A   1      40.056  35.633  37.013  1.00  0.00     0.127 S 
ATOM     76  O   UNL A   1      39.653  36.463  35.880  1.00  0.00    -0.237 OA
ATOM     77  O   UNL A   1      39.374  35.934  38.271  1.00  0.00    -0.237 OA
ATOM     78  O   UNL A   1      41.487  35.399  37.145  1.00  0.00    -0.744 OA
ENDBRANCH  72  75
ENDBRANCH  44  68
BRANCH  56  79
ATOM     79  C   UNL A   1      44.467  27.491  34.324  1.00  0.00     0.023 A 
ATOM     80  C   UNL A   1      45.702  28.163  34.414  1.00  0.00     0.012 A 
ATOM     81  C   UNL A   1      44.221  26.381  35.157  1.00  0.00     0.148 A 
ATOM     82  C   UNL A   1      46.688  27.719  35.293  1.00  0.00     0.002 A 
ATOM     83  C   UNL A   1      45.187  25.979  36.071  1.00  0.00     0.091 A 
ATOM     84  F   UNL A   1      43.046  25.745  35.044  1.00  0.00    -0.205 F 
ATOM     85  C   UNL A   1      46.426  26.637  36.130  1.00  0.00     0.022 A 
BRANCH  83  86
ATOM     86  S   UNL A   1      44.902  24.667  37.263  1.00  0.00     0.127 S 
ATOM     87  O   UNL A   1      46.187  24.611  37.959  1.00  0.00    -0.237 OA
ATOM     88  O   UNL A   1      43.800  25.206  38.058  1.00  0.00    -0.237 OA
ATOM     89  O   UNL A   1      44.564  23.482  36.484  1.00  0.00    -0.744 OA
ENDBRANCH  83  86
ENDBRANCH  56  79
ENDBRANCH  30  31
ENDBRANCH  23  25
ENDBRANCH  22  23
ENDBRANCH   1  22
TORSDOF 15
ENDMDL
MODEL 2
REMARK VINA RESULT:     -12.4      4.845      9.949
REMARK SMILES Cc1cc(Cl)c2c(c1)C=C(C(=O)OCCOC(=O)c1ccc(-c3c4nc(c(-c5cccc(S(=O)(=O)[O-])c5F)c5ccc([nH]5)c(-c5cccc(S(=O)(=O)[O-])c5F)c5nc(c(-c6cccc(S(=O)(=O)[O-])c6F)c6ccc3[nH]6)C=C5)C=C4)cc1)[C@@H](C(F)(F)F)O2
REMARK SMILES IDX 15 1 14 2 13 3 11 4 12 5 10 6 1 7 2 8 3 9 8 10 4 11 7 12
REMARK SMILES IDX 5 13 6 14 9 15 87 16 82 17 83 18 84 19 85 20 86 21 16 22
REMARK SMILES IDX 17 23 18 24 19 25 20 26 81 27 21 28 80 29 22 30 23 31 24 32
REMARK SMILES IDX 74 33 25 34 79 35 73 36 75 37 26 38 78 39 72 40 71 41 27 43
REMARK SMILES IDX 59 44 39 45 58 46 40 47 43 48 57 49 76 50 41 51 42 52 56 54
REMARK SMILES IDX 77 55 44 56 28 57 29 58 37 59 30 60 32 61 38 62 31 63 33 64
REMARK SMILES IDX 34 65 35 66 36 67 60 68 61 69 69 70 62 71 64 72 70 73 63 74
REMARK SMILES IDX 65 75 66 76 67 77 68 78 45 79 46 80 54 81 47 82 49 83 55 84
REMARK SMILES IDX 48 85 50 86 51 87 52 88 53 89
REMARK H PARENT 75 42 43 53
REMARK Flexibility Score: inf
ROOT
ATOM      1  C   UNL A   1      36.484  20.697  24.947  1.00  0.00     0.275 C 
ENDROOT
BRANCH   1   2
ATOM      2  C   UNL A   1      35.167  21.454  25.130  1.00  0.00     0.275 C 
BRANCH   2   3
ATOM      3  O   UNL A   1      35.346  22.881  24.974  1.00  0.00    -0.459 OA
BRANCH   3   4
ATOM      4  C   UNL A   1      35.066  23.368  23.744  1.00  0.00     0.338 C 
ATOM      5  O   UNL A   1      35.531  22.976  22.684  1.00  0.00    -0.246 OA
BRANCH   4   6
ATOM      6  C   UNL A   1      34.097  24.475  23.823  1.00  0.00     0.087 C 
ATOM      7  C   UNL A   1      32.696  29.328  27.359  1.00  0.00     0.044 C 
ATOM      8  C   UNL A   1      32.510  28.339  26.244  1.00  0.00    -0.049 A 
ATOM      9  C   UNL A   1      31.322  28.308  25.506  1.00  0.00     0.028 A 
ATOM     10  C   UNL A   1      33.501  27.398  25.957  1.00  0.00     0.015 A 
ATOM     11  C   UNL A   1      31.140  27.363  24.486  1.00  0.00     0.084 A 
ATOM     12  C   UNL A   1      33.309  26.441  24.949  1.00  0.00     0.019 A 
ATOM     13  Cl  UNL A   1      29.647  27.378  23.615  1.00  0.00    -0.080 Cl
ATOM     14  C   UNL A   1      32.133  26.418  24.202  1.00  0.00     0.146 A 
ATOM     15  C   UNL A   1      34.328  25.439  24.719  1.00  0.00     0.027 C 
ATOM     16  O   UNL A   1      31.917  25.513  23.194  1.00  0.00    -0.474 OA
ATOM     17  C   UNL A   1      32.830  24.391  23.028  1.00  0.00     0.316 C 
BRANCH  17  18
ATOM     18  C   UNL A   1      32.073  23.085  23.320  1.00  0.00     0.430 C 
ATOM     19  F   UNL A   1      32.563  22.056  22.589  1.00  0.00    -0.167 F 
ATOM     20  F   UNL A   1      32.194  22.718  24.621  1.00  0.00    -0.167 F 
ATOM     21  F   UNL A   1      30.752  23.185  23.049  1.00  0.00    -0.167 F 
ENDBRANCH  17  18
ENDBRANCH   4   6
ENDBRANCH   3   4
ENDBRANCH   2   3
ENDBRANCH   1   2
BRANCH   1  22
ATOM     22  O   UNL A   1      37.593  21.611  24.887  1.00  0.00    -0.458 OA
BRANCH  22  23
ATOM     23  C   UNL A   1      38.657  21.253  25.640  1.00  0.00     0.338 C 
ATOM     24  O   UNL A   1      39.260  20.193  25.607  1.00  0.00    -0.246 OA
BRANCH  23  25
ATOM     25  C   UNL A   1      39.104  22.373  26.478  1.00  0.00     0.060 A 
ATOM     26  C   UNL A   1      38.616  23.640  26.189  1.00  0.00     0.016 A 
ATOM     27  C   UNL A   1      40.182  22.221  27.343  1.00  0.00     0.016 A 
ATOM     28  C   UNL A   1      39.333  24.765  26.584  1.00  0.00     0.010 A 
ATOM     29  C   UNL A   1      40.794  23.359  27.880  1.00  0.00     0.010 A 
ATOM     30  C   UNL A   1      40.428  24.647  27.448  1.00  0.00    -0.014 A 
BRANCH  30  31
ATOM     31  C   UNL A   1      41.205  25.851  27.871  1.00  0.00     0.031 A 
ATOM     32  C   UNL A   1      40.546  26.925  28.707  1.00  0.00     0.074 A 
ATOM     33  C   UNL A   1      42.498  25.998  27.509  1.00  0.00     0.049 A 
ATOM     34  N   UNL A   1      40.959  28.138  28.969  1.00  0.00    -0.248 NA
ATOM     35  C   UNL A   1      39.245  26.596  29.315  1.00  0.00     0.031 C 
ATOM     36  C   UNL A   1      43.284  25.023  26.750  1.00  0.00     0.029 A 
ATOM     37  N   UNL A   1      43.378  27.031  27.722  1.00  0.00    -0.354 N 
ATOM     38  C   UNL A   1      39.935  28.744  29.692  1.00  0.00     0.074 A 
ATOM     39  C   UNL A   1      38.884  27.761  29.837  1.00  0.00     0.031 C 
ATOM     40  C   UNL A   1      44.531  25.486  26.588  1.00  0.00     0.029 A 
ATOM     41  C   UNL A   1      44.602  26.839  27.120  1.00  0.00     0.049 A 
ATOM     42  H   UNL A   1      43.156  27.830  28.253  1.00  0.00     0.167 HD
ATOM     43  C   UNL A   1      39.882  30.001  30.196  1.00  0.00     0.034 A 
ATOM     44  C   UNL A   1      45.645  27.674  26.948  1.00  0.00     0.034 A 
ATOM     45  C   UNL A   1      40.966  30.946  30.110  1.00  0.00     0.049 A 
ATOM     46  C   UNL A   1      45.547  29.074  27.478  1.00  0.00     0.074 A 
ATOM     47  C   UNL A   1      41.023  32.234  30.612  1.00  0.00     0.029 A 
ATOM     48  N   UNL A   1      42.185  30.703  29.497  1.00  0.00    -0.354 N 
ATOM     49  N   UNL A   1      44.577  29.629  28.164  1.00  0.00    -0.248 NA
ATOM     50  C   UNL A   1      46.688  29.961  27.219  1.00  0.00     0.031 C 
ATOM     51  C   UNL A   1      42.266  32.779  30.277  1.00  0.00     0.029 A 
ATOM     52  C   UNL A   1      42.999  31.820  29.597  1.00  0.00     0.049 A 
ATOM     53  H   UNL A   1      42.436  29.860  29.053  1.00  0.00     0.167 HD
ATOM     54  C   UNL A   1      44.997  30.927  28.431  1.00  0.00     0.074 A 
ATOM     55  C   UNL A   1      46.325  31.060  27.867  1.00  0.00     0.031 C 
ATOM     56  C   UNL A   1      44.333  31.925  29.065  1.00  0.00     0.034 A 
BRANCH  43  57
ATOM     57  C   UNL A   1      38.623  30.436  30.906  1.00  0.00     0.023 A 
ATOM     58  C   UNL A   1      38.497  30.250  32.297  1.00  0.00     0.012 A 
ATOM     59  C   UNL A   1      37.599  31.111  30.207  1.00  0.00     0.148 A 
ATOM     60  C   UNL A   1      37.365  30.702  32.977  1.00  0.00     0.002 A 
ATOM     61  C   UNL A   1      36.499  31.604  30.899  1.00  0.00     0.091 A 
ATOM     62  F   UNL A   1      37.726  31.265  28.882  1.00  0.00    -0.205 F 
ATOM     63  C   UNL A   1      36.374  31.390  32.281  1.00  0.00     0.022 A 
BRANCH  61  64
ATOM     64  S   UNL A   1      35.211  32.581  30.114  1.00  0.00     0.127 S 
ATOM     65  O   UNL A   1      34.292  32.809  31.228  1.00  0.00    -0.237 OA
ATOM     66  O   UNL A   1      35.949  33.768  29.681  1.00  0.00    -0.237 OA
ATOM     67  O   UNL A   1      34.683  31.761  29.032  1.00  0.00    -0.744 OA
ENDBRANCH  61  64
ENDBRANCH  43  57
BRANCH  44  68
ATOM     68  C   UNL A   1      46.866  27.195  26.235  1.00  0.00     0.023 A 
ATOM     69  C   UNL A   1      47.030  27.501  24.871  1.00  0.00     0.012 A 
ATOM     70  C   UNL A   1      47.891  26.501  26.910  1.00  0.00     0.148 A 
ATOM     71  C   UNL A   1      48.185  27.113  24.189  1.00  0.00     0.002 A 
ATOM     72  C   UNL A   1      49.068  26.179  26.243  1.00  0.00     0.091 A 
ATOM     73  F   UNL A   1      47.710  26.202  28.205  1.00  0.00    -0.205 F 
ATOM     74  C   UNL A   1      49.209  26.469  24.878  1.00  0.00     0.022 A 
BRANCH  72  75
ATOM     75  S   UNL A   1      50.499  25.492  27.084  1.00  0.00     0.127 S 
ATOM     76  O   UNL A   1      51.440  25.319  25.980  1.00  0.00    -0.237 OA
ATOM     77  O   UNL A   1      50.838  26.564  28.020  1.00  0.00    -0.237 OA
ATOM     78  O   UNL A   1      50.036  24.265  27.717  1.00  0.00    -0.744 OA
ENDBRANCH  72  75
ENDBRANCH  44  68
BRANCH  56  79
ATOM     79  C   UNL A   1      45.035  33.252  29.197  1.00  0.00     0.023 A 
ATOM     80  C   UNL A   1      45.905  33.475  30.283  1.00  0.00     0.012 A 
ATOM     81  C   UNL A   1      44.895  34.245  28.208  1.00  0.00     0.148 A 
ATOM     82  C   UNL A   1      46.597  34.679  30.401  1.00  0.00     0.002 A 
ATOM     83  C   UNL A   1      45.632  35.420  28.303  1.00  0.00     0.091 A 
ATOM     84  F   UNL A   1      44.050  34.021  27.191  1.00  0.00    -0.205 F 
ATOM     85  C   UNL A   1      46.471  35.645  29.406  1.00  0.00     0.022 A 
BRANCH  83  86
ATOM     86  S   UNL A   1      45.618  36.675  27.018  1.00  0.00     0.127 S 
ATOM     87  O   UNL A   1      46.504  37.691  27.584  1.00  0.00    -0.237 OA
ATOM     88  O   UNL A   1      46.172  35.951  25.874  1.00  0.00    -0.237 OA
ATOM     89  O   UNL A   1      44.226  37.078  26.863  1.00  0.00    -0.744 OA
ENDBRANCH  83  86
ENDBRANCH  56  79
ENDBRANCH  30  31
ENDBRANCH  23  25
ENDBRANCH  22  23
ENDBRANCH   1  22
TORSDOF 15
ENDMDL
MODEL 3
REMARK VINA RESULT:     -12.3      1.632      2.117
REMARK SMILES Cc1cc(Cl)c2c(c1)C=C(C(=O)OCCOC(=O)c1ccc(-c3c4nc(c(-c5cccc(S(=O)(=O)[O-])c5F)c5ccc([nH]5)c(-c5cccc(S(=O)(=O)[O-])c5F)c5nc(c(-c6cccc(S(=O)(=O)[O-])c6F)c6ccc3[nH]6)C=C5)C=C4)cc1)[C@@H](C(F)(F)F)O2
REMARK SMILES IDX 15 1 14 2 13 3 11 4 12 5 10 6 1 7 2 8 3 9 8 10 4 11 7 12
REMARK SMILES IDX 5 13 6 14 9 15 87 16 82 17 83 18 84 19 85 20 86 21 16 22
REMARK SMILES IDX 17 23 18 24 19 25 20 26 81 27 21 28 80 29 22 30 23 31 24 32
REMARK SMILES IDX 74 33 25 34 79 35 73 36 75 37 26 38 78 39 72 40 71 41 27 43
REMARK SMILES IDX 59 44 39 45 58 46 40 47 43 48 57 49 76 50 41 51 42 52 56 54
REMARK SMILES IDX 77 55 44 56 28 57 29 58 37 59 30 60 32 61 38 62 31 63 33 64
REMARK SMILES IDX 34 65 35 66 36 67 60 68 61 69 69 70 62 71 64 72 70 73 63 74
REMARK SMILES IDX 65 75 66 76 67 77 68 78 45 79 46 80 54 81 47 82 49 83 55 84
REMARK SMILES IDX 48 85 50 86 51 87 52 88 53 89
REMARK H PARENT 75 42 43 53
REMARK Flexibility Score: inf
ROOT
ATOM      1  C   UNL A   1      31.611  31.006  26.610  1.00  0.00     0.275 C 
ENDROOT
BRANCH   1   2
ATOM      2  C   UNL A   1      31.492  30.203  25.314  1.00  0.00     0.275 C 
BRANCH   2   3
ATOM      3  O   UNL A   1      32.680  29.417  25.063  1.00  0.00    -0.459 OA
BRANCH   3   4
ATOM      4  C   UNL A   1      32.502  28.340  24.265  1.00  0.00     0.338 C 
ATOM      5  O   UNL A   1      32.580  28.318  23.045  1.00  0.00    -0.246 OA
BRANCH   4   6
ATOM      6  C   UNL A   1      32.187  27.140  25.059  1.00  0.00     0.087 C 
ATOM      7  C   UNL A   1      34.713  21.793  26.808  1.00  0.00     0.044 C 
ATOM      8  C   UNL A   1      33.623  22.817  26.660  1.00  0.00    -0.049 A 
ATOM      9  C   UNL A   1      32.303  22.512  27.009  1.00  0.00     0.028 A 
ATOM     10  C   UNL A   1      33.900  24.076  26.124  1.00  0.00     0.015 A 
ATOM     11  C   UNL A   1      31.284  23.460  26.839  1.00  0.00     0.084 A 
ATOM     12  C   UNL A   1      32.876  25.016  25.938  1.00  0.00     0.019 A 
ATOM     13  Cl  UNL A   1      29.674  23.018  27.288  1.00  0.00    -0.080 Cl
ATOM     14  C   UNL A   1      31.562  24.720  26.298  1.00  0.00     0.146 A 
ATOM     15  C   UNL A   1      33.184  26.288  25.319  1.00  0.00     0.027 C 
ATOM     16  O   UNL A   1      30.537  25.620  26.153  1.00  0.00    -0.474 OA
ATOM     17  C   UNL A   1      30.757  26.844  25.395  1.00  0.00     0.316 C 
BRANCH  17  18
ATOM     18  C   UNL A   1      29.882  26.811  24.131  1.00  0.00     0.430 C 
ATOM     19  F   UNL A   1      28.699  26.195  24.366  1.00  0.00    -0.167 F 
ATOM     20  F   UNL A   1      29.581  28.061  23.700  1.00  0.00    -0.167 F 
ATOM     21  F   UNL A   1      30.482  26.163  23.107  1.00  0.00    -0.167 F 
ENDBRANCH  17  18
ENDBRANCH   4   6
ENDBRANCH   3   4
ENDBRANCH   2   3
ENDBRANCH   1   2
BRANCH   1  22
ATOM     22  O   UNL A   1      32.833  30.685  27.298  1.00  0.00    -0.458 OA
BRANCH  22  23
ATOM     23  C   UNL A   1      33.600  31.754  27.610  1.00  0.00     0.338 C 
ATOM     24  O   UNL A   1      33.225  32.899  27.800  1.00  0.00    -0.246 OA
BRANCH  23  25
ATOM     25  C   UNL A   1      34.999  31.353  27.809  1.00  0.00     0.060 A 
ATOM     26  C   UNL A   1      35.264  30.015  28.065  1.00  0.00     0.016 A 
ATOM     27  C   UNL A   1      35.985  32.312  28.012  1.00  0.00     0.016 A 
ATOM     28  C   UNL A   1      36.432  29.656  28.728  1.00  0.00     0.010 A 
ATOM     29  C   UNL A   1      37.229  31.917  28.518  1.00  0.00     0.010 A 
ATOM     30  C   UNL A   1      37.444  30.597  28.955  1.00  0.00    -0.014 A 
BRANCH  30  31
ATOM     31  C   UNL A   1      38.699  30.218  29.671  1.00  0.00     0.031 A 
ATOM     32  C   UNL A   1      39.673  29.252  29.035  1.00  0.00     0.074 A 
ATOM     33  C   UNL A   1      38.975  30.725  30.891  1.00  0.00     0.049 A 
ATOM     34  N   UNL A   1      40.679  28.615  29.578  1.00  0.00    -0.248 NA
ATOM     35  C   UNL A   1      39.482  28.951  27.606  1.00  0.00     0.031 C 
ATOM     36  C   UNL A   1      38.159  31.707  31.609  1.00  0.00     0.029 A 
ATOM     37  N   UNL A   1      40.016  30.476  31.753  1.00  0.00    -0.354 N 
ATOM     38  C   UNL A   1      41.182  27.777  28.587  1.00  0.00     0.074 A 
ATOM     39  C   UNL A   1      40.377  27.992  27.405  1.00  0.00     0.031 C 
ATOM     40  C   UNL A   1      38.741  32.000  32.779  1.00  0.00     0.029 A 
ATOM     41  C   UNL A   1      39.902  31.140  32.954  1.00  0.00     0.049 A 
ATOM     42  H   UNL A   1      40.770  29.882  31.533  1.00  0.00     0.167 HD
ATOM     43  C   UNL A   1      42.225  26.913  28.655  1.00  0.00     0.034 A 
ATOM     44  C   UNL A   1      40.603  31.027  34.098  1.00  0.00     0.034 A 
ATOM     45  C   UNL A   1      43.066  26.763  29.814  1.00  0.00     0.049 A 
ATOM     46  C   UNL A   1      41.727  30.036  34.164  1.00  0.00     0.074 A 
ATOM     47  C   UNL A   1      44.165  25.936  29.976  1.00  0.00     0.029 A 
ATOM     48  N   UNL A   1      42.914  27.460  31.003  1.00  0.00    -0.354 N 
ATOM     49  N   UNL A   1      42.195  29.256  33.219  1.00  0.00    -0.248 NA
ATOM     50  C   UNL A   1      42.427  29.912  35.449  1.00  0.00     0.031 C 
ATOM     51  C   UNL A   1      44.658  26.114  31.272  1.00  0.00     0.029 A 
ATOM     52  C   UNL A   1      43.891  27.077  31.908  1.00  0.00     0.049 A 
ATOM     53  H   UNL A   1      42.213  28.129  31.180  1.00  0.00     0.167 HD
ATOM     54  C   UNL A   1      43.252  28.559  33.791  1.00  0.00     0.074 A 
ATOM     55  C   UNL A   1      43.380  29.039  35.152  1.00  0.00     0.031 C 
ATOM     56  C   UNL A   1      44.031  27.592  33.246  1.00  0.00     0.034 A 
BRANCH  43  57
ATOM     57  C   UNL A   1      42.539  26.072  27.442  1.00  0.00     0.023 A 
ATOM     58  C   UNL A   1      43.355  26.590  26.416  1.00  0.00     0.012 A 
ATOM     59  C   UNL A   1      42.099  24.734  27.361  1.00  0.00     0.148 A 
ATOM     60  C   UNL A   1      43.705  25.803  25.319  1.00  0.00     0.002 A 
ATOM     61  C   UNL A   1      42.493  23.940  26.290  1.00  0.00     0.091 A 
ATOM     62  F   UNL A   1      41.310  24.261  28.336  1.00  0.00    -0.205 F 
ATOM     63  C   UNL A   1      43.286  24.476  25.262  1.00  0.00     0.022 A 
BRANCH  61  64
ATOM     64  S   UNL A   1      42.084  22.194  26.167  1.00  0.00     0.127 S 
ATOM     65  O   UNL A   1      42.802  21.807  24.954  1.00  0.00    -0.237 OA
ATOM     66  O   UNL A   1      42.649  21.660  27.406  1.00  0.00    -0.237 OA
ATOM     67  O   UNL A   1      40.632  22.125  26.077  1.00  0.00    -0.744 OA
ENDBRANCH  61  64
ENDBRANCH  43  57
BRANCH  44  68
ATOM     68  C   UNL A   1      40.249  31.881  35.271  1.00  0.00     0.023 A 
ATOM     69  C   UNL A   1      40.845  33.149  35.403  1.00  0.00     0.012 A 
ATOM     70  C   UNL A   1      39.282  31.476  36.214  1.00  0.00     0.148 A 
ATOM     71  C   UNL A   1      40.496  33.992  36.459  1.00  0.00     0.002 A 
ATOM     72  C   UNL A   1      38.889  32.348  37.223  1.00  0.00     0.091 A 
ATOM     73  F   UNL A   1      38.738  30.257  36.084  1.00  0.00    -0.205 F 
ATOM     74  C   UNL A   1      39.508  33.600  37.358  1.00  0.00     0.022 A 
BRANCH  72  75
ATOM     75  S   UNL A   1      37.518  31.993  38.328  1.00  0.00     0.127 S 
ATOM     76  O   UNL A   1      38.129  32.200  39.639  1.00  0.00    -0.237 OA
ATOM     77  O   UNL A   1      36.545  33.011  37.933  1.00  0.00    -0.237 OA
ATOM     78  O   UNL A   1      37.113  30.626  38.031  1.00  0.00    -0.744 OA
ENDBRANCH  72  75
ENDBRANCH  44  68
BRANCH  56  79
ATOM     79  C   UNL A   1      45.105  26.992  34.116  1.00  0.00     0.023 A 
ATOM     80  C   UNL A   1      46.404  27.539  34.097  1.00  0.00     0.012 A 
ATOM     81  C   UNL A   1      44.810  25.941  35.007  1.00  0.00     0.148 A 
ATOM     82  C   UNL A   1      47.400  27.026  34.926  1.00  0.00     0.002 A 
ATOM     83  C   UNL A   1      45.794  25.474  35.870  1.00  0.00     0.091 A 
ATOM     84  F   UNL A   1      43.573  25.423  34.997  1.00  0.00    -0.205 F 
ATOM     85  C   UNL A   1      47.092  26.005  35.820  1.00  0.00     0.022 A 
BRANCH  83  86
ATOM     86  S   UNL A   1      45.465  24.236  37.129  1.00  0.00     0.127 S 
ATOM     87  O   UNL A   1      45.081  23.080  36.319  1.00  0.00    -0.237 OA
ATOM     88  O   UNL A   1      46.765  24.114  37.789  1.00  0.00    -0.237 OA
ATOM     89  O   UNL A   1      44.408  24.786  37.969  1.00  0.00    -0.744 OA
ENDBRANCH  83  86
ENDBRANCH  56  79
ENDBRANCH  30  31
ENDBRANCH  23  25
ENDBRANCH  22  23
ENDBRANCH   1  22
TORSDOF 15
ENDMDL
