MODEL 1
REMARK VINA RESULT:     -12.4      0.000      0.000
REMARK SMILES O=C(OCCOC(=O)C1(n2cnc3ccccc32)CC[NH+](Cc2cccc3nonc23)CC1)c1ccc(-c2c3nc(c(-c4cccc(S(=O)(=O)[O-])c4F)c4ccc([nH]4)c(-c4cccc(S(=O)(=O)[O-])c4F)c4nc(c(-c5cccc(S(=O)(=O)[O-])c5F)c5ccc2[nH]5)C=C4)C=C3)cc1
REMARK SMILES IDX 4 1 3 2 2 3 1 4 34 5 35 6 96 7 36 8 95 9 37 10 38 11 39 12
REMARK SMILES IDX 89 13 40 14 94 15 88 16 90 17 41 18 93 19 87 20 86 21 42 23
REMARK SMILES IDX 74 24 54 25 73 26 55 27 58 28 72 29 91 30 56 31 57 32 71 34
REMARK SMILES IDX 92 35 59 36 43 37 44 38 52 39 45 40 47 41 53 42 46 43 48 44
REMARK SMILES IDX 49 45 50 46 51 47 75 48 76 49 84 50 77 51 79 52 85 53 78 54
REMARK SMILES IDX 80 55 81 56 82 57 83 58 60 59 61 60 69 61 62 62 64 63 70 64
REMARK SMILES IDX 63 65 65 66 66 67 67 68 68 69 5 70 6 71 7 72 8 73 9 74 19 75
REMARK SMILES IDX 33 76 20 77 32 78 21 79 10 81 11 82 18 83 12 84 13 85 17 86
REMARK SMILES IDX 14 87 16 88 15 89 22 90 23 91 24 92 31 93 25 94 27 95 30 96
REMARK SMILES IDX 26 97 28 98 29 99
REMARK H PARENT 90 22 58 33 21 80
REMARK Flexibility Score: inf
ROOT
ATOM      1  C   UNL A   1      34.298  29.598  27.411  1.00  0.00     0.275 C 
ENDROOT
BRANCH   1   2
ATOM      2  O   UNL A   1      35.192  30.731  27.365  1.00  0.00    -0.458 OA
BRANCH   2   3
ATOM      3  C   UNL A   1      35.556  31.455  28.470  1.00  0.00     0.338 C 
ATOM      4  O   UNL A   1      35.252  32.604  28.643  1.00  0.00    -0.246 OA
BRANCH   3   5
ATOM      5  C   UNL A   1      36.581  30.790  29.300  1.00  0.00     0.060 A 
ATOM      6  C   UNL A   1      37.660  31.593  29.588  1.00  0.00     0.016 A 
ATOM      7  C   UNL A   1      36.636  29.417  29.525  1.00  0.00     0.016 A 
ATOM      8  C   UNL A   1      38.883  31.010  29.829  1.00  0.00     0.010 A 
ATOM      9  C   UNL A   1      37.876  28.835  29.822  1.00  0.00     0.010 A 
ATOM     10  C   UNL A   1      39.027  29.630  29.847  1.00  0.00    -0.014 A 
BRANCH  10  11
ATOM     11  C   UNL A   1      40.430  29.173  29.846  1.00  0.00     0.031 A 
ATOM     12  C   UNL A   1      41.091  29.063  31.190  1.00  0.00     0.074 A 
ATOM     13  C   UNL A   1      41.123  28.930  28.714  1.00  0.00     0.049 A 
ATOM     14  N   UNL A   1      42.233  29.558  31.572  1.00  0.00    -0.248 NA
ATOM     15  C   UNL A   1      40.297  28.468  32.281  1.00  0.00     0.031 C 
ATOM     16  C   UNL A   1      40.586  28.926  27.353  1.00  0.00     0.029 A 
ATOM     17  N   UNL A   1      42.409  28.471  28.552  1.00  0.00    -0.354 N 
ATOM     18  C   UNL A   1      42.382  29.143  32.894  1.00  0.00     0.074 A 
ATOM     19  C   UNL A   1      41.101  28.640  33.327  1.00  0.00     0.031 C 
ATOM     20  C   UNL A   1      41.397  28.186  26.574  1.00  0.00     0.029 A 
ATOM     21  C   UNL A   1      42.539  27.759  27.362  1.00  0.00     0.049 A 
ATOM     22  H   UNL A   1      43.141  28.625  29.191  1.00  0.00     0.167 HD
ATOM     23  C   UNL A   1      43.588  28.942  33.488  1.00  0.00     0.034 A 
ATOM     24  C   UNL A   1      43.406  26.752  27.110  1.00  0.00     0.034 A 
ATOM     25  C   UNL A   1      44.697  29.559  32.839  1.00  0.00     0.049 A 
ATOM     26  C   UNL A   1      44.585  26.891  27.991  1.00  0.00     0.074 A 
ATOM     27  C   UNL A   1      45.362  30.762  32.870  1.00  0.00     0.029 A 
ATOM     28  N   UNL A   1      45.200  28.837  31.797  1.00  0.00    -0.354 N 
ATOM     29  N   UNL A   1      45.470  27.842  27.881  1.00  0.00    -0.248 NA
ATOM     30  C   UNL A   1      44.704  26.060  29.185  1.00  0.00     0.031 C 
ATOM     31  C   UNL A   1      46.213  30.781  31.725  1.00  0.00     0.029 A 
ATOM     32  C   UNL A   1      46.027  29.596  31.016  1.00  0.00     0.049 A 
ATOM     33  H   UNL A   1      44.994  27.889  31.628  1.00  0.00     0.167 HD
ATOM     34  C   UNL A   1      45.978  27.980  29.158  1.00  0.00     0.074 A 
ATOM     35  C   UNL A   1      45.625  26.754  29.854  1.00  0.00     0.031 C 
ATOM     36  C   UNL A   1      46.312  29.206  29.650  1.00  0.00     0.034 A 
BRANCH  23  37
ATOM     37  C   UNL A   1      43.800  27.768  34.408  1.00  0.00     0.023 A 
ATOM     38  C   UNL A   1      44.106  27.977  35.764  1.00  0.00     0.012 A 
ATOM     39  C   UNL A   1      43.955  26.456  33.903  1.00  0.00     0.148 A 
ATOM     40  C   UNL A   1      44.492  26.910  36.588  1.00  0.00     0.002 A 
ATOM     41  C   UNL A   1      44.237  25.389  34.741  1.00  0.00     0.091 A 
ATOM     42  F   UNL A   1      43.953  26.256  32.576  1.00  0.00    -0.205 F 
ATOM     43  C   UNL A   1      44.525  25.611  36.085  1.00  0.00     0.022 A 
BRANCH  41  44
ATOM     44  S   UNL A   1      44.173  23.713  34.107  1.00  0.00     0.127 S 
ATOM     45  O   UNL A   1      43.997  23.941  32.677  1.00  0.00    -0.237 OA
ATOM     46  O   UNL A   1      45.481  23.185  34.498  1.00  0.00    -0.237 OA
ATOM     47  O   UNL A   1      43.054  23.101  34.813  1.00  0.00    -0.744 OA
ENDBRANCH  41  44
ENDBRANCH  23  37
BRANCH  24  48
ATOM     48  C   UNL A   1      43.163  25.514  26.323  1.00  0.00     0.023 A 
ATOM     49  C   UNL A   1      44.044  25.194  25.270  1.00  0.00     0.012 A 
ATOM     50  C   UNL A   1      42.252  24.519  26.743  1.00  0.00     0.148 A 
ATOM     51  C   UNL A   1      44.046  23.921  24.691  1.00  0.00     0.002 A 
ATOM     52  C   UNL A   1      42.229  23.269  26.137  1.00  0.00     0.091 A 
ATOM     53  F   UNL A   1      41.471  24.742  27.808  1.00  0.00    -0.205 F 
ATOM     54  C   UNL A   1      43.140  22.956  25.124  1.00  0.00     0.022 A 
BRANCH  52  55
ATOM     55  S   UNL A   1      41.049  22.014  26.649  1.00  0.00     0.127 S 
ATOM     56  O   UNL A   1      39.766  22.655  26.361  1.00  0.00    -0.237 OA
ATOM     57  O   UNL A   1      41.389  20.898  25.773  1.00  0.00    -0.237 OA
ATOM     58  O   UNL A   1      41.302  21.812  28.072  1.00  0.00    -0.744 OA
ENDBRANCH  52  55
ENDBRANCH  24  48
BRANCH  36  59
ATOM     59  C   UNL A   1      46.720  30.275  28.682  1.00  0.00     0.023 A 
ATOM     60  C   UNL A   1      48.051  30.425  28.247  1.00  0.00     0.012 A 
ATOM     61  C   UNL A   1      45.719  31.083  28.112  1.00  0.00     0.148 A 
ATOM     62  C   UNL A   1      48.381  31.367  27.272  1.00  0.00     0.002 A 
ATOM     63  C   UNL A   1      46.045  31.993  27.114  1.00  0.00     0.091 A 
ATOM     64  F   UNL A   1      44.456  30.920  28.534  1.00  0.00    -0.205 F 
ATOM     65  C   UNL A   1      47.378  32.143  26.698  1.00  0.00     0.022 A 
BRANCH  63  66
ATOM     66  S   UNL A   1      44.803  32.963  26.258  1.00  0.00     0.127 S 
ATOM     67  O   UNL A   1      45.610  33.724  25.306  1.00  0.00    -0.237 OA
ATOM     68  O   UNL A   1      43.968  31.921  25.662  1.00  0.00    -0.237 OA
ATOM     69  O   UNL A   1      44.138  33.765  27.278  1.00  0.00    -0.744 OA
ENDBRANCH  63  66
ENDBRANCH  36  59
ENDBRANCH  10  11
ENDBRANCH   3   5
ENDBRANCH   2   3
ENDBRANCH   1   2
BRANCH   1  70
ATOM     70  C   UNL A   1      34.457  28.551  26.290  1.00  0.00     0.274 C 
BRANCH  70  71
ATOM     71  O   UNL A   1      33.265  27.901  25.788  1.00  0.00    -0.460 OA
BRANCH  71  72
ATOM     72  C   UNL A   1      32.923  28.200  24.510  1.00  0.00     0.332 C 
ATOM     73  O   UNL A   1      33.692  28.801  23.759  1.00  0.00    -0.249 OA
BRANCH  72  74
ATOM     74  C   UNL A   1      31.441  27.899  24.105  1.00  0.00     0.154 C 
ATOM     75  C   UNL A   1      30.490  26.877  24.788  1.00  0.00     0.102 C 
ATOM     76  C   UNL A   1      31.530  27.388  22.631  1.00  0.00     0.102 C 
ATOM     77  C   UNL A   1      30.600  25.380  24.475  1.00  0.00     0.265 C 
ATOM     78  C   UNL A   1      32.075  25.945  22.562  1.00  0.00     0.265 C 
ATOM     79  N   UNL A   1      31.167  25.010  23.199  1.00  0.00    -0.331 N 
ATOM     80  H   UNL A   1      30.373  25.144  22.574  1.00  0.00     0.348 HD
BRANCH  74  81
ATOM     81  N   UNL A   1      30.766  29.216  24.269  1.00  0.00    -0.313 N 
ATOM     82  C   UNL A   1      31.102  30.208  25.150  1.00  0.00     0.201 A 
ATOM     83  C   UNL A   1      29.713  29.693  23.496  1.00  0.00     0.069 A 
ATOM     84  N   UNL A   1      30.393  31.298  24.963  1.00  0.00    -0.237 NA
ATOM     85  C   UNL A   1      29.540  31.009  23.925  1.00  0.00     0.088 A 
ATOM     86  C   UNL A   1      28.931  29.151  22.460  1.00  0.00     0.028 A 
ATOM     87  C   UNL A   1      28.590  31.827  23.289  1.00  0.00     0.030 A 
ATOM     88  C   UNL A   1      28.012  29.987  21.821  1.00  0.00     0.002 A 
ATOM     89  C   UNL A   1      27.843  31.307  22.225  1.00  0.00     0.002 A 
ENDBRANCH  74  81
BRANCH  79  90
ATOM     90  C   UNL A   1      31.464  23.572  23.047  1.00  0.00     0.301 C 
BRANCH  90  91
ATOM     91  C   UNL A   1      32.513  22.938  23.931  1.00  0.00     0.038 A 
ATOM     92  C   UNL A   1      32.200  22.193  25.104  1.00  0.00     0.012 A 
ATOM     93  C   UNL A   1      33.901  22.914  23.641  1.00  0.00     0.144 A 
ATOM     94  C   UNL A   1      33.165  21.564  25.947  1.00  0.00     0.003 A 
ATOM     95  C   UNL A   1      34.887  22.245  24.491  1.00  0.00     0.135 A 
ATOM     96  N   UNL A   1      34.554  23.433  22.590  1.00  0.00    -0.049 NA
ATOM     97  C   UNL A   1      34.542  21.578  25.679  1.00  0.00     0.034 A 
ATOM     98  N   UNL A   1      36.094  22.381  23.927  1.00  0.00    -0.050 NA
ATOM     99  O   UNL A   1      35.890  23.130  22.783  1.00  0.00    -0.243 OA
ENDBRANCH  90  91
ENDBRANCH  79  90
ENDBRANCH  72  74
ENDBRANCH  71  72
ENDBRANCH  70  71
ENDBRANCH   1  70
TORSDOF 17
ENDMDL
MODEL 2
REMARK VINA RESULT:     -12.3      1.412      1.840
REMARK SMILES O=C(OCCOC(=O)C1(n2cnc3ccccc32)CC[NH+](Cc2cccc3nonc23)CC1)c1ccc(-c2c3nc(c(-c4cccc(S(=O)(=O)[O-])c4F)c4ccc([nH]4)c(-c4cccc(S(=O)(=O)[O-])c4F)c4nc(c(-c5cccc(S(=O)(=O)[O-])c5F)c5ccc2[nH]5)C=C4)C=C3)cc1
REMARK SMILES IDX 4 1 3 2 2 3 1 4 34 5 35 6 96 7 36 8 95 9 37 10 38 11 39 12
REMARK SMILES IDX 89 13 40 14 94 15 88 16 90 17 41 18 93 19 87 20 86 21 42 23
REMARK SMILES IDX 74 24 54 25 73 26 55 27 58 28 72 29 91 30 56 31 57 32 71 34
REMARK SMILES IDX 92 35 59 36 43 37 44 38 52 39 45 40 47 41 53 42 46 43 48 44
REMARK SMILES IDX 49 45 50 46 51 47 75 48 76 49 84 50 77 51 79 52 85 53 78 54
REMARK SMILES IDX 80 55 81 56 82 57 83 58 60 59 61 60 69 61 62 62 64 63 70 64
REMARK SMILES IDX 63 65 65 66 66 67 67 68 68 69 5 70 6 71 7 72 8 73 9 74 19 75
REMARK SMILES IDX 33 76 20 77 32 78 21 79 10 81 11 82 18 83 12 84 13 85 17 86
REMARK SMILES IDX 14 87 16 88 15 89 22 90 23 91 24 92 31 93 25 94 27 95 30 96
REMARK SMILES IDX 26 97 28 98 29 99
REMARK H PARENT 90 22 58 33 21 80
REMARK Flexibility Score: inf
ROOT
ATOM      1  C   UNL A   1      33.094  30.571  27.224  1.00  0.00     0.275 C 
ENDROOT
BRANCH   1   2
ATOM      2  O   UNL A   1      34.533  30.654  27.134  1.00  0.00    -0.458 OA
BRANCH   2   3
ATOM      3  C   UNL A   1      35.286  31.558  27.836  1.00  0.00     0.338 C 
ATOM      4  O   UNL A   1      35.328  32.730  27.580  1.00  0.00    -0.246 OA
BRANCH   3   5
ATOM      5  C   UNL A   1      36.252  30.930  28.760  1.00  0.00     0.060 A 
ATOM      6  C   UNL A   1      37.332  31.730  29.052  1.00  0.00     0.016 A 
ATOM      7  C   UNL A   1      36.265  29.574  29.076  1.00  0.00     0.016 A 
ATOM      8  C   UNL A   1      38.528  31.142  29.394  1.00  0.00     0.010 A 
ATOM      9  C   UNL A   1      37.476  28.990  29.475  1.00  0.00     0.010 A 
ATOM     10  C   UNL A   1      38.641  29.764  29.509  1.00  0.00    -0.014 A 
BRANCH  10  11
ATOM     11  C   UNL A   1      40.032  29.282  29.612  1.00  0.00     0.031 A 
ATOM     12  C   UNL A   1      40.613  29.227  30.995  1.00  0.00     0.074 A 
ATOM     13  C   UNL A   1      40.783  28.971  28.535  1.00  0.00     0.049 A 
ATOM     14  N   UNL A   1      41.741  29.718  31.418  1.00  0.00    -0.248 NA
ATOM     15  C   UNL A   1      39.746  28.701  32.066  1.00  0.00     0.031 C 
ATOM     16  C   UNL A   1      40.325  28.910  27.147  1.00  0.00     0.029 A 
ATOM     17  N   UNL A   1      42.066  28.481  28.470  1.00  0.00    -0.354 N 
ATOM     18  C   UNL A   1      41.805  29.367  32.765  1.00  0.00     0.074 A 
ATOM     19  C   UNL A   1      40.491  28.909  33.147  1.00  0.00     0.031 C 
ATOM     20  C   UNL A   1      41.163  28.117  26.453  1.00  0.00     0.029 A 
ATOM     21  C   UNL A   1      42.249  27.709  27.325  1.00  0.00     0.049 A 
ATOM     22  H   UNL A   1      42.764  28.653  29.142  1.00  0.00     0.167 HD
ATOM     23  C   UNL A   1      42.971  29.173  33.438  1.00  0.00     0.034 A 
ATOM     24  C   UNL A   1      43.108  26.675  27.173  1.00  0.00     0.034 A 
ATOM     25  C   UNL A   1      44.128  29.738  32.825  1.00  0.00     0.049 A 
ATOM     26  C   UNL A   1      44.237  26.836  28.113  1.00  0.00     0.074 A 
ATOM     27  C   UNL A   1      44.815  30.929  32.837  1.00  0.00     0.029 A 
ATOM     28  N   UNL A   1      44.675  28.956  31.850  1.00  0.00    -0.354 N 
ATOM     29  N   UNL A   1      45.147  27.764  28.009  1.00  0.00    -0.248 NA
ATOM     30  C   UNL A   1      44.271  26.063  29.351  1.00  0.00     0.031 C 
ATOM     31  C   UNL A   1      45.730  30.875  31.743  1.00  0.00     0.029 A 
ATOM     32  C   UNL A   1      45.561  29.661  31.083  1.00  0.00     0.049 A 
ATOM     33  H   UNL A   1      44.459  28.004  31.715  1.00  0.00     0.167 HD
ATOM     34  C   UNL A   1      45.584  27.956  29.305  1.00  0.00     0.074 A 
ATOM     35  C   UNL A   1      45.166  26.773  30.038  1.00  0.00     0.031 C 
ATOM     36  C   UNL A   1      45.915  29.198  29.757  1.00  0.00     0.034 A 
BRANCH  23  37
ATOM     37  C   UNL A   1      43.106  28.043  34.424  1.00  0.00     0.023 A 
ATOM     38  C   UNL A   1      43.234  28.313  35.798  1.00  0.00     0.012 A 
ATOM     39  C   UNL A   1      43.364  26.720  33.995  1.00  0.00     0.148 A 
ATOM     40  C   UNL A   1      43.550  27.292  36.705  1.00  0.00     0.002 A 
ATOM     41  C   UNL A   1      43.575  25.696  34.904  1.00  0.00     0.091 A 
ATOM     42  F   UNL A   1      43.533  26.471  32.688  1.00  0.00    -0.205 F 
ATOM     43  C   UNL A   1      43.687  25.977  36.264  1.00  0.00     0.022 A 
BRANCH  41  44
ATOM     44  S   UNL A   1      43.644  23.997  34.336  1.00  0.00     0.127 S 
ATOM     45  O   UNL A   1      44.039  24.163  32.942  1.00  0.00    -0.237 OA
ATOM     46  O   UNL A   1      44.668  23.420  35.210  1.00  0.00    -0.237 OA
ATOM     47  O   UNL A   1      42.303  23.479  34.578  1.00  0.00    -0.744 OA
ENDBRANCH  41  44
ENDBRANCH  23  37
BRANCH  24  48
ATOM     48  C   UNL A   1      42.885  25.405  26.434  1.00  0.00     0.023 A 
ATOM     49  C   UNL A   1      43.789  25.043  25.415  1.00  0.00     0.012 A 
ATOM     50  C   UNL A   1      41.966  24.426  26.875  1.00  0.00     0.148 A 
ATOM     51  C   UNL A   1      43.806  23.746  24.890  1.00  0.00     0.002 A 
ATOM     52  C   UNL A   1      41.959  23.151  26.322  1.00  0.00     0.091 A 
ATOM     53  F   UNL A   1      41.162  24.691  27.913  1.00  0.00    -0.205 F 
ATOM     54  C   UNL A   1      42.892  22.798  25.343  1.00  0.00     0.022 A 
BRANCH  52  55
ATOM     55  S   UNL A   1      40.770  21.916  26.862  1.00  0.00     0.127 S 
ATOM     56  O   UNL A   1      41.136  20.754  26.052  1.00  0.00    -0.237 OA
ATOM     57  O   UNL A   1      41.076  21.796  28.283  1.00  0.00    -0.237 OA
ATOM     58  O   UNL A   1      39.463  22.476  26.533  1.00  0.00    -0.744 OA
ENDBRANCH  52  55
ENDBRANCH  24  48
BRANCH  36  59
ATOM     59  C   UNL A   1      46.400  30.210  28.762  1.00  0.00     0.023 A 
ATOM     60  C   UNL A   1      47.745  30.274  28.352  1.00  0.00     0.012 A 
ATOM     61  C   UNL A   1      45.457  31.052  28.146  1.00  0.00     0.148 A 
ATOM     62  C   UNL A   1      48.145  31.164  27.354  1.00  0.00     0.002 A 
ATOM     63  C   UNL A   1      45.851  31.909  27.126  1.00  0.00     0.091 A 
ATOM     64  F   UNL A   1      44.178  30.972  28.546  1.00  0.00    -0.205 F 
ATOM     65  C   UNL A   1      47.198  31.973  26.734  1.00  0.00     0.022 A 
BRANCH  63  66
ATOM     66  S   UNL A   1      44.681  32.916  26.213  1.00  0.00     0.127 S 
ATOM     67  O   UNL A   1      43.792  31.907  25.638  1.00  0.00    -0.237 OA
ATOM     68  O   UNL A   1      44.086  33.724  27.277  1.00  0.00    -0.237 OA
ATOM     69  O   UNL A   1      45.464  33.671  25.241  1.00  0.00    -0.744 OA
ENDBRANCH  63  66
ENDBRANCH  36  59
ENDBRANCH  10  11
ENDBRANCH   3   5
ENDBRANCH   2   3
ENDBRANCH   1   2
BRANCH   1  70
ATOM     70  C   UNL A   1      32.505  29.183  27.545  1.00  0.00     0.274 C 
BRANCH  70  71
ATOM     71  O   UNL A   1      31.935  28.414  26.459  1.00  0.00    -0.460 OA
BRANCH  71  72
ATOM     72  C   UNL A   1      32.723  27.432  25.954  1.00  0.00     0.332 C 
ATOM     73  O   UNL A   1      33.861  27.234  26.380  1.00  0.00    -0.249 OA
BRANCH  72  74
ATOM     74  C   UNL A   1      32.173  26.691  24.689  1.00  0.00     0.154 C 
ATOM     75  C   UNL A   1      30.919  25.775  24.632  1.00  0.00     0.102 C 
ATOM     76  C   UNL A   1      33.336  25.746  24.248  1.00  0.00     0.102 C 
ATOM     77  C   UNL A   1      30.989  24.324  25.124  1.00  0.00     0.265 C 
ATOM     78  C   UNL A   1      33.462  24.523  25.183  1.00  0.00     0.265 C 
ATOM     79  N   UNL A   1      32.283  23.682  25.107  1.00  0.00    -0.331 N 
ATOM     80  H   UNL A   1      32.368  23.417  24.125  1.00  0.00     0.348 HD
BRANCH  74  81
ATOM     81  N   UNL A   1      31.878  27.801  23.741  1.00  0.00    -0.313 N 
ATOM     82  C   UNL A   1      32.783  28.506  22.995  1.00  0.00     0.201 A 
ATOM     83  C   UNL A   1      30.612  28.265  23.399  1.00  0.00     0.069 A 
ATOM     84  N   UNL A   1      32.198  29.337  22.162  1.00  0.00    -0.237 NA
ATOM     85  C   UNL A   1      30.849  29.187  22.379  1.00  0.00     0.088 A 
ATOM     86  C   UNL A   1      29.307  27.961  23.824  1.00  0.00     0.028 A 
ATOM     87  C   UNL A   1      29.762  29.803  21.735  1.00  0.00     0.030 A 
ATOM     88  C   UNL A   1      28.239  28.561  23.154  1.00  0.00     0.002 A 
ATOM     89  C   UNL A   1      28.458  29.468  22.122  1.00  0.00     0.002 A 
ENDBRANCH  74  81
BRANCH  79  90
ATOM     90  C   UNL A   1      32.337  22.381  25.802  1.00  0.00     0.301 C 
BRANCH  90  91
ATOM     91  C   UNL A   1      33.401  21.380  25.412  1.00  0.00     0.038 A 
ATOM     92  C   UNL A   1      34.795  21.667  25.453  1.00  0.00     0.012 A 
ATOM     93  C   UNL A   1      33.146  20.027  25.074  1.00  0.00     0.144 A 
ATOM     94  C   UNL A   1      35.825  20.739  25.112  1.00  0.00     0.003 A 
ATOM     95  C   UNL A   1      34.204  19.067  24.753  1.00  0.00     0.135 A 
ATOM     96  N   UNL A   1      31.974  19.377  25.012  1.00  0.00    -0.049 NA
ATOM     97  C   UNL A   1      35.566  19.411  24.738  1.00  0.00     0.034 A 
ATOM     98  N   UNL A   1      33.637  17.878  24.510  1.00  0.00    -0.050 NA
ATOM     99  O   UNL A   1      32.276  18.078  24.641  1.00  0.00    -0.243 OA
ENDBRANCH  90  91
ENDBRANCH  79  90
ENDBRANCH  72  74
ENDBRANCH  71  72
ENDBRANCH  70  71
ENDBRANCH   1  70
TORSDOF 17
ENDMDL
MODEL 3
REMARK VINA RESULT:     -12.2      3.244      8.341
REMARK SMILES O=C(OCCOC(=O)C1(n2cnc3ccccc32)CC[NH+](Cc2cccc3nonc23)CC1)c1ccc(-c2c3nc(c(-c4cccc(S(=O)(=O)[O-])c4F)c4ccc([nH]4)c(-c4cccc(S(=O)(=O)[O-])c4F)c4nc(c(-c5cccc(S(=O)(=O)[O-])c5F)c5ccc2[nH]5)C=C4)C=C3)cc1
REMARK SMILES IDX 4 1 3 2 2 3 1 4 34 5 35 6 96 7 36 8 95 9 37 10 38 11 39 12
REMARK SMILES IDX 89 13 40 14 94 15 88 16 90 17 41 18 93 19 87 20 86 21 42 23
REMARK SMILES IDX 74 24 54 25 73 26 55 27 58 28 72 29 91 30 56 31 57 32 71 34
REMARK SMILES IDX 92 35 59 36 43 37 44 38 52 39 45 40 47 41 53 42 46 43 48 44
REMARK SMILES IDX 49 45 50 46 51 47 75 48 76 49 84 50 77 51 79 52 85 53 78 54
REMARK SMILES IDX 80 55 81 56 82 57 83 58 60 59 61 60 69 61 62 62 64 63 70 64
REMARK SMILES IDX 63 65 65 66 66 67 67 68 68 69 5 70 6 71 7 72 8 73 9 74 19 75
REMARK SMILES IDX 33 76 20 77 32 78 21 79 10 81 11 82 18 83 12 84 13 85 17 86
REMARK SMILES IDX 14 87 16 88 15 89 22 90 23 91 24 92 31 93 25 94 27 95 30 96
REMARK SMILES IDX 26 97 28 98 29 99
REMARK H PARENT 90 22 58 33 21 80
REMARK Flexibility Score: inf
ROOT
ATOM      1  C   UNL A   1      37.692  23.577  26.596  1.00  0.00     0.275 C 
ENDROOT
BRANCH   1   2
ATOM      2  O   UNL A   1      38.979  23.049  26.209  1.00  0.00    -0.458 OA
BRANCH   2   3
ATOM      3  C   UNL A   1      40.095  23.111  27.003  1.00  0.00     0.338 C 
ATOM      4  O   UNL A   1      40.414  22.245  27.771  1.00  0.00    -0.246 OA
BRANCH   3   5
ATOM      5  C   UNL A   1      40.721  24.448  27.036  1.00  0.00     0.060 A 
ATOM      6  C   UNL A   1      41.565  24.632  28.108  1.00  0.00     0.016 A 
ATOM      7  C   UNL A   1      40.297  25.531  26.271  1.00  0.00     0.016 A 
ATOM      8  C   UNL A   1      41.763  25.904  28.593  1.00  0.00     0.010 A 
ATOM      9  C   UNL A   1      40.547  26.827  26.745  1.00  0.00     0.010 A 
ATOM     10  C   UNL A   1      41.176  27.003  27.981  1.00  0.00    -0.014 A 
BRANCH  10  11
ATOM     11  C   UNL A   1      41.260  28.246  28.773  1.00  0.00     0.031 A 
ATOM     12  C   UNL A   1      42.368  29.190  28.406  1.00  0.00     0.074 A 
ATOM     13  C   UNL A   1      40.446  28.510  29.816  1.00  0.00     0.049 A 
ATOM     14  N   UNL A   1      43.253  29.741  29.186  1.00  0.00    -0.248 NA
ATOM     15  C   UNL A   1      42.612  29.410  26.968  1.00  0.00     0.031 C 
ATOM     16  C   UNL A   1      39.287  27.720  30.233  1.00  0.00     0.029 A 
ATOM     17  N   UNL A   1      40.378  29.624  30.618  1.00  0.00    -0.354 N 
ATOM     18  C   UNL A   1      44.025  30.542  28.347  1.00  0.00     0.074 A 
ATOM     19  C   UNL A   1      43.708  30.165  26.990  1.00  0.00     0.031 C 
ATOM     20  C   UNL A   1      38.463  28.509  30.946  1.00  0.00     0.029 A 
ATOM     21  C   UNL A   1      39.087  29.810  31.108  1.00  0.00     0.049 A 
ATOM     22  H   UNL A   1      41.139  30.213  30.821  1.00  0.00     0.167 HD
ATOM     23  C   UNL A   1      44.659  31.672  28.759  1.00  0.00     0.034 A 
ATOM     24  C   UNL A   1      38.508  30.986  31.442  1.00  0.00     0.034 A 
ATOM     25  C   UNL A   1      44.840  31.788  30.168  1.00  0.00     0.049 A 
ATOM     26  C   UNL A   1      39.557  31.960  31.810  1.00  0.00     0.074 A 
ATOM     27  C   UNL A   1      45.773  31.431  31.113  1.00  0.00     0.029 A 
ATOM     28  N   UNL A   1      43.751  32.277  30.828  1.00  0.00    -0.354 N 
ATOM     29  N   UNL A   1      40.287  31.875  32.886  1.00  0.00    -0.248 NA
ATOM     30  C   UNL A   1      39.971  32.980  30.852  1.00  0.00     0.031 C 
ATOM     31  C   UNL A   1      45.150  31.620  32.383  1.00  0.00     0.029 A 
ATOM     32  C   UNL A   1      43.847  32.067  32.176  1.00  0.00     0.049 A 
ATOM     33  H   UNL A   1      42.990  32.724  30.389  1.00  0.00     0.167 HD
ATOM     34  C   UNL A   1      41.457  32.528  32.554  1.00  0.00     0.074 A 
ATOM     35  C   UNL A   1      41.135  33.341  31.394  1.00  0.00     0.031 C 
ATOM     36  C   UNL A   1      42.662  32.084  33.009  1.00  0.00     0.034 A 
BRANCH  23  37
ATOM     37  C   UNL A   1      44.683  32.898  27.884  1.00  0.00     0.023 A 
ATOM     38  C   UNL A   1      45.760  33.123  27.009  1.00  0.00     0.012 A 
ATOM     39  C   UNL A   1      43.781  33.967  28.092  1.00  0.00     0.148 A 
ATOM     40  C   UNL A   1      45.894  34.343  26.331  1.00  0.00     0.002 A 
ATOM     41  C   UNL A   1      43.858  35.131  27.344  1.00  0.00     0.091 A 
ATOM     42  F   UNL A   1      42.913  33.909  29.113  1.00  0.00    -0.205 F 
ATOM     43  C   UNL A   1      44.925  35.335  26.472  1.00  0.00     0.022 A 
BRANCH  41  44
ATOM     44  S   UNL A   1      42.552  36.354  27.455  1.00  0.00     0.127 S 
ATOM     45  O   UNL A   1      41.375  35.567  27.101  1.00  0.00    -0.237 OA
ATOM     46  O   UNL A   1      42.629  36.762  28.859  1.00  0.00    -0.237 OA
ATOM     47  O   UNL A   1      42.949  37.395  26.515  1.00  0.00    -0.744 OA
ENDBRANCH  41  44
ENDBRANCH  23  37
BRANCH  24  48
ATOM     48  C   UNL A   1      37.100  31.405  31.218  1.00  0.00     0.023 A 
ATOM     49  C   UNL A   1      36.330  31.822  32.323  1.00  0.00     0.012 A 
ATOM     50  C   UNL A   1      36.581  31.651  29.926  1.00  0.00     0.148 A 
ATOM     51  C   UNL A   1      35.117  32.496  32.146  1.00  0.00     0.002 A 
ATOM     52  C   UNL A   1      35.355  32.283  29.756  1.00  0.00     0.091 A 
ATOM     53  F   UNL A   1      37.326  31.369  28.849  1.00  0.00    -0.205 F 
ATOM     54  C   UNL A   1      34.628  32.728  30.864  1.00  0.00     0.022 A 
BRANCH  52  55
ATOM     55  S   UNL A   1      34.681  32.566  28.114  1.00  0.00     0.127 S 
ATOM     56  O   UNL A   1      33.399  33.205  28.408  1.00  0.00    -0.237 OA
ATOM     57  O   UNL A   1      35.684  33.443  27.519  1.00  0.00    -0.237 OA
ATOM     58  O   UNL A   1      34.558  31.239  27.520  1.00  0.00    -0.744 OA
ENDBRANCH  52  55
ENDBRANCH  24  48
BRANCH  36  59
ATOM     59  C   UNL A   1      42.699  31.326  34.302  1.00  0.00     0.023 A 
ATOM     60  C   UNL A   1      42.795  31.975  35.549  1.00  0.00     0.012 A 
ATOM     61  C   UNL A   1      42.527  29.931  34.269  1.00  0.00     0.148 A 
ATOM     62  C   UNL A   1      42.729  31.247  36.738  1.00  0.00     0.002 A 
ATOM     63  C   UNL A   1      42.423  29.215  35.455  1.00  0.00     0.091 A 
ATOM     64  F   UNL A   1      42.430  29.332  33.072  1.00  0.00    -0.205 F 
ATOM     65  C   UNL A   1      42.533  29.870  36.692  1.00  0.00     0.022 A 
BRANCH  63  66
ATOM     66  S   UNL A   1      42.077  27.455  35.485  1.00  0.00     0.127 S 
ATOM     67  O   UNL A   1      40.900  27.359  34.624  1.00  0.00    -0.237 OA
ATOM     68  O   UNL A   1      43.303  26.898  34.915  1.00  0.00    -0.237 OA
ATOM     69  O   UNL A   1      41.845  27.109  36.883  1.00  0.00    -0.744 OA
ENDBRANCH  63  66
ENDBRANCH  36  59
ENDBRANCH  10  11
ENDBRANCH   3   5
ENDBRANCH   2   3
ENDBRANCH   1   2
BRANCH   1  70
ATOM     70  C   UNL A   1      36.735  23.960  25.449  1.00  0.00     0.274 C 
BRANCH  70  71
ATOM     71  O   UNL A   1      35.839  22.943  24.938  1.00  0.00    -0.460 OA
BRANCH  71  72
ATOM     72  C   UNL A   1      35.227  23.233  23.763  1.00  0.00     0.332 C 
ATOM     73  O   UNL A   1      35.869  23.431  22.731  1.00  0.00    -0.249 OA
BRANCH  72  74
ATOM     74  C   UNL A   1      33.682  23.476  23.834  1.00  0.00     0.154 C 
ATOM     75  C   UNL A   1      32.793  23.382  25.104  1.00  0.00     0.102 C 
ATOM     76  C   UNL A   1      33.069  22.402  22.879  1.00  0.00     0.102 C 
ATOM     77  C   UNL A   1      32.335  22.020  25.638  1.00  0.00     0.265 C 
ATOM     78  C   UNL A   1      33.100  20.993  23.513  1.00  0.00     0.265 C 
ATOM     79  N   UNL A   1      32.258  20.930  24.692  1.00  0.00    -0.331 N 
ATOM     80  H   UNL A   1      31.367  21.118  24.233  1.00  0.00     0.348 HD
BRANCH  74  81
ATOM     81  N   UNL A   1      33.533  24.882  23.366  1.00  0.00    -0.313 N 
ATOM     82  C   UNL A   1      33.186  25.298  22.110  1.00  0.00     0.201 A 
ATOM     83  C   UNL A   1      33.655  26.020  24.157  1.00  0.00     0.069 A 
ATOM     84  N   UNL A   1      33.017  26.599  22.048  1.00  0.00    -0.237 NA
ATOM     85  C   UNL A   1      33.281  27.065  23.313  1.00  0.00     0.088 A 
ATOM     86  C   UNL A   1      34.003  26.250  25.500  1.00  0.00     0.028 A 
ATOM     87  C   UNL A   1      33.213  28.375  23.820  1.00  0.00     0.030 A 
ATOM     88  C   UNL A   1      33.903  27.553  25.993  1.00  0.00     0.002 A 
ATOM     89  C   UNL A   1      33.511  28.603  25.169  1.00  0.00     0.002 A 
ENDBRANCH  74  81
BRANCH  79  90
ATOM     90  C   UNL A   1      32.041  19.601  25.296  1.00  0.00     0.301 C 
BRANCH  90  91
ATOM     91  C   UNL A   1      33.061  18.509  25.061  1.00  0.00     0.038 A 
ATOM     92  C   UNL A   1      34.428  18.770  24.760  1.00  0.00     0.012 A 
ATOM     93  C   UNL A   1      32.806  17.124  25.224  1.00  0.00     0.144 A 
ATOM     94  C   UNL A   1      35.419  17.763  24.554  1.00  0.00     0.003 A 
ATOM     95  C   UNL A   1      33.830  16.093  25.042  1.00  0.00     0.135 A 
ATOM     96  N   UNL A   1      31.669  16.510  25.582  1.00  0.00    -0.049 NA
ATOM     97  C   UNL A   1      35.154  16.391  24.675  1.00  0.00     0.034 A 
ATOM     98  N   UNL A   1      33.279  14.900  25.296  1.00  0.00    -0.050 NA
ATOM     99  O   UNL A   1      31.954  15.156  25.597  1.00  0.00    -0.243 OA
ENDBRANCH  90  91
ENDBRANCH  79  90
ENDBRANCH  72  74
ENDBRANCH  71  72
ENDBRANCH  70  71
ENDBRANCH   1  70
TORSDOF 17
ENDMDL
