MODEL 1
REMARK VINA RESULT:     -12.6      0.000      0.000
REMARK SMILES O=C(OCCOC(=O)[C@H]1CC(=O)N(Cc2ccc(OCc3ccccc3)cc2)C1)c1ccc(-c2c3nc(c(-c4cccc(S(=O)(=O)[O-])c4F)c4ccc([nH]4)c(-c4cccc(S(=O)(=O)[O-])c4F)c4nc(c(-c5cccc(S(=O)(=O)[O-])c5F)c5ccc2[nH]5)C=C4)C=C3)cc1
REMARK SMILES IDX 5 1 4 2 3 3 2 4 1 5 30 6 31 7 92 8 32 9 91 10 33 11 34 12
REMARK SMILES IDX 35 13 85 14 36 15 90 16 84 17 86 18 37 19 89 20 83 21 82 22
REMARK SMILES IDX 38 24 70 25 50 26 69 27 51 28 54 29 68 30 87 31 52 32 53 33
REMARK SMILES IDX 67 35 88 36 55 37 39 38 40 39 48 40 41 41 43 42 49 43 42 44
REMARK SMILES IDX 44 45 45 46 46 47 47 48 71 49 72 50 80 51 73 52 75 53 81 54
REMARK SMILES IDX 74 55 76 56 77 57 78 58 79 59 56 60 57 61 65 62 58 63 60 64
REMARK SMILES IDX 66 65 59 66 61 67 62 68 63 69 64 70 6 71 7 72 8 73 9 74
REMARK SMILES IDX 10 75 29 76 11 77 13 78 12 79 14 80 15 81 16 82 28 83 17 84
REMARK SMILES IDX 27 85 18 86 19 87 20 88 21 89 22 90 26 91 23 92 25 93 24 94
REMARK H PARENT 86 23 54 34
REMARK Flexibility Score: inf
ROOT
ATOM      1  C   UNL A   1      32.606  31.228  27.126  1.00  0.00     0.274 C 
ENDROOT
BRANCH   1   2
ATOM      2  C   UNL A   1      31.654  32.422  27.105  1.00  0.00     0.275 C 
BRANCH   2   3
ATOM      3  O   UNL A   1      32.307  33.690  27.264  1.00  0.00    -0.458 OA
BRANCH   3   4
ATOM      4  C   UNL A   1      32.967  34.222  28.320  1.00  0.00     0.338 C 
ATOM      5  O   UNL A   1      32.560  35.302  28.747  1.00  0.00    -0.246 OA
BRANCH   4   6
ATOM      6  C   UNL A   1      34.204  33.644  28.961  1.00  0.00     0.060 A 
ATOM      7  C   UNL A   1      34.263  32.704  29.993  1.00  0.00     0.016 A 
ATOM      8  C   UNL A   1      35.432  34.035  28.388  1.00  0.00     0.016 A 
ATOM      9  C   UNL A   1      35.483  32.125  30.389  1.00  0.00     0.010 A 
ATOM     10  C   UNL A   1      36.638  33.400  28.731  1.00  0.00     0.010 A 
ATOM     11  C   UNL A   1      36.679  32.432  29.743  1.00  0.00    -0.014 A 
BRANCH  11  12
ATOM     12  C   UNL A   1      37.973  31.883  30.241  1.00  0.00     0.031 A 
ATOM     13  C   UNL A   1      38.398  32.247  31.624  1.00  0.00     0.074 A 
ATOM     14  C   UNL A   1      38.699  30.933  29.614  1.00  0.00     0.049 A 
ATOM     15  N   UNL A   1      39.289  31.649  32.368  1.00  0.00    -0.248 NA
ATOM     16  C   UNL A   1      37.658  33.322  32.301  1.00  0.00     0.031 C 
ATOM     17  C   UNL A   1      38.243  30.187  28.453  1.00  0.00     0.029 A 
ATOM     18  N   UNL A   1      39.928  30.361  29.909  1.00  0.00    -0.354 N 
ATOM     19  C   UNL A   1      39.192  32.242  33.606  1.00  0.00     0.074 A 
ATOM     20  C   UNL A   1      38.190  33.282  33.510  1.00  0.00     0.031 C 
ATOM     21  C   UNL A   1      39.173  29.265  28.161  1.00  0.00     0.029 A 
ATOM     22  C   UNL A   1      40.340  29.415  28.992  1.00  0.00     0.049 A 
ATOM     23  H   UNL A   1      40.458  30.608  30.701  1.00  0.00     0.167 HD
ATOM     24  C   UNL A   1      39.852  31.925  34.739  1.00  0.00     0.034 A 
ATOM     25  C   UNL A   1      41.472  28.690  28.839  1.00  0.00     0.034 A 
ATOM     26  C   UNL A   1      40.881  30.933  34.843  1.00  0.00     0.049 A 
ATOM     27  C   UNL A   1      42.342  28.560  30.044  1.00  0.00     0.074 A 
ATOM     28  C   UNL A   1      41.635  30.603  35.954  1.00  0.00     0.029 A 
ATOM     29  N   UNL A   1      41.348  30.154  33.795  1.00  0.00    -0.354 N 
ATOM     30  N   UNL A   1      42.122  29.025  31.244  1.00  0.00    -0.248 NA
ATOM     31  C   UNL A   1      43.488  27.646  29.938  1.00  0.00     0.031 C 
ATOM     32  C   UNL A   1      42.609  29.680  35.562  1.00  0.00     0.029 A 
ATOM     33  C   UNL A   1      42.423  29.391  34.222  1.00  0.00     0.049 A 
ATOM     34  H   UNL A   1      40.973  30.145  32.884  1.00  0.00     0.167 HD
ATOM     35  C   UNL A   1      43.016  28.361  32.061  1.00  0.00     0.074 A 
ATOM     36  C   UNL A   1      43.772  27.458  31.217  1.00  0.00     0.031 C 
ATOM     37  C   UNL A   1      43.170  28.480  33.398  1.00  0.00     0.034 A 
BRANCH  24  38
ATOM     38  C   UNL A   1      39.524  32.775  35.922  1.00  0.00     0.023 A 
ATOM     39  C   UNL A   1      40.200  33.990  36.150  1.00  0.00     0.012 A 
ATOM     40  C   UNL A   1      38.600  32.291  36.862  1.00  0.00     0.148 A 
ATOM     41  C   UNL A   1      39.994  34.688  37.338  1.00  0.00     0.002 A 
ATOM     42  C   UNL A   1      38.366  33.015  38.016  1.00  0.00     0.091 A 
ATOM     43  F   UNL A   1      38.012  31.110  36.627  1.00  0.00    -0.205 F 
ATOM     44  C   UNL A   1      39.074  34.203  38.266  1.00  0.00     0.022 A 
BRANCH  42  45
ATOM     45  S   UNL A   1      37.167  32.490  39.239  1.00  0.00     0.127 S 
ATOM     46  O   UNL A   1      37.340  33.507  40.275  1.00  0.00    -0.237 OA
ATOM     47  O   UNL A   1      35.915  32.584  38.489  1.00  0.00    -0.237 OA
ATOM     48  O   UNL A   1      37.548  31.139  39.627  1.00  0.00    -0.744 OA
ENDBRANCH  42  45
ENDBRANCH  24  38
BRANCH  25  49
ATOM     49  C   UNL A   1      41.783  27.831  27.643  1.00  0.00     0.023 A 
ATOM     50  C   UNL A   1      42.265  28.428  26.456  1.00  0.00     0.012 A 
ATOM     51  C   UNL A   1      41.528  26.442  27.637  1.00  0.00     0.148 A 
ATOM     52  C   UNL A   1      42.475  27.671  25.295  1.00  0.00     0.002 A 
ATOM     53  C   UNL A   1      41.822  25.676  26.501  1.00  0.00     0.091 A 
ATOM     54  F   UNL A   1      41.024  25.881  28.744  1.00  0.00    -0.205 F 
ATOM     55  C   UNL A   1      42.273  26.293  25.322  1.00  0.00     0.022 A 
BRANCH  53  56
ATOM     56  S   UNL A   1      41.904  23.871  26.545  1.00  0.00     0.127 S 
ATOM     57  O   UNL A   1      42.635  23.624  27.783  1.00  0.00    -0.237 OA
ATOM     58  O   UNL A   1      40.488  23.503  26.582  1.00  0.00    -0.237 OA
ATOM     59  O   UNL A   1      42.583  23.485  25.314  1.00  0.00    -0.744 OA
ENDBRANCH  53  56
ENDBRANCH  25  49
BRANCH  37  60
ATOM     60  C   UNL A   1      44.206  27.600  34.033  1.00  0.00     0.023 A 
ATOM     61  C   UNL A   1      45.563  27.987  34.011  1.00  0.00     0.012 A 
ATOM     62  C   UNL A   1      43.837  26.391  34.649  1.00  0.00     0.148 A 
ATOM     63  C   UNL A   1      46.545  27.146  34.526  1.00  0.00     0.002 A 
ATOM     64  C   UNL A   1      44.814  25.595  35.228  1.00  0.00     0.091 A 
ATOM     65  F   UNL A   1      42.545  26.032  34.637  1.00  0.00    -0.205 F 
ATOM     66  C   UNL A   1      46.169  25.957  35.145  1.00  0.00     0.022 A 
BRANCH  64  67
ATOM     67  S   UNL A   1      44.422  24.108  36.149  1.00  0.00     0.127 S 
ATOM     68  O   UNL A   1      45.749  23.644  36.548  1.00  0.00    -0.237 OA
ATOM     69  O   UNL A   1      43.604  24.637  37.242  1.00  0.00    -0.237 OA
ATOM     70  O   UNL A   1      43.710  23.234  35.226  1.00  0.00    -0.744 OA
ENDBRANCH  64  67
ENDBRANCH  37  60
ENDBRANCH  11  12
ENDBRANCH   4   6
ENDBRANCH   3   4
ENDBRANCH   2   3
ENDBRANCH   1   2
BRANCH   1  71
ATOM     71  O   UNL A   1      31.959  29.972  26.867  1.00  0.00    -0.462 OA
BRANCH  71  72
ATOM     72  C   UNL A   1      32.573  29.147  25.970  1.00  0.00     0.311 C 
ATOM     73  O   UNL A   1      33.786  29.011  25.875  1.00  0.00    -0.252 OA
BRANCH  72  74
ATOM     74  C   UNL A   1      31.599  28.476  25.027  1.00  0.00     0.128 C 
ATOM     75  C   UNL A   1      30.869  29.394  24.075  1.00  0.00     0.117 C 
ATOM     76  C   UNL A   1      32.347  27.548  24.103  1.00  0.00     0.135 C 
ATOM     77  C   UNL A   1      30.684  28.564  22.826  1.00  0.00     0.223 C 
ATOM     78  N   UNL A   1      31.600  27.521  22.888  1.00  0.00    -0.337 N 
ATOM     79  O   UNL A   1      29.889  28.823  21.947  1.00  0.00    -0.275 OA
BRANCH  78  80
ATOM     80  C   UNL A   1      31.717  26.453  21.898  1.00  0.00     0.155 C 
BRANCH  80  81
ATOM     81  C   UNL A   1      31.790  25.014  22.397  1.00  0.00    -0.028 A 
ATOM     82  C   UNL A   1      32.932  24.309  22.045  1.00  0.00     0.009 A 
ATOM     83  C   UNL A   1      30.868  24.304  23.182  1.00  0.00     0.009 A 
ATOM     84  C   UNL A   1      33.259  23.119  22.700  1.00  0.00     0.047 A 
ATOM     85  C   UNL A   1      31.225  23.133  23.883  1.00  0.00     0.047 A 
ATOM     86  C   UNL A   1      32.504  22.644  23.758  1.00  0.00     0.119 A 
BRANCH  86  87
ATOM     87  O   UNL A   1      33.203  21.869  24.628  1.00  0.00    -0.489 OA
BRANCH  87  88
ATOM     88  C   UNL A   1      32.787  20.567  25.027  1.00  0.00     0.265 C 
BRANCH  88  89
ATOM     89  C   UNL A   1      33.304  19.302  24.351  1.00  0.00    -0.011 A 
ATOM     90  C   UNL A   1      34.512  18.672  24.656  1.00  0.00     0.007 A 
ATOM     91  C   UNL A   1      32.455  18.662  23.423  1.00  0.00     0.007 A 
ATOM     92  C   UNL A   1      34.815  17.407  24.140  1.00  0.00     0.000 A 
ATOM     93  C   UNL A   1      32.779  17.418  22.874  1.00  0.00     0.000 A 
ATOM     94  C   UNL A   1      33.950  16.775  23.254  1.00  0.00     0.000 A 
ENDBRANCH  88  89
ENDBRANCH  87  88
ENDBRANCH  86  87
ENDBRANCH  80  81
ENDBRANCH  78  80
ENDBRANCH  72  74
ENDBRANCH  71  72
ENDBRANCH   1  71
TORSDOF 19
ENDMDL
MODEL 2
REMARK VINA RESULT:     -12.0      5.054     10.739
REMARK SMILES O=C(OCCOC(=O)[C@H]1CC(=O)N(Cc2ccc(OCc3ccccc3)cc2)C1)c1ccc(-c2c3nc(c(-c4cccc(S(=O)(=O)[O-])c4F)c4ccc([nH]4)c(-c4cccc(S(=O)(=O)[O-])c4F)c4nc(c(-c5cccc(S(=O)(=O)[O-])c5F)c5ccc2[nH]5)C=C4)C=C3)cc1
REMARK SMILES IDX 5 1 4 2 3 3 2 4 1 5 30 6 31 7 92 8 32 9 91 10 33 11 34 12
REMARK SMILES IDX 35 13 85 14 36 15 90 16 84 17 86 18 37 19 89 20 83 21 82 22
REMARK SMILES IDX 38 24 70 25 50 26 69 27 51 28 54 29 68 30 87 31 52 32 53 33
REMARK SMILES IDX 67 35 88 36 55 37 39 38 40 39 48 40 41 41 43 42 49 43 42 44
REMARK SMILES IDX 44 45 45 46 46 47 47 48 71 49 72 50 80 51 73 52 75 53 81 54
REMARK SMILES IDX 74 55 76 56 77 57 78 58 79 59 56 60 57 61 65 62 58 63 60 64
REMARK SMILES IDX 66 65 59 66 61 67 62 68 63 69 64 70 6 71 7 72 8 73 9 74
REMARK SMILES IDX 10 75 29 76 11 77 13 78 12 79 14 80 15 81 16 82 28 83 17 84
REMARK SMILES IDX 27 85 18 86 19 87 20 88 21 89 22 90 26 91 23 92 25 93 24 94
REMARK H PARENT 86 23 54 34
REMARK Flexibility Score: inf
ROOT
ATOM      1  C   UNL A   1      37.367  21.040  25.410  1.00  0.00     0.274 C 
ENDROOT
BRANCH   1   2
ATOM      2  C   UNL A   1      38.156  19.837  24.897  1.00  0.00     0.275 C 
BRANCH   2   3
ATOM      3  O   UNL A   1      39.148  19.357  25.815  1.00  0.00    -0.458 OA
BRANCH   3   4
ATOM      4  C   UNL A   1      40.410  19.780  26.059  1.00  0.00     0.338 C 
ATOM      5  O   UNL A   1      41.321  18.981  25.836  1.00  0.00    -0.246 OA
BRANCH   4   6
ATOM      6  C   UNL A   1      40.788  21.114  26.653  1.00  0.00     0.060 A 
ATOM      7  C   UNL A   1      41.120  21.386  27.982  1.00  0.00     0.016 A 
ATOM      8  C   UNL A   1      40.904  22.182  25.738  1.00  0.00     0.016 A 
ATOM      9  C   UNL A   1      41.612  22.645  28.372  1.00  0.00     0.010 A 
ATOM     10  C   UNL A   1      41.469  23.413  26.115  1.00  0.00     0.010 A 
ATOM     11  C   UNL A   1      41.831  23.661  27.444  1.00  0.00    -0.014 A 
BRANCH  11  12
ATOM     12  C   UNL A   1      42.261  25.018  27.892  1.00  0.00     0.031 A 
ATOM     13  C   UNL A   1      43.635  25.470  27.525  1.00  0.00     0.074 A 
ATOM     14  C   UNL A   1      41.444  25.943  28.440  1.00  0.00     0.049 A 
ATOM     15  N   UNL A   1      44.097  26.691  27.519  1.00  0.00    -0.248 NA
ATOM     16  C   UNL A   1      44.559  24.463  26.983  1.00  0.00     0.031 C 
ATOM     17  C   UNL A   1      39.999  25.816  28.517  1.00  0.00     0.029 A 
ATOM     18  N   UNL A   1      41.690  27.209  28.951  1.00  0.00    -0.354 N 
ATOM     19  C   UNL A   1      45.344  26.609  26.940  1.00  0.00     0.074 A 
ATOM     20  C   UNL A   1      45.594  25.214  26.648  1.00  0.00     0.031 C 
ATOM     21  C   UNL A   1      39.509  26.957  29.026  1.00  0.00     0.029 A 
ATOM     22  C   UNL A   1      40.567  27.842  29.442  1.00  0.00     0.049 A 
ATOM     23  H   UNL A   1      42.585  27.618  28.963  1.00  0.00     0.167 HD
ATOM     24  C   UNL A   1      46.194  27.612  26.642  1.00  0.00     0.034 A 
ATOM     25  C   UNL A   1      40.358  29.012  30.089  1.00  0.00     0.034 A 
ATOM     26  C   UNL A   1      45.987  28.993  26.968  1.00  0.00     0.049 A 
ATOM     27  C   UNL A   1      41.437  30.035  29.969  1.00  0.00     0.074 A 
ATOM     28  C   UNL A   1      46.841  30.056  26.745  1.00  0.00     0.029 A 
ATOM     29  N   UNL A   1      44.882  29.498  27.636  1.00  0.00    -0.354 N 
ATOM     30  N   UNL A   1      42.542  29.957  29.277  1.00  0.00    -0.248 NA
ATOM     31  C   UNL A   1      41.155  31.364  30.530  1.00  0.00     0.031 C 
ATOM     32  C   UNL A   1      46.291  31.192  27.345  1.00  0.00     0.029 A 
ATOM     33  C   UNL A   1      45.066  30.849  27.888  1.00  0.00     0.049 A 
ATOM     34  H   UNL A   1      44.087  28.976  27.893  1.00  0.00     0.167 HD
ATOM     35  C   UNL A   1      43.020  31.250  29.207  1.00  0.00     0.074 A 
ATOM     36  C   UNL A   1      42.079  32.090  29.920  1.00  0.00     0.031 C 
ATOM     37  C   UNL A   1      44.132  31.695  28.580  1.00  0.00     0.034 A 
BRANCH  24  38
ATOM     38  C   UNL A   1      47.484  27.185  26.022  1.00  0.00     0.023 A 
ATOM     39  C   UNL A   1      47.688  27.294  24.632  1.00  0.00     0.012 A 
ATOM     40  C   UNL A   1      48.452  26.575  26.835  1.00  0.00     0.148 A 
ATOM     41  C   UNL A   1      48.831  26.747  24.052  1.00  0.00     0.002 A 
ATOM     42  C   UNL A   1      49.605  26.077  26.257  1.00  0.00     0.091 A 
ATOM     43  F   UNL A   1      48.198  26.452  28.145  1.00  0.00    -0.205 F 
ATOM     44  C   UNL A   1      49.789  26.143  24.866  1.00  0.00     0.022 A 
BRANCH  42  45
ATOM     45  S   UNL A   1      50.908  25.330  27.232  1.00  0.00     0.127 S 
ATOM     46  O   UNL A   1      50.209  24.200  27.842  1.00  0.00    -0.237 OA
ATOM     47  O   UNL A   1      51.880  24.966  26.202  1.00  0.00    -0.237 OA
ATOM     48  O   UNL A   1      51.359  26.356  28.163  1.00  0.00    -0.744 OA
ENDBRANCH  42  45
ENDBRANCH  24  38
BRANCH  25  49
ATOM     49  C   UNL A   1      39.049  29.430  30.701  1.00  0.00     0.023 A 
ATOM     50  C   UNL A   1      38.710  28.993  32.002  1.00  0.00     0.012 A 
ATOM     51  C   UNL A   1      38.098  30.185  29.981  1.00  0.00     0.148 A 
ATOM     52  C   UNL A   1      37.461  29.285  32.565  1.00  0.00     0.002 A 
ATOM     53  C   UNL A   1      36.884  30.548  30.582  1.00  0.00     0.091 A 
ATOM     54  F   UNL A   1      38.394  30.559  28.730  1.00  0.00    -0.205 F 
ATOM     55  C   UNL A   1      36.555  30.078  31.864  1.00  0.00     0.022 A 
BRANCH  53  56
ATOM     56  S   UNL A   1      35.806  31.825  29.893  1.00  0.00     0.127 S 
ATOM     57  O   UNL A   1      35.261  31.166  28.711  1.00  0.00    -0.237 OA
ATOM     58  O   UNL A   1      34.848  32.032  30.979  1.00  0.00    -0.237 OA
ATOM     59  O   UNL A   1      36.674  32.969  29.644  1.00  0.00    -0.744 OA
ENDBRANCH  53  56
ENDBRANCH  25  49
BRANCH  37  60
ATOM     60  C   UNL A   1      44.389  33.171  28.641  1.00  0.00     0.023 A 
ATOM     61  C   UNL A   1      43.918  34.008  27.608  1.00  0.00     0.012 A 
ATOM     62  C   UNL A   1      45.099  33.729  29.719  1.00  0.00     0.148 A 
ATOM     63  C   UNL A   1      44.215  35.368  27.610  1.00  0.00     0.002 A 
ATOM     64  C   UNL A   1      45.325  35.096  29.752  1.00  0.00     0.091 A 
ATOM     65  F   UNL A   1      45.558  32.912  30.678  1.00  0.00    -0.205 F 
ATOM     66  C   UNL A   1      44.907  35.913  28.688  1.00  0.00     0.022 A 
BRANCH  64  67
ATOM     67  S   UNL A   1      46.101  35.911  31.149  1.00  0.00     0.127 S 
ATOM     68  O   UNL A   1      45.124  35.681  32.211  1.00  0.00    -0.237 OA
ATOM     69  O   UNL A   1      47.345  35.152  31.287  1.00  0.00    -0.237 OA
ATOM     70  O   UNL A   1      46.279  37.303  30.759  1.00  0.00    -0.744 OA
ENDBRANCH  64  67
ENDBRANCH  37  60
ENDBRANCH  11  12
ENDBRANCH   4   6
ENDBRANCH   3   4
ENDBRANCH   2   3
ENDBRANCH   1   2
BRANCH   1  71
ATOM     71  O   UNL A   1      37.392  22.167  24.520  1.00  0.00    -0.462 OA
BRANCH  71  72
ATOM     72  C   UNL A   1      36.861  23.329  24.998  1.00  0.00     0.311 C 
ATOM     73  O   UNL A   1      37.244  23.898  26.012  1.00  0.00    -0.252 OA
BRANCH  72  74
ATOM     74  C   UNL A   1      35.673  23.807  24.193  1.00  0.00     0.128 C 
ATOM     75  C   UNL A   1      35.317  22.969  22.987  1.00  0.00     0.117 C 
ATOM     76  C   UNL A   1      34.427  23.736  25.039  1.00  0.00     0.135 C 
ATOM     77  C   UNL A   1      33.813  23.074  22.890  1.00  0.00     0.223 C 
ATOM     78  N   UNL A   1      33.352  23.494  24.132  1.00  0.00    -0.337 N 
ATOM     79  O   UNL A   1      33.174  22.800  21.897  1.00  0.00    -0.275 OA
BRANCH  78  80
ATOM     80  C   UNL A   1      31.954  23.773  24.452  1.00  0.00     0.155 C 
BRANCH  80  81
ATOM     81  C   UNL A   1      31.285  24.963  23.773  1.00  0.00    -0.028 A 
ATOM     82  C   UNL A   1      30.098  25.398  24.347  1.00  0.00     0.009 A 
ATOM     83  C   UNL A   1      31.710  25.697  22.654  1.00  0.00     0.009 A 
ATOM     84  C   UNL A   1      29.573  26.652  24.024  1.00  0.00     0.047 A 
ATOM     85  C   UNL A   1      31.212  26.984  22.368  1.00  0.00     0.047 A 
ATOM     86  C   UNL A   1      30.245  27.523  23.184  1.00  0.00     0.119 A 
BRANCH  86  87
ATOM     87  O   UNL A   1      29.957  28.832  23.406  1.00  0.00    -0.489 OA
BRANCH  87  88
ATOM     88  C   UNL A   1      30.730  29.671  24.258  1.00  0.00     0.265 C 
BRANCH  88  89
ATOM     89  C   UNL A   1      31.833  29.126  25.159  1.00  0.00    -0.011 A 
ATOM     90  C   UNL A   1      33.168  28.974  24.781  1.00  0.00     0.007 A 
ATOM     91  C   UNL A   1      31.504  28.852  26.503  1.00  0.00     0.007 A 
ATOM     92  C   UNL A   1      34.153  28.665  25.725  1.00  0.00     0.000 A 
ATOM     93  C   UNL A   1      32.483  28.501  27.438  1.00  0.00     0.000 A 
ATOM     94  C   UNL A   1      33.815  28.432  27.054  1.00  0.00     0.000 A 
ENDBRANCH  88  89
ENDBRANCH  87  88
ENDBRANCH  86  87
ENDBRANCH  80  81
ENDBRANCH  78  80
ENDBRANCH  72  74
ENDBRANCH  71  72
ENDBRANCH   1  71
TORSDOF 19
ENDMDL
MODEL 3
REMARK VINA RESULT:     -11.8      5.064     11.112
REMARK SMILES O=C(OCCOC(=O)[C@H]1CC(=O)N(Cc2ccc(OCc3ccccc3)cc2)C1)c1ccc(-c2c3nc(c(-c4cccc(S(=O)(=O)[O-])c4F)c4ccc([nH]4)c(-c4cccc(S(=O)(=O)[O-])c4F)c4nc(c(-c5cccc(S(=O)(=O)[O-])c5F)c5ccc2[nH]5)C=C4)C=C3)cc1
REMARK SMILES IDX 5 1 4 2 3 3 2 4 1 5 30 6 31 7 92 8 32 9 91 10 33 11 34 12
REMARK SMILES IDX 35 13 85 14 36 15 90 16 84 17 86 18 37 19 89 20 83 21 82 22
REMARK SMILES IDX 38 24 70 25 50 26 69 27 51 28 54 29 68 30 87 31 52 32 53 33
REMARK SMILES IDX 67 35 88 36 55 37 39 38 40 39 48 40 41 41 43 42 49 43 42 44
REMARK SMILES IDX 44 45 45 46 46 47 47 48 71 49 72 50 80 51 73 52 75 53 81 54
REMARK SMILES IDX 74 55 76 56 77 57 78 58 79 59 56 60 57 61 65 62 58 63 60 64
REMARK SMILES IDX 66 65 59 66 61 67 62 68 63 69 64 70 6 71 7 72 8 73 9 74
REMARK SMILES IDX 10 75 29 76 11 77 13 78 12 79 14 80 15 81 16 82 28 83 17 84
REMARK SMILES IDX 27 85 18 86 19 87 20 88 21 89 22 90 26 91 23 92 25 93 24 94
REMARK H PARENT 86 23 54 34
REMARK Flexibility Score: inf
ROOT
ATOM      1  C   UNL A   1      37.943  21.229  25.367  1.00  0.00     0.274 C 
ENDROOT
BRANCH   1   2
ATOM      2  C   UNL A   1      38.465  19.804  25.196  1.00  0.00     0.275 C 
BRANCH   2   3
ATOM      3  O   UNL A   1      39.573  19.484  26.049  1.00  0.00    -0.458 OA
BRANCH   3   4
ATOM      4  C   UNL A   1      40.873  19.860  25.993  1.00  0.00     0.338 C 
ATOM      5  O   UNL A   1      41.686  19.009  25.632  1.00  0.00    -0.246 OA
BRANCH   4   6
ATOM      6  C   UNL A   1      41.415  21.204  26.412  1.00  0.00     0.060 A 
ATOM      7  C   UNL A   1      41.930  22.205  25.586  1.00  0.00     0.016 A 
ATOM      8  C   UNL A   1      41.299  21.510  27.785  1.00  0.00     0.016 A 
ATOM      9  C   UNL A   1      42.252  23.478  26.089  1.00  0.00     0.010 A 
ATOM     10  C   UNL A   1      41.547  22.806  28.271  1.00  0.00     0.010 A 
ATOM     11  C   UNL A   1      42.031  23.812  27.424  1.00  0.00    -0.014 A 
BRANCH  11  12
ATOM     12  C   UNL A   1      42.468  25.134  27.959  1.00  0.00     0.031 A 
ATOM     13  C   UNL A   1      43.847  25.598  27.626  1.00  0.00     0.074 A 
ATOM     14  C   UNL A   1      41.656  26.028  28.562  1.00  0.00     0.049 A 
ATOM     15  N   UNL A   1      44.318  26.813  27.699  1.00  0.00    -0.248 NA
ATOM     16  C   UNL A   1      44.765  24.621  27.024  1.00  0.00     0.031 C 
ATOM     17  C   UNL A   1      40.209  25.907  28.626  1.00  0.00     0.029 A 
ATOM     18  N   UNL A   1      41.909  27.257  29.154  1.00  0.00    -0.354 N 
ATOM     19  C   UNL A   1      45.566  26.759  27.120  1.00  0.00     0.074 A 
ATOM     20  C   UNL A   1      45.807  25.384  26.741  1.00  0.00     0.031 C 
ATOM     21  C   UNL A   1      39.726  27.017  29.206  1.00  0.00     0.029 A 
ATOM     22  C   UNL A   1      40.788  27.866  29.680  1.00  0.00     0.049 A 
ATOM     23  H   UNL A   1      42.807  27.658  29.194  1.00  0.00     0.167 HD
ATOM     24  C   UNL A   1      46.424  27.773  26.890  1.00  0.00     0.034 A 
ATOM     25  C   UNL A   1      40.586  28.994  30.400  1.00  0.00     0.034 A 
ATOM     26  C   UNL A   1      46.226  29.132  27.301  1.00  0.00     0.049 A 
ATOM     27  C   UNL A   1      41.673  30.015  30.349  1.00  0.00     0.074 A 
ATOM     28  C   UNL A   1      47.089  30.201  27.149  1.00  0.00     0.029 A 
ATOM     29  N   UNL A   1      45.122  29.602  27.997  1.00  0.00    -0.354 N 
ATOM     30  N   UNL A   1      42.779  29.972  29.656  1.00  0.00    -0.248 NA
ATOM     31  C   UNL A   1      41.398  31.307  30.992  1.00  0.00     0.031 C 
ATOM     32  C   UNL A   1      46.544  31.301  27.819  1.00  0.00     0.029 A 
ATOM     33  C   UNL A   1      45.314  30.932  28.335  1.00  0.00     0.049 A 
ATOM     34  H   UNL A   1      44.322  29.071  28.217  1.00  0.00     0.167 HD
ATOM     35  C   UNL A   1      43.267  31.264  29.671  1.00  0.00     0.074 A 
ATOM     36  C   UNL A   1      42.330  32.063  30.432  1.00  0.00     0.031 C 
ATOM     37  C   UNL A   1      44.384  31.739  29.077  1.00  0.00     0.034 A 
BRANCH  24  38
ATOM     38  C   UNL A   1      47.713  27.378  26.247  1.00  0.00     0.023 A 
ATOM     39  C   UNL A   1      48.833  27.029  27.027  1.00  0.00     0.012 A 
ATOM     40  C   UNL A   1      47.821  27.460  24.850  1.00  0.00     0.148 A 
ATOM     41  C   UNL A   1      50.068  26.817  26.417  1.00  0.00     0.002 A 
ATOM     42  C   UNL A   1      49.039  27.202  24.248  1.00  0.00     0.091 A 
ATOM     43  F   UNL A   1      46.743  27.839  24.149  1.00  0.00    -0.205 F 
ATOM     44  C   UNL A   1      50.168  26.899  25.029  1.00  0.00     0.022 A 
BRANCH  42  45
ATOM     45  S   UNL A   1      49.245  27.238  22.470  1.00  0.00     0.127 S 
ATOM     46  O   UNL A   1      48.566  26.006  22.070  1.00  0.00    -0.237 OA
ATOM     47  O   UNL A   1      48.542  28.470  22.113  1.00  0.00    -0.237 OA
ATOM     48  O   UNL A   1      50.681  27.260  22.228  1.00  0.00    -0.744 OA
ENDBRANCH  42  45
ENDBRANCH  24  38
BRANCH  25  49
ATOM     49  C   UNL A   1      39.277  29.381  31.033  1.00  0.00     0.023 A 
ATOM     50  C   UNL A   1      38.895  28.805  32.266  1.00  0.00     0.012 A 
ATOM     51  C   UNL A   1      38.368  30.250  30.391  1.00  0.00     0.148 A 
ATOM     52  C   UNL A   1      37.644  29.072  32.836  1.00  0.00     0.002 A 
ATOM     53  C   UNL A   1      37.153  30.581  31.008  1.00  0.00     0.091 A 
ATOM     54  F   UNL A   1      38.704  30.759  29.199  1.00  0.00    -0.205 F 
ATOM     55  C   UNL A   1      36.780  29.974  32.219  1.00  0.00     0.022 A 
BRANCH  53  56
ATOM     56  S   UNL A   1      36.133  31.968  30.457  1.00  0.00     0.127 S 
ATOM     57  O   UNL A   1      37.132  32.991  30.169  1.00  0.00    -0.237 OA
ATOM     58  O   UNL A   1      35.470  31.407  29.279  1.00  0.00    -0.237 OA
ATOM     59  O   UNL A   1      35.231  32.248  31.566  1.00  0.00    -0.744 OA
ENDBRANCH  53  56
ENDBRANCH  25  49
BRANCH  37  60
ATOM     60  C   UNL A   1      44.652  33.207  29.233  1.00  0.00     0.023 A 
ATOM     61  C   UNL A   1      45.225  33.693  30.427  1.00  0.00     0.012 A 
ATOM     62  C   UNL A   1      44.332  34.105  28.199  1.00  0.00     0.148 A 
ATOM     63  C   UNL A   1      45.408  35.059  30.618  1.00  0.00     0.002 A 
ATOM     64  C   UNL A   1      44.588  35.457  28.367  1.00  0.00     0.091 A 
ATOM     65  F   UNL A   1      43.766  33.625  27.082  1.00  0.00    -0.205 F 
ATOM     66  C   UNL A   1      45.101  35.939  29.584  1.00  0.00     0.022 A 
BRANCH  64  67
ATOM     67  S   UNL A   1      44.339  36.655  27.056  1.00  0.00     0.127 S 
ATOM     68  O   UNL A   1      44.460  37.920  27.778  1.00  0.00    -0.237 OA
ATOM     69  O   UNL A   1      45.455  36.354  26.157  1.00  0.00    -0.237 OA
ATOM     70  O   UNL A   1      43.021  36.380  26.500  1.00  0.00    -0.744 OA
ENDBRANCH  64  67
ENDBRANCH  37  60
ENDBRANCH  11  12
ENDBRANCH   4   6
ENDBRANCH   3   4
ENDBRANCH   2   3
ENDBRANCH   1   2
BRANCH   1  71
ATOM     71  O   UNL A   1      36.518  21.340  25.226  1.00  0.00    -0.462 OA
BRANCH  71  72
ATOM     72  C   UNL A   1      35.939  22.450  25.770  1.00  0.00     0.311 C 
ATOM     73  O   UNL A   1      36.550  23.464  26.085  1.00  0.00    -0.252 OA
BRANCH  72  74
ATOM     74  C   UNL A   1      34.461  22.272  26.038  1.00  0.00     0.128 C 
ATOM     75  C   UNL A   1      33.877  23.156  27.113  1.00  0.00     0.117 C 
ATOM     76  C   UNL A   1      33.675  22.659  24.811  1.00  0.00     0.135 C 
ATOM     77  C   UNL A   1      32.465  23.425  26.649  1.00  0.00     0.223 C 
ATOM     78  N   UNL A   1      32.422  23.147  25.288  1.00  0.00    -0.337 N 
ATOM     79  O   UNL A   1      31.578  23.837  27.367  1.00  0.00    -0.275 OA
BRANCH  78  80
ATOM     80  C   UNL A   1      31.223  23.227  24.458  1.00  0.00     0.155 C 
BRANCH  80  81
ATOM     81  C   UNL A   1      31.012  24.484  23.619  1.00  0.00    -0.028 A 
ATOM     82  C   UNL A   1      29.981  25.318  24.029  1.00  0.00     0.009 A 
ATOM     83  C   UNL A   1      31.727  24.927  22.496  1.00  0.00     0.009 A 
ATOM     84  C   UNL A   1      29.900  26.629  23.553  1.00  0.00     0.047 A 
ATOM     85  C   UNL A   1      31.680  26.266  22.057  1.00  0.00     0.047 A 
ATOM     86  C   UNL A   1      30.871  27.158  22.721  1.00  0.00     0.119 A 
BRANCH  86  87
ATOM     87  O   UNL A   1      30.990  28.509  22.806  1.00  0.00    -0.489 OA
BRANCH  87  88
ATOM     88  C   UNL A   1      30.841  29.234  24.023  1.00  0.00     0.265 C 
BRANCH  88  89
ATOM     89  C   UNL A   1      31.927  29.267  25.092  1.00  0.00    -0.011 A 
ATOM     90  C   UNL A   1      31.949  30.144  26.179  1.00  0.00     0.007 A 
ATOM     91  C   UNL A   1      32.927  28.274  25.040  1.00  0.00     0.007 A 
ATOM     92  C   UNL A   1      32.865  29.974  27.223  1.00  0.00     0.000 A 
ATOM     93  C   UNL A   1      33.869  28.131  26.063  1.00  0.00     0.000 A 
ATOM     94  C   UNL A   1      33.822  28.966  27.171  1.00  0.00     0.000 A 
ENDBRANCH  88  89
ENDBRANCH  87  88
ENDBRANCH  86  87
ENDBRANCH  80  81
ENDBRANCH  78  80
ENDBRANCH  72  74
ENDBRANCH  71  72
ENDBRANCH   1  71
TORSDOF 19
ENDMDL
