MODEL 1
REMARK VINA RESULT:     -11.8      0.000      0.000
REMARK SMILES CCC(CC)(NC(=O)N[C@H](C)C1CC1)C(=O)OCCOC(=O)c1ccc(-c2c3nc(c(-c4cccc(S(=O)(=O)[O-])c4F)c4ccc([nH]4)c(-c4cccc(S(=O)(=O)[O-])c4F)c4nc(c(-c5cccc(S(=O)(=O)[O-])c5F)c5ccc2[nH]5)C=C4)C=C3)cc1
REMARK SMILES IDX 18 1 17 2 15 3 16 4 3 5 2 6 1 7 4 8 5 9 6 10 7 11 8 13 9 14
REMARK SMILES IDX 10 16 11 17 12 18 13 19 14 20 19 21 20 22 21 23 22 24 23 25
REMARK SMILES IDX 24 26 85 27 25 28 84 29 26 30 27 31 28 32 78 33 29 34 83 35
REMARK SMILES IDX 77 36 79 37 30 38 82 39 76 40 75 41 31 43 63 44 43 45 62 46
REMARK SMILES IDX 44 47 47 48 61 49 80 50 45 51 46 52 60 54 81 55 48 56 32 57
REMARK SMILES IDX 33 58 41 59 34 60 36 61 42 62 35 63 37 64 38 65 39 66 40 67
REMARK SMILES IDX 64 68 65 69 73 70 66 71 68 72 74 73 67 74 69 75 70 76 71 77
REMARK SMILES IDX 72 78 49 79 50 80 58 81 51 82 53 83 59 84 52 85 54 86 55 87
REMARK SMILES IDX 56 88 57 89
REMARK H PARENT 6 12 9 15 79 42 47 53
REMARK Flexibility Score: inf
ROOT
ATOM      1  C   UNL A   1      34.043  23.014  24.389  1.00  0.00     0.274 C 
ENDROOT
BRANCH   1   2
ATOM      2  O   UNL A   1      33.512  24.536  24.760  1.00  0.00    -0.460 OA
BRANCH   2   3
ATOM      3  C   UNL A   1      33.107  25.783  25.182  1.00  0.00     0.332 C 
ATOM      4  O   UNL A   1      34.023  26.615  25.248  1.00  0.00    -0.249 OA
BRANCH   3   5
ATOM      5  C   UNL A   1      31.486  26.405  25.505  1.00  0.00     0.139 C 
BRANCH   5   6
ATOM      6  C   UNL A   1      31.411  27.877  26.092  1.00  0.00     0.037 C 
ATOM      7  C   UNL A   1      31.662  28.125  27.569  1.00  0.00     0.007 C 
ENDBRANCH   5   6
BRANCH   5   8
ATOM      8  C   UNL A   1      31.054  25.443  26.704  1.00  0.00     0.037 C 
ATOM      9  C   UNL A   1      30.573  24.021  26.369  1.00  0.00     0.007 C 
ENDBRANCH   5   8
BRANCH   5  10
ATOM     10  N   UNL A   1      30.240  26.351  24.606  1.00  0.00    -0.322 N 
ATOM     11  C   UNL A   1      29.710  27.105  23.629  1.00  0.00     0.315 C 
ATOM     12  H   UNL A   1      29.689  25.558  24.794  1.00  0.00     0.166 HD
ATOM     13  O   UNL A   1      28.492  27.171  23.496  1.00  0.00    -0.249 OA
ATOM     14  N   UNL A   1      30.514  27.679  22.739  1.00  0.00    -0.335 N 
ATOM     15  H   UNL A   1      30.139  28.347  22.121  1.00  0.00     0.165 HD
BRANCH  14  16
ATOM     16  C   UNL A   1      31.907  27.357  22.650  1.00  0.00     0.083 C 
ATOM     17  C   UNL A   1      32.646  28.752  22.770  1.00  0.00     0.031 C 
BRANCH  16  18
ATOM     18  C   UNL A   1      31.928  26.056  21.586  1.00  0.00     0.011 C 
ATOM     19  C   UNL A   1      32.525  25.497  20.233  1.00  0.00     0.006 C 
ATOM     20  C   UNL A   1      32.869  24.785  21.456  1.00  0.00     0.006 C 
ENDBRANCH  16  18
ENDBRANCH  14  16
ENDBRANCH   5  10
ENDBRANCH   3   5
ENDBRANCH   2   3
ENDBRANCH   1   2
BRANCH   1  21
ATOM     21  C   UNL A   1      34.762  21.706  25.262  1.00  0.00     0.275 C 
BRANCH  21  22
ATOM     22  O   UNL A   1      36.235  21.286  25.611  1.00  0.00    -0.458 OA
BRANCH  22  23
ATOM     23  C   UNL A   1      37.607  21.255  25.631  1.00  0.00     0.338 C 
ATOM     24  O   UNL A   1      38.161  20.270  25.133  1.00  0.00    -0.246 OA
BRANCH  23  25
ATOM     25  C   UNL A   1      38.570  22.345  26.061  1.00  0.00     0.060 A 
ATOM     26  C   UNL A   1      38.251  23.710  25.869  1.00  0.00     0.016 A 
ATOM     27  C   UNL A   1      39.825  22.079  26.609  1.00  0.00     0.016 A 
ATOM     28  C   UNL A   1      38.977  24.747  26.504  1.00  0.00     0.010 A 
ATOM     29  C   UNL A   1      40.621  23.135  27.139  1.00  0.00     0.010 A 
ATOM     30  C   UNL A   1      40.179  24.474  27.164  1.00  0.00    -0.014 A 
BRANCH  30  31
ATOM     31  C   UNL A   1      41.053  25.580  27.698  1.00  0.00     0.031 A 
ATOM     32  C   UNL A   1      40.416  26.659  28.539  1.00  0.00     0.074 A 
ATOM     33  C   UNL A   1      42.377  25.690  27.443  1.00  0.00     0.049 A 
ATOM     34  N   UNL A   1      40.904  27.812  28.924  1.00  0.00    -0.248 NA
ATOM     35  C   UNL A   1      39.050  26.397  29.015  1.00  0.00     0.031 C 
ATOM     36  C   UNL A   1      43.205  24.702  26.758  1.00  0.00     0.029 A 
ATOM     37  N   UNL A   1      43.262  26.722  27.718  1.00  0.00    -0.354 N 
ATOM     38  C   UNL A   1      39.884  28.440  29.626  1.00  0.00     0.074 A 
ATOM     39  C   UNL A   1      38.770  27.516  29.665  1.00  0.00     0.031 C 
ATOM     40  C   UNL A   1      44.453  25.192  26.616  1.00  0.00     0.029 A 
ATOM     41  C   UNL A   1      44.509  26.557  27.150  1.00  0.00     0.049 A 
ATOM     42  H   UNL A   1      43.022  27.501  28.269  1.00  0.00     0.167 HD
ATOM     43  C   UNL A   1      39.851  29.678  30.171  1.00  0.00     0.034 A 
ATOM     44  C   UNL A   1      45.552  27.413  27.015  1.00  0.00     0.034 A 
ATOM     45  C   UNL A   1      40.939  30.615  30.175  1.00  0.00     0.049 A 
ATOM     46  C   UNL A   1      45.458  28.828  27.554  1.00  0.00     0.074 A 
ATOM     47  C   UNL A   1      40.972  31.883  30.732  1.00  0.00     0.029 A 
ATOM     48  N   UNL A   1      42.170  30.407  29.582  1.00  0.00    -0.354 N 
ATOM     49  N   UNL A   1      44.512  29.381  28.272  1.00  0.00    -0.248 NA
ATOM     50  C   UNL A   1      46.580  29.741  27.259  1.00  0.00     0.031 C 
ATOM     51  C   UNL A   1      42.214  32.456  30.446  1.00  0.00     0.029 A 
ATOM     52  C   UNL A   1      42.960  31.534  29.733  1.00  0.00     0.049 A 
ATOM     53  H   UNL A   1      42.443  29.580  29.121  1.00  0.00     0.167 HD
ATOM     54  C   UNL A   1      44.935  30.685  28.530  1.00  0.00     0.074 A 
ATOM     55  C   UNL A   1      46.236  30.837  27.922  1.00  0.00     0.031 C 
ATOM     56  C   UNL A   1      44.285  31.676  29.190  1.00  0.00     0.034 A 
BRANCH  43  57
ATOM     57  C   UNL A   1      38.557  30.126  30.788  1.00  0.00     0.023 A 
ATOM     58  C   UNL A   1      38.299  29.872  32.148  1.00  0.00     0.012 A 
ATOM     59  C   UNL A   1      37.634  30.865  30.024  1.00  0.00     0.148 A 
ATOM     60  C   UNL A   1      37.124  30.337  32.737  1.00  0.00     0.002 A 
ATOM     61  C   UNL A   1      36.486  31.358  30.627  1.00  0.00     0.091 A 
ATOM     62  F   UNL A   1      37.898  31.068  28.725  1.00  0.00    -0.205 F 
ATOM     63  C   UNL A   1      36.225  31.089  31.981  1.00  0.00     0.022 A 
BRANCH  61  64
ATOM     64  S   UNL A   1      35.308  32.397  29.757  1.00  0.00     0.127 S 
ATOM     65  O   UNL A   1      34.378  32.747  30.830  1.00  0.00    -0.237 OA
ATOM     66  O   UNL A   1      36.153  33.498  29.297  1.00  0.00    -0.237 OA
ATOM     67  O   UNL A   1      34.749  31.572  28.695  1.00  0.00    -0.744 OA
ENDBRANCH  61  64
ENDBRANCH  43  57
BRANCH  44  68
ATOM     68  C   UNL A   1      46.792  27.009  26.274  1.00  0.00     0.023 A 
ATOM     69  C   UNL A   1      46.835  27.102  24.867  1.00  0.00     0.012 A 
ATOM     70  C   UNL A   1      47.896  26.452  26.950  1.00  0.00     0.148 A 
ATOM     71  C   UNL A   1      47.932  26.614  24.150  1.00  0.00     0.002 A 
ATOM     72  C   UNL A   1      49.012  26.027  26.234  1.00  0.00     0.091 A 
ATOM     73  F   UNL A   1      47.826  26.319  28.282  1.00  0.00    -0.205 F 
ATOM     74  C   UNL A   1      49.024  26.086  24.834  1.00  0.00     0.022 A 
BRANCH  72  75
ATOM     75  S   UNL A   1      50.503  25.451  27.055  1.00  0.00     0.127 S 
ATOM     76  O   UNL A   1      51.434  25.324  25.935  1.00  0.00    -0.237 OA
ATOM     77  O   UNL A   1      50.792  26.559  27.972  1.00  0.00    -0.237 OA
ATOM     78  O   UNL A   1      50.127  24.214  27.718  1.00  0.00    -0.744 OA
ENDBRANCH  72  75
ENDBRANCH  44  68
BRANCH  56  79
ATOM     79  C   UNL A   1      44.955  33.022  29.327  1.00  0.00     0.023 A 
ATOM     80  C   UNL A   1      45.872  33.239  30.375  1.00  0.00     0.012 A 
ATOM     81  C   UNL A   1      44.770  34.029  28.357  1.00  0.00     0.148 A 
ATOM     82  C   UNL A   1      46.580  34.439  30.465  1.00  0.00     0.002 A 
ATOM     83  C   UNL A   1      45.511  35.205  28.428  1.00  0.00     0.091 A 
ATOM     84  F   UNL A   1      43.886  33.811  27.373  1.00  0.00    -0.205 F 
ATOM     85  C   UNL A   1      46.409  35.415  29.486  1.00  0.00     0.022 A 
BRANCH  83  86
ATOM     86  S   UNL A   1      45.432  36.479  27.162  1.00  0.00     0.127 S 
ATOM     87  O   UNL A   1      45.790  35.728  25.960  1.00  0.00    -0.237 OA
ATOM     88  O   UNL A   1      44.031  36.896  27.227  1.00  0.00    -0.237 OA
ATOM     89  O   UNL A   1      46.389  37.503  27.562  1.00  0.00    -0.744 OA
ENDBRANCH  83  86
ENDBRANCH  56  79
ENDBRANCH  30  31
ENDBRANCH  23  25
ENDBRANCH  22  23
ENDBRANCH  21  22
ENDBRANCH   1  21
TORSDOF 19
ENDMDL
MODEL 2
REMARK VINA RESULT:     -11.7      0.770      2.072
REMARK SMILES CCC(CC)(NC(=O)N[C@H](C)C1CC1)C(=O)OCCOC(=O)c1ccc(-c2c3nc(c(-c4cccc(S(=O)(=O)[O-])c4F)c4ccc([nH]4)c(-c4cccc(S(=O)(=O)[O-])c4F)c4nc(c(-c5cccc(S(=O)(=O)[O-])c5F)c5ccc2[nH]5)C=C4)C=C3)cc1
REMARK SMILES IDX 18 1 17 2 15 3 16 4 3 5 2 6 1 7 4 8 5 9 6 10 7 11 8 13 9 14
REMARK SMILES IDX 10 16 11 17 12 18 13 19 14 20 19 21 20 22 21 23 22 24 23 25
REMARK SMILES IDX 24 26 85 27 25 28 84 29 26 30 27 31 28 32 78 33 29 34 83 35
REMARK SMILES IDX 77 36 79 37 30 38 82 39 76 40 75 41 31 43 63 44 43 45 62 46
REMARK SMILES IDX 44 47 47 48 61 49 80 50 45 51 46 52 60 54 81 55 48 56 32 57
REMARK SMILES IDX 33 58 41 59 34 60 36 61 42 62 35 63 37 64 38 65 39 66 40 67
REMARK SMILES IDX 64 68 65 69 73 70 66 71 68 72 74 73 67 74 69 75 70 76 71 77
REMARK SMILES IDX 72 78 49 79 50 80 58 81 51 82 53 83 59 84 52 85 54 86 55 87
REMARK SMILES IDX 56 88 57 89
REMARK H PARENT 6 12 9 15 79 42 47 53
REMARK Flexibility Score: inf
ROOT
ATOM      1  C   UNL A   1      33.681  22.683  25.991  1.00  0.00     0.274 C 
ENDROOT
BRANCH   1   2
ATOM      2  O   UNL A   1      33.450  24.066  25.112  1.00  0.00    -0.460 OA
BRANCH   2   3
ATOM      3  C   UNL A   1      33.371  25.202  24.338  1.00  0.00     0.332 C 
ATOM      4  O   UNL A   1      34.287  26.012  24.537  1.00  0.00    -0.249 OA
BRANCH   3   5
ATOM      5  C   UNL A   1      32.259  25.614  23.029  1.00  0.00     0.139 C 
BRANCH   5   6
ATOM      6  C   UNL A   1      30.977  24.690  22.892  1.00  0.00     0.037 C 
ATOM      7  C   UNL A   1      31.027  23.240  23.340  1.00  0.00     0.007 C 
ENDBRANCH   5   6
BRANCH   5   8
ATOM      8  C   UNL A   1      33.175  25.266  21.769  1.00  0.00     0.037 C 
ATOM      9  C   UNL A   1      32.603  25.494  20.359  1.00  0.00     0.007 C 
ENDBRANCH   5   8
BRANCH   5  10
ATOM     10  N   UNL A   1      31.708  26.994  22.636  1.00  0.00    -0.322 N 
ATOM     11  C   UNL A   1      30.680  27.775  23.007  1.00  0.00     0.315 C 
ATOM     12  H   UNL A   1      32.248  27.414  21.929  1.00  0.00     0.166 HD
ATOM     13  O   UNL A   1      30.137  28.508  22.186  1.00  0.00    -0.249 OA
ATOM     14  N   UNL A   1      30.339  27.836  24.290  1.00  0.00    -0.335 N 
ATOM     15  H   UNL A   1      29.500  28.287  24.538  1.00  0.00     0.165 HD
BRANCH  14  16
ATOM     16  C   UNL A   1      31.151  27.269  25.324  1.00  0.00     0.083 C 
ATOM     17  C   UNL A   1      30.228  26.178  26.004  1.00  0.00     0.031 C 
BRANCH  16  18
ATOM     18  C   UNL A   1      32.073  28.576  25.841  1.00  0.00     0.011 C 
ATOM     19  C   UNL A   1      32.511  30.062  25.522  1.00  0.00     0.006 C 
ATOM     20  C   UNL A   1      31.740  29.844  26.738  1.00  0.00     0.006 C 
ENDBRANCH  16  18
ENDBRANCH  14  16
ENDBRANCH   5  10
ENDBRANCH   3   5
ENDBRANCH   2   3
ENDBRANCH   1   2
BRANCH   1  21
ATOM     21  C   UNL A   1      34.741  21.320  25.900  1.00  0.00     0.275 C 
BRANCH  21  22
ATOM     22  O   UNL A   1      36.298  21.123  25.960  1.00  0.00    -0.458 OA
BRANCH  22  23
ATOM     23  C   UNL A   1      37.635  21.248  25.676  1.00  0.00     0.338 C 
ATOM     24  O   UNL A   1      38.122  20.451  24.867  1.00  0.00    -0.246 OA
BRANCH  23  25
ATOM     25  C   UNL A   1      38.596  22.336  26.116  1.00  0.00     0.060 A 
ATOM     26  C   UNL A   1      38.318  23.697  25.852  1.00  0.00     0.016 A 
ATOM     27  C   UNL A   1      39.813  22.068  26.744  1.00  0.00     0.016 A 
ATOM     28  C   UNL A   1      39.031  24.745  26.485  1.00  0.00     0.010 A 
ATOM     29  C   UNL A   1      40.601  23.129  27.276  1.00  0.00     0.010 A 
ATOM     30  C   UNL A   1      40.187  24.477  27.221  1.00  0.00    -0.014 A 
BRANCH  30  31
ATOM     31  C   UNL A   1      41.054  25.586  27.759  1.00  0.00     0.031 A 
ATOM     32  C   UNL A   1      40.404  26.680  28.571  1.00  0.00     0.074 A 
ATOM     33  C   UNL A   1      42.385  25.687  27.533  1.00  0.00     0.049 A 
ATOM     34  N   UNL A   1      40.889  27.837  28.951  1.00  0.00    -0.248 NA
ATOM     35  C   UNL A   1      39.026  26.430  29.020  1.00  0.00     0.031 C 
ATOM     36  C   UNL A   1      43.223  24.686  26.880  1.00  0.00     0.029 A 
ATOM     37  N   UNL A   1      43.268  26.719  27.813  1.00  0.00    -0.354 N 
ATOM     38  C   UNL A   1      39.855  28.478  29.621  1.00  0.00     0.074 A 
ATOM     39  C   UNL A   1      38.737  27.560  29.647  1.00  0.00     0.031 C 
ATOM     40  C   UNL A   1      44.476  25.169  26.759  1.00  0.00     0.029 A 
ATOM     41  C   UNL A   1      44.526  26.541  27.275  1.00  0.00     0.049 A 
ATOM     42  H   UNL A   1      43.019  27.507  28.347  1.00  0.00     0.167 HD
ATOM     43  C   UNL A   1      39.816  29.724  30.147  1.00  0.00     0.034 A 
ATOM     44  C   UNL A   1      45.576  27.390  27.152  1.00  0.00     0.034 A 
ATOM     45  C   UNL A   1      40.908  30.656  30.162  1.00  0.00     0.049 A 
ATOM     46  C   UNL A   1      45.476  28.813  27.668  1.00  0.00     0.074 A 
ATOM     47  C   UNL A   1      40.935  31.932  30.702  1.00  0.00     0.029 A 
ATOM     48  N   UNL A   1      42.151  30.434  29.600  1.00  0.00    -0.354 N 
ATOM     49  N   UNL A   1      44.517  29.380  28.358  1.00  0.00    -0.248 NA
ATOM     50  C   UNL A   1      46.609  29.717  27.386  1.00  0.00     0.031 C 
ATOM     51  C   UNL A   1      42.185  32.495  30.436  1.00  0.00     0.029 A 
ATOM     52  C   UNL A   1      42.943  31.560  29.753  1.00  0.00     0.049 A 
ATOM     53  H   UNL A   1      42.431  29.601  29.157  1.00  0.00     0.167 HD
ATOM     54  C   UNL A   1      44.940  30.686  28.607  1.00  0.00     0.074 A 
ATOM     55  C   UNL A   1      46.255  30.824  28.025  1.00  0.00     0.031 C 
ATOM     56  C   UNL A   1      44.280  31.689  29.237  1.00  0.00     0.034 A 
BRANCH  43  57
ATOM     57  C   UNL A   1      38.511  30.186  30.729  1.00  0.00     0.023 A 
ATOM     58  C   UNL A   1      38.229  29.968  32.091  1.00  0.00     0.012 A 
ATOM     59  C   UNL A   1      37.601  30.903  29.929  1.00  0.00     0.148 A 
ATOM     60  C   UNL A   1      37.043  30.447  32.645  1.00  0.00     0.002 A 
ATOM     61  C   UNL A   1      36.442  31.410  30.498  1.00  0.00     0.091 A 
ATOM     62  F   UNL A   1      37.888  31.072  28.631  1.00  0.00    -0.205 F 
ATOM     63  C   UNL A   1      36.157  31.177  31.854  1.00  0.00     0.022 A 
BRANCH  61  64
ATOM     64  S   UNL A   1      35.278  32.423  29.580  1.00  0.00     0.127 S 
ATOM     65  O   UNL A   1      34.424  32.934  30.652  1.00  0.00    -0.237 OA
ATOM     66  O   UNL A   1      36.156  33.421  28.971  1.00  0.00    -0.237 OA
ATOM     67  O   UNL A   1      34.622  31.530  28.635  1.00  0.00    -0.744 OA
ENDBRANCH  61  64
ENDBRANCH  43  57
BRANCH  44  68
ATOM     68  C   UNL A   1      46.830  26.971  26.444  1.00  0.00     0.023 A 
ATOM     69  C   UNL A   1      46.920  27.082  25.041  1.00  0.00     0.012 A 
ATOM     70  C   UNL A   1      47.900  26.381  27.147  1.00  0.00     0.148 A 
ATOM     71  C   UNL A   1      48.029  26.582  24.352  1.00  0.00     0.002 A 
ATOM     72  C   UNL A   1      49.029  25.942  26.460  1.00  0.00     0.091 A 
ATOM     73  F   UNL A   1      47.785  26.231  28.473  1.00  0.00    -0.205 F 
ATOM     74  C   UNL A   1      49.087  26.021  25.062  1.00  0.00     0.022 A 
BRANCH  72  75
ATOM     75  S   UNL A   1      50.481  25.324  27.319  1.00  0.00     0.127 S 
ATOM     76  O   UNL A   1      49.939  24.172  28.037  1.00  0.00    -0.237 OA
ATOM     77  O   UNL A   1      51.374  24.989  26.206  1.00  0.00    -0.237 OA
ATOM     78  O   UNL A   1      50.944  26.430  28.141  1.00  0.00    -0.744 OA
ENDBRANCH  72  75
ENDBRANCH  44  68
BRANCH  56  79
ATOM     79  C   UNL A   1      44.952  33.034  29.371  1.00  0.00     0.023 A 
ATOM     80  C   UNL A   1      45.860  33.256  30.425  1.00  0.00     0.012 A 
ATOM     81  C   UNL A   1      44.780  34.034  28.391  1.00  0.00     0.148 A 
ATOM     82  C   UNL A   1      46.571  34.455  30.513  1.00  0.00     0.002 A 
ATOM     83  C   UNL A   1      45.524  35.208  28.460  1.00  0.00     0.091 A 
ATOM     84  F   UNL A   1      43.904  33.811  27.401  1.00  0.00    -0.205 F 
ATOM     85  C   UNL A   1      46.413  35.423  29.525  1.00  0.00     0.022 A 
BRANCH  83  86
ATOM     86  S   UNL A   1      45.461  36.473  27.184  1.00  0.00     0.127 S 
ATOM     87  O   UNL A   1      46.082  37.611  27.861  1.00  0.00    -0.237 OA
ATOM     88  O   UNL A   1      46.271  35.882  26.119  1.00  0.00    -0.237 OA
ATOM     89  O   UNL A   1      44.052  36.641  26.852  1.00  0.00    -0.744 OA
ENDBRANCH  83  86
ENDBRANCH  56  79
ENDBRANCH  30  31
ENDBRANCH  23  25
ENDBRANCH  22  23
ENDBRANCH  21  22
ENDBRANCH   1  21
TORSDOF 19
ENDMDL
MODEL 3
REMARK VINA RESULT:     -11.6      5.267      9.865
REMARK SMILES CCC(CC)(NC(=O)N[C@H](C)C1CC1)C(=O)OCCOC(=O)c1ccc(-c2c3nc(c(-c4cccc(S(=O)(=O)[O-])c4F)c4ccc([nH]4)c(-c4cccc(S(=O)(=O)[O-])c4F)c4nc(c(-c5cccc(S(=O)(=O)[O-])c5F)c5ccc2[nH]5)C=C4)C=C3)cc1
REMARK SMILES IDX 18 1 17 2 15 3 16 4 3 5 2 6 1 7 4 8 5 9 6 10 7 11 8 13 9 14
REMARK SMILES IDX 10 16 11 17 12 18 13 19 14 20 19 21 20 22 21 23 22 24 23 25
REMARK SMILES IDX 24 26 85 27 25 28 84 29 26 30 27 31 28 32 78 33 29 34 83 35
REMARK SMILES IDX 77 36 79 37 30 38 82 39 76 40 75 41 31 43 63 44 43 45 62 46
REMARK SMILES IDX 44 47 47 48 61 49 80 50 45 51 46 52 60 54 81 55 48 56 32 57
REMARK SMILES IDX 33 58 41 59 34 60 36 61 42 62 35 63 37 64 38 65 39 66 40 67
REMARK SMILES IDX 64 68 65 69 73 70 66 71 68 72 74 73 67 74 69 75 70 76 71 77
REMARK SMILES IDX 72 78 49 79 50 80 58 81 51 82 53 83 59 84 52 85 54 86 55 87
REMARK SMILES IDX 56 88 57 89
REMARK H PARENT 6 12 9 15 79 42 47 53
REMARK Flexibility Score: inf
ROOT
ATOM      1  C   UNL A   1      32.315  28.364  23.080  1.00  0.00     0.274 C 
ENDROOT
BRANCH   1   2
ATOM      2  O   UNL A   1      32.499  26.722  22.996  1.00  0.00    -0.460 OA
BRANCH   2   3
ATOM      3  C   UNL A   1      32.771  25.373  22.930  1.00  0.00     0.332 C 
ATOM      4  O   UNL A   1      33.229  25.004  21.839  1.00  0.00    -0.249 OA
BRANCH   3   5
ATOM      5  C   UNL A   1      32.699  24.134  24.186  1.00  0.00     0.139 C 
BRANCH   5   6
ATOM      6  C   UNL A   1      33.563  24.413  25.486  1.00  0.00     0.037 C 
ATOM      7  C   UNL A   1      34.777  25.323  25.417  1.00  0.00     0.007 C 
ENDBRANCH   5   6
BRANCH   5   8
ATOM      8  C   UNL A   1      33.434  22.933  23.432  1.00  0.00     0.037 C 
ATOM      9  C   UNL A   1      32.747  21.558  23.395  1.00  0.00     0.007 C 
ENDBRANCH   5   8
BRANCH   5  10
ATOM     10  N   UNL A   1      31.465  23.422  24.763  1.00  0.00    -0.322 N 
ATOM     11  C   UNL A   1      30.693  23.543  25.855  1.00  0.00     0.315 C 
ATOM     12  H   UNL A   1      31.161  22.689  24.181  1.00  0.00     0.166 HD
ATOM     13  O   UNL A   1      30.177  22.548  26.356  1.00  0.00    -0.249 OA
ATOM     14  N   UNL A   1      30.398  24.755  26.314  1.00  0.00    -0.335 N 
ATOM     15  H   UNL A   1      29.962  24.837  27.193  1.00  0.00     0.165 HD
BRANCH  14  16
ATOM     16  C   UNL A   1      30.691  25.944  25.573  1.00  0.00     0.083 C 
ATOM     17  C   UNL A   1      31.329  26.929  26.637  1.00  0.00     0.031 C 
BRANCH  16  18
ATOM     18  C   UNL A   1      29.443  26.009  24.450  1.00  0.00     0.011 C 
ATOM     19  C   UNL A   1      27.920  26.369  24.223  1.00  0.00     0.006 C 
ATOM     20  C   UNL A   1      28.904  27.164  23.502  1.00  0.00     0.006 C 
ENDBRANCH  16  18
ENDBRANCH  14  16
ENDBRANCH   5  10
ENDBRANCH   3   5
ENDBRANCH   2   3
ENDBRANCH   1   2
BRANCH   1  21
ATOM     21  C   UNL A   1      31.719  29.484  24.255  1.00  0.00     0.275 C 
BRANCH  21  22
ATOM     22  O   UNL A   1      32.210  29.977  25.663  1.00  0.00    -0.458 OA
BRANCH  22  23
ATOM     23  C   UNL A   1      32.765  30.760  26.645  1.00  0.00     0.338 C 
ATOM     24  O   UNL A   1      32.051  31.633  27.148  1.00  0.00    -0.246 OA
BRANCH  23  25
ATOM     25  C   UNL A   1      34.118  30.615  27.315  1.00  0.00     0.060 A 
ATOM     26  C   UNL A   1      34.897  31.753  27.626  1.00  0.00     0.016 A 
ATOM     27  C   UNL A   1      34.692  29.378  27.610  1.00  0.00     0.016 A 
ATOM     28  C   UNL A   1      36.014  31.683  28.495  1.00  0.00     0.010 A 
ATOM     29  C   UNL A   1      35.888  29.302  28.380  1.00  0.00     0.010 A 
ATOM     30  C   UNL A   1      36.527  30.448  28.898  1.00  0.00    -0.014 A 
BRANCH  30  31
ATOM     31  C   UNL A   1      37.811  30.345  29.680  1.00  0.00     0.031 A 
ATOM     32  C   UNL A   1      38.921  29.481  29.132  1.00  0.00     0.074 A 
ATOM     33  C   UNL A   1      38.026  30.953  30.870  1.00  0.00     0.049 A 
ATOM     34  N   UNL A   1      40.017  29.063  29.716  1.00  0.00    -0.248 NA
ATOM     35  C   UNL A   1      38.777  29.037  27.738  1.00  0.00     0.031 C 
ATOM     36  C   UNL A   1      37.139  31.917  31.514  1.00  0.00     0.029 A 
ATOM     37  N   UNL A   1      39.070  30.818  31.772  1.00  0.00    -0.354 N 
ATOM     38  C   UNL A   1      40.656  28.254  28.785  1.00  0.00     0.074 A 
ATOM     39  C   UNL A   1      39.856  28.286  27.580  1.00  0.00     0.031 C 
ATOM     40  C   UNL A   1      37.643  32.244  32.721  1.00  0.00     0.029 A 
ATOM     41  C   UNL A   1      38.863  31.471  32.970  1.00  0.00     0.049 A 
ATOM     42  H   UNL A   1      39.885  30.304  31.575  1.00  0.00     0.167 HD
ATOM     43  C   UNL A   1      41.789  27.525  28.915  1.00  0.00     0.034 A 
ATOM     44  C   UNL A   1      39.532  31.412  34.148  1.00  0.00     0.034 A 
ATOM     45  C   UNL A   1      42.622  27.483  30.083  1.00  0.00     0.049 A 
ATOM     46  C   UNL A   1      40.747  30.516  34.299  1.00  0.00     0.074 A 
ATOM     47  C   UNL A   1      43.799  26.775  30.268  1.00  0.00     0.029 A 
ATOM     48  N   UNL A   1      42.367  28.149  31.267  1.00  0.00    -0.354 N 
ATOM     49  N   UNL A   1      41.374  29.811  33.390  1.00  0.00    -0.248 NA
ATOM     50  C   UNL A   1      41.346  30.407  35.643  1.00  0.00     0.031 C 
ATOM     51  C   UNL A   1      44.238  26.987  31.577  1.00  0.00     0.029 A 
ATOM     52  C   UNL A   1      43.348  27.846  32.197  1.00  0.00     0.049 A 
ATOM     53  H   UNL A   1      41.602  28.749  31.425  1.00  0.00     0.167 HD
ATOM     54  C   UNL A   1      42.444  29.201  34.046  1.00  0.00     0.074 A 
ATOM     55  C   UNL A   1      42.405  29.640  35.421  1.00  0.00     0.031 C 
ATOM     56  C   UNL A   1      43.359  28.329  33.552  1.00  0.00     0.034 A 
BRANCH  43  57
ATOM     57  C   UNL A   1      42.186  26.656  27.757  1.00  0.00     0.023 A 
ATOM     58  C   UNL A   1      43.068  27.147  26.776  1.00  0.00     0.012 A 
ATOM     59  C   UNL A   1      41.734  25.325  27.691  1.00  0.00     0.148 A 
ATOM     60  C   UNL A   1      43.483  26.323  25.731  1.00  0.00     0.002 A 
ATOM     61  C   UNL A   1      42.183  24.499  26.670  1.00  0.00     0.091 A 
ATOM     62  F   UNL A   1      40.876  24.894  28.626  1.00  0.00    -0.205 F 
ATOM     63  C   UNL A   1      43.051  24.998  25.684  1.00  0.00     0.022 A 
BRANCH  61  64
ATOM     64  S   UNL A   1      41.742  22.762  26.568  1.00  0.00     0.127 S 
ATOM     65  O   UNL A   1      42.321  22.239  27.805  1.00  0.00    -0.237 OA
ATOM     66  O   UNL A   1      40.281  22.818  26.553  1.00  0.00    -0.237 OA
ATOM     67  O   UNL A   1      42.345  22.262  25.340  1.00  0.00    -0.744 OA
ENDBRANCH  61  64
ENDBRANCH  43  57
BRANCH  44  68
ATOM     68  C   UNL A   1      39.051  32.174  35.348  1.00  0.00     0.023 A 
ATOM     69  C   UNL A   1      39.337  33.549  35.472  1.00  0.00     0.012 A 
ATOM     70  C   UNL A   1      38.388  31.522  36.407  1.00  0.00     0.148 A 
ATOM     71  C   UNL A   1      39.008  34.248  36.638  1.00  0.00     0.002 A 
ATOM     72  C   UNL A   1      38.006  32.238  37.538  1.00  0.00     0.091 A 
ATOM     73  F   UNL A   1      38.166  30.204  36.304  1.00  0.00    -0.205 F 
ATOM     74  C   UNL A   1      38.334  33.595  37.666  1.00  0.00     0.022 A 
BRANCH  72  75
ATOM     75  S   UNL A   1      37.027  31.492  38.847  1.00  0.00     0.127 S 
ATOM     76  O   UNL A   1      35.825  32.324  38.835  1.00  0.00    -0.237 OA
ATOM     77  O   UNL A   1      36.834  30.128  38.344  1.00  0.00    -0.237 OA
ATOM     78  O   UNL A   1      37.850  31.574  40.042  1.00  0.00    -0.744 OA
ENDBRANCH  72  75
ENDBRANCH  44  68
BRANCH  56  79
ATOM     79  C   UNL A   1      44.425  27.790  34.476  1.00  0.00     0.023 A 
ATOM     80  C   UNL A   1      45.557  28.578  34.766  1.00  0.00     0.012 A 
ATOM     81  C   UNL A   1      44.252  26.563  35.149  1.00  0.00     0.148 A 
ATOM     82  C   UNL A   1      46.507  28.146  35.694  1.00  0.00     0.002 A 
ATOM     83  C   UNL A   1      45.179  26.159  36.105  1.00  0.00     0.091 A 
ATOM     84  F   UNL A   1      43.175  25.821  34.854  1.00  0.00    -0.205 F 
ATOM     85  C   UNL A   1      46.311  26.945  36.372  1.00  0.00     0.022 A 
BRANCH  83  86
ATOM     86  S   UNL A   1      44.965  24.676  37.099  1.00  0.00     0.127 S 
ATOM     87  O   UNL A   1      44.955  23.631  36.076  1.00  0.00    -0.237 OA
ATOM     88  O   UNL A   1      46.160  24.692  37.943  1.00  0.00    -0.237 OA
ATOM     89  O   UNL A   1      43.711  24.852  37.820  1.00  0.00    -0.744 OA
ENDBRANCH  83  86
ENDBRANCH  56  79
ENDBRANCH  30  31
ENDBRANCH  23  25
ENDBRANCH  22  23
ENDBRANCH  21  22
ENDBRANCH   1  21
TORSDOF 19
ENDMDL
