MODEL 1
REMARK VINA RESULT:     -10.7      0.000      0.000
REMARK SMILES O=C1NC(=S)S/C1=C\c1ccc(OCc2cn(-c3ccc(C(=O)OCCOC(=O)c4ccc(-c5c6nc(c(-c7cccc(S(=O)(=O)[O-])c7F)c7ccc([nH]7)c(-c7cccc(S(=O)(=O)[O-])c7F)c7nc(c(-c8cccc(S(=O)(=O)[O-])c8F)c8ccc5[nH]8)C=C7)C=C6)cc4)cc3)nn2)cc1
REMARK SMILES IDX 25 1 24 2 22 3 23 4 21 5 18 6 19 7 94 8 20 9 93 10 17 11
REMARK SMILES IDX 15 12 16 13 96 14 95 15 14 16 13 17 12 18 9 19 10 20 98 21
REMARK SMILES IDX 11 22 97 23 8 24 1 25 2 26 3 27 7 28 4 29 6 31 5 32 26 33
REMARK SMILES IDX 27 34 28 35 29 36 30 37 31 38 92 39 32 40 91 41 33 42 34 43
REMARK SMILES IDX 35 44 85 45 36 46 90 47 84 48 86 49 37 50 89 51 83 52 82 53
REMARK SMILES IDX 38 55 70 56 50 57 69 58 51 59 54 60 68 61 87 62 52 63 53 64
REMARK SMILES IDX 67 66 88 67 55 68 39 69 40 70 48 71 41 72 43 73 49 74 42 75
REMARK SMILES IDX 44 76 45 77 46 78 47 79 71 80 72 81 80 82 73 83 75 84 81 85
REMARK SMILES IDX 74 86 76 87 77 88 78 89 79 90 56 91 57 92 65 93 58 94 60 95
REMARK SMILES IDX 66 96 59 97 61 98 62 99 63 100 64 101
REMARK H PARENT 3 30 86 54 54 65
REMARK Flexibility Score: inf
ROOT
ATOM      1  C   UNL A   1      43.165  21.554  26.161  1.00  0.00     0.275 C 
ENDROOT
BRANCH   1   2
ATOM      2  O   UNL A   1      42.842  22.338  25.001  1.00  0.00    -0.458 OA
BRANCH   2   3
ATOM      3  C   UNL A   1      43.906  22.711  24.247  1.00  0.00     0.338 C 
ATOM      4  O   UNL A   1      44.314  22.156  23.235  1.00  0.00    -0.246 OA
BRANCH   3   5
ATOM      5  C   UNL A   1      44.497  23.961  24.772  1.00  0.00     0.060 A 
ATOM      6  C   UNL A   1      45.552  26.411  25.583  1.00  0.00     0.066 A 
ATOM      7  C   UNL A   1      44.164  26.259  25.453  1.00  0.00     0.029 A 
ATOM      8  C   UNL A   1      46.404  25.316  25.390  1.00  0.00     0.029 A 
ATOM      9  C   UNL A   1      43.643  25.042  25.019  1.00  0.00     0.018 A 
ATOM     10  C   UNL A   1      45.872  24.084  25.004  1.00  0.00     0.018 A 
BRANCH   6  11
ATOM     11  N   UNL A   1      46.076  27.698  25.833  1.00  0.00    -0.220 N 
ATOM     12  C   UNL A   1      47.282  29.382  26.527  1.00  0.00     0.120 A 
ATOM     13  C   UNL A   1      46.928  28.088  26.845  1.00  0.00     0.144 A 
ATOM     14  N   UNL A   1      46.634  29.740  25.377  1.00  0.00    -0.131 NA
ATOM     15  N   UNL A   1      45.914  28.714  24.961  1.00  0.00    -0.062 NA
BRANCH  12  16
ATOM     16  C   UNL A   1      48.286  30.298  27.143  1.00  0.00     0.289 C 
BRANCH  16  17
ATOM     17  O   UNL A   1      47.755  31.284  28.045  1.00  0.00    -0.487 OA
BRANCH  17  18
ATOM     18  C   UNL A   1      47.973  32.605  27.757  1.00  0.00     0.119 A 
ATOM     19  C   UNL A   1      48.019  35.366  27.246  1.00  0.00    -0.024 A 
ATOM     20  C   UNL A   1      47.496  34.884  28.448  1.00  0.00     0.012 A 
ATOM     21  C   UNL A   1      48.602  34.468  26.348  1.00  0.00     0.012 A 
ATOM     22  C   UNL A   1      47.472  33.508  28.698  1.00  0.00     0.047 A 
ATOM     23  C   UNL A   1      48.602  33.099  26.617  1.00  0.00     0.047 A 
BRANCH  19  24
ATOM     24  C   UNL A   1      47.942  36.789  26.905  1.00  0.00     0.029 C 
ATOM     25  O   UNL A   1      47.725  39.636  26.361  1.00  0.00    -0.268 OA
ATOM     26  C   UNL A   1      48.645  39.162  27.010  1.00  0.00     0.263 C 
ATOM     27  N   UNL A   1      49.663  39.878  27.578  1.00  0.00    -0.307 N 
ATOM     28  C   UNL A   1      48.820  37.716  27.314  1.00  0.00     0.080 C 
ATOM     29  C   UNL A   1      50.618  39.196  28.270  1.00  0.00     0.145 C 
ATOM     30  H   UNL A   1      49.703  40.857  27.490  1.00  0.00     0.171 HD
ATOM     31  S   UNL A   1      50.256  37.487  28.246  1.00  0.00    -0.055 SA
ATOM     32  S   UNL A   1      51.912  39.915  29.004  1.00  0.00    -0.052 S 
ENDBRANCH  19  24
ENDBRANCH  17  18
ENDBRANCH  16  17
ENDBRANCH  12  16
ENDBRANCH   6  11
ENDBRANCH   3   5
ENDBRANCH   2   3
ENDBRANCH   1   2
BRANCH   1  33
ATOM     33  C   UNL A   1      41.906  21.032  26.838  1.00  0.00     0.275 C 
BRANCH  33  34
ATOM     34  O   UNL A   1      41.321  22.005  27.703  1.00  0.00    -0.458 OA
BRANCH  34  35
ATOM     35  C   UNL A   1      40.358  22.758  27.125  1.00  0.00     0.338 C 
ATOM     36  O   UNL A   1      39.534  22.397  26.300  1.00  0.00    -0.246 OA
BRANCH  35  37
ATOM     37  C   UNL A   1      40.606  24.168  27.426  1.00  0.00     0.060 A 
ATOM     38  C   UNL A   1      41.772  24.498  28.123  1.00  0.00     0.016 A 
ATOM     39  C   UNL A   1      39.557  25.084  27.255  1.00  0.00     0.016 A 
ATOM     40  C   UNL A   1      41.838  25.728  28.747  1.00  0.00     0.010 A 
ATOM     41  C   UNL A   1      39.615  26.295  27.900  1.00  0.00     0.010 A 
ATOM     42  C   UNL A   1      40.733  26.586  28.677  1.00  0.00    -0.014 A 
BRANCH  42  43
ATOM     43  C   UNL A   1      40.848  27.912  29.253  1.00  0.00     0.031 A 
ATOM     44  C   UNL A   1      41.831  28.741  28.516  1.00  0.00     0.074 A 
ATOM     45  C   UNL A   1      40.030  28.359  30.226  1.00  0.00     0.049 A 
ATOM     46  N   UNL A   1      42.978  29.160  28.937  1.00  0.00    -0.248 NA
ATOM     47  C   UNL A   1      41.620  28.939  27.070  1.00  0.00     0.031 C 
ATOM     48  C   UNL A   1      38.850  27.682  30.771  1.00  0.00     0.029 A 
ATOM     49  N   UNL A   1      39.988  29.580  30.830  1.00  0.00    -0.354 N 
ATOM     50  C   UNL A   1      43.493  29.914  27.886  1.00  0.00     0.074 A 
ATOM     51  C   UNL A   1      42.767  29.518  26.714  1.00  0.00     0.031 C 
ATOM     52  C   UNL A   1      38.079  28.587  31.417  1.00  0.00     0.029 A 
ATOM     53  C   UNL A   1      38.763  29.869  31.430  1.00  0.00     0.049 A 
ATOM     54  H   UNL A   1      40.753  30.201  30.841  1.00  0.00     0.167 HD
ATOM     55  C   UNL A   1      44.224  31.033  28.137  1.00  0.00     0.034 A 
ATOM     56  C   UNL A   1      38.316  31.091  31.820  1.00  0.00     0.034 A 
ATOM     57  C   UNL A   1      44.699  31.035  29.500  1.00  0.00     0.049 A 
ATOM     58  C   UNL A   1      39.494  31.982  31.910  1.00  0.00     0.074 A 
ATOM     59  C   UNL A   1      45.462  30.186  30.278  1.00  0.00     0.029 A 
ATOM     60  N   UNL A   1      44.030  31.859  30.370  1.00  0.00    -0.354 N 
ATOM     61  N   UNL A   1      40.427  31.859  32.809  1.00  0.00    -0.248 NA
ATOM     62  C   UNL A   1      39.852  32.758  30.734  1.00  0.00     0.031 C 
ATOM     63  C   UNL A   1      44.885  30.257  31.579  1.00  0.00     0.029 A 
ATOM     64  C   UNL A   1      43.856  31.200  31.552  1.00  0.00     0.049 A 
ATOM     65  H   UNL A   1      43.725  32.775  30.174  1.00  0.00     0.167 HD
ATOM     66  C   UNL A   1      41.601  32.102  32.111  1.00  0.00     0.074 A 
ATOM     67  C   UNL A   1      41.180  32.773  30.881  1.00  0.00     0.031 C 
ATOM     68  C   UNL A   1      42.756  31.461  32.452  1.00  0.00     0.034 A 
BRANCH  55  69
ATOM     69  C   UNL A   1      44.122  32.325  27.342  1.00  0.00     0.023 A 
ATOM     70  C   UNL A   1      44.806  32.355  26.104  1.00  0.00     0.012 A 
ATOM     71  C   UNL A   1      43.678  33.570  27.848  1.00  0.00     0.148 A 
ATOM     72  C   UNL A   1      45.119  33.558  25.463  1.00  0.00     0.002 A 
ATOM     73  C   UNL A   1      43.925  34.758  27.170  1.00  0.00     0.091 A 
ATOM     74  F   UNL A   1      43.112  33.652  29.052  1.00  0.00    -0.205 F 
ATOM     75  C   UNL A   1      44.679  34.761  25.997  1.00  0.00     0.022 A 
BRANCH  73  76
ATOM     76  S   UNL A   1      43.343  36.343  27.792  1.00  0.00     0.127 S 
ATOM     77  O   UNL A   1      43.920  37.266  26.819  1.00  0.00    -0.237 OA
ATOM     78  O   UNL A   1      41.892  36.176  27.707  1.00  0.00    -0.237 OA
ATOM     79  O   UNL A   1      43.854  36.453  29.152  1.00  0.00    -0.744 OA
ENDBRANCH  73  76
ENDBRANCH  55  69
BRANCH  56  80
ATOM     80  C   UNL A   1      36.941  31.646  31.880  1.00  0.00     0.023 A 
ATOM     81  C   UNL A   1      36.378  31.968  33.135  1.00  0.00     0.012 A 
ATOM     82  C   UNL A   1      36.300  32.137  30.723  1.00  0.00     0.148 A 
ATOM     83  C   UNL A   1      35.244  32.784  33.234  1.00  0.00     0.002 A 
ATOM     84  C   UNL A   1      35.169  32.943  30.826  1.00  0.00     0.091 A 
ATOM     85  F   UNL A   1      36.853  31.897  29.528  1.00  0.00    -0.205 F 
ATOM     86  C   UNL A   1      34.646  33.280  32.080  1.00  0.00     0.022 A 
BRANCH  84  87
ATOM     87  S   UNL A   1      34.361  33.645  29.381  1.00  0.00     0.127 S 
ATOM     88  O   UNL A   1      35.430  34.461  28.802  1.00  0.00    -0.237 OA
ATOM     89  O   UNL A   1      34.021  32.450  28.613  1.00  0.00    -0.237 OA
ATOM     90  O   UNL A   1      33.231  34.412  29.889  1.00  0.00    -0.744 OA
ENDBRANCH  84  87
ENDBRANCH  56  80
BRANCH  68  91
ATOM     91  C   UNL A   1      42.822  30.789  33.797  1.00  0.00     0.023 A 
ATOM     92  C   UNL A   1      43.077  31.481  34.999  1.00  0.00     0.012 A 
ATOM     93  C   UNL A   1      42.462  29.433  33.853  1.00  0.00     0.148 A 
ATOM     94  C   UNL A   1      42.995  30.820  36.229  1.00  0.00     0.002 A 
ATOM     95  C   UNL A   1      42.332  28.795  35.077  1.00  0.00     0.091 A 
ATOM     96  F   UNL A   1      42.234  28.790  32.697  1.00  0.00    -0.205 F 
ATOM     97  C   UNL A   1      42.608  29.481  36.269  1.00  0.00     0.022 A 
BRANCH  95  98
ATOM     98  S   UNL A   1      41.716  27.114  35.178  1.00  0.00     0.127 S 
ATOM     99  O   UNL A   1      42.891  26.335  34.794  1.00  0.00    -0.237 OA
ATOM    100  O   UNL A   1      41.337  26.997  36.587  1.00  0.00    -0.237 OA
ATOM    101  O   UNL A   1      40.587  27.048  34.256  1.00  0.00    -0.744 OA
ENDBRANCH  95  98
ENDBRANCH  68  91
ENDBRANCH  42  43
ENDBRANCH  35  37
ENDBRANCH  34  35
ENDBRANCH  33  34
ENDBRANCH   1  33
TORSDOF 19
ENDMDL
MODEL 2
REMARK VINA RESULT:     -10.5      4.817     12.684
REMARK SMILES O=C1NC(=S)S/C1=C\c1ccc(OCc2cn(-c3ccc(C(=O)OCCOC(=O)c4ccc(-c5c6nc(c(-c7cccc(S(=O)(=O)[O-])c7F)c7ccc([nH]7)c(-c7cccc(S(=O)(=O)[O-])c7F)c7nc(c(-c8cccc(S(=O)(=O)[O-])c8F)c8ccc5[nH]8)C=C7)C=C6)cc4)cc3)nn2)cc1
REMARK SMILES IDX 25 1 24 2 22 3 23 4 21 5 18 6 19 7 94 8 20 9 93 10 17 11
REMARK SMILES IDX 15 12 16 13 96 14 95 15 14 16 13 17 12 18 9 19 10 20 98 21
REMARK SMILES IDX 11 22 97 23 8 24 1 25 2 26 3 27 7 28 4 29 6 31 5 32 26 33
REMARK SMILES IDX 27 34 28 35 29 36 30 37 31 38 92 39 32 40 91 41 33 42 34 43
REMARK SMILES IDX 35 44 85 45 36 46 90 47 84 48 86 49 37 50 89 51 83 52 82 53
REMARK SMILES IDX 38 55 70 56 50 57 69 58 51 59 54 60 68 61 87 62 52 63 53 64
REMARK SMILES IDX 67 66 88 67 55 68 39 69 40 70 48 71 41 72 43 73 49 74 42 75
REMARK SMILES IDX 44 76 45 77 46 78 47 79 71 80 72 81 80 82 73 83 75 84 81 85
REMARK SMILES IDX 74 86 76 87 77 88 78 89 79 90 56 91 57 92 65 93 58 94 60 95
REMARK SMILES IDX 66 96 59 97 61 98 62 99 63 100 64 101
REMARK H PARENT 3 30 86 54 54 65
REMARK Flexibility Score: inf
ROOT
ATOM      1  C   UNL A   1      34.649  32.929  30.090  1.00  0.00     0.275 C 
ENDROOT
BRANCH   1   2
ATOM      2  O   UNL A   1      34.394  32.773  28.685  1.00  0.00    -0.458 OA
BRANCH   2   3
ATOM      3  C   UNL A   1      35.163  31.846  28.062  1.00  0.00     0.338 C 
ATOM      4  O   UNL A   1      36.386  31.814  28.030  1.00  0.00    -0.246 OA
BRANCH   3   5
ATOM      5  C   UNL A   1      34.315  30.794  27.461  1.00  0.00     0.060 A 
ATOM      6  C   UNL A   1      32.594  28.823  26.499  1.00  0.00     0.066 A 
ATOM      7  C   UNL A   1      32.140  30.144  26.623  1.00  0.00     0.029 A 
ATOM      8  C   UNL A   1      33.930  28.505  26.775  1.00  0.00     0.029 A 
ATOM      9  C   UNL A   1      32.994  31.120  27.131  1.00  0.00     0.018 A 
ATOM     10  C   UNL A   1      34.796  29.498  27.238  1.00  0.00     0.018 A 
BRANCH   6  11
ATOM     11  N   UNL A   1      31.666  27.811  26.168  1.00  0.00    -0.220 N 
ATOM     12  C   UNL A   1      30.534  26.241  25.155  1.00  0.00     0.120 A 
ATOM     13  C   UNL A   1      31.324  27.346  24.916  1.00  0.00     0.144 A 
ATOM     14  N   UNL A   1      30.402  26.086  26.508  1.00  0.00    -0.131 NA
ATOM     15  N   UNL A   1      31.094  27.034  27.111  1.00  0.00    -0.062 NA
BRANCH  12  16
ATOM     16  C   UNL A   1      29.975  25.220  24.220  1.00  0.00     0.289 C 
BRANCH  16  17
ATOM     17  O   UNL A   1      30.767  24.951  23.050  1.00  0.00    -0.487 OA
BRANCH  17  18
ATOM     18  C   UNL A   1      31.853  24.128  23.183  1.00  0.00     0.119 A 
ATOM     19  C   UNL A   1      34.038  22.499  23.861  1.00  0.00    -0.024 A 
ATOM     20  C   UNL A   1      32.793  22.285  24.457  1.00  0.00     0.012 A 
ATOM     21  C   UNL A   1      34.157  23.466  22.860  1.00  0.00     0.012 A 
ATOM     22  C   UNL A   1      31.707  23.101  24.118  1.00  0.00     0.047 A 
ATOM     23  C   UNL A   1      33.062  24.256  22.505  1.00  0.00     0.047 A 
BRANCH  19  24
ATOM     24  C   UNL A   1      35.218  21.744  24.288  1.00  0.00     0.029 C 
ATOM     25  O   UNL A   1      37.633  20.297  25.014  1.00  0.00    -0.268 OA
ATOM     26  C   UNL A   1      37.461  21.470  25.306  1.00  0.00     0.263 C 
ATOM     27  N   UNL A   1      38.356  22.259  25.974  1.00  0.00    -0.307 N 
ATOM     28  C   UNL A   1      36.246  22.263  24.974  1.00  0.00     0.080 C 
ATOM     29  C   UNL A   1      38.010  23.551  26.227  1.00  0.00     0.145 C 
ATOM     30  H   UNL A   1      39.227  21.902  26.263  1.00  0.00     0.171 HD
ATOM     31  S   UNL A   1      36.417  23.871  25.583  1.00  0.00    -0.055 SA
ATOM     32  S   UNL A   1      38.976  24.624  27.030  1.00  0.00    -0.052 S 
ENDBRANCH  19  24
ENDBRANCH  17  18
ENDBRANCH  16  17
ENDBRANCH  12  16
ENDBRANCH   6  11
ENDBRANCH   3   5
ENDBRANCH   2   3
ENDBRANCH   1   2
BRANCH   1  33
ATOM     33  C   UNL A   1      35.949  33.682  30.332  1.00  0.00     0.275 C 
BRANCH  33  34
ATOM     34  O   UNL A   1      36.670  33.161  31.449  1.00  0.00    -0.458 OA
BRANCH  34  35
ATOM     35  C   UNL A   1      36.548  31.825  31.616  1.00  0.00     0.338 C 
ATOM     36  O   UNL A   1      35.704  31.235  32.270  1.00  0.00    -0.246 OA
BRANCH  35  37
ATOM     37  C   UNL A   1      37.755  31.167  31.113  1.00  0.00     0.060 A 
ATOM     38  C   UNL A   1      37.684  29.805  30.806  1.00  0.00     0.016 A 
ATOM     39  C   UNL A   1      38.980  31.842  31.221  1.00  0.00     0.016 A 
ATOM     40  C   UNL A   1      38.861  29.091  30.711  1.00  0.00     0.010 A 
ATOM     41  C   UNL A   1      40.149  31.122  31.155  1.00  0.00     0.010 A 
ATOM     42  C   UNL A   1      40.076  29.748  30.946  1.00  0.00    -0.014 A 
BRANCH  42  43
ATOM     43  C   UNL A   1      41.310  29.013  30.751  1.00  0.00     0.031 A 
ATOM     44  C   UNL A   1      41.958  28.685  32.044  1.00  0.00     0.074 A 
ATOM     45  C   UNL A   1      41.706  28.555  29.547  1.00  0.00     0.049 A 
ATOM     46  N   UNL A   1      43.066  29.158  32.510  1.00  0.00    -0.248 NA
ATOM     47  C   UNL A   1      41.177  27.919  33.032  1.00  0.00     0.031 C 
ATOM     48  C   UNL A   1      40.947  28.590  28.294  1.00  0.00     0.029 A 
ATOM     49  N   UNL A   1      42.805  27.820  29.218  1.00  0.00    -0.354 N 
ATOM     50  C   UNL A   1      43.244  28.517  33.733  1.00  0.00     0.074 A 
ATOM     51  C   UNL A   1      41.959  28.003  34.108  1.00  0.00     0.031 C 
ATOM     52  C   UNL A   1      41.481  27.700  27.427  1.00  0.00     0.029 A 
ATOM     53  C   UNL A   1      42.677  27.123  28.017  1.00  0.00     0.049 A 
ATOM     54  H   UNL A   1      43.616  27.785  29.777  1.00  0.00     0.167 HD
ATOM     55  C   UNL A   1      44.491  28.171  34.152  1.00  0.00     0.034 A 
ATOM     56  C   UNL A   1      43.446  26.087  27.591  1.00  0.00     0.034 A 
ATOM     57  C   UNL A   1      45.495  28.906  33.421  1.00  0.00     0.049 A 
ATOM     58  C   UNL A   1      44.692  26.108  28.388  1.00  0.00     0.074 A 
ATOM     59  C   UNL A   1      45.779  30.241  33.210  1.00  0.00     0.029 A 
ATOM     60  N   UNL A   1      46.155  28.211  32.437  1.00  0.00    -0.354 N 
ATOM     61  N   UNL A   1      45.601  27.034  28.286  1.00  0.00    -0.248 NA
ATOM     62  C   UNL A   1      44.733  25.318  29.609  1.00  0.00     0.031 C 
ATOM     63  C   UNL A   1      46.239  30.314  31.862  1.00  0.00     0.029 A 
ATOM     64  C   UNL A   1      46.290  29.018  31.345  1.00  0.00     0.049 A 
ATOM     65  H   UNL A   1      46.478  27.283  32.509  1.00  0.00     0.167 HD
ATOM     66  C   UNL A   1      45.992  27.267  29.596  1.00  0.00     0.074 A 
ATOM     67  C   UNL A   1      45.524  26.103  30.346  1.00  0.00     0.031 C 
ATOM     68  C   UNL A   1      46.376  28.515  29.993  1.00  0.00     0.034 A 
BRANCH  55  69
ATOM     69  C   UNL A   1      44.833  26.867  34.854  1.00  0.00     0.023 A 
ATOM     70  C   UNL A   1      45.682  26.966  35.981  1.00  0.00     0.012 A 
ATOM     71  C   UNL A   1      44.639  25.569  34.322  1.00  0.00     0.148 A 
ATOM     72  C   UNL A   1      46.376  25.859  36.482  1.00  0.00     0.002 A 
ATOM     73  C   UNL A   1      45.273  24.460  34.869  1.00  0.00     0.091 A 
ATOM     74  F   UNL A   1      43.936  25.390  33.204  1.00  0.00    -0.205 F 
ATOM     75  C   UNL A   1      46.172  24.605  35.925  1.00  0.00     0.022 A 
BRANCH  73  76
ATOM     76  S   UNL A   1      45.014  22.802  34.216  1.00  0.00     0.127 S 
ATOM     77  O   UNL A   1      44.837  23.076  32.793  1.00  0.00    -0.237 OA
ATOM     78  O   UNL A   1      46.272  22.147  34.573  1.00  0.00    -0.237 OA
ATOM     79  O   UNL A   1      43.846  22.275  34.911  1.00  0.00    -0.744 OA
ENDBRANCH  73  76
ENDBRANCH  55  69
BRANCH  56  80
ATOM     80  C   UNL A   1      43.113  24.920  26.738  1.00  0.00     0.023 A 
ATOM     81  C   UNL A   1      43.754  24.768  25.488  1.00  0.00     0.012 A 
ATOM     82  C   UNL A   1      42.409  23.812  27.258  1.00  0.00     0.148 A 
ATOM     83  C   UNL A   1      43.731  23.546  24.804  1.00  0.00     0.002 A 
ATOM     84  C   UNL A   1      42.383  22.601  26.571  1.00  0.00     0.091 A 
ATOM     85  F   UNL A   1      41.848  23.914  28.469  1.00  0.00    -0.205 F 
ATOM     86  C   UNL A   1      43.055  22.460  25.350  1.00  0.00     0.022 A 
BRANCH  84  87
ATOM     87  S   UNL A   1      41.556  21.146  27.229  1.00  0.00     0.127 S 
ATOM     88  O   UNL A   1      41.092  20.483  26.008  1.00  0.00    -0.237 OA
ATOM     89  O   UNL A   1      42.648  20.464  27.917  1.00  0.00    -0.237 OA
ATOM     90  O   UNL A   1      40.486  21.647  28.081  1.00  0.00    -0.744 OA
ENDBRANCH  84  87
ENDBRANCH  56  80
BRANCH  68  91
ATOM     91  C   UNL A   1      46.719  29.523  28.930  1.00  0.00     0.023 A 
ATOM     92  C   UNL A   1      47.993  29.619  28.333  1.00  0.00     0.012 A 
ATOM     93  C   UNL A   1      45.664  30.294  28.414  1.00  0.00     0.148 A 
ATOM     94  C   UNL A   1      48.210  30.488  27.259  1.00  0.00     0.002 A 
ATOM     95  C   UNL A   1      45.871  31.115  27.317  1.00  0.00     0.091 A 
ATOM     96  F   UNL A   1      44.461  30.195  29.001  1.00  0.00    -0.205 F 
ATOM     97  C   UNL A   1      47.146  31.225  26.741  1.00  0.00     0.022 A 
BRANCH  95  98
ATOM     98  S   UNL A   1      44.504  31.980  26.544  1.00  0.00     0.127 S 
ATOM     99  O   UNL A   1      45.145  32.580  25.375  1.00  0.00    -0.237 OA
ATOM    100  O   UNL A   1      43.570  30.896  26.241  1.00  0.00    -0.237 OA
ATOM    101  O   UNL A   1      44.012  32.921  27.545  1.00  0.00    -0.744 OA
ENDBRANCH  95  98
ENDBRANCH  68  91
ENDBRANCH  42  43
ENDBRANCH  35  37
ENDBRANCH  34  35
ENDBRANCH  33  34
ENDBRANCH   1  33
TORSDOF 19
ENDMDL
MODEL 3
REMARK VINA RESULT:     -10.4      5.022     12.900
REMARK SMILES O=C1NC(=S)S/C1=C\c1ccc(OCc2cn(-c3ccc(C(=O)OCCOC(=O)c4ccc(-c5c6nc(c(-c7cccc(S(=O)(=O)[O-])c7F)c7ccc([nH]7)c(-c7cccc(S(=O)(=O)[O-])c7F)c7nc(c(-c8cccc(S(=O)(=O)[O-])c8F)c8ccc5[nH]8)C=C7)C=C6)cc4)cc3)nn2)cc1
REMARK SMILES IDX 25 1 24 2 22 3 23 4 21 5 18 6 19 7 94 8 20 9 93 10 17 11
REMARK SMILES IDX 15 12 16 13 96 14 95 15 14 16 13 17 12 18 9 19 10 20 98 21
REMARK SMILES IDX 11 22 97 23 8 24 1 25 2 26 3 27 7 28 4 29 6 31 5 32 26 33
REMARK SMILES IDX 27 34 28 35 29 36 30 37 31 38 92 39 32 40 91 41 33 42 34 43
REMARK SMILES IDX 35 44 85 45 36 46 90 47 84 48 86 49 37 50 89 51 83 52 82 53
REMARK SMILES IDX 38 55 70 56 50 57 69 58 51 59 54 60 68 61 87 62 52 63 53 64
REMARK SMILES IDX 67 66 88 67 55 68 39 69 40 70 48 71 41 72 43 73 49 74 42 75
REMARK SMILES IDX 44 76 45 77 46 78 47 79 71 80 72 81 80 82 73 83 75 84 81 85
REMARK SMILES IDX 74 86 76 87 77 88 78 89 79 90 56 91 57 92 65 93 58 94 60 95
REMARK SMILES IDX 66 96 59 97 61 98 62 99 63 100 64 101
REMARK H PARENT 3 30 86 54 54 65
REMARK Flexibility Score: inf
ROOT
ATOM      1  C   UNL A   1      35.062  32.864  30.089  1.00  0.00     0.275 C 
ENDROOT
BRANCH   1   2
ATOM      2  O   UNL A   1      34.899  32.701  28.672  1.00  0.00    -0.458 OA
BRANCH   2   3
ATOM      3  C   UNL A   1      35.588  31.666  28.130  1.00  0.00     0.338 C 
ATOM      4  O   UNL A   1      36.800  31.496  28.169  1.00  0.00    -0.246 OA
BRANCH   3   5
ATOM      5  C   UNL A   1      34.659  30.689  27.523  1.00  0.00     0.060 A 
ATOM      6  C   UNL A   1      32.795  28.855  26.557  1.00  0.00     0.066 A 
ATOM      7  C   UNL A   1      32.415  30.188  26.769  1.00  0.00     0.029 A 
ATOM      8  C   UNL A   1      34.125  28.460  26.747  1.00  0.00     0.029 A 
ATOM      9  C   UNL A   1      33.342  31.095  27.280  1.00  0.00     0.018 A 
ATOM     10  C   UNL A   1      35.062  29.385  27.211  1.00  0.00     0.018 A 
BRANCH   6  11
ATOM     11  N   UNL A   1      31.800  27.908  26.226  1.00  0.00    -0.220 N 
ATOM     12  C   UNL A   1      30.500  26.498  25.180  1.00  0.00     0.120 A 
ATOM     13  C   UNL A   1      31.288  27.612  24.980  1.00  0.00     0.144 A 
ATOM     14  N   UNL A   1      30.537  26.172  26.508  1.00  0.00    -0.131 NA
ATOM     15  N   UNL A   1      31.330  27.025  27.130  1.00  0.00    -0.062 NA
BRANCH  12  16
ATOM     16  C   UNL A   1      29.796  25.614  24.206  1.00  0.00     0.289 C 
BRANCH  16  17
ATOM     17  O   UNL A   1      30.548  25.260  23.032  1.00  0.00    -0.487 OA
BRANCH  17  18
ATOM     18  C   UNL A   1      31.566  24.355  23.168  1.00  0.00     0.119 A 
ATOM     19  C   UNL A   1      33.624  22.571  23.852  1.00  0.00    -0.024 A 
ATOM     20  C   UNL A   1      32.375  22.470  24.468  1.00  0.00     0.012 A 
ATOM     21  C   UNL A   1      33.806  23.505  22.829  1.00  0.00     0.012 A 
ATOM     22  C   UNL A   1      31.353  23.363  24.127  1.00  0.00     0.047 A 
ATOM     23  C   UNL A   1      32.772  24.373  22.472  1.00  0.00     0.047 A 
BRANCH  19  24
ATOM     24  C   UNL A   1      34.747  21.733  24.279  1.00  0.00     0.029 C 
ATOM     25  O   UNL A   1      37.048  20.111  25.003  1.00  0.00    -0.268 OA
ATOM     26  C   UNL A   1      36.980  21.302  25.263  1.00  0.00     0.263 C 
ATOM     27  N   UNL A   1      37.950  22.032  25.892  1.00  0.00    -0.307 N 
ATOM     28  C   UNL A   1      35.828  22.184  24.931  1.00  0.00     0.080 C 
ATOM     29  C   UNL A   1      37.717  23.355  26.113  1.00  0.00     0.145 C 
ATOM     30  H   UNL A   1      38.794  21.612  26.175  1.00  0.00     0.171 HD
ATOM     31  S   UNL A   1      36.143  23.788  25.489  1.00  0.00    -0.055 SA
ATOM     32  S   UNL A   1      38.785  24.366  26.866  1.00  0.00    -0.052 S 
ENDBRANCH  19  24
ENDBRANCH  17  18
ENDBRANCH  16  17
ENDBRANCH  12  16
ENDBRANCH   6  11
ENDBRANCH   3   5
ENDBRANCH   2   3
ENDBRANCH   1   2
BRANCH   1  33
ATOM     33  C   UNL A   1      36.453  33.381  30.426  1.00  0.00     0.275 C 
BRANCH  33  34
ATOM     34  O   UNL A   1      36.984  32.762  31.598  1.00  0.00    -0.458 OA
BRANCH  34  35
ATOM     35  C   UNL A   1      36.767  31.430  31.672  1.00  0.00     0.338 C 
ATOM     36  O   UNL A   1      35.801  30.865  32.157  1.00  0.00    -0.246 OA
BRANCH  35  37
ATOM     37  C   UNL A   1      38.000  30.723  31.324  1.00  0.00     0.060 A 
ATOM     38  C   UNL A   1      37.927  29.346  31.091  1.00  0.00     0.016 A 
ATOM     39  C   UNL A   1      39.225  31.382  31.506  1.00  0.00     0.016 A 
ATOM     40  C   UNL A   1      39.092  28.608  31.150  1.00  0.00     0.010 A 
ATOM     41  C   UNL A   1      40.378  30.641  31.592  1.00  0.00     0.010 A 
ATOM     42  C   UNL A   1      40.294  29.257  31.459  1.00  0.00    -0.014 A 
BRANCH  42  43
ATOM     43  C   UNL A   1      41.525  28.491  31.424  1.00  0.00     0.031 A 
ATOM     44  C   UNL A   1      42.147  28.400  32.767  1.00  0.00     0.074 A 
ATOM     45  C   UNL A   1      41.936  27.819  30.331  1.00  0.00     0.049 A 
ATOM     46  N   UNL A   1      43.251  28.944  33.158  1.00  0.00    -0.248 NA
ATOM     47  C   UNL A   1      41.342  27.832  33.863  1.00  0.00     0.031 C 
ATOM     48  C   UNL A   1      41.199  27.630  29.078  1.00  0.00     0.029 A 
ATOM     49  N   UNL A   1      43.034  27.029  30.161  1.00  0.00    -0.354 N 
ATOM     50  C   UNL A   1      43.403  28.535  34.481  1.00  0.00     0.074 A 
ATOM     51  C   UNL A   1      42.106  28.106  34.920  1.00  0.00     0.031 C 
ATOM     52  C   UNL A   1      41.739  26.594  28.398  1.00  0.00     0.029 A 
ATOM     53  C   UNL A   1      42.919  26.126  29.105  1.00  0.00     0.049 A 
ATOM     54  H   UNL A   1      43.834  27.092  30.732  1.00  0.00     0.167 HD
ATOM     55  C   UNL A   1      44.638  28.263  34.979  1.00  0.00     0.034 A 
ATOM     56  C   UNL A   1      43.686  25.025  28.889  1.00  0.00     0.034 A 
ATOM     57  C   UNL A   1      45.663  28.846  34.145  1.00  0.00     0.049 A 
ATOM     58  C   UNL A   1      44.918  25.183  29.692  1.00  0.00     0.074 A 
ATOM     59  C   UNL A   1      45.962  30.118  33.699  1.00  0.00     0.029 A 
ATOM     60  N   UNL A   1      46.332  27.979  33.317  1.00  0.00    -0.354 N 
ATOM     61  N   UNL A   1      45.838  26.069  29.439  1.00  0.00    -0.248 NA
ATOM     62  C   UNL A   1      44.931  24.629  31.036  1.00  0.00     0.031 C 
ATOM     63  C   UNL A   1      46.446  29.941  32.370  1.00  0.00     0.029 A 
ATOM     64  C   UNL A   1      46.493  28.573  32.099  1.00  0.00     0.049 A 
ATOM     65  H   UNL A   1      46.645  27.078  33.562  1.00  0.00     0.167 HD
ATOM     66  C   UNL A   1      46.208  26.535  30.693  1.00  0.00     0.074 A 
ATOM     67  C   UNL A   1      45.717  25.529  31.633  1.00  0.00     0.031 C 
ATOM     68  C   UNL A   1      46.597  27.831  30.863  1.00  0.00     0.034 A 
BRANCH  55  69
ATOM     69  C   UNL A   1      44.956  27.106  35.913  1.00  0.00     0.023 A 
ATOM     70  C   UNL A   1      45.689  27.426  37.080  1.00  0.00     0.012 A 
ATOM     71  C   UNL A   1      44.860  25.732  35.586  1.00  0.00     0.148 A 
ATOM     72  C   UNL A   1      46.369  26.450  37.816  1.00  0.00     0.002 A 
ATOM     73  C   UNL A   1      45.475  24.757  36.362  1.00  0.00     0.091 A 
ATOM     74  F   UNL A   1      44.274  25.342  34.453  1.00  0.00    -0.205 F 
ATOM     75  C   UNL A   1      46.263  25.114  37.455  1.00  0.00     0.022 A 
BRANCH  73  76
ATOM     76  S   UNL A   1      45.338  23.006  35.968  1.00  0.00     0.127 S 
ATOM     77  O   UNL A   1      45.695  22.393  37.244  1.00  0.00    -0.237 OA
ATOM     78  O   UNL A   1      43.926  22.899  35.599  1.00  0.00    -0.237 OA
ATOM     79  O   UNL A   1      46.264  22.768  34.869  1.00  0.00    -0.744 OA
ENDBRANCH  73  76
ENDBRANCH  55  69
BRANCH  56  80
ATOM     80  C   UNL A   1      43.356  23.724  28.257  1.00  0.00     0.023 A 
ATOM     81  C   UNL A   1      42.111  23.115  28.534  1.00  0.00     0.012 A 
ATOM     82  C   UNL A   1      44.106  23.227  27.171  1.00  0.00     0.148 A 
ATOM     83  C   UNL A   1      41.614  22.081  27.731  1.00  0.00     0.002 A 
ATOM     84  C   UNL A   1      43.613  22.193  26.380  1.00  0.00     0.091 A 
ATOM     85  F   UNL A   1      45.259  23.830  26.853  1.00  0.00    -0.205 F 
ATOM     86  C   UNL A   1      42.360  21.626  26.648  1.00  0.00     0.022 A 
BRANCH  84  87
ATOM     87  S   UNL A   1      44.506  21.575  24.947  1.00  0.00     0.127 S 
ATOM     88  O   UNL A   1      43.871  20.273  24.732  1.00  0.00    -0.237 OA
ATOM     89  O   UNL A   1      44.192  22.582  23.938  1.00  0.00    -0.237 OA
ATOM     90  O   UNL A   1      45.904  21.499  25.351  1.00  0.00    -0.744 OA
ENDBRANCH  84  87
ENDBRANCH  56  80
BRANCH  68  91
ATOM     91  C   UNL A   1      46.968  28.626  29.640  1.00  0.00     0.023 A 
ATOM     92  C   UNL A   1      48.239  28.567  29.031  1.00  0.00     0.012 A 
ATOM     93  C   UNL A   1      45.939  29.339  29.003  1.00  0.00     0.148 A 
ATOM     94  C   UNL A   1      48.478  29.229  27.823  1.00  0.00     0.002 A 
ATOM     95  C   UNL A   1      46.166  29.949  27.779  1.00  0.00     0.091 A 
ATOM     96  F   UNL A   1      44.739  29.391  29.603  1.00  0.00    -0.205 F 
ATOM     97  C   UNL A   1      47.438  29.907  27.189  1.00  0.00     0.022 A 
BRANCH  95  98
ATOM     98  S   UNL A   1      44.826  30.722  26.873  1.00  0.00     0.127 S 
ATOM     99  O   UNL A   1      43.968  29.580  26.564  1.00  0.00    -0.237 OA
ATOM    100  O   UNL A   1      44.272  31.656  27.856  1.00  0.00    -0.237 OA
ATOM    101  O   UNL A   1      45.446  31.374  25.725  1.00  0.00    -0.744 OA
ENDBRANCH  95  98
ENDBRANCH  68  91
ENDBRANCH  42  43
ENDBRANCH  35  37
ENDBRANCH  34  35
ENDBRANCH  33  34
ENDBRANCH   1  33
TORSDOF 19
ENDMDL
