MODEL 1
REMARK VINA RESULT:     -10.2      0.000      0.000
REMARK SMILES C#CCN(CC(=O)OCCOC(=O)c1ccc(-c2c3nc(c(-c4cccc(S(=O)(=O)[O-])c4F)c4ccc([nH]4)c(-c4cccc(S(=O)(=O)[O-])c4F)c4nc(c(-c5cccc(S(=O)(=O)[O-])c5F)c5ccc2[nH]5)C=C4)C=C3)cc1)C(=O)[C@H]1C[NH2+]C[C@H]1C
REMARK SMILES IDX 9 1 8 2 6 3 7 4 5 5 4 6 3 7 2 8 1 9 77 10 78 11 79 12 80 13
REMARK SMILES IDX 83 14 81 15 82 16 84 17 10 20 11 21 12 22 13 23 14 24 15 25
REMARK SMILES IDX 76 26 16 27 75 28 17 29 18 30 19 31 69 32 20 33 74 34 68 35
REMARK SMILES IDX 70 36 21 37 73 38 67 39 66 40 22 42 54 43 34 44 53 45 35 46
REMARK SMILES IDX 38 47 52 48 71 49 36 50 37 51 51 53 72 54 39 55 23 56 24 57
REMARK SMILES IDX 32 58 25 59 27 60 33 61 26 62 28 63 29 64 30 65 31 66 55 67
REMARK SMILES IDX 56 68 64 69 57 70 59 71 65 72 58 73 60 74 61 75 62 76 63 77
REMARK SMILES IDX 40 78 41 79 49 80 42 81 44 82 50 83 43 84 45 85 46 86 47 87
REMARK SMILES IDX 48 88
REMARK H PARENT 81 18 81 19 70 41 38 52
REMARK Flexibility Score: inf
ROOT
ATOM      1  C   UNL A   1      35.172  22.419  24.009  1.00  0.00     0.274 C 
ENDROOT
BRANCH   1   2
ATOM      2  O   UNL A   1      33.887  22.607  24.637  1.00  0.00    -0.461 OA
BRANCH   2   3
ATOM      3  C   UNL A   1      33.674  23.850  25.145  1.00  0.00     0.325 C 
ATOM      4  O   UNL A   1      33.048  24.082  26.176  1.00  0.00    -0.250 OA
BRANCH   3   5
ATOM      5  C   UNL A   1      34.425  24.957  24.409  1.00  0.00     0.243 C 
BRANCH   5   6
ATOM      6  N   UNL A   1      33.686  26.126  23.931  1.00  0.00    -0.320 N 
BRANCH   6   7
ATOM      7  C   UNL A   1      32.851  25.963  22.756  1.00  0.00     0.210 C 
BRANCH   7   8
ATOM      8  C   UNL A   1      31.440  25.625  23.210  1.00  0.00    -0.085 C 
ATOM      9  C   UNL A   1      30.230  25.336  23.600  1.00  0.00     0.006 C 
ENDBRANCH   7   8
ENDBRANCH   6   7
BRANCH   6  10
ATOM     10  C   UNL A   1      33.727  27.401  24.458  1.00  0.00     0.233 C 
ATOM     11  O   UNL A   1      34.215  28.325  23.796  1.00  0.00    -0.274 OA
BRANCH  10  12
ATOM     12  C   UNL A   1      33.147  27.679  25.836  1.00  0.00     0.142 C 
ATOM     13  C   UNL A   1      34.052  28.698  26.538  1.00  0.00     0.274 C 
ATOM     14  C   UNL A   1      31.774  28.341  26.005  1.00  0.00     0.059 C 
ATOM     15  N   UNL A   1      33.284  29.236  27.662  1.00  0.00    -0.345 N 
ATOM     16  C   UNL A   1      31.875  28.941  27.406  1.00  0.00     0.264 C 
ATOM     17  C   UNL A   1      31.377  29.401  24.983  1.00  0.00     0.015 C 
ATOM     18  H   UNL A   1      33.424  30.243  27.730  1.00  0.00     0.346 HD
ATOM     19  H   UNL A   1      33.588  28.815  28.541  1.00  0.00     0.346 HD
ENDBRANCH  10  12
ENDBRANCH   6  10
ENDBRANCH   5   6
ENDBRANCH   3   5
ENDBRANCH   2   3
ENDBRANCH   1   2
BRANCH   1  20
ATOM     20  C   UNL A   1      36.011  21.381  24.756  1.00  0.00     0.275 C 
BRANCH  20  21
ATOM     21  O   UNL A   1      37.402  21.507  24.409  1.00  0.00    -0.458 OA
BRANCH  21  22
ATOM     22  C   UNL A   1      38.270  21.148  25.382  1.00  0.00     0.338 C 
ATOM     23  O   UNL A   1      38.608  20.005  25.672  1.00  0.00    -0.246 OA
BRANCH  22  24
ATOM     24  C   UNL A   1      38.826  22.322  26.082  1.00  0.00     0.060 A 
ATOM     25  C   UNL A   1      38.210  23.571  26.016  1.00  0.00     0.016 A 
ATOM     26  C   UNL A   1      40.076  22.197  26.695  1.00  0.00     0.016 A 
ATOM     27  C   UNL A   1      38.908  24.707  26.443  1.00  0.00     0.010 A 
ATOM     28  C   UNL A   1      40.721  23.324  27.215  1.00  0.00     0.010 A 
ATOM     29  C   UNL A   1      40.177  24.604  27.044  1.00  0.00    -0.014 A 
BRANCH  29  30
ATOM     30  C   UNL A   1      40.933  25.816  27.488  1.00  0.00     0.031 A 
ATOM     31  C   UNL A   1      40.264  26.928  28.271  1.00  0.00     0.074 A 
ATOM     32  C   UNL A   1      42.239  25.941  27.173  1.00  0.00     0.049 A 
ATOM     33  N   UNL A   1      40.769  28.064  28.688  1.00  0.00    -0.248 NA
ATOM     34  C   UNL A   1      38.855  26.742  28.651  1.00  0.00     0.031 C 
ATOM     35  C   UNL A   1      43.022  24.962  26.420  1.00  0.00     0.029 A 
ATOM     36  N   UNL A   1      43.132  26.957  27.425  1.00  0.00    -0.354 N 
ATOM     37  C   UNL A   1      39.746  28.720  29.366  1.00  0.00     0.074 A 
ATOM     38  C   UNL A   1      38.587  27.859  29.313  1.00  0.00     0.031 C 
ATOM     39  C   UNL A   1      44.275  25.415  26.278  1.00  0.00     0.029 A 
ATOM     40  C   UNL A   1      44.366  26.753  26.852  1.00  0.00     0.049 A 
ATOM     41  H   UNL A   1      42.910  27.751  27.962  1.00  0.00     0.167 HD
ATOM     42  C   UNL A   1      39.759  29.926  29.982  1.00  0.00     0.034 A 
ATOM     43  C   UNL A   1      45.439  27.560  26.744  1.00  0.00     0.034 A 
ATOM     44  C   UNL A   1      40.891  30.811  30.026  1.00  0.00     0.049 A 
ATOM     45  C   UNL A   1      45.396  28.936  27.340  1.00  0.00     0.074 A 
ATOM     46  C   UNL A   1      40.995  32.045  30.645  1.00  0.00     0.029 A 
ATOM     47  N   UNL A   1      42.106  30.571  29.407  1.00  0.00    -0.354 N 
ATOM     48  N   UNL A   1      44.449  29.494  28.052  1.00  0.00    -0.248 NA
ATOM     49  C   UNL A   1      46.569  29.793  27.119  1.00  0.00     0.031 C 
ATOM     50  C   UNL A   1      42.267  32.563  30.378  1.00  0.00     0.029 A 
ATOM     51  C   UNL A   1      42.957  31.646  29.603  1.00  0.00     0.049 A 
ATOM     52  H   UNL A   1      42.331  29.757  28.900  1.00  0.00     0.167 HD
ATOM     53  C   UNL A   1      44.910  30.765  28.368  1.00  0.00     0.074 A 
ATOM     54  C   UNL A   1      46.236  30.885  27.796  1.00  0.00     0.031 C 
ATOM     55  C   UNL A   1      44.282  31.751  29.052  1.00  0.00     0.034 A 
BRANCH  42  56
ATOM     56  C   UNL A   1      38.507  30.365  30.694  1.00  0.00     0.023 A 
ATOM     57  C   UNL A   1      38.374  30.102  32.071  1.00  0.00     0.012 A 
ATOM     58  C   UNL A   1      37.510  31.105  30.030  1.00  0.00     0.148 A 
ATOM     59  C   UNL A   1      37.265  30.568  32.778  1.00  0.00     0.002 A 
ATOM     60  C   UNL A   1      36.420  31.588  30.746  1.00  0.00     0.091 A 
ATOM     61  F   UNL A   1      37.637  31.314  28.711  1.00  0.00    -0.205 F 
ATOM     62  C   UNL A   1      36.296  31.320  32.120  1.00  0.00     0.022 A 
BRANCH  60  63
ATOM     63  S   UNL A   1      35.157  32.615  29.985  1.00  0.00     0.127 S 
ATOM     64  O   UNL A   1      35.962  33.681  29.391  1.00  0.00    -0.237 OA
ATOM     65  O   UNL A   1      34.547  31.702  29.017  1.00  0.00    -0.237 OA
ATOM     66  O   UNL A   1      34.274  33.018  31.069  1.00  0.00    -0.744 OA
ENDBRANCH  60  63
ENDBRANCH  42  56
BRANCH  43  67
ATOM     67  C   UNL A   1      46.643  27.063  26.023  1.00  0.00     0.023 A 
ATOM     68  C   UNL A   1      46.811  27.363  24.659  1.00  0.00     0.012 A 
ATOM     69  C   UNL A   1      47.674  26.393  26.712  1.00  0.00     0.148 A 
ATOM     70  C   UNL A   1      47.989  27.012  23.998  1.00  0.00     0.002 A 
ATOM     71  C   UNL A   1      48.871  26.115  26.067  1.00  0.00     0.091 A 
ATOM     72  F   UNL A   1      47.482  26.079  28.002  1.00  0.00    -0.205 F 
ATOM     73  C   UNL A   1      49.027  26.410  24.705  1.00  0.00     0.022 A 
BRANCH  71  74
ATOM     74  S   UNL A   1      50.304  25.529  26.982  1.00  0.00     0.127 S 
ATOM     75  O   UNL A   1      50.531  26.622  27.922  1.00  0.00    -0.237 OA
ATOM     76  O   UNL A   1      49.810  24.289  27.582  1.00  0.00    -0.237 OA
ATOM     77  O   UNL A   1      51.333  25.322  25.969  1.00  0.00    -0.744 OA
ENDBRANCH  71  74
ENDBRANCH  43  67
BRANCH  55  78
ATOM     78  C   UNL A   1      45.008  33.058  29.206  1.00  0.00     0.023 A 
ATOM     79  C   UNL A   1      45.796  33.272  30.354  1.00  0.00     0.012 A 
ATOM     80  C   UNL A   1      44.956  34.048  28.206  1.00  0.00     0.148 A 
ATOM     81  C   UNL A   1      46.504  34.463  30.516  1.00  0.00     0.002 A 
ATOM     82  C   UNL A   1      45.691  35.218  28.359  1.00  0.00     0.091 A 
ATOM     83  F   UNL A   1      44.181  33.837  27.132  1.00  0.00    -0.205 F 
ATOM     84  C   UNL A   1      46.459  35.431  29.516  1.00  0.00     0.022 A 
BRANCH  82  85
ATOM     85  S   UNL A   1      45.736  36.478  27.079  1.00  0.00     0.127 S 
ATOM     86  O   UNL A   1      44.354  36.955  27.079  1.00  0.00    -0.237 OA
ATOM     87  O   UNL A   1      46.710  37.435  27.606  1.00  0.00    -0.237 OA
ATOM     88  O   UNL A   1      46.170  35.788  25.871  1.00  0.00    -0.744 OA
ENDBRANCH  82  85
ENDBRANCH  55  78
ENDBRANCH  29  30
ENDBRANCH  22  24
ENDBRANCH  21  22
ENDBRANCH  20  21
ENDBRANCH   1  20
TORSDOF 19
ENDMDL
MODEL 2
REMARK VINA RESULT:     -10.2      1.605      1.955
REMARK SMILES C#CCN(CC(=O)OCCOC(=O)c1ccc(-c2c3nc(c(-c4cccc(S(=O)(=O)[O-])c4F)c4ccc([nH]4)c(-c4cccc(S(=O)(=O)[O-])c4F)c4nc(c(-c5cccc(S(=O)(=O)[O-])c5F)c5ccc2[nH]5)C=C4)C=C3)cc1)C(=O)[C@H]1C[NH2+]C[C@H]1C
REMARK SMILES IDX 9 1 8 2 6 3 7 4 5 5 4 6 3 7 2 8 1 9 77 10 78 11 79 12 80 13
REMARK SMILES IDX 83 14 81 15 82 16 84 17 10 20 11 21 12 22 13 23 14 24 15 25
REMARK SMILES IDX 76 26 16 27 75 28 17 29 18 30 19 31 69 32 20 33 74 34 68 35
REMARK SMILES IDX 70 36 21 37 73 38 67 39 66 40 22 42 54 43 34 44 53 45 35 46
REMARK SMILES IDX 38 47 52 48 71 49 36 50 37 51 51 53 72 54 39 55 23 56 24 57
REMARK SMILES IDX 32 58 25 59 27 60 33 61 26 62 28 63 29 64 30 65 31 66 55 67
REMARK SMILES IDX 56 68 64 69 57 70 59 71 65 72 58 73 60 74 61 75 62 76 63 77
REMARK SMILES IDX 40 78 41 79 49 80 42 81 44 82 50 83 43 84 45 85 46 86 47 87
REMARK SMILES IDX 48 88
REMARK H PARENT 81 18 81 19 70 41 38 52
REMARK Flexibility Score: inf
ROOT
ATOM      1  C   UNL A   1      35.335  20.870  25.102  1.00  0.00     0.274 C 
ENDROOT
BRANCH   1   2
ATOM      2  O   UNL A   1      35.363  22.124  25.816  1.00  0.00    -0.461 OA
BRANCH   2   3
ATOM      3  C   UNL A   1      34.667  23.134  25.227  1.00  0.00     0.325 C 
ATOM      4  O   UNL A   1      34.269  23.118  24.066  1.00  0.00    -0.250 OA
BRANCH   3   5
ATOM      5  C   UNL A   1      34.266  24.253  26.186  1.00  0.00     0.243 C 
BRANCH   5   6
ATOM      6  N   UNL A   1      33.000  24.954  25.976  1.00  0.00    -0.320 N 
BRANCH   6   7
ATOM      7  C   UNL A   1      31.835  24.475  26.696  1.00  0.00     0.210 C 
BRANCH   7   8
ATOM      8  C   UNL A   1      31.409  23.145  26.095  1.00  0.00    -0.085 C 
ATOM      9  C   UNL A   1      31.044  22.005  25.578  1.00  0.00     0.006 C 
ENDBRANCH   7   8
ENDBRANCH   6   7
BRANCH   6  10
ATOM     10  C   UNL A   1      32.775  26.015  25.121  1.00  0.00     0.233 C 
ATOM     11  O   UNL A   1      32.028  25.871  24.146  1.00  0.00    -0.274 OA
BRANCH  10  12
ATOM     12  C   UNL A   1      33.418  27.366  25.392  1.00  0.00     0.142 C 
ATOM     13  C   UNL A   1      32.908  28.356  24.341  1.00  0.00     0.274 C 
ATOM     14  C   UNL A   1      33.134  28.139  26.686  1.00  0.00     0.059 C 
ATOM     15  N   UNL A   1      33.214  29.697  24.843  1.00  0.00    -0.345 N 
ATOM     16  C   UNL A   1      33.456  29.576  26.281  1.00  0.00     0.264 C 
ATOM     17  C   UNL A   1      31.729  28.038  27.269  1.00  0.00     0.015 C 
ATOM     18  H   UNL A   1      32.427  30.322  24.673  1.00  0.00     0.346 HD
ATOM     19  H   UNL A   1      34.031  30.082  24.369  1.00  0.00     0.346 HD
ENDBRANCH  10  12
ENDBRANCH   6  10
ENDBRANCH   5   6
ENDBRANCH   3   5
ENDBRANCH   2   3
ENDBRANCH   1   2
BRANCH   1  20
ATOM     20  C   UNL A   1      36.739  20.286  24.947  1.00  0.00     0.275 C 
BRANCH  20  21
ATOM     21  O   UNL A   1      37.726  21.333  24.941  1.00  0.00    -0.458 OA
BRANCH  21  22
ATOM     22  C   UNL A   1      38.809  21.105  25.719  1.00  0.00     0.338 C 
ATOM     23  O   UNL A   1      39.385  20.033  25.871  1.00  0.00    -0.246 OA
BRANCH  22  24
ATOM     24  C   UNL A   1      39.277  22.337  26.384  1.00  0.00     0.060 A 
ATOM     25  C   UNL A   1      38.687  23.574  26.127  1.00  0.00     0.016 A 
ATOM     26  C   UNL A   1      40.432  22.269  27.167  1.00  0.00     0.016 A 
ATOM     27  C   UNL A   1      39.332  24.745  26.545  1.00  0.00     0.010 A 
ATOM     28  C   UNL A   1      41.011  23.438  27.670  1.00  0.00     0.010 A 
ATOM     29  C   UNL A   1      40.508  24.697  27.317  1.00  0.00    -0.014 A 
BRANCH  29  30
ATOM     30  C   UNL A   1      41.209  25.945  27.753  1.00  0.00     0.031 A 
ATOM     31  C   UNL A   1      40.481  27.047  28.496  1.00  0.00     0.074 A 
ATOM     32  C   UNL A   1      42.516  26.112  27.465  1.00  0.00     0.049 A 
ATOM     33  N   UNL A   1      40.935  28.209  28.900  1.00  0.00    -0.248 NA
ATOM     34  C   UNL A   1      39.071  26.817  28.848  1.00  0.00     0.031 C 
ATOM     35  C   UNL A   1      43.352  25.147  26.751  1.00  0.00     0.029 A 
ATOM     36  N   UNL A   1      43.365  27.164  27.716  1.00  0.00    -0.354 N 
ATOM     37  C   UNL A   1      39.873  28.841  29.541  1.00  0.00     0.074 A 
ATOM     38  C   UNL A   1      38.747  27.937  29.480  1.00  0.00     0.031 C 
ATOM     39  C   UNL A   1      44.591  25.643  26.629  1.00  0.00     0.029 A 
ATOM     40  C   UNL A   1      44.619  26.995  27.176  1.00  0.00     0.049 A 
ATOM     41  H   UNL A   1      43.102  27.960  28.231  1.00  0.00     0.167 HD
ATOM     42  C   UNL A   1      39.827  30.059  30.131  1.00  0.00     0.034 A 
ATOM     43  C   UNL A   1      45.664  27.838  27.075  1.00  0.00     0.034 A 
ATOM     44  C   UNL A   1      40.925  30.985  30.182  1.00  0.00     0.049 A 
ATOM     45  C   UNL A   1      45.557  29.224  27.640  1.00  0.00     0.074 A 
ATOM     46  C   UNL A   1      40.970  32.235  30.777  1.00  0.00     0.029 A 
ATOM     47  N   UNL A   1      42.162  30.778  29.596  1.00  0.00    -0.354 N 
ATOM     48  N   UNL A   1      44.574  29.761  28.318  1.00  0.00    -0.248 NA
ATOM     49  C   UNL A   1      46.703  30.118  27.428  1.00  0.00     0.031 C 
ATOM     50  C   UNL A   1      42.228  32.795  30.528  1.00  0.00     0.029 A 
ATOM     51  C   UNL A   1      42.968  31.888  29.789  1.00  0.00     0.049 A 
ATOM     52  H   UNL A   1      42.429  29.963  29.112  1.00  0.00     0.167 HD
ATOM     53  C   UNL A   1      44.981  31.054  28.617  1.00  0.00     0.074 A 
ATOM     54  C   UNL A   1      46.315  31.211  28.073  1.00  0.00     0.031 C 
ATOM     55  C   UNL A   1      44.301  32.030  29.266  1.00  0.00     0.034 A 
BRANCH  42  56
ATOM     56  C   UNL A   1      38.544  30.466  30.805  1.00  0.00     0.023 A 
ATOM     57  C   UNL A   1      38.356  30.155  32.166  1.00  0.00     0.012 A 
ATOM     58  C   UNL A   1      37.570  31.223  30.126  1.00  0.00     0.148 A 
ATOM     59  C   UNL A   1      37.214  30.589  32.841  1.00  0.00     0.002 A 
ATOM     60  C   UNL A   1      36.448  31.675  30.812  1.00  0.00     0.091 A 
ATOM     61  F   UNL A   1      37.751  31.478  28.822  1.00  0.00    -0.205 F 
ATOM     62  C   UNL A   1      36.269  31.359  32.170  1.00  0.00     0.022 A 
BRANCH  60  63
ATOM     63  S   UNL A   1      35.211  32.721  30.034  1.00  0.00     0.127 S 
ATOM     64  O   UNL A   1      34.691  31.837  28.991  1.00  0.00    -0.237 OA
ATOM     65  O   UNL A   1      34.279  32.982  31.132  1.00  0.00    -0.237 OA
ATOM     66  O   UNL A   1      35.931  33.896  29.566  1.00  0.00    -0.744 OA
ENDBRANCH  60  63
ENDBRANCH  42  56
BRANCH  43  67
ATOM     67  C   UNL A   1      46.902  27.371  26.392  1.00  0.00     0.023 A 
ATOM     68  C   UNL A   1      47.718  26.407  27.012  1.00  0.00     0.012 A 
ATOM     69  C   UNL A   1      47.212  27.795  25.084  1.00  0.00     0.148 A 
ATOM     70  C   UNL A   1      48.812  25.867  26.336  1.00  0.00     0.002 A 
ATOM     71  C   UNL A   1      48.257  27.200  24.391  1.00  0.00     0.091 A 
ATOM     72  F   UNL A   1      46.448  28.745  24.523  1.00  0.00    -0.205 F 
ATOM     73  C   UNL A   1      49.069  26.244  25.019  1.00  0.00     0.022 A 
BRANCH  71  74
ATOM     74  S   UNL A   1      48.498  27.502  22.636  1.00  0.00     0.127 S 
ATOM     75  O   UNL A   1      49.735  28.275  22.628  1.00  0.00    -0.237 OA
ATOM     76  O   UNL A   1      48.612  26.147  22.095  1.00  0.00    -0.237 OA
ATOM     77  O   UNL A   1      47.293  28.206  22.210  1.00  0.00    -0.744 OA
ENDBRANCH  71  74
ENDBRANCH  43  67
BRANCH  55  78
ATOM     78  C   UNL A   1      44.975  33.366  29.408  1.00  0.00     0.023 A 
ATOM     79  C   UNL A   1      45.780  33.609  30.539  1.00  0.00     0.012 A 
ATOM     80  C   UNL A   1      44.859  34.356  28.415  1.00  0.00     0.148 A 
ATOM     81  C   UNL A   1      46.442  34.828  30.689  1.00  0.00     0.002 A 
ATOM     82  C   UNL A   1      45.547  35.555  28.555  1.00  0.00     0.091 A 
ATOM     83  F   UNL A   1      44.069  34.116  27.358  1.00  0.00    -0.205 F 
ATOM     84  C   UNL A   1      46.333  35.796  29.695  1.00  0.00     0.022 A 
BRANCH  82  85
ATOM     85  S   UNL A   1      45.510  36.820  27.280  1.00  0.00     0.127 S 
ATOM     86  O   UNL A   1      44.080  36.908  26.987  1.00  0.00    -0.237 OA
ATOM     87  O   UNL A   1      46.062  37.987  27.969  1.00  0.00    -0.237 OA
ATOM     88  O   UNL A   1      46.349  36.310  26.203  1.00  0.00    -0.744 OA
ENDBRANCH  82  85
ENDBRANCH  55  78
ENDBRANCH  29  30
ENDBRANCH  22  24
ENDBRANCH  21  22
ENDBRANCH  20  21
ENDBRANCH   1  20
TORSDOF 19
ENDMDL
MODEL 3
REMARK VINA RESULT:      -9.8      1.844      2.515
REMARK SMILES C#CCN(CC(=O)OCCOC(=O)c1ccc(-c2c3nc(c(-c4cccc(S(=O)(=O)[O-])c4F)c4ccc([nH]4)c(-c4cccc(S(=O)(=O)[O-])c4F)c4nc(c(-c5cccc(S(=O)(=O)[O-])c5F)c5ccc2[nH]5)C=C4)C=C3)cc1)C(=O)[C@H]1C[NH2+]C[C@H]1C
REMARK SMILES IDX 9 1 8 2 6 3 7 4 5 5 4 6 3 7 2 8 1 9 77 10 78 11 79 12 80 13
REMARK SMILES IDX 83 14 81 15 82 16 84 17 10 20 11 21 12 22 13 23 14 24 15 25
REMARK SMILES IDX 76 26 16 27 75 28 17 29 18 30 19 31 69 32 20 33 74 34 68 35
REMARK SMILES IDX 70 36 21 37 73 38 67 39 66 40 22 42 54 43 34 44 53 45 35 46
REMARK SMILES IDX 38 47 52 48 71 49 36 50 37 51 51 53 72 54 39 55 23 56 24 57
REMARK SMILES IDX 32 58 25 59 27 60 33 61 26 62 28 63 29 64 30 65 31 66 55 67
REMARK SMILES IDX 56 68 64 69 57 70 59 71 65 72 58 73 60 74 61 75 62 76 63 77
REMARK SMILES IDX 40 78 41 79 49 80 42 81 44 82 50 83 43 84 45 85 46 86 47 87
REMARK SMILES IDX 48 88
REMARK H PARENT 81 18 81 19 70 41 38 52
REMARK Flexibility Score: inf
ROOT
ATOM      1  C   UNL A   1      36.447  22.408  23.789  1.00  0.00     0.274 C 
ENDROOT
BRANCH   1   2
ATOM      2  O   UNL A   1      35.297  22.930  24.487  1.00  0.00    -0.461 OA
BRANCH   2   3
ATOM      3  C   UNL A   1      34.778  24.072  23.961  1.00  0.00     0.325 C 
ATOM      4  O   UNL A   1      34.303  24.163  22.832  1.00  0.00    -0.250 OA
BRANCH   3   5
ATOM      5  C   UNL A   1      34.678  25.224  24.958  1.00  0.00     0.243 C 
BRANCH   5   6
ATOM      6  N   UNL A   1      33.489  26.077  24.947  1.00  0.00    -0.320 N 
BRANCH   6   7
ATOM      7  C   UNL A   1      33.681  27.505  25.115  1.00  0.00     0.210 C 
BRANCH   7   8
ATOM      8  C   UNL A   1      33.879  28.129  23.743  1.00  0.00    -0.085 C 
ATOM      9  C   UNL A   1      34.048  28.664  22.566  1.00  0.00     0.006 C 
ENDBRANCH   7   8
ENDBRANCH   6   7
BRANCH   6  10
ATOM     10  C   UNL A   1      32.177  25.662  24.836  1.00  0.00     0.233 C 
ATOM     11  O   UNL A   1      31.551  25.878  23.791  1.00  0.00    -0.274 OA
BRANCH  10  12
ATOM     12  C   UNL A   1      31.510  24.915  25.980  1.00  0.00     0.142 C 
ATOM     13  C   UNL A   1      30.007  25.207  25.928  1.00  0.00     0.274 C 
ATOM     14  C   UNL A   1      31.509  23.383  26.039  1.00  0.00     0.059 C 
ATOM     15  N   UNL A   1      29.354  24.196  26.762  1.00  0.00    -0.345 N 
ATOM     16  C   UNL A   1      30.302  23.094  26.928  1.00  0.00     0.264 C 
ATOM     17  C   UNL A   1      31.406  22.630  24.716  1.00  0.00     0.015 C 
ATOM     18  H   UNL A   1      28.507  23.861  26.304  1.00  0.00     0.346 HD
ATOM     19  H   UNL A   1      29.091  24.588  27.666  1.00  0.00     0.346 HD
ENDBRANCH  10  12
ENDBRANCH   6  10
ENDBRANCH   5   6
ENDBRANCH   3   5
ENDBRANCH   2   3
ENDBRANCH   1   2
BRANCH   1  20
ATOM     20  C   UNL A   1      37.055  21.217  24.530  1.00  0.00     0.275 C 
BRANCH  20  21
ATOM     21  O   UNL A   1      37.489  21.606  25.846  1.00  0.00    -0.458 OA
BRANCH  21  22
ATOM     22  C   UNL A   1      38.827  21.558  26.046  1.00  0.00     0.338 C 
ATOM     23  O   UNL A   1      39.573  20.628  25.760  1.00  0.00    -0.246 OA
BRANCH  22  24
ATOM     24  C   UNL A   1      39.337  22.806  26.647  1.00  0.00     0.060 A 
ATOM     25  C   UNL A   1      38.859  24.055  26.253  1.00  0.00     0.016 A 
ATOM     26  C   UNL A   1      40.427  22.724  27.518  1.00  0.00     0.016 A 
ATOM     27  C   UNL A   1      39.557  25.209  26.627  1.00  0.00     0.010 A 
ATOM     28  C   UNL A   1      41.054  23.888  27.972  1.00  0.00     0.010 A 
ATOM     29  C   UNL A   1      40.670  25.146  27.486  1.00  0.00    -0.014 A 
BRANCH  29  30
ATOM     30  C   UNL A   1      41.429  26.375  27.876  1.00  0.00     0.031 A 
ATOM     31  C   UNL A   1      40.769  27.511  28.629  1.00  0.00     0.074 A 
ATOM     32  C   UNL A   1      42.729  26.492  27.536  1.00  0.00     0.049 A 
ATOM     33  N   UNL A   1      41.276  28.663  28.998  1.00  0.00    -0.248 NA
ATOM     34  C   UNL A   1      39.366  27.335  29.038  1.00  0.00     0.031 C 
ATOM     35  C   UNL A   1      43.504  25.489  26.806  1.00  0.00     0.029 A 
ATOM     36  N   UNL A   1      43.623  27.518  27.739  1.00  0.00    -0.354 N 
ATOM     37  C   UNL A   1      40.261  29.340  29.668  1.00  0.00     0.074 A 
ATOM     38  C   UNL A   1      39.105  28.474  29.664  1.00  0.00     0.031 C 
ATOM     39  C   UNL A   1      44.754  25.940  26.630  1.00  0.00     0.029 A 
ATOM     40  C   UNL A   1      44.848  27.298  27.155  1.00  0.00     0.049 A 
ATOM     41  H   UNL A   1      43.406  28.330  28.251  1.00  0.00     0.167 HD
ATOM     42  C   UNL A   1      40.280  30.567  30.241  1.00  0.00     0.034 A 
ATOM     43  C   UNL A   1      45.917  28.104  27.001  1.00  0.00     0.034 A 
ATOM     44  C   UNL A   1      41.410  31.455  30.236  1.00  0.00     0.049 A 
ATOM     45  C   UNL A   1      45.879  29.499  27.549  1.00  0.00     0.074 A 
ATOM     46  C   UNL A   1      41.519  32.711  30.810  1.00  0.00     0.029 A 
ATOM     47  N   UNL A   1      42.616  31.197  29.607  1.00  0.00    -0.354 N 
ATOM     48  N   UNL A   1      44.941  30.079  28.255  1.00  0.00    -0.248 NA
ATOM     49  C   UNL A   1      47.046  30.351  27.280  1.00  0.00     0.031 C 
ATOM     50  C   UNL A   1      42.786  33.223  30.506  1.00  0.00     0.029 A 
ATOM     51  C   UNL A   1      43.466  32.281  29.753  1.00  0.00     0.049 A 
ATOM     52  H   UNL A   1      42.836  30.367  29.127  1.00  0.00     0.167 HD
ATOM     53  C   UNL A   1      45.403  31.362  28.519  1.00  0.00     0.074 A 
ATOM     54  C   UNL A   1      46.719  31.466  27.923  1.00  0.00     0.031 C 
ATOM     55  C   UNL A   1      44.782  32.370  29.177  1.00  0.00     0.034 A 
BRANCH  42  56
ATOM     56  C   UNL A   1      39.037  31.027  30.956  1.00  0.00     0.023 A 
ATOM     57  C   UNL A   1      38.895  30.750  32.330  1.00  0.00     0.012 A 
ATOM     58  C   UNL A   1      38.060  31.800  30.300  1.00  0.00     0.148 A 
ATOM     59  C   UNL A   1      37.796  31.233  33.041  1.00  0.00     0.002 A 
ATOM     60  C   UNL A   1      36.981  32.301  31.021  1.00  0.00     0.091 A 
ATOM     61  F   UNL A   1      38.196  32.023  28.985  1.00  0.00    -0.205 F 
ATOM     62  C   UNL A   1      36.848  32.017  32.391  1.00  0.00     0.022 A 
BRANCH  60  63
ATOM     63  S   UNL A   1      35.746  33.368  30.271  1.00  0.00     0.127 S 
ATOM     64  O   UNL A   1      34.736  32.399  29.847  1.00  0.00    -0.237 OA
ATOM     65  O   UNL A   1      35.341  34.221  31.389  1.00  0.00    -0.237 OA
ATOM     66  O   UNL A   1      36.436  34.072  29.199  1.00  0.00    -0.744 OA
ENDBRANCH  60  63
ENDBRANCH  42  56
BRANCH  43  67
ATOM     67  C   UNL A   1      47.112  27.584  26.279  1.00  0.00     0.023 A 
ATOM     68  C   UNL A   1      47.957  26.655  26.911  1.00  0.00     0.012 A 
ATOM     69  C   UNL A   1      47.347  27.923  24.932  1.00  0.00     0.148 A 
ATOM     70  C   UNL A   1      49.009  26.065  26.209  1.00  0.00     0.002 A 
ATOM     71  C   UNL A   1      48.347  27.276  24.219  1.00  0.00     0.091 A 
ATOM     72  F   UNL A   1      46.556  28.841  24.356  1.00  0.00    -0.205 F 
ATOM     73  C   UNL A   1      49.190  26.356  24.859  1.00  0.00     0.022 A 
BRANCH  71  74
ATOM     74  S   UNL A   1      48.488  27.466  22.437  1.00  0.00     0.127 S 
ATOM     75  O   UNL A   1      48.650  26.085  21.996  1.00  0.00    -0.237 OA
ATOM     76  O   UNL A   1      47.208  28.082  22.084  1.00  0.00    -0.237 OA
ATOM     77  O   UNL A   1      49.636  28.345  22.246  1.00  0.00    -0.744 OA
ENDBRANCH  71  74
ENDBRANCH  43  67
BRANCH  55  78
ATOM     78  C   UNL A   1      45.506  33.684  29.274  1.00  0.00     0.023 A 
ATOM     79  C   UNL A   1      46.333  33.929  30.388  1.00  0.00     0.012 A 
ATOM     80  C   UNL A   1      45.413  34.649  28.254  1.00  0.00     0.148 A 
ATOM     81  C   UNL A   1      47.040  35.126  30.496  1.00  0.00     0.002 A 
ATOM     82  C   UNL A   1      46.146  35.826  28.352  1.00  0.00     0.091 A 
ATOM     83  F   UNL A   1      44.601  34.409  27.214  1.00  0.00    -0.205 F 
ATOM     84  C   UNL A   1      46.954  36.070  29.475  1.00  0.00     0.022 A 
BRANCH  82  85
ATOM     85  S   UNL A   1      46.138  37.055  27.042  1.00  0.00     0.127 S 
ATOM     86  O   UNL A   1      44.733  37.459  27.018  1.00  0.00    -0.237 OA
ATOM     87  O   UNL A   1      47.056  38.074  27.553  1.00  0.00    -0.237 OA
ATOM     88  O   UNL A   1      46.620  36.359  25.855  1.00  0.00    -0.744 OA
ENDBRANCH  82  85
ENDBRANCH  55  78
ENDBRANCH  29  30
ENDBRANCH  22  24
ENDBRANCH  21  22
ENDBRANCH  20  21
ENDBRANCH   1  20
TORSDOF 19
ENDMDL
