MODEL 1
REMARK VINA RESULT:     -13.5      0.000      0.000
REMARK SMILES Cc1c(NC(=O)[C@@H]2CC=CC[C@@H]2C(=O)OCCOC(=O)c2ccc(-c3c4nc(c(-c5cccc(S(=O)(=O)[O-])c5F)c5ccc([nH]5)c(-c5cccc(S(=O)(=O)[O-])c5F)c5nc(c(-c6cccc(S(=O)(=O)[O-])c6F)c6ccc3[nH]6)C=C5)C=C4)cc2)cccc1C(=O)N1CCOCC1
REMARK SMILES IDX 16 1 15 2 13 3 14 4 12 5 7 6 8 7 9 8 11 9 10 10 5 11 4 12
REMARK SMILES IDX 6 14 3 15 1 16 2 17 87 18 84 19 86 20 85 21 88 22 89 23
REMARK SMILES IDX 90 24 91 25 95 26 92 27 94 28 93 29 17 30 18 31 19 32 20 33
REMARK SMILES IDX 21 34 22 35 83 36 23 37 82 38 24 39 25 40 26 41 76 42 27 43
REMARK SMILES IDX 81 44 75 45 77 46 28 47 80 48 74 49 73 50 29 52 61 53 41 54
REMARK SMILES IDX 60 55 42 56 45 57 59 58 78 59 43 60 44 61 58 63 79 64 46 65
REMARK SMILES IDX 30 66 31 67 39 68 32 69 34 70 40 71 33 72 35 73 36 74 37 75
REMARK SMILES IDX 38 76 62 77 63 78 71 79 64 80 66 81 72 82 65 83 67 84 68 85
REMARK SMILES IDX 69 86 70 87 47 88 48 89 56 90 49 91 51 92 57 93 50 94 52 95
REMARK SMILES IDX 53 96 54 97 55 98
REMARK H PARENT 4 13 77 51 45 62
REMARK Flexibility Score: inf
ROOT
ATOM      1  C   UNL A   1      32.297  30.384  26.882  1.00  0.00     0.274 C 
ENDROOT
BRANCH   1   2
ATOM      2  O   UNL A   1      31.738  29.473  25.942  1.00  0.00    -0.462 OA
BRANCH   2   3
ATOM      3  C   UNL A   1      31.454  28.237  26.422  1.00  0.00     0.310 C 
ATOM      4  O   UNL A   1      31.428  27.952  27.616  1.00  0.00    -0.252 OA
BRANCH   3   5
ATOM      5  C   UNL A   1      31.265  27.210  25.318  1.00  0.00     0.116 C 
ATOM      6  C   UNL A   1      32.635  26.909  24.708  1.00  0.00     0.097 C 
ATOM      7  C   UNL A   1      33.242  28.162  24.071  1.00  0.00     0.041 C 
ATOM      8  C   UNL A   1      32.249  28.812  23.141  1.00  0.00    -0.030 C 
ATOM      9  C   UNL A   1      30.302  27.632  24.199  1.00  0.00     0.043 C 
ATOM     10  C   UNL A   1      30.934  28.544  23.177  1.00  0.00    -0.030 C 
BRANCH   6  11
ATOM     11  C   UNL A   1      33.512  26.287  25.768  1.00  0.00     0.228 C 
ATOM     12  N   UNL A   1      33.204  24.980  26.107  1.00  0.00    -0.326 N 
ATOM     13  H   UNL A   1      32.672  24.757  26.904  1.00  0.00     0.169 HD
ATOM     14  O   UNL A   1      34.398  26.910  26.347  1.00  0.00    -0.274 OA
BRANCH  12  15
ATOM     15  C   UNL A   1      33.706  23.983  25.228  1.00  0.00     0.044 A 
ATOM     16  C   UNL A   1      31.315  23.371  24.749  1.00  0.00     0.047 C 
ATOM     17  C   UNL A   1      32.793  23.123  24.576  1.00  0.00    -0.015 A 
ATOM     18  C   UNL A   1      33.315  22.034  23.845  1.00  0.00     0.045 A 
ATOM     19  C   UNL A   1      35.087  23.773  25.151  1.00  0.00     0.026 A 
ATOM     20  C   UNL A   1      34.706  21.790  23.860  1.00  0.00     0.014 A 
ATOM     21  C   UNL A   1      35.587  22.654  24.503  1.00  0.00     0.003 A 
BRANCH  18  22
ATOM     22  C   UNL A   1      32.490  20.945  23.243  1.00  0.00     0.254 C 
ATOM     23  O   UNL A   1      31.845  21.219  22.227  1.00  0.00    -0.269 OA
ATOM     24  N   UNL A   1      32.527  19.655  23.742  1.00  0.00    -0.334 N 
ATOM     25  C   UNL A   1      32.528  19.264  25.168  1.00  0.00     0.148 C 
ATOM     26  C   UNL A   1      32.280  18.562  22.808  1.00  0.00     0.148 C 
ATOM     27  C   UNL A   1      33.283  17.942  25.410  1.00  0.00     0.181 C 
ATOM     28  C   UNL A   1      33.179  17.374  23.135  1.00  0.00     0.181 C 
ATOM     29  O   UNL A   1      32.881  16.934  24.462  1.00  0.00    -0.378 OA
ENDBRANCH  18  22
ENDBRANCH  12  15
ENDBRANCH   6  11
ENDBRANCH   3   5
ENDBRANCH   2   3
ENDBRANCH   1   2
BRANCH   1  30
ATOM     30  C   UNL A   1      33.820  30.433  26.731  1.00  0.00     0.275 C 
BRANCH  30  31
ATOM     31  O   UNL A   1      34.661  29.943  27.828  1.00  0.00    -0.458 OA
BRANCH  31  32
ATOM     32  C   UNL A   1      35.778  30.445  28.423  1.00  0.00     0.338 C 
ATOM     33  O   UNL A   1      35.744  31.510  29.028  1.00  0.00    -0.246 OA
BRANCH  32  34
ATOM     34  C   UNL A   1      37.029  29.672  28.341  1.00  0.00     0.060 A 
ATOM     35  C   UNL A   1      37.873  29.743  27.214  1.00  0.00     0.016 A 
ATOM     36  C   UNL A   1      37.401  28.927  29.445  1.00  0.00     0.016 A 
ATOM     37  C   UNL A   1      39.146  29.160  27.253  1.00  0.00     0.010 A 
ATOM     38  C   UNL A   1      38.709  28.531  29.561  1.00  0.00     0.010 A 
ATOM     39  C   UNL A   1      39.571  28.583  28.449  1.00  0.00    -0.014 A 
BRANCH  39  40
ATOM     40  C   UNL A   1      40.680  27.641  28.569  1.00  0.00     0.031 A 
ATOM     41  C   UNL A   1      40.588  26.182  28.390  1.00  0.00     0.074 A 
ATOM     42  C   UNL A   1      41.852  28.296  28.755  1.00  0.00     0.049 A 
ATOM     43  N   UNL A   1      41.434  25.369  28.923  1.00  0.00    -0.248 NA
ATOM     44  C   UNL A   1      39.558  25.497  27.612  1.00  0.00     0.031 C 
ATOM     45  C   UNL A   1      43.229  27.870  28.629  1.00  0.00     0.029 A 
ATOM     46  N   UNL A   1      41.958  29.607  29.253  1.00  0.00    -0.354 N 
ATOM     47  C   UNL A   1      41.258  24.133  28.333  1.00  0.00     0.074 A 
ATOM     48  C   UNL A   1      40.012  24.233  27.610  1.00  0.00     0.031 C 
ATOM     49  C   UNL A   1      44.003  28.754  29.296  1.00  0.00     0.029 A 
ATOM     50  C   UNL A   1      43.111  29.664  30.014  1.00  0.00     0.049 A 
ATOM     51  H   UNL A   1      41.329  30.346  29.088  1.00  0.00     0.167 HD
ATOM     52  C   UNL A   1      42.289  23.240  28.364  1.00  0.00     0.034 A 
ATOM     53  C   UNL A   1      43.033  29.869  31.364  1.00  0.00     0.034 A 
ATOM     54  C   UNL A   1      43.427  23.814  29.086  1.00  0.00     0.049 A 
ATOM     55  C   UNL A   1      43.633  28.694  32.101  1.00  0.00     0.074 A 
ATOM     56  C   UNL A   1      44.525  24.529  28.637  1.00  0.00     0.029 A 
ATOM     57  N   UNL A   1      43.360  24.007  30.459  1.00  0.00    -0.354 N 
ATOM     58  N   UNL A   1      43.778  27.511  31.579  1.00  0.00    -0.248 NA
ATOM     59  C   UNL A   1      44.093  28.762  33.480  1.00  0.00     0.031 C 
ATOM     60  C   UNL A   1      45.073  25.226  29.739  1.00  0.00     0.029 A 
ATOM     61  C   UNL A   1      44.323  24.920  30.862  1.00  0.00     0.049 A 
ATOM     62  H   UNL A   1      42.721  23.561  31.060  1.00  0.00     0.167 HD
ATOM     63  C   UNL A   1      44.278  26.652  32.515  1.00  0.00     0.074 A 
ATOM     64  C   UNL A   1      44.498  27.496  33.679  1.00  0.00     0.031 C 
ATOM     65  C   UNL A   1      44.433  25.318  32.258  1.00  0.00     0.034 A 
BRANCH  52  66
ATOM     66  C   UNL A   1      42.446  22.031  27.456  1.00  0.00     0.023 A 
ATOM     67  C   UNL A   1      41.558  20.947  27.678  1.00  0.00     0.012 A 
ATOM     68  C   UNL A   1      43.391  21.854  26.424  1.00  0.00     0.148 A 
ATOM     69  C   UNL A   1      41.634  19.737  26.989  1.00  0.00     0.002 A 
ATOM     70  C   UNL A   1      43.478  20.629  25.738  1.00  0.00     0.091 A 
ATOM     71  F   UNL A   1      44.182  22.880  26.081  1.00  0.00    -0.205 F 
ATOM     72  C   UNL A   1      42.609  19.569  26.026  1.00  0.00     0.022 A 
BRANCH  70  73
ATOM     73  S   UNL A   1      44.719  20.284  24.483  1.00  0.00     0.127 S 
ATOM     74  O   UNL A   1      45.963  20.344  25.255  1.00  0.00    -0.237 OA
ATOM     75  O   UNL A   1      44.348  18.945  24.030  1.00  0.00    -0.237 OA
ATOM     76  O   UNL A   1      44.570  21.346  23.497  1.00  0.00    -0.744 OA
ENDBRANCH  70  73
ENDBRANCH  52  66
BRANCH  53  77
ATOM     77  C   UNL A   1      41.803  30.613  31.844  1.00  0.00     0.023 A 
ATOM     78  C   UNL A   1      41.538  31.904  31.313  1.00  0.00     0.012 A 
ATOM     79  C   UNL A   1      40.762  29.966  32.534  1.00  0.00     0.148 A 
ATOM     80  C   UNL A   1      40.257  32.468  31.361  1.00  0.00     0.002 A 
ATOM     81  C   UNL A   1      39.484  30.534  32.576  1.00  0.00     0.091 A 
ATOM     82  F   UNL A   1      40.998  28.780  33.110  1.00  0.00    -0.205 F 
ATOM     83  C   UNL A   1      39.223  31.772  31.976  1.00  0.00     0.022 A 
BRANCH  81  84
ATOM     84  S   UNL A   1      38.105  29.596  33.253  1.00  0.00     0.127 S 
ATOM     85  O   UNL A   1      36.946  30.162  32.562  1.00  0.00    -0.237 OA
ATOM     86  O   UNL A   1      38.396  28.221  32.870  1.00  0.00    -0.237 OA
ATOM     87  O   UNL A   1      38.191  29.918  34.674  1.00  0.00    -0.744 OA
ENDBRANCH  81  84
ENDBRANCH  53  77
BRANCH  65  88
ATOM     88  C   UNL A   1      44.737  24.265  33.296  1.00  0.00     0.023 A 
ATOM     89  C   UNL A   1      43.844  23.217  33.580  1.00  0.00     0.012 A 
ATOM     90  C   UNL A   1      46.011  24.206  33.917  1.00  0.00     0.148 A 
ATOM     91  C   UNL A   1      44.155  22.211  34.497  1.00  0.00     0.002 A 
ATOM     92  C   UNL A   1      46.363  23.132  34.725  1.00  0.00     0.091 A 
ATOM     93  F   UNL A   1      46.892  25.203  33.748  1.00  0.00    -0.205 F 
ATOM     94  C   UNL A   1      45.425  22.153  35.052  1.00  0.00     0.022 A 
BRANCH  92  95
ATOM     95  S   UNL A   1      48.073  22.880  35.217  1.00  0.00     0.127 S 
ATOM     96  O   UNL A   1      48.082  21.465  35.577  1.00  0.00    -0.237 OA
ATOM     97  O   UNL A   1      48.805  23.202  33.990  1.00  0.00    -0.237 OA
ATOM     98  O   UNL A   1      48.293  23.826  36.304  1.00  0.00    -0.744 OA
ENDBRANCH  92  95
ENDBRANCH  65  88
ENDBRANCH  39  40
ENDBRANCH  32  34
ENDBRANCH  31  32
ENDBRANCH  30  31
ENDBRANCH   1  30
TORSDOF 17
ENDMDL
MODEL 2
REMARK VINA RESULT:     -12.9      1.781      2.257
REMARK SMILES Cc1c(NC(=O)[C@@H]2CC=CC[C@@H]2C(=O)OCCOC(=O)c2ccc(-c3c4nc(c(-c5cccc(S(=O)(=O)[O-])c5F)c5ccc([nH]5)c(-c5cccc(S(=O)(=O)[O-])c5F)c5nc(c(-c6cccc(S(=O)(=O)[O-])c6F)c6ccc3[nH]6)C=C5)C=C4)cc2)cccc1C(=O)N1CCOCC1
REMARK SMILES IDX 16 1 15 2 13 3 14 4 12 5 7 6 8 7 9 8 11 9 10 10 5 11 4 12
REMARK SMILES IDX 6 14 3 15 1 16 2 17 87 18 84 19 86 20 85 21 88 22 89 23
REMARK SMILES IDX 90 24 91 25 95 26 92 27 94 28 93 29 17 30 18 31 19 32 20 33
REMARK SMILES IDX 21 34 22 35 83 36 23 37 82 38 24 39 25 40 26 41 76 42 27 43
REMARK SMILES IDX 81 44 75 45 77 46 28 47 80 48 74 49 73 50 29 52 61 53 41 54
REMARK SMILES IDX 60 55 42 56 45 57 59 58 78 59 43 60 44 61 58 63 79 64 46 65
REMARK SMILES IDX 30 66 31 67 39 68 32 69 34 70 40 71 33 72 35 73 36 74 37 75
REMARK SMILES IDX 38 76 62 77 63 78 71 79 64 80 66 81 72 82 65 83 67 84 68 85
REMARK SMILES IDX 69 86 70 87 47 88 48 89 56 90 49 91 51 92 57 93 50 94 52 95
REMARK SMILES IDX 53 96 54 97 55 98
REMARK H PARENT 4 13 77 51 45 62
REMARK Flexibility Score: inf
ROOT
ATOM      1  C   UNL A   1      33.587  29.267  25.600  1.00  0.00     0.274 C 
ENDROOT
BRANCH   1   2
ATOM      2  O   UNL A   1      33.750  28.190  24.684  1.00  0.00    -0.462 OA
BRANCH   2   3
ATOM      3  C   UNL A   1      32.603  27.635  24.222  1.00  0.00     0.310 C 
ATOM      4  O   UNL A   1      31.969  28.063  23.263  1.00  0.00    -0.252 OA
BRANCH   3   5
ATOM      5  C   UNL A   1      32.128  26.474  25.082  1.00  0.00     0.116 C 
ATOM      6  C   UNL A   1      32.133  25.211  24.221  1.00  0.00     0.097 C 
ATOM      7  C   UNL A   1      31.160  25.340  23.046  1.00  0.00     0.041 C 
ATOM      8  C   UNL A   1      29.804  25.784  23.534  1.00  0.00    -0.030 C 
ATOM      9  C   UNL A   1      30.733  26.653  25.699  1.00  0.00     0.043 C 
ATOM     10  C   UNL A   1      29.610  26.340  24.741  1.00  0.00    -0.030 C 
BRANCH   6  11
ATOM     11  C   UNL A   1      33.553  24.918  23.797  1.00  0.00     0.228 C 
ATOM     12  N   UNL A   1      34.479  24.847  24.823  1.00  0.00    -0.326 N 
ATOM     13  H   UNL A   1      35.068  25.602  25.051  1.00  0.00     0.169 HD
ATOM     14  O   UNL A   1      33.887  24.815  22.620  1.00  0.00    -0.274 OA
BRANCH  12  15
ATOM     15  C   UNL A   1      34.526  23.613  25.526  1.00  0.00     0.044 A 
ATOM     16  C   UNL A   1      35.901  22.717  23.620  1.00  0.00     0.047 C 
ATOM     17  C   UNL A   1      35.180  22.510  24.929  1.00  0.00    -0.015 A 
ATOM     18  C   UNL A   1      35.069  21.253  25.562  1.00  0.00     0.045 A 
ATOM     19  C   UNL A   1      33.796  23.473  26.710  1.00  0.00     0.026 A 
ATOM     20  C   UNL A   1      34.249  21.119  26.703  1.00  0.00     0.014 A 
ATOM     21  C   UNL A   1      33.621  22.220  27.277  1.00  0.00     0.003 A 
BRANCH  18  22
ATOM     22  C   UNL A   1      35.553  19.966  24.978  1.00  0.00     0.254 C 
ATOM     23  O   UNL A   1      36.773  19.786  24.940  1.00  0.00    -0.269 OA
ATOM     24  N   UNL A   1      34.668  18.975  24.593  1.00  0.00    -0.334 N 
ATOM     25  C   UNL A   1      33.399  19.165  23.861  1.00  0.00     0.148 C 
ATOM     26  C   UNL A   1      35.129  17.592  24.669  1.00  0.00     0.148 C 
ATOM     27  C   UNL A   1      32.353  18.090  24.215  1.00  0.00     0.181 C 
ATOM     28  C   UNL A   1      33.995  16.681  25.127  1.00  0.00     0.181 C 
ATOM     29  O   UNL A   1      32.932  16.770  24.176  1.00  0.00    -0.378 OA
ENDBRANCH  18  22
ENDBRANCH  12  15
ENDBRANCH   6  11
ENDBRANCH   3   5
ENDBRANCH   2   3
ENDBRANCH   1   2
BRANCH   1  30
ATOM     30  C   UNL A   1      34.480  29.058  26.827  1.00  0.00     0.275 C 
BRANCH  30  31
ATOM     31  O   UNL A   1      35.164  30.213  27.415  1.00  0.00    -0.458 OA
BRANCH  31  32
ATOM     32  C   UNL A   1      36.068  30.328  28.429  1.00  0.00     0.338 C 
ATOM     33  O   UNL A   1      35.843  31.049  29.393  1.00  0.00    -0.246 OA
BRANCH  32  34
ATOM     34  C   UNL A   1      37.316  29.551  28.352  1.00  0.00     0.060 A 
ATOM     35  C   UNL A   1      38.168  29.623  27.231  1.00  0.00     0.016 A 
ATOM     36  C   UNL A   1      37.679  28.800  29.455  1.00  0.00     0.016 A 
ATOM     37  C   UNL A   1      39.439  29.037  27.275  1.00  0.00     0.010 A 
ATOM     38  C   UNL A   1      38.985  28.400  29.578  1.00  0.00     0.010 A 
ATOM     39  C   UNL A   1      39.854  28.453  28.472  1.00  0.00    -0.014 A 
BRANCH  39  40
ATOM     40  C   UNL A   1      40.960  27.507  28.595  1.00  0.00     0.031 A 
ATOM     41  C   UNL A   1      40.870  26.053  28.381  1.00  0.00     0.074 A 
ATOM     42  C   UNL A   1      42.128  28.156  28.823  1.00  0.00     0.049 A 
ATOM     43  N   UNL A   1      41.704  25.227  28.915  1.00  0.00    -0.248 NA
ATOM     44  C   UNL A   1      39.857  25.387  27.565  1.00  0.00     0.031 C 
ATOM     45  C   UNL A   1      43.507  27.732  28.718  1.00  0.00     0.029 A 
ATOM     46  N   UNL A   1      42.224  29.456  29.352  1.00  0.00    -0.354 N 
ATOM     47  C   UNL A   1      41.540  24.005  28.293  1.00  0.00     0.074 A 
ATOM     48  C   UNL A   1      40.310  24.122  27.545  1.00  0.00     0.031 C 
ATOM     49  C   UNL A   1      44.266  28.599  29.421  1.00  0.00     0.029 A 
ATOM     50  C   UNL A   1      43.360  29.494  30.140  1.00  0.00     0.049 A 
ATOM     51  H   UNL A   1      41.599  30.199  29.190  1.00  0.00     0.167 HD
ATOM     52  C   UNL A   1      42.569  23.110  28.327  1.00  0.00     0.034 A 
ATOM     53  C   UNL A   1      43.251  29.669  31.492  1.00  0.00     0.034 A 
ATOM     54  C   UNL A   1      43.691  23.666  29.087  1.00  0.00     0.049 A 
ATOM     55  C   UNL A   1      43.834  28.477  32.215  1.00  0.00     0.074 A 
ATOM     56  C   UNL A   1      44.800  24.389  28.679  1.00  0.00     0.029 A 
ATOM     57  N   UNL A   1      43.593  23.828  30.463  1.00  0.00    -0.354 N 
ATOM     58  N   UNL A   1      43.989  27.305  31.670  1.00  0.00    -0.248 NA
ATOM     59  C   UNL A   1      44.263  28.513  33.605  1.00  0.00     0.031 C 
ATOM     60  C   UNL A   1      45.323  25.060  29.809  1.00  0.00     0.029 A 
ATOM     61  C   UNL A   1      44.548  24.730  30.907  1.00  0.00     0.049 A 
ATOM     62  H   UNL A   1      42.941  23.369  31.038  1.00  0.00     0.167 HD
ATOM     63  C   UNL A   1      44.468  26.425  32.597  1.00  0.00     0.074 A 
ATOM     64  C   UNL A   1      44.662  27.242  33.785  1.00  0.00     0.031 C 
ATOM     65  C   UNL A   1      44.627  25.096  32.314  1.00  0.00     0.034 A 
BRANCH  52  66
ATOM     66  C   UNL A   1      42.745  21.921  27.396  1.00  0.00     0.023 A 
ATOM     67  C   UNL A   1      41.909  20.799  27.629  1.00  0.00     0.012 A 
ATOM     68  C   UNL A   1      43.663  21.798  26.331  1.00  0.00     0.148 A 
ATOM     69  C   UNL A   1      42.013  19.603  26.919  1.00  0.00     0.002 A 
ATOM     70  C   UNL A   1      43.777  20.588  25.624  1.00  0.00     0.091 A 
ATOM     71  F   UNL A   1      44.400  22.860  25.979  1.00  0.00    -0.205 F 
ATOM     72  C   UNL A   1      42.961  19.489  25.922  1.00  0.00     0.022 A 
BRANCH  70  73
ATOM     73  S   UNL A   1      44.990  20.312  24.325  1.00  0.00     0.127 S 
ATOM     74  O   UNL A   1      46.255  20.498  25.039  1.00  0.00    -0.237 OA
ATOM     75  O   UNL A   1      44.715  18.934  23.923  1.00  0.00    -0.237 OA
ATOM     76  O   UNL A   1      44.710  21.329  23.320  1.00  0.00    -0.744 OA
ENDBRANCH  70  73
ENDBRANCH  52  66
BRANCH  53  77
ATOM     77  C   UNL A   1      42.012  30.403  31.961  1.00  0.00     0.023 A 
ATOM     78  C   UNL A   1      41.153  29.761  32.895  1.00  0.00     0.012 A 
ATOM     79  C   UNL A   1      41.845  31.787  31.768  1.00  0.00     0.148 A 
ATOM     80  C   UNL A   1      40.256  30.489  33.687  1.00  0.00     0.002 A 
ATOM     81  C   UNL A   1      40.950  32.507  32.565  1.00  0.00     0.091 A 
ATOM     82  F   UNL A   1      42.588  32.410  30.844  1.00  0.00    -0.205 F 
ATOM     83  C   UNL A   1      40.169  31.868  33.536  1.00  0.00     0.022 A 
BRANCH  81  84
ATOM     84  S   UNL A   1      40.912  34.304  32.475  1.00  0.00     0.127 S 
ATOM     85  O   UNL A   1      39.569  34.634  32.953  1.00  0.00    -0.237 OA
ATOM     86  O   UNL A   1      41.971  34.722  33.385  1.00  0.00    -0.237 OA
ATOM     87  O   UNL A   1      41.134  34.540  31.052  1.00  0.00    -0.744 OA
ENDBRANCH  81  84
ENDBRANCH  53  77
BRANCH  65  88
ATOM     88  C   UNL A   1      44.907  24.020  33.335  1.00  0.00     0.023 A 
ATOM     89  C   UNL A   1      43.984  22.996  33.611  1.00  0.00     0.012 A 
ATOM     90  C   UNL A   1      46.183  23.913  33.944  1.00  0.00     0.148 A 
ATOM     91  C   UNL A   1      44.271  21.968  34.511  1.00  0.00     0.002 A 
ATOM     92  C   UNL A   1      46.509  22.817  34.734  1.00  0.00     0.091 A 
ATOM     93  F   UNL A   1      47.093  24.885  33.782  1.00  0.00    -0.205 F 
ATOM     94  C   UNL A   1      45.543  21.863  35.055  1.00  0.00     0.022 A 
BRANCH  92  95
ATOM     95  S   UNL A   1      48.214  22.506  35.208  1.00  0.00     0.127 S 
ATOM     96  O   UNL A   1      48.444  23.540  36.214  1.00  0.00    -0.237 OA
ATOM     97  O   UNL A   1      48.150  21.143  35.738  1.00  0.00    -0.237 OA
ATOM     98  O   UNL A   1      48.974  22.626  33.971  1.00  0.00    -0.744 OA
ENDBRANCH  92  95
ENDBRANCH  65  88
ENDBRANCH  39  40
ENDBRANCH  32  34
ENDBRANCH  31  32
ENDBRANCH  30  31
ENDBRANCH   1  30
TORSDOF 17
ENDMDL
MODEL 3
REMARK VINA RESULT:     -12.2      1.759      2.476
REMARK SMILES Cc1c(NC(=O)[C@@H]2CC=CC[C@@H]2C(=O)OCCOC(=O)c2ccc(-c3c4nc(c(-c5cccc(S(=O)(=O)[O-])c5F)c5ccc([nH]5)c(-c5cccc(S(=O)(=O)[O-])c5F)c5nc(c(-c6cccc(S(=O)(=O)[O-])c6F)c6ccc3[nH]6)C=C5)C=C4)cc2)cccc1C(=O)N1CCOCC1
REMARK SMILES IDX 16 1 15 2 13 3 14 4 12 5 7 6 8 7 9 8 11 9 10 10 5 11 4 12
REMARK SMILES IDX 6 14 3 15 1 16 2 17 87 18 84 19 86 20 85 21 88 22 89 23
REMARK SMILES IDX 90 24 91 25 95 26 92 27 94 28 93 29 17 30 18 31 19 32 20 33
REMARK SMILES IDX 21 34 22 35 83 36 23 37 82 38 24 39 25 40 26 41 76 42 27 43
REMARK SMILES IDX 81 44 75 45 77 46 28 47 80 48 74 49 73 50 29 52 61 53 41 54
REMARK SMILES IDX 60 55 42 56 45 57 59 58 78 59 43 60 44 61 58 63 79 64 46 65
REMARK SMILES IDX 30 66 31 67 39 68 32 69 34 70 40 71 33 72 35 73 36 74 37 75
REMARK SMILES IDX 38 76 62 77 63 78 71 79 64 80 66 81 72 82 65 83 67 84 68 85
REMARK SMILES IDX 69 86 70 87 47 88 48 89 56 90 49 91 51 92 57 93 50 94 52 95
REMARK SMILES IDX 53 96 54 97 55 98
REMARK H PARENT 4 13 77 51 45 62
REMARK Flexibility Score: inf
ROOT
ATOM      1  C   UNL A   1      32.494  29.691  27.268  1.00  0.00     0.274 C 
ENDROOT
BRANCH   1   2
ATOM      2  O   UNL A   1      32.767  28.351  26.871  1.00  0.00    -0.462 OA
BRANCH   2   3
ATOM      3  C   UNL A   1      32.592  28.084  25.553  1.00  0.00     0.310 C 
ATOM      4  O   UNL A   1      33.511  27.889  24.764  1.00  0.00    -0.252 OA
BRANCH   3   5
ATOM      5  C   UNL A   1      31.133  28.145  25.133  1.00  0.00     0.116 C 
ATOM      6  C   UNL A   1      30.713  26.750  24.668  1.00  0.00     0.097 C 
ATOM      7  C   UNL A   1      31.524  26.307  23.448  1.00  0.00     0.041 C 
ATOM      8  C   UNL A   1      31.499  27.377  22.385  1.00  0.00    -0.030 C 
ATOM      9  C   UNL A   1      30.820  29.157  24.022  1.00  0.00     0.043 C 
ATOM     10  C   UNL A   1      31.147  28.648  22.640  1.00  0.00    -0.030 C 
BRANCH   6  11
ATOM     11  C   UNL A   1      30.815  25.798  25.836  1.00  0.00     0.228 C 
ATOM     12  N   UNL A   1      30.177  24.580  25.672  1.00  0.00    -0.326 N 
ATOM     13  H   UNL A   1      29.285  24.401  26.048  1.00  0.00     0.169 HD
ATOM     14  O   UNL A   1      31.368  26.097  26.892  1.00  0.00    -0.274 OA
BRANCH  12  15
ATOM     15  C   UNL A   1      30.892  23.606  24.926  1.00  0.00     0.044 A 
ATOM     16  C   UNL A   1      31.950  22.896  27.094  1.00  0.00     0.047 C 
ATOM     17  C   UNL A   1      31.829  22.784  25.594  1.00  0.00    -0.015 A 
ATOM     18  C   UNL A   1      32.650  21.943  24.811  1.00  0.00     0.045 A 
ATOM     19  C   UNL A   1      30.771  23.587  23.532  1.00  0.00     0.026 A 
ATOM     20  C   UNL A   1      32.573  22.012  23.403  1.00  0.00     0.014 A 
ATOM     21  C   UNL A   1      31.638  22.824  22.767  1.00  0.00     0.003 A 
BRANCH  18  22
ATOM     22  C   UNL A   1      33.795  21.145  25.342  1.00  0.00     0.254 C 
ATOM     23  O   UNL A   1      33.582  19.959  25.608  1.00  0.00    -0.269 OA
ATOM     24  N   UNL A   1      35.065  21.685  25.434  1.00  0.00    -0.334 N 
ATOM     25  C   UNL A   1      35.412  23.041  25.910  1.00  0.00     0.148 C 
ATOM     26  C   UNL A   1      36.197  20.773  25.308  1.00  0.00     0.148 C 
ATOM     27  C   UNL A   1      36.689  23.586  25.240  1.00  0.00     0.181 C 
ATOM     28  C   UNL A   1      37.331  21.440  24.536  1.00  0.00     0.181 C 
ATOM     29  O   UNL A   1      37.743  22.604  25.257  1.00  0.00    -0.378 OA
ENDBRANCH  18  22
ENDBRANCH  12  15
ENDBRANCH   6  11
ENDBRANCH   3   5
ENDBRANCH   2   3
ENDBRANCH   1   2
BRANCH   1  30
ATOM     30  C   UNL A   1      33.783  30.517  27.264  1.00  0.00     0.275 C 
BRANCH  30  31
ATOM     31  O   UNL A   1      35.000  29.943  27.844  1.00  0.00    -0.458 OA
BRANCH  31  32
ATOM     32  C   UNL A   1      36.162  30.503  28.283  1.00  0.00     0.338 C 
ATOM     33  O   UNL A   1      36.180  31.642  28.735  1.00  0.00    -0.246 OA
BRANCH  32  34
ATOM     34  C   UNL A   1      37.398  29.705  28.220  1.00  0.00     0.060 A 
ATOM     35  C   UNL A   1      38.247  29.738  27.095  1.00  0.00     0.016 A 
ATOM     36  C   UNL A   1      37.752  28.972  29.339  1.00  0.00     0.016 A 
ATOM     37  C   UNL A   1      39.508  29.132  27.149  1.00  0.00     0.010 A 
ATOM     38  C   UNL A   1      39.051  28.554  29.466  1.00  0.00     0.010 A 
ATOM     39  C   UNL A   1      39.918  28.568  28.357  1.00  0.00    -0.014 A 
BRANCH  39  40
ATOM     40  C   UNL A   1      41.008  27.607  28.498  1.00  0.00     0.031 A 
ATOM     41  C   UNL A   1      40.900  26.154  28.292  1.00  0.00     0.074 A 
ATOM     42  C   UNL A   1      42.183  28.241  28.734  1.00  0.00     0.049 A 
ATOM     43  N   UNL A   1      41.715  25.319  28.840  1.00  0.00    -0.248 NA
ATOM     44  C   UNL A   1      39.886  25.497  27.470  1.00  0.00     0.031 C 
ATOM     45  C   UNL A   1      43.556  27.796  28.647  1.00  0.00     0.029 A 
ATOM     46  N   UNL A   1      42.292  29.543  29.256  1.00  0.00    -0.354 N 
ATOM     47  C   UNL A   1      41.540  24.095  28.224  1.00  0.00     0.074 A 
ATOM     48  C   UNL A   1      40.321  24.226  27.461  1.00  0.00     0.031 C 
ATOM     49  C   UNL A   1      44.321  28.657  29.353  1.00  0.00     0.029 A 
ATOM     50  C   UNL A   1      43.419  29.569  30.057  1.00  0.00     0.049 A 
ATOM     51  H   UNL A   1      41.679  30.294  29.084  1.00  0.00     0.167 HD
ATOM     52  C   UNL A   1      42.556  23.186  28.275  1.00  0.00     0.034 A 
ATOM     53  C   UNL A   1      43.299  29.754  31.406  1.00  0.00     0.034 A 
ATOM     54  C   UNL A   1      43.678  23.731  29.044  1.00  0.00     0.049 A 
ATOM     55  C   UNL A   1      43.856  28.558  32.143  1.00  0.00     0.074 A 
ATOM     56  C   UNL A   1      44.801  24.435  28.643  1.00  0.00     0.029 A 
ATOM     57  N   UNL A   1      43.568  23.902  30.417  1.00  0.00    -0.354 N 
ATOM     58  N   UNL A   1      44.001  27.381  31.607  1.00  0.00    -0.248 NA
ATOM     59  C   UNL A   1      44.271  28.597  33.538  1.00  0.00     0.031 C 
ATOM     60  C   UNL A   1      45.322  25.106  29.774  1.00  0.00     0.029 A 
ATOM     61  C   UNL A   1      44.530  24.793  30.866  1.00  0.00     0.049 A 
ATOM     62  H   UNL A   1      42.902  23.457  30.988  1.00  0.00     0.167 HD
ATOM     63  C   UNL A   1      44.457  26.500  32.545  1.00  0.00     0.074 A 
ATOM     64  C   UNL A   1      44.650  27.321  33.729  1.00  0.00     0.031 C 
ATOM     65  C   UNL A   1      44.600  25.168  32.271  1.00  0.00     0.034 A 
BRANCH  52  66
ATOM     66  C   UNL A   1      42.725  21.989  27.353  1.00  0.00     0.023 A 
ATOM     67  C   UNL A   1      41.949  20.840  27.651  1.00  0.00     0.012 A 
ATOM     68  C   UNL A   1      43.584  21.883  26.238  1.00  0.00     0.148 A 
ATOM     69  C   UNL A   1      42.058  19.636  26.954  1.00  0.00     0.002 A 
ATOM     70  C   UNL A   1      43.705  20.666  25.544  1.00  0.00     0.091 A 
ATOM     71  F   UNL A   1      44.257  22.967  25.828  1.00  0.00    -0.205 F 
ATOM     72  C   UNL A   1      42.952  19.542  25.906  1.00  0.00     0.022 A 
BRANCH  70  73
ATOM     73  S   UNL A   1      44.851  20.415  24.181  1.00  0.00     0.127 S 
ATOM     74  O   UNL A   1      46.137  20.314  24.873  1.00  0.00    -0.237 OA
ATOM     75  O   UNL A   1      44.376  19.163  23.595  1.00  0.00    -0.237 OA
ATOM     76  O   UNL A   1      44.709  21.596  23.341  1.00  0.00    -0.744 OA
ENDBRANCH  70  73
ENDBRANCH  52  66
BRANCH  53  77
ATOM     77  C   UNL A   1      42.065  30.509  31.858  1.00  0.00     0.023 A 
ATOM     78  C   UNL A   1      40.954  29.768  32.344  1.00  0.00     0.012 A 
ATOM     79  C   UNL A   1      42.089  31.892  32.115  1.00  0.00     0.148 A 
ATOM     80  C   UNL A   1      39.976  30.359  33.155  1.00  0.00     0.002 A 
ATOM     81  C   UNL A   1      41.111  32.474  32.928  1.00  0.00     0.091 A 
ATOM     82  F   UNL A   1      43.084  32.633  31.611  1.00  0.00    -0.205 F 
ATOM     83  C   UNL A   1      40.067  31.711  33.464  1.00  0.00     0.022 A 
BRANCH  81  84
ATOM     84  S   UNL A   1      41.277  34.190  33.445  1.00  0.00     0.127 S 
ATOM     85  O   UNL A   1      41.527  34.895  32.187  1.00  0.00    -0.237 OA
ATOM     86  O   UNL A   1      39.984  34.502  34.040  1.00  0.00    -0.237 OA
ATOM     87  O   UNL A   1      42.421  34.123  34.350  1.00  0.00    -0.744 OA
ENDBRANCH  81  84
ENDBRANCH  53  77
BRANCH  65  88
ATOM     88  C   UNL A   1      44.853  24.094  33.302  1.00  0.00     0.023 A 
ATOM     89  C   UNL A   1      43.852  23.190  33.698  1.00  0.00     0.012 A 
ATOM     90  C   UNL A   1      46.161  23.858  33.796  1.00  0.00     0.148 A 
ATOM     91  C   UNL A   1      44.106  22.160  34.607  1.00  0.00     0.002 A 
ATOM     92  C   UNL A   1      46.436  22.753  34.593  1.00  0.00     0.091 A 
ATOM     93  F   UNL A   1      47.154  24.714  33.515  1.00  0.00    -0.205 F 
ATOM     94  C   UNL A   1      45.404  21.925  35.036  1.00  0.00     0.022 A 
BRANCH  92  95
ATOM     95  S   UNL A   1      48.133  22.261  34.921  1.00  0.00     0.127 S 
ATOM     96  O   UNL A   1      48.889  23.363  34.333  1.00  0.00    -0.237 OA
ATOM     97  O   UNL A   1      48.168  22.209  36.384  1.00  0.00    -0.237 OA
ATOM     98  O   UNL A   1      48.276  20.960  34.279  1.00  0.00    -0.744 OA
ENDBRANCH  92  95
ENDBRANCH  65  88
ENDBRANCH  39  40
ENDBRANCH  32  34
ENDBRANCH  31  32
ENDBRANCH  30  31
ENDBRANCH   1  30
TORSDOF 17
ENDMDL
