MODEL 1
REMARK VINA RESULT:     -12.5      0.000      0.000
REMARK SMILES Cc1ccc(Cl)c(Nc2ccccc2C(=O)NCC(=O)OCCOC(=O)c2ccc(-c3c4nc(c(-c5cccc(S(=O)(=O)[O-])c5F)c5ccc([nH]5)c(-c5cccc(S(=O)(=O)[O-])c5F)c5nc(c(-c6cccc(S(=O)(=O)[O-])c6F)c6ccc3[nH]6)C=C5)C=C4)cc2)c1Cl
REMARK SMILES IDX 22 1 21 2 19 3 20 4 18 5 17 6 15 7 16 8 14 10 9 11 10 12
REMARK SMILES IDX 11 13 13 14 12 15 8 16 7 18 1 19 2 20 3 21 90 22 4 23 91 24
REMARK SMILES IDX 5 25 6 26 23 27 24 28 25 29 26 30 27 31 28 32 89 33 29 34
REMARK SMILES IDX 88 35 30 36 31 37 32 38 82 39 33 40 87 41 81 42 83 43 34 44
REMARK SMILES IDX 86 45 80 46 79 47 35 49 67 50 47 51 66 52 48 53 51 54 65 55
REMARK SMILES IDX 84 56 49 57 50 58 64 60 85 61 52 62 36 63 37 64 45 65 38 66
REMARK SMILES IDX 40 67 46 68 39 69 41 70 42 71 43 72 44 73 68 74 69 75 77 76
REMARK SMILES IDX 70 77 72 78 78 79 71 80 73 81 74 82 75 83 76 84 53 85 54 86
REMARK SMILES IDX 62 87 55 88 57 89 63 90 56 91 58 92 59 93 60 94 61 95
REMARK H PARENT 17 9 8 17 83 48 51 59
REMARK Flexibility Score: inf
ROOT
ATOM      1  C   UNL A   1      30.755  29.488  24.579  1.00  0.00     0.274 C 
ENDROOT
BRANCH   1   2
ATOM      2  O   UNL A   1      31.092  29.636  23.186  1.00  0.00    -0.461 OA
BRANCH   2   3
ATOM      3  C   UNL A   1      30.304  28.898  22.366  1.00  0.00     0.325 C 
ATOM      4  O   UNL A   1      29.448  29.362  21.616  1.00  0.00    -0.250 OA
BRANCH   3   5
ATOM      5  C   UNL A   1      30.684  27.436  22.294  1.00  0.00     0.239 C 
BRANCH   5   6
ATOM      6  N   UNL A   1      31.777  26.913  21.506  1.00  0.00    -0.341 N 
ATOM      7  C   UNL A   1      32.821  26.101  21.879  1.00  0.00     0.253 C 
ATOM      8  O   UNL A   1      33.445  25.541  20.973  1.00  0.00    -0.269 OA
ATOM      9  H   UNL A   1      31.772  27.181  20.557  1.00  0.00     0.164 HD
BRANCH   7  10
ATOM     10  C   UNL A   1      33.360  26.010  23.274  1.00  0.00     0.063 A 
ATOM     11  C   UNL A   1      33.786  24.880  24.005  1.00  0.00     0.051 A 
ATOM     12  C   UNL A   1      34.131  25.065  25.367  1.00  0.00     0.027 A 
ATOM     13  C   UNL A   1      34.152  26.323  25.969  1.00  0.00     0.002 A 
ATOM     14  C   UNL A   1      33.423  27.282  23.897  1.00  0.00     0.016 A 
ATOM     15  C   UNL A   1      33.827  27.441  25.221  1.00  0.00     0.001 A 
BRANCH  11  16
ATOM     16  N   UNL A   1      34.032  23.577  23.523  1.00  0.00    -0.352 N 
ATOM     17  H   UNL A   1      33.830  23.480  22.564  1.00  0.00     0.167 HD
BRANCH  16  18
ATOM     18  C   UNL A   1      34.505  22.377  24.108  1.00  0.00     0.077 A 
ATOM     19  C   UNL A   1      37.700  20.417  24.951  1.00  0.00     0.046 C 
ATOM     20  C   UNL A   1      36.256  20.777  24.741  1.00  0.00    -0.030 A 
ATOM     21  C   UNL A   1      35.279  19.808  25.003  1.00  0.00     0.006 A 
ATOM     22  C   UNL A   1      35.863  22.069  24.326  1.00  0.00     0.069 A 
ATOM     23  C   UNL A   1      33.932  20.121  24.885  1.00  0.00     0.023 A 
ATOM     24  Cl  UNL A   1      37.074  23.318  24.260  1.00  0.00    -0.082 Cl
ATOM     25  C   UNL A   1      33.551  21.383  24.437  1.00  0.00     0.066 A 
ATOM     26  Cl  UNL A   1      31.852  21.693  24.268  1.00  0.00    -0.082 Cl
ENDBRANCH  16  18
ENDBRANCH  11  16
ENDBRANCH   7  10
ENDBRANCH   5   6
ENDBRANCH   3   5
ENDBRANCH   2   3
ENDBRANCH   1   2
BRANCH   1  27
ATOM     27  C   UNL A   1      31.200  30.712  25.381  1.00  0.00     0.275 C 
BRANCH  27  28
ATOM     28  O   UNL A   1      32.210  30.378  26.356  1.00  0.00    -0.458 OA
BRANCH  28  29
ATOM     29  C   UNL A   1      32.771  31.430  26.998  1.00  0.00     0.338 C 
ATOM     30  O   UNL A   1      32.263  32.530  27.179  1.00  0.00    -0.246 OA
BRANCH  29  31
ATOM     31  C   UNL A   1      34.136  31.115  27.462  1.00  0.00     0.060 A 
ATOM     32  C   UNL A   1      34.538  29.800  27.683  1.00  0.00     0.016 A 
ATOM     33  C   UNL A   1      34.988  32.165  27.810  1.00  0.00     0.016 A 
ATOM     34  C   UNL A   1      35.753  29.549  28.340  1.00  0.00     0.010 A 
ATOM     35  C   UNL A   1      36.236  31.900  28.393  1.00  0.00     0.010 A 
ATOM     36  C   UNL A   1      36.620  30.589  28.725  1.00  0.00    -0.014 A 
BRANCH  36  37
ATOM     37  C   UNL A   1      37.879  30.339  29.514  1.00  0.00     0.031 A 
ATOM     38  C   UNL A   1      38.997  29.492  28.932  1.00  0.00     0.074 A 
ATOM     39  C   UNL A   1      38.062  30.834  30.757  1.00  0.00     0.049 A 
ATOM     40  N   UNL A   1      40.019  28.937  29.535  1.00  0.00    -0.248 NA
ATOM     41  C   UNL A   1      38.946  29.220  27.486  1.00  0.00     0.031 C 
ATOM     42  C   UNL A   1      37.121  31.684  31.482  1.00  0.00     0.029 A 
ATOM     43  N   UNL A   1      39.111  30.678  31.639  1.00  0.00    -0.354 N 
ATOM     44  C   UNL A   1      40.653  28.152  28.576  1.00  0.00     0.074 A 
ATOM     45  C   UNL A   1      39.925  28.338  27.339  1.00  0.00     0.031 C 
ATOM     46  C   UNL A   1      37.647  32.012  32.671  1.00  0.00     0.029 A 
ATOM     47  C   UNL A   1      38.911  31.304  32.850  1.00  0.00     0.049 A 
ATOM     48  H   UNL A   1      39.925  30.169  31.424  1.00  0.00     0.167 HD
ATOM     49  C   UNL A   1      41.740  27.351  28.705  1.00  0.00     0.034 A 
ATOM     50  C   UNL A   1      39.616  31.275  34.001  1.00  0.00     0.034 A 
ATOM     51  C   UNL A   1      42.561  27.262  29.885  1.00  0.00     0.049 A 
ATOM     52  C   UNL A   1      40.856  30.432  34.108  1.00  0.00     0.074 A 
ATOM     53  C   UNL A   1      43.716  26.520  30.074  1.00  0.00     0.029 A 
ATOM     54  N   UNL A   1      42.340  27.956  31.062  1.00  0.00    -0.354 N 
ATOM     55  N   UNL A   1      41.428  29.689  33.195  1.00  0.00    -0.248 NA
ATOM     56  C   UNL A   1      41.544  30.421  35.409  1.00  0.00     0.031 C 
ATOM     57  C   UNL A   1      44.197  26.771  31.364  1.00  0.00     0.029 A 
ATOM     58  C   UNL A   1      43.343  27.672  31.976  1.00  0.00     0.049 A 
ATOM     59  H   UNL A   1      41.583  28.564  31.226  1.00  0.00     0.167 HD
ATOM     60  C   UNL A   1      42.538  29.118  33.809  1.00  0.00     0.074 A 
ATOM     61  C   UNL A   1      42.584  29.635  35.161  1.00  0.00     0.031 C 
ATOM     62  C   UNL A   1      43.419  28.220  33.305  1.00  0.00     0.034 A 
BRANCH  49  63
ATOM     63  C   UNL A   1      42.136  26.504  27.522  1.00  0.00     0.023 A 
ATOM     64  C   UNL A   1      42.929  27.049  26.496  1.00  0.00     0.012 A 
ATOM     65  C   UNL A   1      41.784  25.139  27.474  1.00  0.00     0.148 A 
ATOM     66  C   UNL A   1      43.341  26.257  25.423  1.00  0.00     0.002 A 
ATOM     67  C   UNL A   1      42.234  24.346  26.424  1.00  0.00     0.091 A 
ATOM     68  F   UNL A   1      41.009  24.640  28.448  1.00  0.00    -0.205 F 
ATOM     69  C   UNL A   1      43.005  24.905  25.393  1.00  0.00     0.022 A 
BRANCH  67  70
ATOM     70  S   UNL A   1      41.915  22.578  26.367  1.00  0.00     0.127 S 
ATOM     71  O   UNL A   1      42.525  22.125  27.615  1.00  0.00    -0.237 OA
ATOM     72  O   UNL A   1      40.451  22.520  26.349  1.00  0.00    -0.237 OA
ATOM     73  O   UNL A   1      42.546  22.108  25.142  1.00  0.00    -0.744 OA
ENDBRANCH  67  70
ENDBRANCH  49  63
BRANCH  50  74
ATOM     74  C   UNL A   1      39.138  32.081  35.162  1.00  0.00     0.023 A 
ATOM     75  C   UNL A   1      38.340  31.472  36.150  1.00  0.00     0.012 A 
ATOM     76  C   UNL A   1      39.548  33.416  35.337  1.00  0.00     0.148 A 
ATOM     77  C   UNL A   1      37.966  32.180  37.293  1.00  0.00     0.002 A 
ATOM     78  C   UNL A   1      39.240  34.088  36.512  1.00  0.00     0.091 A 
ATOM     79  F   UNL A   1      40.272  33.992  34.365  1.00  0.00    -0.205 F 
ATOM     80  C   UNL A   1      38.435  33.478  37.486  1.00  0.00     0.022 A 
BRANCH  78  81
ATOM     81  S   UNL A   1      39.975  35.677  36.913  1.00  0.00     0.127 S 
ATOM     82  O   UNL A   1      39.318  36.004  38.176  1.00  0.00    -0.237 OA
ATOM     83  O   UNL A   1      41.395  35.338  37.026  1.00  0.00    -0.237 OA
ATOM     84  O   UNL A   1      39.661  36.542  35.784  1.00  0.00    -0.744 OA
ENDBRANCH  78  81
ENDBRANCH  50  74
BRANCH  62  85
ATOM     85  C   UNL A   1      44.520  27.732  34.210  1.00  0.00     0.023 A 
ATOM     86  C   UNL A   1      45.727  28.455  34.280  1.00  0.00     0.012 A 
ATOM     87  C   UNL A   1      44.341  26.604  35.034  1.00  0.00     0.148 A 
ATOM     88  C   UNL A   1      46.749  28.049  35.137  1.00  0.00     0.002 A 
ATOM     89  C   UNL A   1      45.352  26.225  35.912  1.00  0.00     0.091 A 
ATOM     90  F   UNL A   1      43.195  25.914  34.938  1.00  0.00    -0.205 F 
ATOM     91  C   UNL A   1      46.559  26.942  35.961  1.00  0.00     0.022 A 
BRANCH  89  92
ATOM     92  S   UNL A   1      45.159  24.853  37.057  1.00  0.00     0.127 S 
ATOM     93  O   UNL A   1      45.017  23.721  36.146  1.00  0.00    -0.237 OA
ATOM     94  O   UNL A   1      46.420  24.883  37.801  1.00  0.00    -0.237 OA
ATOM     95  O   UNL A   1      43.985  25.171  37.858  1.00  0.00    -0.744 OA
ENDBRANCH  89  92
ENDBRANCH  62  85
ENDBRANCH  36  37
ENDBRANCH  29  31
ENDBRANCH  28  29
ENDBRANCH  27  28
ENDBRANCH   1  27
TORSDOF 18
ENDMDL
MODEL 2
REMARK VINA RESULT:     -11.8      4.819      9.933
REMARK SMILES Cc1ccc(Cl)c(Nc2ccccc2C(=O)NCC(=O)OCCOC(=O)c2ccc(-c3c4nc(c(-c5cccc(S(=O)(=O)[O-])c5F)c5ccc([nH]5)c(-c5cccc(S(=O)(=O)[O-])c5F)c5nc(c(-c6cccc(S(=O)(=O)[O-])c6F)c6ccc3[nH]6)C=C5)C=C4)cc2)c1Cl
REMARK SMILES IDX 22 1 21 2 19 3 20 4 18 5 17 6 15 7 16 8 14 10 9 11 10 12
REMARK SMILES IDX 11 13 13 14 12 15 8 16 7 18 1 19 2 20 3 21 90 22 4 23 91 24
REMARK SMILES IDX 5 25 6 26 23 27 24 28 25 29 26 30 27 31 28 32 89 33 29 34
REMARK SMILES IDX 88 35 30 36 31 37 32 38 82 39 33 40 87 41 81 42 83 43 34 44
REMARK SMILES IDX 86 45 80 46 79 47 35 49 67 50 47 51 66 52 48 53 51 54 65 55
REMARK SMILES IDX 84 56 49 57 50 58 64 60 85 61 52 62 36 63 37 64 45 65 38 66
REMARK SMILES IDX 40 67 46 68 39 69 41 70 42 71 43 72 44 73 68 74 69 75 77 76
REMARK SMILES IDX 70 77 72 78 78 79 71 80 73 81 74 82 75 83 76 84 53 85 54 86
REMARK SMILES IDX 62 87 55 88 57 89 63 90 56 91 58 92 59 93 60 94 61 95
REMARK H PARENT 17 9 8 17 83 48 51 59
REMARK Flexibility Score: inf
ROOT
ATOM      1  C   UNL A   1      34.986  22.040  25.055  1.00  0.00     0.274 C 
ENDROOT
BRANCH   1   2
ATOM      2  O   UNL A   1      34.310  22.031  23.784  1.00  0.00    -0.461 OA
BRANCH   2   3
ATOM      3  C   UNL A   1      34.728  23.015  22.950  1.00  0.00     0.325 C 
ATOM      4  O   UNL A   1      35.904  23.323  22.768  1.00  0.00    -0.250 OA
BRANCH   3   5
ATOM      5  C   UNL A   1      33.632  23.607  22.092  1.00  0.00     0.239 C 
BRANCH   5   6
ATOM      6  N   UNL A   1      32.228  23.294  22.230  1.00  0.00    -0.341 N 
ATOM      7  C   UNL A   1      31.348  23.624  23.233  1.00  0.00     0.253 C 
ATOM      8  O   UNL A   1      30.144  23.514  22.980  1.00  0.00    -0.269 OA
ATOM      9  H   UNL A   1      31.844  22.765  21.494  1.00  0.00     0.164 HD
BRANCH   7  10
ATOM     10  C   UNL A   1      31.752  23.914  24.647  1.00  0.00     0.063 A 
ATOM     11  C   UNL A   1      32.482  25.002  25.172  1.00  0.00     0.051 A 
ATOM     12  C   UNL A   1      32.841  24.958  26.543  1.00  0.00     0.027 A 
ATOM     13  C   UNL A   1      32.419  23.936  27.393  1.00  0.00     0.002 A 
ATOM     14  C   UNL A   1      31.307  22.905  25.538  1.00  0.00     0.016 A 
ATOM     15  C   UNL A   1      31.622  22.921  26.895  1.00  0.00     0.001 A 
BRANCH  11  16
ATOM     16  N   UNL A   1      32.814  26.214  24.531  1.00  0.00    -0.352 N 
ATOM     17  H   UNL A   1      33.600  26.133  23.944  1.00  0.00     0.167 HD
BRANCH  16  18
ATOM     18  C   UNL A   1      32.271  27.522  24.543  1.00  0.00     0.077 A 
ATOM     19  C   UNL A   1      31.929  30.690  26.690  1.00  0.00     0.046 C 
ATOM     20  C   UNL A   1      31.748  29.679  25.592  1.00  0.00    -0.030 A 
ATOM     21  C   UNL A   1      30.857  29.972  24.551  1.00  0.00     0.006 A 
ATOM     22  C   UNL A   1      32.476  28.469  25.567  1.00  0.00     0.069 A 
ATOM     23  C   UNL A   1      30.712  29.095  23.486  1.00  0.00     0.023 A 
ATOM     24  Cl  UNL A   1      33.755  28.252  26.727  1.00  0.00    -0.082 Cl
ATOM     25  C   UNL A   1      31.401  27.886  23.486  1.00  0.00     0.066 A 
ATOM     26  Cl  UNL A   1      31.138  26.814  22.146  1.00  0.00    -0.082 Cl
ENDBRANCH  16  18
ENDBRANCH  11  16
ENDBRANCH   7  10
ENDBRANCH   5   6
ENDBRANCH   3   5
ENDBRANCH   2   3
ENDBRANCH   1   2
BRANCH   1  27
ATOM     27  C   UNL A   1      35.987  20.887  25.149  1.00  0.00     0.275 C 
BRANCH  27  28
ATOM     28  O   UNL A   1      37.289  21.262  24.653  1.00  0.00    -0.458 OA
BRANCH  28  29
ATOM     29  C   UNL A   1      38.335  20.915  25.440  1.00  0.00     0.338 C 
ATOM     30  O   UNL A   1      38.779  19.786  25.606  1.00  0.00    -0.246 OA
BRANCH  29  31
ATOM     31  C   UNL A   1      38.903  22.087  26.134  1.00  0.00     0.060 A 
ATOM     32  C   UNL A   1      38.378  23.363  25.944  1.00  0.00     0.016 A 
ATOM     33  C   UNL A   1      40.068  21.924  26.885  1.00  0.00     0.016 A 
ATOM     34  C   UNL A   1      39.078  24.478  26.430  1.00  0.00     0.010 A 
ATOM     35  C   UNL A   1      40.716  23.040  27.436  1.00  0.00     0.010 A 
ATOM     36  C   UNL A   1      40.269  24.346  27.170  1.00  0.00    -0.014 A 
BRANCH  36  37
ATOM     37  C   UNL A   1      41.078  25.536  27.614  1.00  0.00     0.031 A 
ATOM     38  C   UNL A   1      40.456  26.605  28.494  1.00  0.00     0.074 A 
ATOM     39  C   UNL A   1      42.366  25.712  27.245  1.00  0.00     0.049 A 
ATOM     40  N   UNL A   1      40.880  27.818  28.754  1.00  0.00    -0.248 NA
ATOM     41  C   UNL A   1      39.182  26.272  29.152  1.00  0.00     0.031 C 
ATOM     42  C   UNL A   1      43.148  24.792  26.423  1.00  0.00     0.029 A 
ATOM     43  N   UNL A   1      43.242  26.744  27.510  1.00  0.00    -0.354 N 
ATOM     44  C   UNL A   1      39.870  28.429  29.492  1.00  0.00     0.074 A 
ATOM     45  C   UNL A   1      38.831  27.438  29.676  1.00  0.00     0.031 C 
ATOM     46  C   UNL A   1      44.393  25.272  26.288  1.00  0.00     0.029 A 
ATOM     47  C   UNL A   1      44.473  26.589  26.912  1.00  0.00     0.049 A 
ATOM     48  H   UNL A   1      43.011  27.516  28.074  1.00  0.00     0.167 HD
ATOM     49  C   UNL A   1      39.808  29.695  29.976  1.00  0.00     0.034 A 
ATOM     50  C   UNL A   1      45.531  27.421  26.811  1.00  0.00     0.034 A 
ATOM     51  C   UNL A   1      40.886  30.649  29.928  1.00  0.00     0.049 A 
ATOM     52  C   UNL A   1      45.471  28.798  27.409  1.00  0.00     0.074 A 
ATOM     53  C   UNL A   1      40.922  31.931  30.452  1.00  0.00     0.029 A 
ATOM     54  N   UNL A   1      42.125  30.420  29.355  1.00  0.00    -0.354 N 
ATOM     55  N   UNL A   1      44.503  29.359  28.089  1.00  0.00    -0.248 NA
ATOM     56  C   UNL A   1      46.649  29.660  27.221  1.00  0.00     0.031 C 
ATOM     57  C   UNL A   1      42.186  32.475  30.200  1.00  0.00     0.029 A 
ATOM     58  C   UNL A   1      42.937  31.530  29.524  1.00  0.00     0.049 A 
ATOM     59  H   UNL A   1      42.391  29.590  28.897  1.00  0.00     0.167 HD
ATOM     60  C   UNL A   1      44.950  30.638  28.405  1.00  0.00     0.074 A 
ATOM     61  C   UNL A   1      46.295  30.756  27.880  1.00  0.00     0.031 C 
ATOM     62  C   UNL A   1      44.291  31.634  29.045  1.00  0.00     0.034 A 
BRANCH  49  63
ATOM     63  C   UNL A   1      38.524  30.136  30.633  1.00  0.00     0.023 A 
ATOM     64  C   UNL A   1      38.304  29.878  32.000  1.00  0.00     0.012 A 
ATOM     65  C   UNL A   1      37.570  30.878  29.908  1.00  0.00     0.148 A 
ATOM     66  C   UNL A   1      37.141  30.327  32.626  1.00  0.00     0.002 A 
ATOM     67  C   UNL A   1      36.434  31.359  30.549  1.00  0.00     0.091 A 
ATOM     68  F   UNL A   1      37.783  31.096  28.602  1.00  0.00    -0.205 F 
ATOM     69  C   UNL A   1      36.213  31.077  31.906  1.00  0.00     0.022 A 
BRANCH  67  70
ATOM     70  S   UNL A   1      35.241  32.407  29.706  1.00  0.00     0.127 S 
ATOM     71  O   UNL A   1      34.725  31.504  28.679  1.00  0.00    -0.237 OA
ATOM     72  O   UNL A   1      34.288  32.725  30.772  1.00  0.00    -0.237 OA
ATOM     73  O   UNL A   1      36.002  33.552  29.224  1.00  0.00    -0.744 OA
ENDBRANCH  67  70
ENDBRANCH  49  63
BRANCH  50  74
ATOM     74  C   UNL A   1      46.751  26.956  26.089  1.00  0.00     0.023 A 
ATOM     75  C   UNL A   1      46.905  27.251  24.721  1.00  0.00     0.012 A 
ATOM     76  C   UNL A   1      47.796  26.306  26.773  1.00  0.00     0.148 A 
ATOM     77  C   UNL A   1      48.081  26.913  24.051  1.00  0.00     0.002 A 
ATOM     78  C   UNL A   1      48.994  26.044  26.121  1.00  0.00     0.091 A 
ATOM     79  F   UNL A   1      47.613  25.994  28.065  1.00  0.00    -0.205 F 
ATOM     80  C   UNL A   1      49.134  26.331  24.756  1.00  0.00     0.022 A 
BRANCH  78  81
ATOM     81  S   UNL A   1      50.452  25.487  27.012  1.00  0.00     0.127 S 
ATOM     82  O   UNL A   1      50.696  26.604  27.920  1.00  0.00    -0.237 OA
ATOM     83  O   UNL A   1      49.970  24.263  27.654  1.00  0.00    -0.237 OA
ATOM     84  O   UNL A   1      51.463  25.260  25.988  1.00  0.00    -0.744 OA
ENDBRANCH  78  81
ENDBRANCH  50  74
BRANCH  62  85
ATOM     85  C   UNL A   1      45.006  32.948  29.223  1.00  0.00     0.023 A 
ATOM     86  C   UNL A   1      45.849  33.129  30.337  1.00  0.00     0.012 A 
ATOM     87  C   UNL A   1      44.896  33.974  28.265  1.00  0.00     0.148 A 
ATOM     88  C   UNL A   1      46.553  34.320  30.508  1.00  0.00     0.002 A 
ATOM     89  C   UNL A   1      45.629  35.147  28.424  1.00  0.00     0.091 A 
ATOM     90  F   UNL A   1      44.072  33.794  27.222  1.00  0.00    -0.205 F 
ATOM     91  C   UNL A   1      46.453  35.324  29.548  1.00  0.00     0.022 A 
BRANCH  89  92
ATOM     92  S   UNL A   1      45.611  36.460  27.197  1.00  0.00     0.127 S 
ATOM     93  O   UNL A   1      46.386  37.503  27.864  1.00  0.00    -0.237 OA
ATOM     94  O   UNL A   1      46.284  35.836  26.056  1.00  0.00    -0.237 OA
ATOM     95  O   UNL A   1      44.205  36.765  26.969  1.00  0.00    -0.744 OA
ENDBRANCH  89  92
ENDBRANCH  62  85
ENDBRANCH  36  37
ENDBRANCH  29  31
ENDBRANCH  28  29
ENDBRANCH  27  28
ENDBRANCH   1  27
TORSDOF 18
ENDMDL
MODEL 3
REMARK VINA RESULT:     -11.5      1.646      2.314
REMARK SMILES Cc1ccc(Cl)c(Nc2ccccc2C(=O)NCC(=O)OCCOC(=O)c2ccc(-c3c4nc(c(-c5cccc(S(=O)(=O)[O-])c5F)c5ccc([nH]5)c(-c5cccc(S(=O)(=O)[O-])c5F)c5nc(c(-c6cccc(S(=O)(=O)[O-])c6F)c6ccc3[nH]6)C=C5)C=C4)cc2)c1Cl
REMARK SMILES IDX 22 1 21 2 19 3 20 4 18 5 17 6 15 7 16 8 14 10 9 11 10 12
REMARK SMILES IDX 11 13 13 14 12 15 8 16 7 18 1 19 2 20 3 21 90 22 4 23 91 24
REMARK SMILES IDX 5 25 6 26 23 27 24 28 25 29 26 30 27 31 28 32 89 33 29 34
REMARK SMILES IDX 88 35 30 36 31 37 32 38 82 39 33 40 87 41 81 42 83 43 34 44
REMARK SMILES IDX 86 45 80 46 79 47 35 49 67 50 47 51 66 52 48 53 51 54 65 55
REMARK SMILES IDX 84 56 49 57 50 58 64 60 85 61 52 62 36 63 37 64 45 65 38 66
REMARK SMILES IDX 40 67 46 68 39 69 41 70 42 71 43 72 44 73 68 74 69 75 77 76
REMARK SMILES IDX 70 77 72 78 78 79 71 80 73 81 74 82 75 83 76 84 53 85 54 86
REMARK SMILES IDX 62 87 55 88 57 89 63 90 56 91 58 92 59 93 60 94 61 95
REMARK H PARENT 17 9 8 17 83 48 51 59
REMARK Flexibility Score: inf
ROOT
ATOM      1  C   UNL A   1      31.895  28.641  24.067  1.00  0.00     0.274 C 
ENDROOT
BRANCH   1   2
ATOM      2  O   UNL A   1      33.032  29.041  23.278  1.00  0.00    -0.461 OA
BRANCH   2   3
ATOM      3  C   UNL A   1      33.648  27.999  22.665  1.00  0.00     0.325 C 
ATOM      4  O   UNL A   1      34.232  28.070  21.586  1.00  0.00    -0.250 OA
BRANCH   3   5
ATOM      5  C   UNL A   1      33.733  26.748  23.510  1.00  0.00     0.239 C 
BRANCH   5   6
ATOM      6  N   UNL A   1      33.917  25.415  22.980  1.00  0.00    -0.341 N 
ATOM      7  C   UNL A   1      33.263  24.247  23.291  1.00  0.00     0.253 C 
ATOM      8  O   UNL A   1      33.377  23.312  22.493  1.00  0.00    -0.269 OA
ATOM      9  H   UNL A   1      34.617  25.333  22.292  1.00  0.00     0.164 HD
BRANCH   7  10
ATOM     10  C   UNL A   1      32.596  23.980  24.607  1.00  0.00     0.063 A 
ATOM     11  C   UNL A   1      33.083  23.300  25.743  1.00  0.00     0.051 A 
ATOM     12  C   UNL A   1      32.184  23.075  26.816  1.00  0.00     0.027 A 
ATOM     13  C   UNL A   1      30.884  23.581  26.820  1.00  0.00     0.002 A 
ATOM     14  C   UNL A   1      31.284  24.514  24.649  1.00  0.00     0.016 A 
ATOM     15  C   UNL A   1      30.442  24.331  25.744  1.00  0.00     0.001 A 
BRANCH  11  16
ATOM     16  N   UNL A   1      34.409  22.902  26.015  1.00  0.00    -0.352 N 
ATOM     17  H   UNL A   1      34.839  23.454  26.708  1.00  0.00     0.167 HD
BRANCH  16  18
ATOM     18  C   UNL A   1      35.262  21.889  25.512  1.00  0.00     0.077 A 
ATOM     19  C   UNL A   1      35.382  18.176  24.533  1.00  0.00     0.046 C 
ATOM     20  C   UNL A   1      35.797  19.583  24.863  1.00  0.00    -0.030 A 
ATOM     21  C   UNL A   1      37.159  19.909  24.818  1.00  0.00     0.006 A 
ATOM     22  C   UNL A   1      34.850  20.583  25.178  1.00  0.00     0.069 A 
ATOM     23  C   UNL A   1      37.575  21.211  25.051  1.00  0.00     0.023 A 
ATOM     24  Cl  UNL A   1      33.162  20.215  24.974  1.00  0.00    -0.082 Cl
ATOM     25  C   UNL A   1      36.643  22.184  25.401  1.00  0.00     0.066 A 
ATOM     26  Cl  UNL A   1      37.238  23.783  25.725  1.00  0.00    -0.082 Cl
ENDBRANCH  16  18
ENDBRANCH  11  16
ENDBRANCH   7  10
ENDBRANCH   5   6
ENDBRANCH   3   5
ENDBRANCH   2   3
ENDBRANCH   1   2
BRANCH   1  27
ATOM     27  C   UNL A   1      31.754  29.526  25.306  1.00  0.00     0.275 C 
BRANCH  27  28
ATOM     28  O   UNL A   1      33.020  30.083  25.717  1.00  0.00    -0.458 OA
BRANCH  28  29
ATOM     29  C   UNL A   1      32.954  31.041  26.672  1.00  0.00     0.338 C 
ATOM     30  O   UNL A   1      32.094  31.907  26.778  1.00  0.00    -0.246 OA
BRANCH  29  31
ATOM     31  C   UNL A   1      34.091  30.950  27.609  1.00  0.00     0.060 A 
ATOM     32  C   UNL A   1      34.820  32.080  27.970  1.00  0.00     0.016 A 
ATOM     33  C   UNL A   1      34.519  29.689  28.028  1.00  0.00     0.016 A 
ATOM     34  C   UNL A   1      36.026  31.929  28.672  1.00  0.00     0.010 A 
ATOM     35  C   UNL A   1      35.683  29.557  28.798  1.00  0.00     0.010 A 
ATOM     36  C   UNL A   1      36.495  30.668  29.087  1.00  0.00    -0.014 A 
BRANCH  36  37
ATOM     37  C   UNL A   1      37.832  30.484  29.755  1.00  0.00     0.031 A 
ATOM     38  C   UNL A   1      38.927  29.679  29.078  1.00  0.00     0.074 A 
ATOM     39  C   UNL A   1      38.109  31.002  30.971  1.00  0.00     0.049 A 
ATOM     40  N   UNL A   1      40.025  29.177  29.587  1.00  0.00    -0.248 NA
ATOM     41  C   UNL A   1      38.752  29.386  27.646  1.00  0.00     0.031 C 
ATOM     42  C   UNL A   1      37.203  31.820  31.774  1.00  0.00     0.029 A 
ATOM     43  N   UNL A   1      39.242  30.904  31.752  1.00  0.00    -0.354 N 
ATOM     44  C   UNL A   1      40.601  28.408  28.579  1.00  0.00     0.074 A 
ATOM     45  C   UNL A   1      39.752  28.546  27.415  1.00  0.00     0.031 C 
ATOM     46  C   UNL A   1      37.824  32.186  32.905  1.00  0.00     0.029 A 
ATOM     47  C   UNL A   1      39.129  31.536  32.969  1.00  0.00     0.049 A 
ATOM     48  H   UNL A   1      40.054  30.428  31.465  1.00  0.00     0.167 HD
ATOM     49  C   UNL A   1      41.730  27.657  28.612  1.00  0.00     0.034 A 
ATOM     50  C   UNL A   1      39.940  31.553  34.049  1.00  0.00     0.034 A 
ATOM     51  C   UNL A   1      42.662  27.620  29.710  1.00  0.00     0.049 A 
ATOM     52  C   UNL A   1      41.221  30.768  34.047  1.00  0.00     0.074 A 
ATOM     53  C   UNL A   1      43.862  26.932  29.795  1.00  0.00     0.029 A 
ATOM     54  N   UNL A   1      42.522  28.319  30.896  1.00  0.00    -0.354 N 
ATOM     55  N   UNL A   1      41.737  30.038  33.090  1.00  0.00    -0.248 NA
ATOM     56  C   UNL A   1      42.028  30.804  35.276  1.00  0.00     0.031 C 
ATOM     57  C   UNL A   1      44.450  27.220  31.031  1.00  0.00     0.029 A 
ATOM     58  C   UNL A   1      43.617  28.091  31.713  1.00  0.00     0.049 A 
ATOM     59  H   UNL A   1      41.757  28.895  31.125  1.00  0.00     0.167 HD
ATOM     60  C   UNL A   1      42.924  29.525  33.601  1.00  0.00     0.074 A 
ATOM     61  C   UNL A   1      43.075  30.061  34.938  1.00  0.00     0.031 C 
ATOM     62  C   UNL A   1      43.793  28.660  33.024  1.00  0.00     0.034 A 
BRANCH  49  63
ATOM     63  C   UNL A   1      42.051  26.812  27.405  1.00  0.00     0.023 A 
ATOM     64  C   UNL A   1      42.698  27.384  26.293  1.00  0.00     0.012 A 
ATOM     65  C   UNL A   1      41.779  25.429  27.410  1.00  0.00     0.148 A 
ATOM     66  C   UNL A   1      43.043  26.598  25.193  1.00  0.00     0.002 A 
ATOM     67  C   UNL A   1      42.164  24.644  26.329  1.00  0.00     0.091 A 
ATOM     68  F   UNL A   1      41.141  24.904  28.467  1.00  0.00    -0.205 F 
ATOM     69  C   UNL A   1      42.787  25.228  25.215  1.00  0.00     0.022 A 
BRANCH  67  70
ATOM     70  S   UNL A   1      41.947  22.860  26.328  1.00  0.00     0.127 S 
ATOM     71  O   UNL A   1      42.667  22.472  27.539  1.00  0.00    -0.237 OA
ATOM     72  O   UNL A   1      40.492  22.716  26.413  1.00  0.00    -0.237 OA
ATOM     73  O   UNL A   1      42.520  22.399  25.071  1.00  0.00    -0.744 OA
ENDBRANCH  67  70
ENDBRANCH  49  63
BRANCH  50  74
ATOM     74  C   UNL A   1      39.537  32.353  35.243  1.00  0.00     0.023 A 
ATOM     75  C   UNL A   1      39.714  33.749  35.238  1.00  0.00     0.012 A 
ATOM     76  C   UNL A   1      38.897  31.746  36.341  1.00  0.00     0.148 A 
ATOM     77  C   UNL A   1      39.254  34.526  36.302  1.00  0.00     0.002 A 
ATOM     78  C   UNL A   1      38.370  32.532  37.357  1.00  0.00     0.091 A 
ATOM     79  F   UNL A   1      38.776  30.410  36.347  1.00  0.00    -0.205 F 
ATOM     80  C   UNL A   1      38.562  33.921  37.349  1.00  0.00     0.022 A 
BRANCH  78  81
ATOM     81  S   UNL A   1      37.298  31.844  38.624  1.00  0.00     0.127 S 
ATOM     82  O   UNL A   1      38.114  31.998  39.825  1.00  0.00    -0.237 OA
ATOM     83  O   UNL A   1      36.133  32.726  38.552  1.00  0.00    -0.237 OA
ATOM     84  O   UNL A   1      37.032  30.475  38.201  1.00  0.00    -0.744 OA
ENDBRANCH  78  81
ENDBRANCH  50  74
BRANCH  62  85
ATOM     85  C   UNL A   1      44.996  28.233  33.825  1.00  0.00     0.023 A 
ATOM     86  C   UNL A   1      46.170  29.008  33.774  1.00  0.00     0.012 A 
ATOM     87  C   UNL A   1      44.946  27.109  34.673  1.00  0.00     0.148 A 
ATOM     88  C   UNL A   1      47.286  28.659  34.534  1.00  0.00     0.002 A 
ATOM     89  C   UNL A   1      46.051  26.786  35.455  1.00  0.00     0.091 A 
ATOM     90  F   UNL A   1      43.828  26.369  34.693  1.00  0.00    -0.205 F 
ATOM     91  C   UNL A   1      47.224  27.555  35.382  1.00  0.00     0.022 A 
BRANCH  89  92
ATOM     92  S   UNL A   1      46.028  25.423  36.627  1.00  0.00     0.127 S 
ATOM     93  O   UNL A   1      45.879  24.271  35.742  1.00  0.00    -0.237 OA
ATOM     94  O   UNL A   1      47.339  25.535  37.267  1.00  0.00    -0.237 OA
ATOM     95  O   UNL A   1      44.904  25.687  37.515  1.00  0.00    -0.744 OA
ENDBRANCH  89  92
ENDBRANCH  62  85
ENDBRANCH  36  37
ENDBRANCH  29  31
ENDBRANCH  28  29
ENDBRANCH  27  28
ENDBRANCH   1  27
TORSDOF 18
ENDMDL
