MODEL 1
REMARK VINA RESULT:     -12.3      0.000      0.000
REMARK SMILES CCc1cc(C)c2c(c1)C=C(C(=O)OCCOC(=O)c1ccc(-c3c4nc(c(-c5cccc(S(=O)(=O)[O-])c5F)c5ccc([nH]5)c(-c5cccc(S(=O)(=O)[O-])c5F)c5nc(c(-c6cccc(S(=O)(=O)[O-])c6F)c6ccc3[nH]6)C=C5)C=C4)cc1)[C@@H](C(F)(F)F)O2
REMARK SMILES IDX 16 1 15 2 14 3 12 4 13 5 11 6 3 7 4 8 9 9 5 10 8 11 6 12
REMARK SMILES IDX 7 13 10 14 88 15 83 16 2 17 1 18 84 19 85 20 86 21 87 22
REMARK SMILES IDX 17 23 18 24 19 25 20 26 21 27 82 28 22 29 81 30 23 31 24 32
REMARK SMILES IDX 25 33 75 34 26 35 80 36 74 37 76 38 27 39 79 40 73 41 72 42
REMARK SMILES IDX 28 44 60 45 40 46 59 47 41 48 44 49 58 50 77 51 42 52 43 53
REMARK SMILES IDX 57 55 78 56 45 57 29 58 30 59 38 60 31 61 33 62 39 63 32 64
REMARK SMILES IDX 34 65 35 66 36 67 37 68 61 69 62 70 70 71 63 72 65 73 71 74
REMARK SMILES IDX 64 75 66 76 67 77 68 78 69 79 46 80 47 81 55 82 48 83 50 84
REMARK SMILES IDX 56 85 49 86 51 87 52 88 53 89 54 90
REMARK H PARENT 76 43 44 54
REMARK Flexibility Score: inf
ROOT
ATOM      1  C   UNL A   1      31.757  30.218  25.438  1.00  0.00     0.275 C 
ENDROOT
BRANCH   1   2
ATOM      2  C   UNL A   1      31.609  28.794  24.905  1.00  0.00     0.275 C 
BRANCH   2   3
ATOM      3  O   UNL A   1      32.470  27.880  25.616  1.00  0.00    -0.459 OA
BRANCH   3   4
ATOM      4  C   UNL A   1      31.839  26.921  26.338  1.00  0.00     0.338 C 
ATOM      5  O   UNL A   1      31.021  27.098  27.223  1.00  0.00    -0.246 OA
BRANCH   4   6
ATOM      6  C   UNL A   1      32.262  25.581  25.885  1.00  0.00     0.087 C 
ATOM      7  C   UNL A   1      35.831  22.503  24.813  1.00  0.00    -0.047 A 
ATOM      8  C   UNL A   1      34.883  21.606  24.303  1.00  0.00     0.011 A 
ATOM      9  C   UNL A   1      35.374  23.708  25.361  1.00  0.00     0.015 A 
ATOM     10  C   UNL A   1      33.509  21.906  24.321  1.00  0.00    -0.008 A 
ATOM     11  C   UNL A   1      34.009  24.022  25.376  1.00  0.00     0.018 A 
ATOM     12  C   UNL A   1      32.521  20.939  23.732  1.00  0.00     0.048 C 
ATOM     13  C   UNL A   1      33.075  23.116  24.879  1.00  0.00     0.130 A 
ATOM     14  C   UNL A   1      33.570  25.306  25.884  1.00  0.00     0.027 C 
ATOM     15  O   UNL A   1      31.725  23.340  24.919  1.00  0.00    -0.475 OA
ATOM     16  C   UNL A   1      31.227  24.636  25.350  1.00  0.00     0.316 C 
BRANCH   7  17
ATOM     17  C   UNL A   1      37.314  22.203  24.847  1.00  0.00     0.032 C 
ATOM     18  C   UNL A   1      37.683  20.732  24.994  1.00  0.00     0.009 C 
ENDBRANCH   7  17
BRANCH  16  19
ATOM     19  C   UNL A   1      30.454  25.264  24.180  1.00  0.00     0.430 C 
ATOM     20  F   UNL A   1      31.262  26.041  23.415  1.00  0.00    -0.167 F 
ATOM     21  F   UNL A   1      29.938  24.323  23.352  1.00  0.00    -0.167 F 
ATOM     22  F   UNL A   1      29.428  26.039  24.598  1.00  0.00    -0.167 F 
ENDBRANCH  16  19
ENDBRANCH   4   6
ENDBRANCH   3   4
ENDBRANCH   2   3
ENDBRANCH   1   2
BRANCH   1  23
ATOM     23  O   UNL A   1      32.288  30.200  26.773  1.00  0.00    -0.458 OA
BRANCH  23  24
ATOM     24  C   UNL A   1      32.898  31.343  27.159  1.00  0.00     0.338 C 
ATOM     25  O   UNL A   1      32.403  32.456  27.237  1.00  0.00    -0.246 OA
BRANCH  24  26
ATOM     26  C   UNL A   1      34.280  31.063  27.566  1.00  0.00     0.060 A 
ATOM     27  C   UNL A   1      34.675  29.739  27.728  1.00  0.00     0.016 A 
ATOM     28  C   UNL A   1      35.117  32.101  27.967  1.00  0.00     0.016 A 
ATOM     29  C   UNL A   1      35.834  29.442  28.438  1.00  0.00     0.010 A 
ATOM     30  C   UNL A   1      36.347  31.799  28.559  1.00  0.00     0.010 A 
ATOM     31  C   UNL A   1      36.692  30.467  28.856  1.00  0.00    -0.014 A 
BRANCH  31  32
ATOM     32  C   UNL A   1      37.932  30.154  29.618  1.00  0.00     0.031 A 
ATOM     33  C   UNL A   1      38.986  29.258  29.016  1.00  0.00     0.074 A 
ATOM     34  C   UNL A   1      38.114  30.665  30.852  1.00  0.00     0.049 A 
ATOM     35  N   UNL A   1      40.048  28.743  29.582  1.00  0.00    -0.248 NA
ATOM     36  C   UNL A   1      38.827  28.883  27.600  1.00  0.00     0.031 C 
ATOM     37  C   UNL A   1      37.188  31.567  31.542  1.00  0.00     0.029 A 
ATOM     38  N   UNL A   1      39.135  30.491  31.754  1.00  0.00    -0.354 N 
ATOM     39  C   UNL A   1      40.640  27.935  28.619  1.00  0.00     0.074 A 
ATOM     40  C   UNL A   1      39.831  28.033  27.426  1.00  0.00     0.031 C 
ATOM     41  C   UNL A   1      37.689  31.881  32.744  1.00  0.00     0.029 A 
ATOM     42  C   UNL A   1      38.927  31.141  32.948  1.00  0.00     0.049 A 
ATOM     43  H   UNL A   1      39.938  29.953  31.564  1.00  0.00     0.167 HD
ATOM     44  C   UNL A   1      41.762  27.185  28.720  1.00  0.00     0.034 A 
ATOM     45  C   UNL A   1      39.624  31.113  34.101  1.00  0.00     0.034 A 
ATOM     46  C   UNL A   1      42.603  27.143  29.885  1.00  0.00     0.049 A 
ATOM     47  C   UNL A   1      40.855  30.262  34.193  1.00  0.00     0.074 A 
ATOM     48  C   UNL A   1      43.784  26.443  30.063  1.00  0.00     0.029 A 
ATOM     49  N   UNL A   1      42.360  27.830  31.063  1.00  0.00    -0.354 N 
ATOM     50  N   UNL A   1      41.411  29.523  33.264  1.00  0.00    -0.248 NA
ATOM     51  C   UNL A   1      41.559  30.242  35.482  1.00  0.00     0.031 C 
ATOM     52  C   UNL A   1      44.248  26.696  31.356  1.00  0.00     0.029 A 
ATOM     53  C   UNL A   1      43.366  27.568  31.975  1.00  0.00     0.049 A 
ATOM     54  H   UNL A   1      41.586  28.416  31.226  1.00  0.00     0.167 HD
ATOM     55  C   UNL A   1      42.538  28.963  33.848  1.00  0.00     0.074 A 
ATOM     56  C   UNL A   1      42.595  29.458  35.209  1.00  0.00     0.031 C 
ATOM     57  C   UNL A   1      43.435  28.104  33.309  1.00  0.00     0.034 A 
BRANCH  44  58
ATOM     58  C   UNL A   1      42.182  26.362  27.533  1.00  0.00     0.023 A 
ATOM     59  C   UNL A   1      43.038  26.922  26.565  1.00  0.00     0.012 A 
ATOM     60  C   UNL A   1      41.823  25.002  27.441  1.00  0.00     0.148 A 
ATOM     61  C   UNL A   1      43.527  26.141  25.518  1.00  0.00     0.002 A 
ATOM     62  C   UNL A   1      42.337  24.223  26.413  1.00  0.00     0.091 A 
ATOM     63  F   UNL A   1      40.999  24.497  28.371  1.00  0.00    -0.205 F 
ATOM     64  C   UNL A   1      43.187  24.791  25.449  1.00  0.00     0.022 A 
BRANCH  62  65
ATOM     65  S   UNL A   1      42.006  22.464  26.262  1.00  0.00     0.127 S 
ATOM     66  O   UNL A   1      42.677  22.144  25.002  1.00  0.00    -0.237 OA
ATOM     67  O   UNL A   1      42.661  21.926  27.455  1.00  0.00    -0.237 OA
ATOM     68  O   UNL A   1      40.557  22.324  26.241  1.00  0.00    -0.744 OA
ENDBRANCH  62  65
ENDBRANCH  44  58
BRANCH  45  69
ATOM     69  C   UNL A   1      39.160  31.936  35.250  1.00  0.00     0.023 A 
ATOM     70  C   UNL A   1      38.293  31.364  36.199  1.00  0.00     0.012 A 
ATOM     71  C   UNL A   1      39.643  33.243  35.453  1.00  0.00     0.148 A 
ATOM     72  C   UNL A   1      37.912  32.083  37.333  1.00  0.00     0.002 A 
ATOM     73  C   UNL A   1      39.294  33.938  36.605  1.00  0.00     0.091 A 
ATOM     74  F   UNL A   1      40.468  33.763  34.532  1.00  0.00    -0.205 F 
ATOM     75  C   UNL A   1      38.421  33.363  37.542  1.00  0.00     0.022 A 
BRANCH  73  76
ATOM     76  S   UNL A   1      39.980  35.547  37.013  1.00  0.00     0.127 S 
ATOM     77  O   UNL A   1      39.289  35.856  38.264  1.00  0.00    -0.237 OA
ATOM     78  O   UNL A   1      41.403  35.236  37.156  1.00  0.00    -0.237 OA
ATOM     79  O   UNL A   1      39.658  36.415  35.890  1.00  0.00    -0.744 OA
ENDBRANCH  73  76
ENDBRANCH  45  69
BRANCH  57  80
ATOM     80  C   UNL A   1      44.581  27.649  34.165  1.00  0.00     0.023 A 
ATOM     81  C   UNL A   1      45.738  28.446  34.257  1.00  0.00     0.012 A 
ATOM     82  C   UNL A   1      44.453  26.506  34.978  1.00  0.00     0.148 A 
ATOM     83  C   UNL A   1      46.756  28.109  35.147  1.00  0.00     0.002 A 
ATOM     84  C   UNL A   1      45.456  26.195  35.888  1.00  0.00     0.091 A 
ATOM     85  F   UNL A   1      43.343  25.764  34.864  1.00  0.00    -0.205 F 
ATOM     86  C   UNL A   1      46.609  26.993  35.970  1.00  0.00     0.022 A 
BRANCH  84  87
ATOM     87  S   UNL A   1      45.326  24.825  37.041  1.00  0.00     0.127 S 
ATOM     88  O   UNL A   1      46.579  24.944  37.785  1.00  0.00    -0.237 OA
ATOM     89  O   UNL A   1      44.128  25.177  37.803  1.00  0.00    -0.237 OA
ATOM     90  O   UNL A   1      45.201  23.622  36.230  1.00  0.00    -0.744 OA
ENDBRANCH  84  87
ENDBRANCH  57  80
ENDBRANCH  31  32
ENDBRANCH  24  26
ENDBRANCH  23  24
ENDBRANCH   1  23
TORSDOF 16
ENDMDL
MODEL 2
REMARK VINA RESULT:     -12.3      4.753      9.958
REMARK SMILES CCc1cc(C)c2c(c1)C=C(C(=O)OCCOC(=O)c1ccc(-c3c4nc(c(-c5cccc(S(=O)(=O)[O-])c5F)c5ccc([nH]5)c(-c5cccc(S(=O)(=O)[O-])c5F)c5nc(c(-c6cccc(S(=O)(=O)[O-])c6F)c6ccc3[nH]6)C=C5)C=C4)cc1)[C@@H](C(F)(F)F)O2
REMARK SMILES IDX 16 1 15 2 14 3 12 4 13 5 11 6 3 7 4 8 9 9 5 10 8 11 6 12
REMARK SMILES IDX 7 13 10 14 88 15 83 16 2 17 1 18 84 19 85 20 86 21 87 22
REMARK SMILES IDX 17 23 18 24 19 25 20 26 21 27 82 28 22 29 81 30 23 31 24 32
REMARK SMILES IDX 25 33 75 34 26 35 80 36 74 37 76 38 27 39 79 40 73 41 72 42
REMARK SMILES IDX 28 44 60 45 40 46 59 47 41 48 44 49 58 50 77 51 42 52 43 53
REMARK SMILES IDX 57 55 78 56 45 57 29 58 30 59 38 60 31 61 33 62 39 63 32 64
REMARK SMILES IDX 34 65 35 66 36 67 37 68 61 69 62 70 70 71 63 72 65 73 71 74
REMARK SMILES IDX 64 75 66 76 67 77 68 78 69 79 46 80 47 81 55 82 48 83 50 84
REMARK SMILES IDX 56 85 49 86 51 87 52 88 53 89 54 90
REMARK H PARENT 76 43 44 54
REMARK Flexibility Score: inf
ROOT
ATOM      1  C   UNL A   1      36.632  20.209  24.967  1.00  0.00     0.275 C 
ENDROOT
BRANCH   1   2
ATOM      2  C   UNL A   1      35.179  20.663  25.106  1.00  0.00     0.275 C 
BRANCH   2   3
ATOM      3  O   UNL A   1      35.054  22.082  24.876  1.00  0.00    -0.459 OA
BRANCH   3   4
ATOM      4  C   UNL A   1      33.821  22.605  25.094  1.00  0.00     0.338 C 
ATOM      5  O   UNL A   1      32.847  22.013  25.521  1.00  0.00    -0.246 OA
BRANCH   4   6
ATOM      6  C   UNL A   1      33.813  24.043  24.762  1.00  0.00     0.087 C 
ATOM      7  C   UNL A   1      32.927  28.602  26.102  1.00  0.00    -0.047 A 
ATOM      8  C   UNL A   1      33.141  29.016  24.780  1.00  0.00     0.011 A 
ATOM      9  C   UNL A   1      33.081  27.243  26.403  1.00  0.00     0.015 A 
ATOM     10  C   UNL A   1      33.483  28.095  23.773  1.00  0.00    -0.008 A 
ATOM     11  C   UNL A   1      33.414  26.316  25.407  1.00  0.00     0.018 A 
ATOM     12  C   UNL A   1      33.669  28.566  22.358  1.00  0.00     0.048 C 
ATOM     13  C   UNL A   1      33.636  26.741  24.100  1.00  0.00     0.130 A 
ATOM     14  C   UNL A   1      33.496  24.907  25.732  1.00  0.00     0.027 C 
ATOM     15  O   UNL A   1      34.020  25.894  23.095  1.00  0.00    -0.475 OA
ATOM     16  C   UNL A   1      34.051  24.461  23.341  1.00  0.00     0.316 C 
BRANCH   7  17
ATOM     17  C   UNL A   1      32.594  29.564  27.222  1.00  0.00     0.032 C 
ATOM     18  C   UNL A   1      32.054  30.919  26.785  1.00  0.00     0.009 C 
ENDBRANCH   7  17
BRANCH  16  19
ATOM     19  C   UNL A   1      33.047  23.791  22.390  1.00  0.00     0.430 C 
ATOM     20  F   UNL A   1      31.795  23.794  22.912  1.00  0.00    -0.167 F 
ATOM     21  F   UNL A   1      32.964  24.442  21.203  1.00  0.00    -0.167 F 
ATOM     22  F   UNL A   1      33.369  22.506  22.123  1.00  0.00    -0.167 F 
ENDBRANCH  16  19
ENDBRANCH   4   6
ENDBRANCH   3   4
ENDBRANCH   2   3
ENDBRANCH   1   2
BRANCH   1  23
ATOM     23  O   UNL A   1      37.524  21.321  25.147  1.00  0.00    -0.458 OA
BRANCH  23  24
ATOM     24  C   UNL A   1      38.690  21.023  25.761  1.00  0.00     0.338 C 
ATOM     25  O   UNL A   1      39.298  19.965  25.721  1.00  0.00    -0.246 OA
BRANCH  24  26
ATOM     26  C   UNL A   1      39.206  22.205  26.462  1.00  0.00     0.060 A 
ATOM     27  C   UNL A   1      38.659  23.450  26.168  1.00  0.00     0.016 A 
ATOM     28  C   UNL A   1      40.346  22.107  27.256  1.00  0.00     0.016 A 
ATOM     29  C   UNL A   1      39.338  24.609  26.529  1.00  0.00     0.010 A 
ATOM     30  C   UNL A   1      40.950  23.274  27.733  1.00  0.00     0.010 A 
ATOM     31  C   UNL A   1      40.489  24.539  27.325  1.00  0.00    -0.014 A 
BRANCH  31  32
ATOM     32  C   UNL A   1      41.218  25.778  27.712  1.00  0.00     0.031 A 
ATOM     33  C   UNL A   1      40.534  26.833  28.545  1.00  0.00     0.074 A 
ATOM     34  C   UNL A   1      42.493  25.963  27.313  1.00  0.00     0.049 A 
ATOM     35  N   UNL A   1      40.946  28.039  28.843  1.00  0.00    -0.248 NA
ATOM     36  C   UNL A   1      39.215  26.498  29.111  1.00  0.00     0.031 C 
ATOM     37  C   UNL A   1      43.283  25.011  26.527  1.00  0.00     0.029 A 
ATOM     38  N   UNL A   1      43.347  27.021  27.502  1.00  0.00    -0.354 N 
ATOM     39  C   UNL A   1      39.914  28.626  29.566  1.00  0.00     0.074 A 
ATOM     40  C   UNL A   1      38.860  27.644  29.676  1.00  0.00     0.031 C 
ATOM     41  C   UNL A   1      44.506  25.516  26.320  1.00  0.00     0.029 A 
ATOM     42  C   UNL A   1      44.564  26.860  26.881  1.00  0.00     0.049 A 
ATOM     43  H   UNL A   1      43.113  27.817  28.032  1.00  0.00     0.167 HD
ATOM     44  C   UNL A   1      39.856  29.870  30.096  1.00  0.00     0.034 A 
ATOM     45  C   UNL A   1      45.599  27.709  26.734  1.00  0.00     0.034 A 
ATOM     46  C   UNL A   1      40.934  30.820  30.044  1.00  0.00     0.049 A 
ATOM     47  C   UNL A   1      45.505  29.087  27.317  1.00  0.00     0.074 A 
ATOM     48  C   UNL A   1      40.981  32.091  30.592  1.00  0.00     0.029 A 
ATOM     49  N   UNL A   1      42.150  30.606  29.419  1.00  0.00    -0.354 N 
ATOM     50  N   UNL A   1      44.531  29.615  28.017  1.00  0.00    -0.248 NA
ATOM     51  C   UNL A   1      46.647  29.985  27.098  1.00  0.00     0.031 C 
ATOM     52  C   UNL A   1      42.222  32.651  30.283  1.00  0.00     0.029 A 
ATOM     53  C   UNL A   1      42.955  31.722  29.562  1.00  0.00     0.049 A 
ATOM     54  H   UNL A   1      42.404  29.782  28.943  1.00  0.00     0.167 HD
ATOM     55  C   UNL A   1      44.947  30.900  28.338  1.00  0.00     0.074 A 
ATOM     56  C   UNL A   1      46.268  31.068  27.767  1.00  0.00     0.031 C 
ATOM     57  C   UNL A   1      44.285  31.857  29.030  1.00  0.00     0.034 A 
BRANCH  44  58
ATOM     58  C   UNL A   1      38.601  30.285  30.815  1.00  0.00     0.023 A 
ATOM     59  C   UNL A   1      38.476  30.040  32.195  1.00  0.00     0.012 A 
ATOM     60  C   UNL A   1      37.602  31.019  30.144  1.00  0.00     0.148 A 
ATOM     61  C   UNL A   1      37.369  30.515  32.899  1.00  0.00     0.002 A 
ATOM     62  C   UNL A   1      36.518  31.515  30.857  1.00  0.00     0.091 A 
ATOM     63  F   UNL A   1      37.743  31.229  28.827  1.00  0.00    -0.205 F 
ATOM     64  C   UNL A   1      36.398  31.261  32.234  1.00  0.00     0.022 A 
BRANCH  62  65
ATOM     65  S   UNL A   1      35.241  32.532  30.108  1.00  0.00     0.127 S 
ATOM     66  O   UNL A   1      34.298  32.684  31.216  1.00  0.00    -0.237 OA
ATOM     67  O   UNL A   1      35.981  33.747  29.765  1.00  0.00    -0.237 OA
ATOM     68  O   UNL A   1      34.737  31.778  28.970  1.00  0.00    -0.744 OA
ENDBRANCH  62  65
ENDBRANCH  44  58
BRANCH  45  69
ATOM     69  C   UNL A   1      46.814  27.255  26.004  1.00  0.00     0.023 A 
ATOM     70  C   UNL A   1      46.948  27.559  24.637  1.00  0.00     0.012 A 
ATOM     71  C   UNL A   1      47.868  26.607  26.677  1.00  0.00     0.148 A 
ATOM     72  C   UNL A   1      48.115  27.223  23.949  1.00  0.00     0.002 A 
ATOM     73  C   UNL A   1      49.044  26.313  25.997  1.00  0.00     0.091 A 
ATOM     74  F   UNL A   1      47.713  26.330  27.979  1.00  0.00    -0.205 F 
ATOM     75  C   UNL A   1      49.166  26.612  24.631  1.00  0.00     0.022 A 
BRANCH  73  76
ATOM     76  S   UNL A   1      50.489  25.625  26.811  1.00  0.00     0.127 S 
ATOM     77  O   UNL A   1      50.847  26.696  27.739  1.00  0.00    -0.237 OA
ATOM     78  O   UNL A   1      49.936  24.425  27.438  1.00  0.00    -0.237 OA
ATOM     79  O   UNL A   1      51.457  25.366  25.754  1.00  0.00    -0.744 OA
ENDBRANCH  73  76
ENDBRANCH  45  69
BRANCH  57  80
ATOM     80  C   UNL A   1      44.971  33.176  29.245  1.00  0.00     0.023 A 
ATOM     81  C   UNL A   1      45.785  33.357  30.378  1.00  0.00     0.012 A 
ATOM     82  C   UNL A   1      44.914  34.178  28.257  1.00  0.00     0.148 A 
ATOM     83  C   UNL A   1      46.535  34.523  30.527  1.00  0.00     0.002 A 
ATOM     84  C   UNL A   1      45.690  35.322  28.394  1.00  0.00     0.091 A 
ATOM     85  F   UNL A   1      44.126  33.979  27.191  1.00  0.00    -0.205 F 
ATOM     86  C   UNL A   1      46.497  35.498  29.531  1.00  0.00     0.022 A 
BRANCH  84  87
ATOM     87  S   UNL A   1      45.768  36.597  27.133  1.00  0.00     0.127 S 
ATOM     88  O   UNL A   1      46.192  35.831  25.962  1.00  0.00    -0.237 OA
ATOM     89  O   UNL A   1      44.382  37.066  27.085  1.00  0.00    -0.237 OA
ATOM     90  O   UNL A   1      46.728  37.581  27.609  1.00  0.00    -0.744 OA
ENDBRANCH  84  87
ENDBRANCH  57  80
ENDBRANCH  31  32
ENDBRANCH  24  26
ENDBRANCH  23  24
ENDBRANCH   1  23
TORSDOF 16
ENDMDL
MODEL 3
REMARK VINA RESULT:     -12.2      5.663      9.827
REMARK SMILES CCc1cc(C)c2c(c1)C=C(C(=O)OCCOC(=O)c1ccc(-c3c4nc(c(-c5cccc(S(=O)(=O)[O-])c5F)c5ccc([nH]5)c(-c5cccc(S(=O)(=O)[O-])c5F)c5nc(c(-c6cccc(S(=O)(=O)[O-])c6F)c6ccc3[nH]6)C=C5)C=C4)cc1)[C@@H](C(F)(F)F)O2
REMARK SMILES IDX 16 1 15 2 14 3 12 4 13 5 11 6 3 7 4 8 9 9 5 10 8 11 6 12
REMARK SMILES IDX 7 13 10 14 88 15 83 16 2 17 1 18 84 19 85 20 86 21 87 22
REMARK SMILES IDX 17 23 18 24 19 25 20 26 21 27 82 28 22 29 81 30 23 31 24 32
REMARK SMILES IDX 25 33 75 34 26 35 80 36 74 37 76 38 27 39 79 40 73 41 72 42
REMARK SMILES IDX 28 44 60 45 40 46 59 47 41 48 44 49 58 50 77 51 42 52 43 53
REMARK SMILES IDX 57 55 78 56 45 57 29 58 30 59 38 60 31 61 33 62 39 63 32 64
REMARK SMILES IDX 34 65 35 66 36 67 37 68 61 69 62 70 70 71 63 72 65 73 71 74
REMARK SMILES IDX 64 75 66 76 67 77 68 78 69 79 46 80 47 81 55 82 48 83 50 84
REMARK SMILES IDX 56 85 49 86 51 87 52 88 53 89 54 90
REMARK H PARENT 76 43 44 54
REMARK Flexibility Score: inf
ROOT
ATOM      1  C   UNL A   1      40.892  19.976  26.574  1.00  0.00     0.275 C 
ENDROOT
BRANCH   1   2
ATOM      2  C   UNL A   1      42.348  19.902  27.036  1.00  0.00     0.275 C 
BRANCH   2   3
ATOM      3  O   UNL A   1      43.246  20.347  25.997  1.00  0.00    -0.459 OA
BRANCH   3   4
ATOM      4  C   UNL A   1      43.186  21.668  25.696  1.00  0.00     0.338 C 
ATOM      5  O   UNL A   1      42.345  22.219  25.008  1.00  0.00    -0.246 OA
BRANCH   4   6
ATOM      6  C   UNL A   1      44.294  22.391  26.352  1.00  0.00     0.087 C 
ATOM      7  C   UNL A   1      45.806  25.388  29.829  1.00  0.00    -0.047 A 
ATOM      8  C   UNL A   1      47.070  25.427  29.225  1.00  0.00     0.011 A 
ATOM      9  C   UNL A   1      44.820  24.579  29.250  1.00  0.00     0.015 A 
ATOM     10  C   UNL A   1      47.345  24.691  28.057  1.00  0.00    -0.008 A 
ATOM     11  C   UNL A   1      45.079  23.849  28.083  1.00  0.00     0.018 A 
ATOM     12  C   UNL A   1      48.699  24.784  27.413  1.00  0.00     0.048 C 
ATOM     13  C   UNL A   1      46.343  23.885  27.499  1.00  0.00     0.130 A 
ATOM     14  C   UNL A   1      44.020  23.077  27.466  1.00  0.00     0.027 C 
ATOM     15  O   UNL A   1      46.675  23.149  26.394  1.00  0.00    -0.475 OA
ATOM     16  C   UNL A   1      45.639  22.411  25.689  1.00  0.00     0.316 C 
BRANCH   7  17
ATOM     17  C   UNL A   1      45.480  26.135  31.104  1.00  0.00     0.032 C 
ATOM     18  C   UNL A   1      44.231  27.006  31.054  1.00  0.00     0.009 C 
ENDBRANCH   7  17
BRANCH  16  19
ATOM     19  C   UNL A   1      45.545  22.969  24.260  1.00  0.00     0.430 C 
ATOM     20  F   UNL A   1      46.771  23.276  23.767  1.00  0.00    -0.167 F 
ATOM     21  F   UNL A   1      45.005  22.070  23.400  1.00  0.00    -0.167 F 
ATOM     22  F   UNL A   1      44.792  24.091  24.193  1.00  0.00    -0.167 F 
ENDBRANCH  16  19
ENDBRANCH   4   6
ENDBRANCH   3   4
ENDBRANCH   2   3
ENDBRANCH   1   2
BRANCH   1  23
ATOM     23  O   UNL A   1      40.182  20.981  27.315  1.00  0.00    -0.458 OA
BRANCH  23  24
ATOM     24  C   UNL A   1      39.522  21.886  26.559  1.00  0.00     0.338 C 
ATOM     25  O   UNL A   1      38.805  21.664  25.596  1.00  0.00    -0.246 OA
BRANCH  24  26
ATOM     26  C   UNL A   1      39.719  23.236  27.102  1.00  0.00     0.060 A 
ATOM     27  C   UNL A   1      39.129  24.313  26.448  1.00  0.00     0.016 A 
ATOM     28  C   UNL A   1      40.633  23.451  28.130  1.00  0.00     0.016 A 
ATOM     29  C   UNL A   1      39.567  25.607  26.707  1.00  0.00     0.010 A 
ATOM     30  C   UNL A   1      40.970  24.762  28.481  1.00  0.00     0.010 A 
ATOM     31  C   UNL A   1      40.489  25.852  27.734  1.00  0.00    -0.014 A 
BRANCH  31  32
ATOM     32  C   UNL A   1      40.962  27.236  28.012  1.00  0.00     0.031 A 
ATOM     33  C   UNL A   1      42.384  27.630  27.699  1.00  0.00     0.074 A 
ATOM     34  C   UNL A   1      40.121  28.141  28.553  1.00  0.00     0.049 A 
ATOM     35  N   UNL A   1      43.022  28.727  28.017  1.00  0.00    -0.248 NA
ATOM     36  C   UNL A   1      43.200  26.666  26.939  1.00  0.00     0.031 C 
ATOM     37  C   UNL A   1      38.713  27.901  28.880  1.00  0.00     0.029 A 
ATOM     38  N   UNL A   1      40.330  29.443  28.935  1.00  0.00    -0.354 N 
ATOM     39  C   UNL A   1      44.323  28.558  27.559  1.00  0.00     0.074 A 
ATOM     40  C   UNL A   1      44.387  27.259  26.930  1.00  0.00     0.031 C 
ATOM     41  C   UNL A   1      38.181  29.019  29.392  1.00  0.00     0.029 A 
ATOM     42  C   UNL A   1      39.226  30.028  29.510  1.00  0.00     0.049 A 
ATOM     43  H   UNL A   1      41.186  29.913  28.809  1.00  0.00     0.167 HD
ATOM     44  C   UNL A   1      45.368  29.414  27.650  1.00  0.00     0.034 A 
ATOM     45  C   UNL A   1      39.073  31.225  30.110  1.00  0.00     0.034 A 
ATOM     46  C   UNL A   1      45.284  30.733  28.215  1.00  0.00     0.049 A 
ATOM     47  C   UNL A   1      40.250  32.149  30.213  1.00  0.00     0.074 A 
ATOM     48  C   UNL A   1      46.282  31.688  28.311  1.00  0.00     0.029 A 
ATOM     49  N   UNL A   1      44.142  31.286  28.770  1.00  0.00    -0.354 N 
ATOM     50  N   UNL A   1      41.465  31.980  29.754  1.00  0.00    -0.248 NA
ATOM     51  C   UNL A   1      40.038  33.426  30.906  1.00  0.00     0.031 C 
ATOM     52  C   UNL A   1      45.746  32.814  28.939  1.00  0.00     0.029 A 
ATOM     53  C   UNL A   1      44.411  32.568  29.215  1.00  0.00     0.049 A 
ATOM     54  H   UNL A   1      43.270  30.834  28.838  1.00  0.00     0.167 HD
ATOM     55  C   UNL A   1      42.161  33.134  30.087  1.00  0.00     0.074 A 
ATOM     56  C   UNL A   1      41.227  34.003  30.775  1.00  0.00     0.031 C 
ATOM     57  C   UNL A   1      43.460  33.438  29.855  1.00  0.00     0.034 A 
BRANCH  44  58
ATOM     58  C   UNL A   1      46.700  28.979  27.101  1.00  0.00     0.023 A 
ATOM     59  C   UNL A   1      47.798  28.837  27.971  1.00  0.00     0.012 A 
ATOM     60  C   UNL A   1      46.828  28.601  25.750  1.00  0.00     0.148 A 
ATOM     61  C   UNL A   1      49.010  28.330  27.501  1.00  0.00     0.002 A 
ATOM     62  C   UNL A   1      48.027  28.068  25.296  1.00  0.00     0.091 A 
ATOM     63  F   UNL A   1      45.769  28.756  24.943  1.00  0.00    -0.205 F 
ATOM     64  C   UNL A   1      49.120  27.935  26.169  1.00  0.00     0.022 A 
BRANCH  62  65
ATOM     65  S   UNL A   1      48.259  27.479  23.615  1.00  0.00     0.127 S 
ATOM     66  O   UNL A   1      49.666  27.804  23.380  1.00  0.00    -0.237 OA
ATOM     67  O   UNL A   1      47.978  26.049  23.751  1.00  0.00    -0.237 OA
ATOM     68  O   UNL A   1      47.311  28.216  22.793  1.00  0.00    -0.744 OA
ENDBRANCH  62  65
ENDBRANCH  44  58
BRANCH  45  69
ATOM     69  C   UNL A   1      37.738  31.603  30.648  1.00  0.00     0.023 A 
ATOM     70  C   UNL A   1      37.454  31.372  32.006  1.00  0.00     0.012 A 
ATOM     71  C   UNL A   1      36.791  32.269  29.846  1.00  0.00     0.148 A 
ATOM     72  C   UNL A   1      36.244  31.795  32.558  1.00  0.00     0.002 A 
ATOM     73  C   UNL A   1      35.607  32.726  30.411  1.00  0.00     0.091 A 
ATOM     74  F   UNL A   1      37.089  32.476  28.555  1.00  0.00    -0.205 F 
ATOM     75  C   UNL A   1      35.328  32.483  31.764  1.00  0.00     0.022 A 
BRANCH  73  76
ATOM     76  S   UNL A   1      34.413  33.710  29.498  1.00  0.00     0.127 S 
ATOM     77  O   UNL A   1      33.546  34.195  30.571  1.00  0.00    -0.237 OA
ATOM     78  O   UNL A   1      35.269  34.728  28.890  1.00  0.00    -0.237 OA
ATOM     79  O   UNL A   1      33.786  32.800  28.552  1.00  0.00    -0.744 OA
ENDBRANCH  73  76
ENDBRANCH  45  69
BRANCH  57  80
ATOM     80  C   UNL A   1      43.967  34.773  30.320  1.00  0.00     0.023 A 
ATOM     81  C   UNL A   1      44.669  34.862  31.536  1.00  0.00     0.012 A 
ATOM     82  C   UNL A   1      43.864  35.904  29.487  1.00  0.00     0.148 A 
ATOM     83  C   UNL A   1      45.262  36.064  31.920  1.00  0.00     0.002 A 
ATOM     84  C   UNL A   1      44.487  37.089  29.858  1.00  0.00     0.091 A 
ATOM     85  F   UNL A   1      43.184  35.789  28.337  1.00  0.00    -0.205 F 
ATOM     86  C   UNL A   1      45.182  37.172  31.076  1.00  0.00     0.022 A 
BRANCH  84  87
ATOM     87  S   UNL A   1      44.504  38.544  28.807  1.00  0.00     0.127 S 
ATOM     88  O   UNL A   1      45.098  38.018  27.580  1.00  0.00    -0.237 OA
ATOM     89  O   UNL A   1      43.081  38.868  28.707  1.00  0.00    -0.237 OA
ATOM     90  O   UNL A   1      45.307  39.539  29.505  1.00  0.00    -0.744 OA
ENDBRANCH  84  87
ENDBRANCH  57  80
ENDBRANCH  31  32
ENDBRANCH  24  26
ENDBRANCH  23  24
ENDBRANCH   1  23
TORSDOF 16
ENDMDL
