MODEL 1
REMARK VINA RESULT:     -11.3      0.000      0.000
REMARK SMILES C[C@H]1C[C@@H]1c1nc(-c2ccccc2)c(CC(=O)OCCOC(=O)c2ccc(-c3c4nc(c(-c5cccc(S(=O)(=O)[O-])c5F)c5ccc([nH]5)c(-c5cccc(S(=O)(=O)[O-])c5F)c5nc(c(-c6cccc(S(=O)(=O)[O-])c6F)c6ccc3[nH]6)C=C5)C=C4)cc2)s1
REMARK SMILES IDX 20 1 19 2 18 3 16 4 17 5 15 6 14 7 5 8 6 9 87 10 7 11 4 12
REMARK SMILES IDX 1 13 2 14 3 15 8 16 9 17 13 18 10 19 12 20 11 21 21 22 22 23
REMARK SMILES IDX 23 24 24 25 25 26 86 27 26 28 85 29 27 30 28 31 29 32 79 33
REMARK SMILES IDX 30 34 84 35 78 36 80 37 31 38 83 39 77 40 76 41 32 43 64 44
REMARK SMILES IDX 44 45 63 46 45 47 48 48 62 49 81 50 46 51 47 52 61 54 82 55
REMARK SMILES IDX 49 56 33 57 34 58 42 59 35 60 37 61 43 62 36 63 38 64 39 65
REMARK SMILES IDX 40 66 41 67 65 68 66 69 74 70 67 71 69 72 75 73 68 74 70 75
REMARK SMILES IDX 71 76 72 77 73 78 50 79 51 80 59 81 52 82 54 83 60 84 53 85
REMARK SMILES IDX 55 86 56 87 57 88 58 89
REMARK H PARENT 80 42 48 53
REMARK Flexibility Score: inf
ROOT
ATOM      1  C   UNL A   1      31.381  32.506  26.818  1.00  0.00     0.275 C 
ENDROOT
BRANCH   1   2
ATOM      2  C   UNL A   1      31.246  31.183  26.066  1.00  0.00     0.274 C 
BRANCH   2   3
ATOM      3  O   UNL A   1      32.382  30.332  26.319  1.00  0.00    -0.462 OA
BRANCH   3   4
ATOM      4  C   UNL A   1      32.575  29.333  25.417  1.00  0.00     0.311 C 
ATOM      5  O   UNL A   1      33.315  29.417  24.441  1.00  0.00    -0.252 OA
BRANCH   4   6
ATOM      6  C   UNL A   1      31.767  28.081  25.676  1.00  0.00     0.171 C 
BRANCH   6   7
ATOM      7  C   UNL A   1      31.799  27.073  24.571  1.00  0.00     0.044 A 
ATOM      8  C   UNL A   1      32.230  25.175  23.133  1.00  0.00     0.097 A 
ATOM      9  N   UNL A   1      31.185  25.834  22.678  1.00  0.00    -0.241 NA
ATOM     10  S   UNL A   1      32.983  25.831  24.525  1.00  0.00    -0.122 S 
ATOM     11  C   UNL A   1      31.017  26.984  23.429  1.00  0.00     0.085 A 
BRANCH   8  12
ATOM     12  C   UNL A   1      32.689  23.872  22.479  1.00  0.00     0.052 C 
ATOM     13  C   UNL A   1      32.071  21.336  22.369  1.00  0.00     0.008 C 
ATOM     14  C   UNL A   1      32.464  22.538  23.153  1.00  0.00    -0.004 C 
ATOM     15  C   UNL A   1      33.856  23.108  23.051  1.00  0.00     0.015 C 
ENDBRANCH   8  12
BRANCH  11  16
ATOM     16  C   UNL A   1      30.062  28.018  23.073  1.00  0.00     0.001 A 
ATOM     17  C   UNL A   1      28.703  27.852  23.391  1.00  0.00     0.010 A 
ATOM     18  C   UNL A   1      30.464  29.129  22.330  1.00  0.00     0.010 A 
ATOM     19  C   UNL A   1      27.748  28.738  22.897  1.00  0.00     0.001 A 
ATOM     20  C   UNL A   1      29.506  30.025  21.850  1.00  0.00     0.001 A 
ATOM     21  C   UNL A   1      28.150  29.819  22.117  1.00  0.00     0.000 A 
ENDBRANCH  11  16
ENDBRANCH   6   7
ENDBRANCH   4   6
ENDBRANCH   3   4
ENDBRANCH   2   3
ENDBRANCH   1   2
BRANCH   1  22
ATOM     22  O   UNL A   1      32.747  32.952  26.783  1.00  0.00    -0.458 OA
BRANCH  22  23
ATOM     23  C   UNL A   1      33.165  33.650  27.863  1.00  0.00     0.338 C 
ATOM     24  O   UNL A   1      32.643  34.631  28.363  1.00  0.00    -0.246 OA
BRANCH  23  25
ATOM     25  C   UNL A   1      34.400  33.042  28.383  1.00  0.00     0.060 A 
ATOM     26  C   UNL A   1      34.358  31.795  29.007  1.00  0.00     0.016 A 
ATOM     27  C   UNL A   1      35.589  33.766  28.336  1.00  0.00     0.016 A 
ATOM     28  C   UNL A   1      35.494  31.283  29.631  1.00  0.00     0.010 A 
ATOM     29  C   UNL A   1      36.742  33.227  28.909  1.00  0.00     0.010 A 
ATOM     30  C   UNL A   1      36.698  31.995  29.588  1.00  0.00    -0.014 A 
BRANCH  30  31
ATOM     31  C   UNL A   1      37.909  31.484  30.277  1.00  0.00     0.031 A 
ATOM     32  C   UNL A   1      38.769  30.450  29.602  1.00  0.00     0.074 A 
ATOM     33  C   UNL A   1      38.205  31.906  31.520  1.00  0.00     0.049 A 
ATOM     34  N   UNL A   1      39.773  29.768  30.088  1.00  0.00    -0.248 NA
ATOM     35  C   UNL A   1      38.450  30.131  28.201  1.00  0.00     0.031 C 
ATOM     36  C   UNL A   1      37.450  32.904  32.278  1.00  0.00     0.029 A 
ATOM     37  N   UNL A   1      39.204  31.521  32.380  1.00  0.00    -0.354 N 
ATOM     38  C   UNL A   1      40.161  28.894  29.080  1.00  0.00     0.074 A 
ATOM     39  C   UNL A   1      39.294  29.141  27.948  1.00  0.00     0.031 C 
ATOM     40  C   UNL A   1      38.000  33.041  33.496  1.00  0.00     0.029 A 
ATOM     41  C   UNL A   1      39.115  32.107  33.622  1.00  0.00     0.049 A 
ATOM     42  H   UNL A   1      39.916  30.887  32.132  1.00  0.00     0.167 HD
ATOM     43  C   UNL A   1      41.155  27.976  29.095  1.00  0.00     0.034 A 
ATOM     44  C   UNL A   1      39.826  31.891  34.745  1.00  0.00     0.034 A 
ATOM     45  C   UNL A   1      42.060  27.783  30.195  1.00  0.00     0.049 A 
ATOM     46  C   UNL A   1      40.936  30.875  34.724  1.00  0.00     0.074 A 
ATOM     47  C   UNL A   1      43.150  26.935  30.273  1.00  0.00     0.029 A 
ATOM     48  N   UNL A   1      41.981  28.447  31.410  1.00  0.00    -0.354 N 
ATOM     49  N   UNL A   1      41.362  30.139  33.726  1.00  0.00    -0.248 NA
ATOM     50  C   UNL A   1      41.677  30.673  35.978  1.00  0.00     0.031 C 
ATOM     51  C   UNL A   1      43.724  27.077  31.541  1.00  0.00     0.029 A 
ATOM     52  C   UNL A   1      42.996  28.020  32.248  1.00  0.00     0.049 A 
ATOM     53  H   UNL A   1      41.302  29.120  31.642  1.00  0.00     0.167 HD
ATOM     54  C   UNL A   1      42.438  29.410  34.222  1.00  0.00     0.074 A 
ATOM     55  C   UNL A   1      42.613  29.811  35.603  1.00  0.00     0.031 C 
ATOM     56  C   UNL A   1      43.197  28.477  33.598  1.00  0.00     0.034 A 
BRANCH  43  57
ATOM     57  C   UNL A   1      41.347  27.123  27.870  1.00  0.00     0.023 A 
ATOM     58  C   UNL A   1      41.995  27.659  26.741  1.00  0.00     0.012 A 
ATOM     59  C   UNL A   1      40.954  25.770  27.868  1.00  0.00     0.148 A 
ATOM     60  C   UNL A   1      42.233  26.867  25.618  1.00  0.00     0.002 A 
ATOM     61  C   UNL A   1      41.226  24.977  26.759  1.00  0.00     0.091 A 
ATOM     62  F   UNL A   1      40.316  25.287  28.943  1.00  0.00    -0.205 F 
ATOM     63  C   UNL A   1      41.860  25.525  25.631  1.00  0.00     0.022 A 
BRANCH  61  64
ATOM     64  S   UNL A   1      40.848  23.221  26.711  1.00  0.00     0.127 S 
ATOM     65  O   UNL A   1      41.274  22.793  28.043  1.00  0.00    -0.237 OA
ATOM     66  O   UNL A   1      39.399  23.221  26.505  1.00  0.00    -0.237 OA
ATOM     67  O   UNL A   1      41.618  22.676  25.602  1.00  0.00    -0.744 OA
ENDBRANCH  61  64
ENDBRANCH  43  57
BRANCH  44  68
ATOM     68  C   UNL A   1      39.532  32.675  35.978  1.00  0.00     0.023 A 
ATOM     69  C   UNL A   1      40.136  33.935  36.153  1.00  0.00     0.012 A 
ATOM     70  C   UNL A   1      38.645  32.197  36.962  1.00  0.00     0.148 A 
ATOM     71  C   UNL A   1      39.881  34.693  37.297  1.00  0.00     0.002 A 
ATOM     72  C   UNL A   1      38.354  32.981  38.073  1.00  0.00     0.091 A 
ATOM     73  F   UNL A   1      38.099  30.983  36.796  1.00  0.00    -0.205 F 
ATOM     74  C   UNL A   1      38.982  34.223  38.250  1.00  0.00     0.022 A 
BRANCH  72  75
ATOM     75  S   UNL A   1      37.102  32.498  39.268  1.00  0.00     0.127 S 
ATOM     76  O   UNL A   1      35.873  32.658  38.498  1.00  0.00    -0.237 OA
ATOM     77  O   UNL A   1      37.470  31.111  39.560  1.00  0.00    -0.237 OA
ATOM     78  O   UNL A   1      37.281  33.407  40.392  1.00  0.00    -0.744 OA
ENDBRANCH  72  75
ENDBRANCH  44  68
BRANCH  56  79
ATOM     79  C   UNL A   1      44.310  27.843  34.388  1.00  0.00     0.023 A 
ATOM     80  C   UNL A   1      45.583  28.445  34.401  1.00  0.00     0.012 A 
ATOM     81  C   UNL A   1      44.076  26.699  35.175  1.00  0.00     0.148 A 
ATOM     82  C   UNL A   1      46.614  27.904  35.168  1.00  0.00     0.002 A 
ATOM     83  C   UNL A   1      45.096  26.190  35.970  1.00  0.00     0.091 A 
ATOM     84  F   UNL A   1      42.863  26.127  35.131  1.00  0.00    -0.205 F 
ATOM     85  C   UNL A   1      46.368  26.785  35.961  1.00  0.00     0.022 A 
BRANCH  83  86
ATOM     86  S   UNL A   1      44.835  24.808  37.089  1.00  0.00     0.127 S 
ATOM     87  O   UNL A   1      46.145  24.687  37.725  1.00  0.00    -0.237 OA
ATOM     88  O   UNL A   1      43.775  25.308  37.966  1.00  0.00    -0.237 OA
ATOM     89  O   UNL A   1      44.436  23.689  36.245  1.00  0.00    -0.744 OA
ENDBRANCH  83  86
ENDBRANCH  56  79
ENDBRANCH  30  31
ENDBRANCH  23  25
ENDBRANCH  22  23
ENDBRANCH   1  22
TORSDOF 17
ENDMDL
MODEL 2
REMARK VINA RESULT:     -11.3      5.352      8.968
REMARK SMILES C[C@H]1C[C@@H]1c1nc(-c2ccccc2)c(CC(=O)OCCOC(=O)c2ccc(-c3c4nc(c(-c5cccc(S(=O)(=O)[O-])c5F)c5ccc([nH]5)c(-c5cccc(S(=O)(=O)[O-])c5F)c5nc(c(-c6cccc(S(=O)(=O)[O-])c6F)c6ccc3[nH]6)C=C5)C=C4)cc2)s1
REMARK SMILES IDX 20 1 19 2 18 3 16 4 17 5 15 6 14 7 5 8 6 9 87 10 7 11 4 12
REMARK SMILES IDX 1 13 2 14 3 15 8 16 9 17 13 18 10 19 12 20 11 21 21 22 22 23
REMARK SMILES IDX 23 24 24 25 25 26 86 27 26 28 85 29 27 30 28 31 29 32 79 33
REMARK SMILES IDX 30 34 84 35 78 36 80 37 31 38 83 39 77 40 76 41 32 43 64 44
REMARK SMILES IDX 44 45 63 46 45 47 48 48 62 49 81 50 46 51 47 52 61 54 82 55
REMARK SMILES IDX 49 56 33 57 34 58 42 59 35 60 37 61 43 62 36 63 38 64 39 65
REMARK SMILES IDX 40 66 41 67 65 68 66 69 74 70 67 71 69 72 75 73 68 74 70 75
REMARK SMILES IDX 71 76 72 77 73 78 50 79 51 80 59 81 52 82 54 83 60 84 53 85
REMARK SMILES IDX 55 86 56 87 57 88 58 89
REMARK H PARENT 80 42 48 53
REMARK Flexibility Score: inf
ROOT
ATOM      1  C   UNL A   1      38.878  19.490  25.554  1.00  0.00     0.275 C 
ENDROOT
BRANCH   1   2
ATOM      2  C   UNL A   1      37.560  20.007  24.982  1.00  0.00     0.274 C 
BRANCH   2   3
ATOM      3  O   UNL A   1      37.673  21.394  24.605  1.00  0.00    -0.462 OA
BRANCH   3   4
ATOM      4  C   UNL A   1      36.626  22.184  24.963  1.00  0.00     0.311 C 
ATOM      5  O   UNL A   1      36.348  22.478  26.122  1.00  0.00    -0.252 OA
BRANCH   4   6
ATOM      6  C   UNL A   1      35.772  22.665  23.811  1.00  0.00     0.171 C 
BRANCH   6   7
ATOM      7  C   UNL A   1      34.460  23.263  24.210  1.00  0.00     0.044 A 
ATOM      8  C   UNL A   1      32.628  24.732  24.798  1.00  0.00     0.097 A 
ATOM      9  N   UNL A   1      32.161  23.517  24.595  1.00  0.00    -0.241 NA
ATOM     10  S   UNL A   1      34.323  24.920  24.636  1.00  0.00    -0.122 S 
ATOM     11  C   UNL A   1      33.224  22.658  24.379  1.00  0.00     0.085 A 
BRANCH   8  12
ATOM     12  C   UNL A   1      31.689  25.899  25.100  1.00  0.00     0.052 C 
ATOM     13  C   UNL A   1      31.593  28.114  26.482  1.00  0.00     0.008 C 
ATOM     14  C   UNL A   1      31.758  26.636  26.418  1.00  0.00    -0.004 C 
ATOM     15  C   UNL A   1      30.585  25.738  26.114  1.00  0.00     0.015 C 
ENDBRANCH   8  12
BRANCH  11  16
ATOM     16  C   UNL A   1      33.060  21.217  24.300  1.00  0.00     0.001 A 
ATOM     17  C   UNL A   1      32.523  20.640  23.136  1.00  0.00     0.010 A 
ATOM     18  C   UNL A   1      33.338  20.410  25.403  1.00  0.00     0.010 A 
ATOM     19  C   UNL A   1      32.186  19.288  23.108  1.00  0.00     0.001 A 
ATOM     20  C   UNL A   1      33.014  19.051  25.367  1.00  0.00     0.001 A 
ATOM     21  C   UNL A   1      32.422  18.496  24.229  1.00  0.00     0.000 A 
ENDBRANCH  11  16
ENDBRANCH   6   7
ENDBRANCH   4   6
ENDBRANCH   3   4
ENDBRANCH   2   3
ENDBRANCH   1   2
BRANCH   1  22
ATOM     22  O   UNL A   1      39.798  20.581  25.725  1.00  0.00    -0.458 OA
BRANCH  22  23
ATOM     23  C   UNL A   1      40.396  20.661  26.936  1.00  0.00     0.338 C 
ATOM     24  O   UNL A   1      40.693  19.744  27.681  1.00  0.00    -0.246 OA
BRANCH  23  25
ATOM     25  C   UNL A   1      40.651  22.075  27.257  1.00  0.00     0.060 A 
ATOM     26  C   UNL A   1      39.999  23.082  26.546  1.00  0.00     0.016 A 
ATOM     27  C   UNL A   1      41.620  22.395  28.204  1.00  0.00     0.016 A 
ATOM     28  C   UNL A   1      40.345  24.418  26.742  1.00  0.00     0.010 A 
ATOM     29  C   UNL A   1      41.925  23.736  28.444  1.00  0.00     0.010 A 
ATOM     30  C   UNL A   1      41.313  24.757  27.694  1.00  0.00    -0.014 A 
BRANCH  30  31
ATOM     31  C   UNL A   1      41.721  26.170  27.893  1.00  0.00     0.031 A 
ATOM     32  C   UNL A   1      43.103  26.610  27.490  1.00  0.00     0.074 A 
ATOM     33  C   UNL A   1      40.877  27.040  28.479  1.00  0.00     0.049 A 
ATOM     34  N   UNL A   1      43.705  27.749  27.716  1.00  0.00    -0.248 NA
ATOM     35  C   UNL A   1      43.921  25.637  26.748  1.00  0.00     0.031 C 
ATOM     36  C   UNL A   1      39.513  26.734  28.912  1.00  0.00     0.029 A 
ATOM     37  N   UNL A   1      41.055  28.352  28.842  1.00  0.00    -0.354 N 
ATOM     38  C   UNL A   1      44.989  27.606  27.206  1.00  0.00     0.074 A 
ATOM     39  C   UNL A   1      45.078  26.275  26.645  1.00  0.00     0.031 C 
ATOM     40  C   UNL A   1      38.984  27.820  29.498  1.00  0.00     0.029 A 
ATOM     41  C   UNL A   1      39.985  28.882  29.526  1.00  0.00     0.049 A 
ATOM     42  H   UNL A   1      41.870  28.864  28.633  1.00  0.00     0.167 HD
ATOM     43  C   UNL A   1      46.000  28.507  27.199  1.00  0.00     0.034 A 
ATOM     44  C   UNL A   1      39.841  30.073  30.137  1.00  0.00     0.034 A 
ATOM     45  C   UNL A   1      45.885  29.852  27.693  1.00  0.00     0.049 A 
ATOM     46  C   UNL A   1      40.977  31.059  30.097  1.00  0.00     0.074 A 
ATOM     47  C   UNL A   1      46.827  30.864  27.655  1.00  0.00     0.029 A 
ATOM     48  N   UNL A   1      44.761  30.374  28.315  1.00  0.00    -0.354 N 
ATOM     49  N   UNL A   1      42.144  30.949  29.511  1.00  0.00    -0.248 NA
ATOM     50  C   UNL A   1      40.769  32.342  30.784  1.00  0.00     0.031 C 
ATOM     51  C   UNL A   1      46.277  31.996  28.265  1.00  0.00     0.029 A 
ATOM     52  C   UNL A   1      44.989  31.691  28.674  1.00  0.00     0.049 A 
ATOM     53  H   UNL A   1      43.926  29.880  28.477  1.00  0.00     0.167 HD
ATOM     54  C   UNL A   1      42.798  32.156  29.733  1.00  0.00     0.074 A 
ATOM     55  C   UNL A   1      41.886  32.992  30.487  1.00  0.00     0.031 C 
ATOM     56  C   UNL A   1      44.047  32.530  29.366  1.00  0.00     0.034 A 
BRANCH  43  57
ATOM     57  C   UNL A   1      47.317  28.084  26.609  1.00  0.00     0.023 A 
ATOM     58  C   UNL A   1      48.377  27.718  27.460  1.00  0.00     0.012 A 
ATOM     59  C   UNL A   1      47.479  27.978  25.214  1.00  0.00     0.148 A 
ATOM     60  C   UNL A   1      49.588  27.268  26.932  1.00  0.00     0.002 A 
ATOM     61  C   UNL A   1      48.676  27.496  24.695  1.00  0.00     0.091 A 
ATOM     62  F   UNL A   1      46.467  28.357  24.421  1.00  0.00    -0.205 F 
ATOM     63  C   UNL A   1      49.732  27.147  25.552  1.00  0.00     0.022 A 
BRANCH  61  64
ATOM     64  S   UNL A   1      48.931  27.237  22.936  1.00  0.00     0.127 S 
ATOM     65  O   UNL A   1      48.253  25.958  22.726  1.00  0.00    -0.237 OA
ATOM     66  O   UNL A   1      48.249  28.391  22.349  1.00  0.00    -0.237 OA
ATOM     67  O   UNL A   1      50.373  27.221  22.738  1.00  0.00    -0.744 OA
ENDBRANCH  61  64
ENDBRANCH  43  57
BRANCH  44  68
ATOM     68  C   UNL A   1      38.557  30.415  30.814  1.00  0.00     0.023 A 
ATOM     69  C   UNL A   1      38.360  30.025  32.152  1.00  0.00     0.012 A 
ATOM     70  C   UNL A   1      37.546  31.140  30.154  1.00  0.00     0.148 A 
ATOM     71  C   UNL A   1      37.168  30.329  32.813  1.00  0.00     0.002 A 
ATOM     72  C   UNL A   1      36.385  31.487  30.836  1.00  0.00     0.091 A 
ATOM     73  F   UNL A   1      37.736  31.481  28.871  1.00  0.00    -0.205 F 
ATOM     74  C   UNL A   1      36.187  31.069  32.160  1.00  0.00     0.022 A 
BRANCH  72  75
ATOM     75  S   UNL A   1      35.142  32.556  30.100  1.00  0.00     0.127 S 
ATOM     76  O   UNL A   1      34.209  32.739  31.208  1.00  0.00    -0.237 OA
ATOM     77  O   UNL A   1      35.921  33.744  29.749  1.00  0.00    -0.237 OA
ATOM     78  O   UNL A   1      34.638  31.816  28.951  1.00  0.00    -0.744 OA
ENDBRANCH  72  75
ENDBRANCH  44  68
BRANCH  56  79
ATOM     79  C   UNL A   1      44.499  33.915  29.745  1.00  0.00     0.023 A 
ATOM     80  C   UNL A   1      45.240  34.104  30.927  1.00  0.00     0.012 A 
ATOM     81  C   UNL A   1      44.259  35.012  28.895  1.00  0.00     0.148 A 
ATOM     82  C   UNL A   1      45.714  35.370  31.271  1.00  0.00     0.002 A 
ATOM     83  C   UNL A   1      44.771  36.261  29.222  1.00  0.00     0.091 A 
ATOM     84  F   UNL A   1      43.532  34.815  27.784  1.00  0.00    -0.205 F 
ATOM     85  C   UNL A   1      45.490  36.445  30.413  1.00  0.00     0.022 A 
BRANCH  83  86
ATOM     86  S   UNL A   1      44.605  37.676  28.127  1.00  0.00     0.127 S 
ATOM     87  O   UNL A   1      45.285  38.724  28.886  1.00  0.00    -0.237 OA
ATOM     88  O   UNL A   1      45.316  37.233  26.927  1.00  0.00    -0.237 OA
ATOM     89  O   UNL A   1      43.172  37.863  27.938  1.00  0.00    -0.744 OA
ENDBRANCH  83  86
ENDBRANCH  56  79
ENDBRANCH  30  31
ENDBRANCH  23  25
ENDBRANCH  22  23
ENDBRANCH   1  22
TORSDOF 17
ENDMDL
MODEL 3
REMARK VINA RESULT:     -11.2      0.922      7.651
REMARK SMILES C[C@H]1C[C@@H]1c1nc(-c2ccccc2)c(CC(=O)OCCOC(=O)c2ccc(-c3c4nc(c(-c5cccc(S(=O)(=O)[O-])c5F)c5ccc([nH]5)c(-c5cccc(S(=O)(=O)[O-])c5F)c5nc(c(-c6cccc(S(=O)(=O)[O-])c6F)c6ccc3[nH]6)C=C5)C=C4)cc2)s1
REMARK SMILES IDX 20 1 19 2 18 3 16 4 17 5 15 6 14 7 5 8 6 9 87 10 7 11 4 12
REMARK SMILES IDX 1 13 2 14 3 15 8 16 9 17 13 18 10 19 12 20 11 21 21 22 22 23
REMARK SMILES IDX 23 24 24 25 25 26 86 27 26 28 85 29 27 30 28 31 29 32 79 33
REMARK SMILES IDX 30 34 84 35 78 36 80 37 31 38 83 39 77 40 76 41 32 43 64 44
REMARK SMILES IDX 44 45 63 46 45 47 48 48 62 49 81 50 46 51 47 52 61 54 82 55
REMARK SMILES IDX 49 56 33 57 34 58 42 59 35 60 37 61 43 62 36 63 38 64 39 65
REMARK SMILES IDX 40 66 41 67 65 68 66 69 74 70 67 71 69 72 75 73 68 74 70 75
REMARK SMILES IDX 71 76 72 77 73 78 50 79 51 80 59 81 52 82 54 83 60 84 53 85
REMARK SMILES IDX 55 86 56 87 57 88 58 89
REMARK H PARENT 80 42 48 53
REMARK Flexibility Score: inf
ROOT
ATOM      1  C   UNL A   1      31.970  33.076  26.816  1.00  0.00     0.275 C 
ENDROOT
BRANCH   1   2
ATOM      2  C   UNL A   1      31.356  31.716  26.493  1.00  0.00     0.274 C 
BRANCH   2   3
ATOM      3  O   UNL A   1      32.288  30.652  26.776  1.00  0.00    -0.462 OA
BRANCH   3   4
ATOM      4  C   UNL A   1      32.414  29.712  25.802  1.00  0.00     0.311 C 
ATOM      5  O   UNL A   1      33.181  29.805  24.848  1.00  0.00    -0.252 OA
BRANCH   4   6
ATOM      6  C   UNL A   1      31.494  28.521  25.948  1.00  0.00     0.171 C 
BRANCH   6   7
ATOM      7  C   UNL A   1      31.672  27.458  24.911  1.00  0.00     0.044 A 
ATOM      8  C   UNL A   1      32.315  25.508  23.630  1.00  0.00     0.097 A 
ATOM      9  N   UNL A   1      31.290  26.092  23.044  1.00  0.00    -0.241 NA
ATOM     10  S   UNL A   1      32.906  26.273  25.045  1.00  0.00    -0.122 S 
ATOM     11  C   UNL A   1      31.004  27.271  23.710  1.00  0.00     0.085 A 
BRANCH   8  12
ATOM     12  C   UNL A   1      32.888  24.195  23.096  1.00  0.00     0.052 C 
ATOM     13  C   UNL A   1      32.169  21.740  22.570  1.00  0.00     0.008 C 
ATOM     14  C   UNL A   1      32.325  22.862  23.534  1.00  0.00    -0.004 C 
ATOM     15  C   UNL A   1      33.692  23.297  24.002  1.00  0.00     0.015 C 
ENDBRANCH   8  12
BRANCH  11  16
ATOM     16  C   UNL A   1      30.044  28.238  23.209  1.00  0.00     0.001 A 
ATOM     17  C   UNL A   1      28.669  28.011  23.388  1.00  0.00     0.010 A 
ATOM     18  C   UNL A   1      30.469  29.340  22.466  1.00  0.00     0.010 A 
ATOM     19  C   UNL A   1      27.730  28.826  22.757  1.00  0.00     0.001 A 
ATOM     20  C   UNL A   1      29.525  30.165  21.848  1.00  0.00     0.001 A 
ATOM     21  C   UNL A   1      28.160  29.896  21.978  1.00  0.00     0.000 A 
ENDBRANCH  11  16
ENDBRANCH   6   7
ENDBRANCH   4   6
ENDBRANCH   3   4
ENDBRANCH   2   3
ENDBRANCH   1   2
BRANCH   1  22
ATOM     22  O   UNL A   1      32.924  32.942  27.884  1.00  0.00    -0.458 OA
BRANCH  22  23
ATOM     23  C   UNL A   1      34.089  33.608  27.718  1.00  0.00     0.338 C 
ATOM     24  O   UNL A   1      34.252  34.709  27.222  1.00  0.00    -0.246 OA
BRANCH  23  25
ATOM     25  C   UNL A   1      35.194  32.787  28.237  1.00  0.00     0.060 A 
ATOM     26  C   UNL A   1      34.950  31.490  28.689  1.00  0.00     0.016 A 
ATOM     27  C   UNL A   1      36.461  33.350  28.365  1.00  0.00     0.016 A 
ATOM     28  C   UNL A   1      35.959  30.763  29.317  1.00  0.00     0.010 A 
ATOM     29  C   UNL A   1      37.488  32.600  28.941  1.00  0.00     0.010 A 
ATOM     30  C   UNL A   1      37.239  31.312  29.449  1.00  0.00    -0.014 A 
BRANCH  30  31
ATOM     31  C   UNL A   1      38.318  30.569  30.146  1.00  0.00     0.031 A 
ATOM     32  C   UNL A   1      38.652  30.905  31.574  1.00  0.00     0.074 A 
ATOM     33  C   UNL A   1      39.027  29.634  29.486  1.00  0.00     0.049 A 
ATOM     34  N   UNL A   1      39.649  30.486  32.310  1.00  0.00    -0.248 NA
ATOM     35  C   UNL A   1      37.755  31.849  32.262  1.00  0.00     0.031 C 
ATOM     36  C   UNL A   1      38.798  29.218  28.102  1.00  0.00     0.029 A 
ATOM     37  N   UNL A   1      40.109  28.887  29.883  1.00  0.00    -0.354 N 
ATOM     38  C   UNL A   1      39.539  31.162  33.518  1.00  0.00     0.074 A 
ATOM     39  C   UNL A   1      38.370  32.010  33.425  1.00  0.00     0.031 C 
ATOM     40  C   UNL A   1      39.722  28.306  27.758  1.00  0.00     0.029 A 
ATOM     41  C   UNL A   1      40.636  28.108  28.880  1.00  0.00     0.049 A 
ATOM     42  H   UNL A   1      40.473  28.908  30.798  1.00  0.00     0.167 HD
ATOM     43  C   UNL A   1      40.336  31.077  34.608  1.00  0.00     0.034 A 
ATOM     44  C   UNL A   1      41.747  27.348  28.853  1.00  0.00     0.034 A 
ATOM     45  C   UNL A   1      41.455  30.181  34.723  1.00  0.00     0.049 A 
ATOM     46  C   UNL A   1      42.604  27.261  30.088  1.00  0.00     0.074 A 
ATOM     47  C   UNL A   1      42.273  29.963  35.817  1.00  0.00     0.029 A 
ATOM     48  N   UNL A   1      41.913  29.355  33.708  1.00  0.00    -0.354 N 
ATOM     49  N   UNL A   1      42.421  27.820  31.260  1.00  0.00    -0.248 NA
ATOM     50  C   UNL A   1      43.809  26.423  30.004  1.00  0.00     0.031 C 
ATOM     51  C   UNL A   1      43.235  29.012  35.460  1.00  0.00     0.029 A 
ATOM     52  C   UNL A   1      43.009  28.632  34.147  1.00  0.00     0.049 A 
ATOM     53  H   UNL A   1      41.518  29.292  32.810  1.00  0.00     0.167 HD
ATOM     54  C   UNL A   1      43.469  27.378  32.060  1.00  0.00     0.074 A 
ATOM     55  C   UNL A   1      44.270  26.487  31.245  1.00  0.00     0.031 C 
ATOM     56  C   UNL A   1      43.756  27.699  33.345  1.00  0.00     0.034 A 
BRANCH  43  57
ATOM     57  C   UNL A   1      40.014  31.953  35.788  1.00  0.00     0.023 A 
ATOM     58  C   UNL A   1      40.743  33.139  35.996  1.00  0.00     0.012 A 
ATOM     59  C   UNL A   1      38.941  31.638  36.645  1.00  0.00     0.148 A 
ATOM     60  C   UNL A   1      40.421  33.993  37.051  1.00  0.00     0.002 A 
ATOM     61  C   UNL A   1      38.603  32.511  37.673  1.00  0.00     0.091 A 
ATOM     62  F   UNL A   1      38.277  30.491  36.445  1.00  0.00    -0.205 F 
ATOM     63  C   UNL A   1      39.346  33.686  37.881  1.00  0.00     0.022 A 
BRANCH  61  64
ATOM     64  S   UNL A   1      37.190  32.237  38.748  1.00  0.00     0.127 S 
ATOM     65  O   UNL A   1      37.620  32.907  39.975  1.00  0.00    -0.237 OA
ATOM     66  O   UNL A   1      36.114  32.917  38.027  1.00  0.00    -0.237 OA
ATOM     67  O   UNL A   1      37.036  30.792  38.845  1.00  0.00    -0.744 OA
ENDBRANCH  61  64
ENDBRANCH  43  57
BRANCH  44  68
ATOM     68  C   UNL A   1      42.100  26.581  27.624  1.00  0.00     0.023 A 
ATOM     69  C   UNL A   1      42.740  27.244  26.560  1.00  0.00     0.012 A 
ATOM     70  C   UNL A   1      41.829  25.204  27.512  1.00  0.00     0.148 A 
ATOM     71  C   UNL A   1      43.082  26.554  25.395  1.00  0.00     0.002 A 
ATOM     72  C   UNL A   1      42.222  24.511  26.371  1.00  0.00     0.091 A 
ATOM     73  F   UNL A   1      41.193  24.592  28.522  1.00  0.00    -0.205 F 
ATOM     74  C   UNL A   1      42.834  25.187  25.306  1.00  0.00     0.022 A 
BRANCH  72  75
ATOM     75  S   UNL A   1      42.058  22.726  26.247  1.00  0.00     0.127 S 
ATOM     76  O   UNL A   1      42.795  22.274  27.423  1.00  0.00    -0.237 OA
ATOM     77  O   UNL A   1      40.608  22.540  26.322  1.00  0.00    -0.237 OA
ATOM     78  O   UNL A   1      42.634  22.382  24.954  1.00  0.00    -0.744 OA
ENDBRANCH  72  75
ENDBRANCH  44  68
BRANCH  56  79
ATOM     79  C   UNL A   1      44.969  27.063  33.968  1.00  0.00     0.023 A 
ATOM     80  C   UNL A   1      46.226  27.682  33.830  1.00  0.00     0.012 A 
ATOM     81  C   UNL A   1      44.852  25.899  34.752  1.00  0.00     0.148 A 
ATOM     82  C   UNL A   1      47.354  27.139  34.443  1.00  0.00     0.002 A 
ATOM     83  C   UNL A   1      45.973  25.387  35.395  1.00  0.00     0.091 A 
ATOM     84  F   UNL A   1      43.650  25.311  34.853  1.00  0.00    -0.205 F 
ATOM     85  C   UNL A   1      47.225  25.999  35.234  1.00  0.00     0.022 A 
BRANCH  83  86
ATOM     86  S   UNL A   1      45.874  23.977  36.505  1.00  0.00     0.127 S 
ATOM     87  O   UNL A   1      44.921  24.451  37.507  1.00  0.00    -0.237 OA
ATOM     88  O   UNL A   1      45.364  22.921  35.630  1.00  0.00    -0.237 OA
ATOM     89  O   UNL A   1      47.233  23.755  36.982  1.00  0.00    -0.744 OA
ENDBRANCH  83  86
ENDBRANCH  56  79
ENDBRANCH  30  31
ENDBRANCH  23  25
ENDBRANCH  22  23
ENDBRANCH   1  22
TORSDOF 17
ENDMDL
