MODEL 1
REMARK VINA RESULT:     -12.0      0.000      0.000
REMARK SMILES C[C@H](C(=O)OCCOC(=O)c1ccc(-c2c3nc(c(-c4cccc(S(=O)(=O)[O-])c4F)c4ccc([nH]4)c(-c4cccc(S(=O)(=O)[O-])c4F)c4nc(c(-c5cccc(S(=O)(=O)[O-])c5F)c5ccc2[nH]5)C=C4)C=C3)cc1)c1ccc(-c2ccccc2)c(F)c1
REMARK SMILES IDX 7 1 6 2 5 3 3 4 4 5 2 6 1 7 74 8 75 9 86 10 76 11 84 12
REMARK SMILES IDX 77 13 85 14 78 15 79 16 83 17 80 18 82 19 81 20 8 21 9 22
REMARK SMILES IDX 10 23 11 24 12 25 73 26 13 27 72 28 14 29 15 30 16 31 66 32
REMARK SMILES IDX 17 33 71 34 65 35 67 36 18 37 70 38 64 39 63 40 19 42 51 43
REMARK SMILES IDX 31 44 50 45 32 46 35 47 49 48 68 49 33 50 34 51 48 53 69 54
REMARK SMILES IDX 36 55 20 56 21 57 29 58 22 59 24 60 30 61 23 62 25 63 26 64
REMARK SMILES IDX 27 65 28 66 52 67 53 68 61 69 54 70 56 71 62 72 55 73 57 74
REMARK SMILES IDX 58 75 59 76 60 77 37 78 38 79 46 80 39 81 41 82 47 83 40 84
REMARK SMILES IDX 42 85 43 86 44 87 45 88
REMARK H PARENT 67 41 35 52
REMARK Flexibility Score: inf
ROOT
ATOM      1  C   UNL A   1      31.386  30.252  25.696  1.00  0.00     0.275 C 
ENDROOT
BRANCH   1   2
ATOM      2  C   UNL A   1      31.135  29.044  24.799  1.00  0.00     0.274 C 
BRANCH   2   3
ATOM      3  O   UNL A   1      31.507  29.329  23.435  1.00  0.00    -0.462 OA
BRANCH   3   4
ATOM      4  C   UNL A   1      31.484  28.285  22.565  1.00  0.00     0.313 C 
ATOM      5  O   UNL A   1      30.459  27.816  22.081  1.00  0.00    -0.252 OA
BRANCH   4   6
ATOM      6  C   UNL A   1      32.861  27.727  22.226  1.00  0.00     0.126 C 
ATOM      7  C   UNL A   1      33.967  28.727  22.570  1.00  0.00     0.025 C 
BRANCH   6   8
ATOM      8  C   UNL A   1      33.197  26.357  22.788  1.00  0.00    -0.031 A 
ATOM      9  C   UNL A   1      33.731  26.186  24.073  1.00  0.00     0.005 A 
ATOM     10  C   UNL A   1      33.038  25.229  21.974  1.00  0.00     0.044 A 
ATOM     11  C   UNL A   1      34.121  24.919  24.521  1.00  0.00     0.012 A 
ATOM     12  C   UNL A   1      33.434  23.974  22.425  1.00  0.00     0.131 A 
ATOM     13  C   UNL A   1      33.992  23.789  23.696  1.00  0.00     0.017 A 
ATOM     14  F   UNL A   1      33.277  22.930  21.595  1.00  0.00    -0.206 F 
BRANCH  13  15
ATOM     15  C   UNL A   1      34.455  22.469  24.144  1.00  0.00    -0.015 A 
ATOM     16  C   UNL A   1      35.822  22.193  24.302  1.00  0.00     0.009 A 
ATOM     17  C   UNL A   1      33.536  21.442  24.420  1.00  0.00     0.009 A 
ATOM     18  C   UNL A   1      36.255  20.937  24.731  1.00  0.00     0.001 A 
ATOM     19  C   UNL A   1      33.967  20.185  24.846  1.00  0.00     0.001 A 
ATOM     20  C   UNL A   1      35.328  19.933  25.003  1.00  0.00     0.000 A 
ENDBRANCH  13  15
ENDBRANCH   6   8
ENDBRANCH   4   6
ENDBRANCH   3   4
ENDBRANCH   2   3
ENDBRANCH   1   2
BRANCH   1  21
ATOM     21  O   UNL A   1      32.765  30.276  26.099  1.00  0.00    -0.458 OA
BRANCH  21  22
ATOM     22  C   UNL A   1      33.117  31.276  26.937  1.00  0.00     0.338 C 
ATOM     23  O   UNL A   1      32.459  32.253  27.249  1.00  0.00    -0.246 OA
BRANCH  22  24
ATOM     24  C   UNL A   1      34.445  30.988  27.497  1.00  0.00     0.060 A 
ATOM     25  C   UNL A   1      34.792  29.666  27.764  1.00  0.00     0.016 A 
ATOM     26  C   UNL A   1      35.291  32.028  27.874  1.00  0.00     0.016 A 
ATOM     27  C   UNL A   1      35.935  29.379  28.501  1.00  0.00     0.010 A 
ATOM     28  C   UNL A   1      36.494  31.731  28.523  1.00  0.00     0.010 A 
ATOM     29  C   UNL A   1      36.810  30.407  28.881  1.00  0.00    -0.014 A 
BRANCH  29  30
ATOM     30  C   UNL A   1      38.036  30.102  29.669  1.00  0.00     0.031 A 
ATOM     31  C   UNL A   1      39.108  29.216  29.091  1.00  0.00     0.074 A 
ATOM     32  C   UNL A   1      38.185  30.606  30.911  1.00  0.00     0.049 A 
ATOM     33  N   UNL A   1      40.158  28.701  29.678  1.00  0.00    -0.248 NA
ATOM     34  C   UNL A   1      38.976  28.848  27.672  1.00  0.00     0.031 C 
ATOM     35  C   UNL A   1      37.230  31.485  31.588  1.00  0.00     0.029 A 
ATOM     36  N   UNL A   1      39.194  30.445  31.829  1.00  0.00    -0.354 N 
ATOM     37  C   UNL A   1      40.768  27.892  28.727  1.00  0.00     0.074 A 
ATOM     38  C   UNL A   1      39.979  27.994  27.517  1.00  0.00     0.031 C 
ATOM     39  C   UNL A   1      37.703  31.798  32.803  1.00  0.00     0.029 A 
ATOM     40  C   UNL A   1      38.958  31.090  33.022  1.00  0.00     0.049 A 
ATOM     41  H   UNL A   1      40.007  29.919  31.652  1.00  0.00     0.167 HD
ATOM     42  C   UNL A   1      41.888  27.142  28.844  1.00  0.00     0.034 A 
ATOM     43  C   UNL A   1      39.653  31.085  34.177  1.00  0.00     0.034 A 
ATOM     44  C   UNL A   1      42.718  27.106  30.018  1.00  0.00     0.049 A 
ATOM     45  C   UNL A   1      40.914  30.275  34.269  1.00  0.00     0.074 A 
ATOM     46  C   UNL A   1      43.891  26.400  30.222  1.00  0.00     0.029 A 
ATOM     47  N   UNL A   1      42.478  27.825  31.178  1.00  0.00    -0.354 N 
ATOM     48  N   UNL A   1      41.494  29.546  33.345  1.00  0.00    -0.248 NA
ATOM     49  C   UNL A   1      41.625  30.293  35.556  1.00  0.00     0.031 C 
ATOM     50  C   UNL A   1      44.363  26.697  31.505  1.00  0.00     0.029 A 
ATOM     51  C   UNL A   1      43.483  27.588  32.099  1.00  0.00     0.049 A 
ATOM     52  H   UNL A   1      41.704  28.416  31.326  1.00  0.00     0.167 HD
ATOM     53  C   UNL A   1      42.638  29.025  33.935  1.00  0.00     0.074 A 
ATOM     54  C   UNL A   1      42.691  29.550  35.284  1.00  0.00     0.031 C 
ATOM     55  C   UNL A   1      43.548  28.164  33.418  1.00  0.00     0.034 A 
BRANCH  42  56
ATOM     56  C   UNL A   1      42.310  26.323  27.654  1.00  0.00     0.023 A 
ATOM     57  C   UNL A   1      43.143  26.900  26.675  1.00  0.00     0.012 A 
ATOM     58  C   UNL A   1      41.932  24.972  27.532  1.00  0.00     0.148 A 
ATOM     59  C   UNL A   1      43.576  26.150  25.581  1.00  0.00     0.002 A 
ATOM     60  C   UNL A   1      42.395  24.222  26.456  1.00  0.00     0.091 A 
ATOM     61  F   UNL A   1      41.114  24.448  28.457  1.00  0.00    -0.205 F 
ATOM     62  C   UNL A   1      43.211  24.810  25.477  1.00  0.00     0.022 A 
BRANCH  60  63
ATOM     63  S   UNL A   1      42.025  22.471  26.281  1.00  0.00     0.127 S 
ATOM     64  O   UNL A   1      40.564  22.478  26.257  1.00  0.00    -0.237 OA
ATOM     65  O   UNL A   1      42.654  22.142  25.001  1.00  0.00    -0.237 OA
ATOM     66  O   UNL A   1      42.636  21.823  27.435  1.00  0.00    -0.744 OA
ENDBRANCH  60  63
ENDBRANCH  42  56
BRANCH  43  67
ATOM     67  C   UNL A   1      39.172  31.902  35.326  1.00  0.00     0.023 A 
ATOM     68  C   UNL A   1      38.299  31.325  36.268  1.00  0.00     0.012 A 
ATOM     69  C   UNL A   1      39.627  33.220  35.532  1.00  0.00     0.148 A 
ATOM     70  C   UNL A   1      37.882  32.046  37.387  1.00  0.00     0.002 A 
ATOM     71  C   UNL A   1      39.255  33.911  36.679  1.00  0.00     0.091 A 
ATOM     72  F   UNL A   1      40.433  33.769  34.611  1.00  0.00    -0.205 F 
ATOM     73  C   UNL A   1      38.373  33.332  37.602  1.00  0.00     0.022 A 
BRANCH  71  74
ATOM     74  S   UNL A   1      39.983  35.503  37.090  1.00  0.00     0.127 S 
ATOM     75  O   UNL A   1      41.396  35.163  37.224  1.00  0.00    -0.237 OA
ATOM     76  O   UNL A   1      39.653  36.312  35.915  1.00  0.00    -0.237 OA
ATOM     77  O   UNL A   1      39.301  35.924  38.307  1.00  0.00    -0.744 OA
ENDBRANCH  71  74
ENDBRANCH  43  67
BRANCH  55  78
ATOM     78  C   UNL A   1      44.681  27.736  34.308  1.00  0.00     0.023 A 
ATOM     79  C   UNL A   1      45.858  28.509  34.338  1.00  0.00     0.012 A 
ATOM     80  C   UNL A   1      44.559  26.623  35.160  1.00  0.00     0.148 A 
ATOM     81  C   UNL A   1      46.908  28.166  35.191  1.00  0.00     0.002 A 
ATOM     82  C   UNL A   1      45.594  26.308  36.032  1.00  0.00     0.091 A 
ATOM     83  F   UNL A   1      43.440  25.886  35.098  1.00  0.00    -0.205 F 
ATOM     84  C   UNL A   1      46.771  27.074  36.045  1.00  0.00     0.022 A 
BRANCH  82  85
ATOM     85  S   UNL A   1      45.461  24.962  37.215  1.00  0.00     0.127 S 
ATOM     86  O   UNL A   1      46.796  24.950  37.807  1.00  0.00    -0.237 OA
ATOM     87  O   UNL A   1      44.401  25.428  38.110  1.00  0.00    -0.237 OA
ATOM     88  O   UNL A   1      45.105  23.787  36.430  1.00  0.00    -0.744 OA
ENDBRANCH  82  85
ENDBRANCH  55  78
ENDBRANCH  29  30
ENDBRANCH  22  24
ENDBRANCH  21  22
ENDBRANCH   1  21
TORSDOF 16
ENDMDL
MODEL 2
REMARK VINA RESULT:     -12.0      4.965     10.158
REMARK SMILES C[C@H](C(=O)OCCOC(=O)c1ccc(-c2c3nc(c(-c4cccc(S(=O)(=O)[O-])c4F)c4ccc([nH]4)c(-c4cccc(S(=O)(=O)[O-])c4F)c4nc(c(-c5cccc(S(=O)(=O)[O-])c5F)c5ccc2[nH]5)C=C4)C=C3)cc1)c1ccc(-c2ccccc2)c(F)c1
REMARK SMILES IDX 7 1 6 2 5 3 3 4 4 5 2 6 1 7 74 8 75 9 86 10 76 11 84 12
REMARK SMILES IDX 77 13 85 14 78 15 79 16 83 17 80 18 82 19 81 20 8 21 9 22
REMARK SMILES IDX 10 23 11 24 12 25 73 26 13 27 72 28 14 29 15 30 16 31 66 32
REMARK SMILES IDX 17 33 71 34 65 35 67 36 18 37 70 38 64 39 63 40 19 42 51 43
REMARK SMILES IDX 31 44 50 45 32 46 35 47 49 48 68 49 33 50 34 51 48 53 69 54
REMARK SMILES IDX 36 55 20 56 21 57 29 58 22 59 24 60 30 61 23 62 25 63 26 64
REMARK SMILES IDX 27 65 28 66 52 67 53 68 61 69 54 70 56 71 62 72 55 73 57 74
REMARK SMILES IDX 58 75 59 76 60 77 37 78 38 79 46 80 39 81 41 82 47 83 40 84
REMARK SMILES IDX 42 85 43 86 44 87 45 88
REMARK H PARENT 67 41 35 52
REMARK Flexibility Score: inf
ROOT
ATOM      1  C   UNL A   1      36.023  20.679  25.005  1.00  0.00     0.275 C 
ENDROOT
BRANCH   1   2
ATOM      2  C   UNL A   1      34.547  21.055  25.079  1.00  0.00     0.274 C 
BRANCH   2   3
ATOM      3  O   UNL A   1      34.109  21.672  23.851  1.00  0.00    -0.462 OA
BRANCH   3   4
ATOM      4  C   UNL A   1      34.396  22.991  23.695  1.00  0.00     0.313 C 
ATOM      5  O   UNL A   1      35.034  23.450  22.753  1.00  0.00    -0.252 OA
BRANCH   4   6
ATOM      6  C   UNL A   1      33.851  23.882  24.805  1.00  0.00     0.126 C 
ATOM      7  C   UNL A   1      34.973  24.650  25.506  1.00  0.00     0.025 C 
BRANCH   6   8
ATOM      8  C   UNL A   1      32.724  24.828  24.426  1.00  0.00    -0.031 A 
ATOM      9  C   UNL A   1      31.882  24.586  23.332  1.00  0.00     0.005 A 
ATOM     10  C   UNL A   1      32.563  26.017  25.146  1.00  0.00     0.044 A 
ATOM     11  C   UNL A   1      30.919  25.528  22.951  1.00  0.00     0.012 A 
ATOM     12  C   UNL A   1      31.606  26.951  24.757  1.00  0.00     0.131 A 
ATOM     13  C   UNL A   1      30.774  26.737  23.652  1.00  0.00     0.017 A 
ATOM     14  F   UNL A   1      31.509  28.083  25.472  1.00  0.00    -0.206 F 
BRANCH  13  15
ATOM     15  C   UNL A   1      29.803  27.751  23.218  1.00  0.00    -0.015 A 
ATOM     16  C   UNL A   1      28.435  27.614  23.501  1.00  0.00     0.009 A 
ATOM     17  C   UNL A   1      30.221  28.885  22.502  1.00  0.00     0.009 A 
ATOM     18  C   UNL A   1      27.517  28.584  23.089  1.00  0.00     0.001 A 
ATOM     19  C   UNL A   1      29.305  29.853  22.087  1.00  0.00     0.001 A 
ATOM     20  C   UNL A   1      27.953  29.702  22.382  1.00  0.00     0.000 A 
ENDBRANCH  13  15
ENDBRANCH   6   8
ENDBRANCH   4   6
ENDBRANCH   3   4
ENDBRANCH   2   3
ENDBRANCH   1   2
BRANCH   1  21
ATOM     21  O   UNL A   1      36.799  21.622  25.762  1.00  0.00    -0.458 OA
BRANCH  21  22
ATOM     22  C   UNL A   1      38.131  21.397  25.795  1.00  0.00     0.338 C 
ATOM     23  O   UNL A   1      38.735  20.431  25.363  1.00  0.00    -0.246 OA
BRANCH  22  24
ATOM     24  C   UNL A   1      38.799  22.557  26.403  1.00  0.00     0.060 A 
ATOM     25  C   UNL A   1      38.307  23.833  26.139  1.00  0.00     0.016 A 
ATOM     26  C   UNL A   1      39.979  22.393  27.124  1.00  0.00     0.016 A 
ATOM     27  C   UNL A   1      39.043  24.955  26.503  1.00  0.00     0.010 A 
ATOM     28  C   UNL A   1      40.665  23.523  27.582  1.00  0.00     0.010 A 
ATOM     29  C   UNL A   1      40.228  24.816  27.241  1.00  0.00    -0.014 A 
BRANCH  29  30
ATOM     30  C   UNL A   1      41.017  26.016  27.633  1.00  0.00     0.031 A 
ATOM     31  C   UNL A   1      40.387  27.098  28.470  1.00  0.00     0.074 A 
ATOM     32  C   UNL A   1      42.296  26.147  27.227  1.00  0.00     0.049 A 
ATOM     33  N   UNL A   1      40.849  28.285  28.770  1.00  0.00    -0.248 NA
ATOM     34  C   UNL A   1      39.056  26.816  29.033  1.00  0.00     0.031 C 
ATOM     35  C   UNL A   1      43.032  25.172  26.421  1.00  0.00     0.029 A 
ATOM     36  N   UNL A   1      43.202  27.160  27.430  1.00  0.00    -0.354 N 
ATOM     37  C   UNL A   1      39.841  28.916  29.489  1.00  0.00     0.074 A 
ATOM     38  C   UNL A   1      38.745  27.977  29.594  1.00  0.00     0.031 C 
ATOM     39  C   UNL A   1      44.278  25.623  26.213  1.00  0.00     0.029 A 
ATOM     40  C   UNL A   1      44.411  26.947  26.807  1.00  0.00     0.049 A 
ATOM     41  H   UNL A   1      43.007  27.960  27.970  1.00  0.00     0.167 HD
ATOM     42  C   UNL A   1      39.833  30.160  30.023  1.00  0.00     0.034 A 
ATOM     43  C   UNL A   1      45.494  27.742  26.693  1.00  0.00     0.034 A 
ATOM     44  C   UNL A   1      40.952  31.062  29.990  1.00  0.00     0.049 A 
ATOM     45  C   UNL A   1      45.473  29.103  27.328  1.00  0.00     0.074 A 
ATOM     46  C   UNL A   1      41.050  32.333  30.531  1.00  0.00     0.029 A 
ATOM     47  N   UNL A   1      42.177  30.782  29.406  1.00  0.00    -0.354 N 
ATOM     48  N   UNL A   1      44.523  29.667  28.035  1.00  0.00    -0.248 NA
ATOM     49  C   UNL A   1      46.674  29.934  27.160  1.00  0.00     0.031 C 
ATOM     50  C   UNL A   1      42.338  32.818  30.279  1.00  0.00     0.029 A 
ATOM     51  C   UNL A   1      43.041  31.849  29.580  1.00  0.00     0.049 A 
ATOM     52  H   UNL A   1      42.400  29.945  28.935  1.00  0.00     0.167 HD
ATOM     53  C   UNL A   1      45.013  30.913  28.403  1.00  0.00     0.074 A 
ATOM     54  C   UNL A   1      46.357  31.009  27.871  1.00  0.00     0.031 C 
ATOM     55  C   UNL A   1      44.394  31.903  29.091  1.00  0.00     0.034 A 
BRANCH  42  56
ATOM     56  C   UNL A   1      38.581  30.610  30.728  1.00  0.00     0.023 A 
ATOM     57  C   UNL A   1      38.436  30.363  32.108  1.00  0.00     0.012 A 
ATOM     58  C   UNL A   1      37.580  31.324  30.044  1.00  0.00     0.148 A 
ATOM     59  C   UNL A   1      37.301  30.802  32.790  1.00  0.00     0.002 A 
ATOM     60  C   UNL A   1      36.467  31.787  30.738  1.00  0.00     0.091 A 
ATOM     61  F   UNL A   1      37.721  31.524  28.725  1.00  0.00    -0.205 F 
ATOM     62  C   UNL A   1      36.323  31.521  32.108  1.00  0.00     0.022 A 
BRANCH  60  63
ATOM     63  S   UNL A   1      35.192  32.779  29.949  1.00  0.00     0.127 S 
ATOM     64  O   UNL A   1      34.688  31.859  28.931  1.00  0.00    -0.237 OA
ATOM     65  O   UNL A   1      34.264  33.034  31.053  1.00  0.00    -0.237 OA
ATOM     66  O   UNL A   1      35.871  33.967  29.450  1.00  0.00    -0.744 OA
ENDBRANCH  60  63
ENDBRANCH  42  56
BRANCH  43  67
ATOM     67  C   UNL A   1      46.695  27.245  25.964  1.00  0.00     0.023 A 
ATOM     68  C   UNL A   1      46.806  27.471  24.579  1.00  0.00     0.012 A 
ATOM     69  C   UNL A   1      47.757  26.616  26.644  1.00  0.00     0.148 A 
ATOM     70  C   UNL A   1      47.947  27.072  23.883  1.00  0.00     0.002 A 
ATOM     71  C   UNL A   1      48.916  26.276  25.955  1.00  0.00     0.091 A 
ATOM     72  F   UNL A   1      47.625  26.379  27.957  1.00  0.00    -0.205 F 
ATOM     73  C   UNL A   1      49.009  26.491  24.573  1.00  0.00     0.022 A 
BRANCH  71  74
ATOM     74  S   UNL A   1      50.375  25.676  26.817  1.00  0.00     0.127 S 
ATOM     75  O   UNL A   1      49.876  24.454  27.440  1.00  0.00    -0.237 OA
ATOM     76  O   UNL A   1      51.323  25.466  25.722  1.00  0.00    -0.237 OA
ATOM     77  O   UNL A   1      50.747  26.756  27.721  1.00  0.00    -0.744 OA
ENDBRANCH  71  74
ENDBRANCH  43  67
BRANCH  55  78
ATOM     78  C   UNL A   1      45.163  33.176  29.315  1.00  0.00     0.023 A 
ATOM     79  C   UNL A   1      45.974  33.295  30.461  1.00  0.00     0.012 A 
ATOM     80  C   UNL A   1      45.142  34.216  28.368  1.00  0.00     0.148 A 
ATOM     81  C   UNL A   1      46.738  34.442  30.671  1.00  0.00     0.002 A 
ATOM     82  C   UNL A   1      45.933  35.343  28.566  1.00  0.00     0.091 A 
ATOM     83  F   UNL A   1      44.345  34.093  27.297  1.00  0.00    -0.205 F 
ATOM     84  C   UNL A   1      46.726  35.460  29.719  1.00  0.00     0.022 A 
BRANCH  82  85
ATOM     85  S   UNL A   1      46.028  36.660  27.349  1.00  0.00     0.127 S 
ATOM     86  O   UNL A   1      46.442  35.932  26.152  1.00  0.00    -0.237 OA
ATOM     87  O   UNL A   1      44.654  37.161  27.312  1.00  0.00    -0.237 OA
ATOM     88  O   UNL A   1      46.996  37.612  27.879  1.00  0.00    -0.744 OA
ENDBRANCH  82  85
ENDBRANCH  55  78
ENDBRANCH  29  30
ENDBRANCH  22  24
ENDBRANCH  21  22
ENDBRANCH   1  21
TORSDOF 16
ENDMDL
MODEL 3
REMARK VINA RESULT:     -11.9      5.362     10.298
REMARK SMILES C[C@H](C(=O)OCCOC(=O)c1ccc(-c2c3nc(c(-c4cccc(S(=O)(=O)[O-])c4F)c4ccc([nH]4)c(-c4cccc(S(=O)(=O)[O-])c4F)c4nc(c(-c5cccc(S(=O)(=O)[O-])c5F)c5ccc2[nH]5)C=C4)C=C3)cc1)c1ccc(-c2ccccc2)c(F)c1
REMARK SMILES IDX 7 1 6 2 5 3 3 4 4 5 2 6 1 7 74 8 75 9 86 10 76 11 84 12
REMARK SMILES IDX 77 13 85 14 78 15 79 16 83 17 80 18 82 19 81 20 8 21 9 22
REMARK SMILES IDX 10 23 11 24 12 25 73 26 13 27 72 28 14 29 15 30 16 31 66 32
REMARK SMILES IDX 17 33 71 34 65 35 67 36 18 37 70 38 64 39 63 40 19 42 51 43
REMARK SMILES IDX 31 44 50 45 32 46 35 47 49 48 68 49 33 50 34 51 48 53 69 54
REMARK SMILES IDX 36 55 20 56 21 57 29 58 22 59 24 60 30 61 23 62 25 63 26 64
REMARK SMILES IDX 27 65 28 66 52 67 53 68 61 69 54 70 56 71 62 72 55 73 57 74
REMARK SMILES IDX 58 75 59 76 60 77 37 78 38 79 46 80 39 81 41 82 47 83 40 84
REMARK SMILES IDX 42 85 43 86 44 87 45 88
REMARK H PARENT 67 41 35 52
REMARK Flexibility Score: inf
ROOT
ATOM      1  C   UNL A   1      36.516  20.932  24.629  1.00  0.00     0.275 C 
ENDROOT
BRANCH   1   2
ATOM      2  C   UNL A   1      35.042  21.320  24.617  1.00  0.00     0.274 C 
BRANCH   2   3
ATOM      3  O   UNL A   1      34.379  20.863  25.814  1.00  0.00    -0.462 OA
BRANCH   3   4
ATOM      4  C   UNL A   1      33.074  21.214  25.962  1.00  0.00     0.313 C 
ATOM      5  O   UNL A   1      32.151  20.716  25.326  1.00  0.00    -0.252 OA
BRANCH   4   6
ATOM      6  C   UNL A   1      32.836  22.301  27.004  1.00  0.00     0.126 C 
ATOM      7  C   UNL A   1      34.078  22.524  27.870  1.00  0.00     0.025 C 
BRANCH   6   8
ATOM      8  C   UNL A   1      32.306  23.629  26.493  1.00  0.00    -0.031 A 
ATOM      9  C   UNL A   1      30.940  23.942  26.503  1.00  0.00     0.005 A 
ATOM     10  C   UNL A   1      33.199  24.545  25.925  1.00  0.00     0.044 A 
ATOM     11  C   UNL A   1      30.477  25.134  25.933  1.00  0.00     0.012 A 
ATOM     12  C   UNL A   1      32.730  25.726  25.356  1.00  0.00     0.131 A 
ATOM     13  C   UNL A   1      31.366  26.043  25.334  1.00  0.00     0.017 A 
ATOM     14  F   UNL A   1      33.629  26.559  24.808  1.00  0.00    -0.206 F 
BRANCH  13  15
ATOM     15  C   UNL A   1      30.875  27.265  24.685  1.00  0.00    -0.015 A 
ATOM     16  C   UNL A   1      29.927  27.208  23.652  1.00  0.00     0.009 A 
ATOM     17  C   UNL A   1      31.349  28.528  25.080  1.00  0.00     0.009 A 
ATOM     18  C   UNL A   1      29.462  28.375  23.040  1.00  0.00     0.001 A 
ATOM     19  C   UNL A   1      30.888  29.694  24.468  1.00  0.00     0.001 A 
ATOM     20  C   UNL A   1      29.943  29.617  23.449  1.00  0.00     0.000 A 
ENDBRANCH  13  15
ENDBRANCH   6   8
ENDBRANCH   4   6
ENDBRANCH   3   4
ENDBRANCH   2   3
ENDBRANCH   1   2
BRANCH   1  21
ATOM     21  O   UNL A   1      37.151  21.482  25.795  1.00  0.00    -0.458 OA
BRANCH  21  22
ATOM     22  C   UNL A   1      38.480  21.266  25.900  1.00  0.00     0.338 C 
ATOM     23  O   UNL A   1      39.108  20.289  25.530  1.00  0.00    -0.246 OA
BRANCH  22  24
ATOM     24  C   UNL A   1      39.113  22.449  26.499  1.00  0.00     0.060 A 
ATOM     25  C   UNL A   1      38.609  23.711  26.195  1.00  0.00     0.016 A 
ATOM     26  C   UNL A   1      40.276  22.320  27.256  1.00  0.00     0.016 A 
ATOM     27  C   UNL A   1      39.317  24.852  26.554  1.00  0.00     0.010 A 
ATOM     28  C   UNL A   1      40.931  23.470  27.707  1.00  0.00     0.010 A 
ATOM     29  C   UNL A   1      40.483  24.749  27.326  1.00  0.00    -0.014 A 
BRANCH  29  30
ATOM     30  C   UNL A   1      41.243  25.970  27.712  1.00  0.00     0.031 A 
ATOM     31  C   UNL A   1      40.589  27.036  28.552  1.00  0.00     0.074 A 
ATOM     32  C   UNL A   1      42.516  26.134  27.300  1.00  0.00     0.049 A 
ATOM     33  N   UNL A   1      41.022  28.235  28.848  1.00  0.00    -0.248 NA
ATOM     34  C   UNL A   1      39.269  26.719  29.122  1.00  0.00     0.031 C 
ATOM     35  C   UNL A   1      43.273  25.177  26.491  1.00  0.00     0.029 A 
ATOM     36  N   UNL A   1      43.397  27.169  27.497  1.00  0.00    -0.354 N 
ATOM     37  C   UNL A   1      40.001  28.840  29.570  1.00  0.00     0.074 A 
ATOM     38  C   UNL A   1      38.930  27.873  29.683  1.00  0.00     0.031 C 
ATOM     39  C   UNL A   1      44.506  25.659  26.276  1.00  0.00     0.029 A 
ATOM     40  C   UNL A   1      44.607  26.988  26.868  1.00  0.00     0.049 A 
ATOM     41  H   UNL A   1      43.183  27.965  28.037  1.00  0.00     0.167 HD
ATOM     42  C   UNL A   1      39.962  30.084  30.103  1.00  0.00     0.034 A 
ATOM     43  C   UNL A   1      45.668  27.811  26.747  1.00  0.00     0.034 A 
ATOM     44  C   UNL A   1      41.058  31.015  30.064  1.00  0.00     0.049 A 
ATOM     45  C   UNL A   1      45.615  29.171  27.381  1.00  0.00     0.074 A 
ATOM     46  C   UNL A   1      41.125  32.288  30.603  1.00  0.00     0.029 A 
ATOM     47  N   UNL A   1      42.287  30.766  29.473  1.00  0.00    -0.354 N 
ATOM     48  N   UNL A   1      44.654  29.711  28.092  1.00  0.00    -0.248 NA
ATOM     49  C   UNL A   1      46.793  30.033  27.206  1.00  0.00     0.031 C 
ATOM     50  C   UNL A   1      42.399  32.807  30.343  1.00  0.00     0.029 A 
ATOM     51  C   UNL A   1      43.123  31.856  29.642  1.00  0.00     0.049 A 
ATOM     52  H   UNL A   1      42.529  29.935  29.003  1.00  0.00     0.167 HD
ATOM     53  C   UNL A   1      45.113  30.971  28.456  1.00  0.00     0.074 A 
ATOM     54  C   UNL A   1      46.452  31.100  27.917  1.00  0.00     0.031 C 
ATOM     55  C   UNL A   1      44.472  31.945  29.146  1.00  0.00     0.034 A 
BRANCH  42  56
ATOM     56  C   UNL A   1      38.703  30.502  30.814  1.00  0.00     0.023 A 
ATOM     57  C   UNL A   1      38.566  30.241  32.192  1.00  0.00     0.012 A 
ATOM     58  C   UNL A   1      37.686  31.201  30.137  1.00  0.00     0.148 A 
ATOM     59  C   UNL A   1      37.423  30.650  32.880  1.00  0.00     0.002 A 
ATOM     60  C   UNL A   1      36.565  31.635  30.837  1.00  0.00     0.091 A 
ATOM     61  F   UNL A   1      37.821  31.414  28.820  1.00  0.00    -0.205 F 
ATOM     62  C   UNL A   1      36.429  31.355  32.206  1.00  0.00     0.022 A 
BRANCH  60  63
ATOM     63  S   UNL A   1      35.268  32.606  30.059  1.00  0.00     0.127 S 
ATOM     64  O   UNL A   1      34.807  31.698  29.011  1.00  0.00    -0.237 OA
ATOM     65  O   UNL A   1      34.319  32.802  31.157  1.00  0.00    -0.237 OA
ATOM     66  O   UNL A   1      35.914  33.829  29.600  1.00  0.00    -0.744 OA
ENDBRANCH  60  63
ENDBRANCH  42  56
BRANCH  43  67
ATOM     67  C   UNL A   1      46.878  27.344  26.013  1.00  0.00     0.023 A 
ATOM     68  C   UNL A   1      47.741  26.415  26.624  1.00  0.00     0.012 A 
ATOM     69  C   UNL A   1      47.140  27.758  24.692  1.00  0.00     0.148 A 
ATOM     70  C   UNL A   1      48.848  25.914  25.937  1.00  0.00     0.002 A 
ATOM     71  C   UNL A   1      48.209  27.209  23.993  1.00  0.00     0.091 A 
ATOM     72  F   UNL A   1      46.328  28.666  24.133  1.00  0.00    -0.205 F 
ATOM     73  C   UNL A   1      49.072  26.297  24.617  1.00  0.00     0.022 A 
BRANCH  71  74
ATOM     74  S   UNL A   1      48.451  27.539  22.242  1.00  0.00     0.127 S 
ATOM     75  O   UNL A   1      48.672  26.198  21.710  1.00  0.00    -0.237 OA
ATOM     76  O   UNL A   1      47.178  28.151  21.859  1.00  0.00    -0.237 OA
ATOM     77  O   UNL A   1      49.585  28.452  22.186  1.00  0.00    -0.744 OA
ENDBRANCH  71  74
ENDBRANCH  43  67
BRANCH  55  78
ATOM     78  C   UNL A   1      45.209  33.237  29.364  1.00  0.00     0.023 A 
ATOM     79  C   UNL A   1      46.017  33.381  30.509  1.00  0.00     0.012 A 
ATOM     80  C   UNL A   1      45.160  34.273  28.414  1.00  0.00     0.148 A 
ATOM     81  C   UNL A   1      46.752  34.549  30.714  1.00  0.00     0.002 A 
ATOM     82  C   UNL A   1      45.922  35.421  28.607  1.00  0.00     0.091 A 
ATOM     83  F   UNL A   1      44.365  34.126  27.344  1.00  0.00    -0.205 F 
ATOM     84  C   UNL A   1      46.713  35.563  29.758  1.00  0.00     0.022 A 
BRANCH  82  85
ATOM     85  S   UNL A   1      45.982  36.735  27.385  1.00  0.00     0.127 S 
ATOM     86  O   UNL A   1      46.916  37.675  28.001  1.00  0.00    -0.237 OA
ATOM     87  O   UNL A   1      46.501  36.048  26.201  1.00  0.00    -0.237 OA
ATOM     88  O   UNL A   1      44.609  37.204  27.247  1.00  0.00    -0.744 OA
ENDBRANCH  82  85
ENDBRANCH  55  78
ENDBRANCH  29  30
ENDBRANCH  22  24
ENDBRANCH  21  22
ENDBRANCH   1  21
TORSDOF 16
ENDMDL
