MODEL 1
REMARK VINA RESULT:     -11.7      0.000      0.000
REMARK SMILES CC/C(=C/C(=O)[C@H](Cc1ccc(Cl)cc1Cl)C(=O)OCCOC(=O)c1ccc(-c2c3nc(c(-c4cccc(S(=O)(=O)[O-])c4F)c4ccc([nH]4)c(-c4cccc(S(=O)(=O)[O-])c4F)c4nc(c(-c5cccc(S(=O)(=O)[O-])c5F)c5ccc2[nH]5)C=C4)C=C3)cc1)N(C)C
REMARK SMILES IDX 20 1 19 2 17 3 18 4 7 5 5 6 6 7 4 8 3 9 2 10 1 11 88 12
REMARK SMILES IDX 89 13 90 14 8 15 9 16 10 17 15 18 11 19 14 20 16 21 12 22
REMARK SMILES IDX 13 23 21 24 22 25 23 26 24 27 25 28 26 29 87 30 27 31 86 32
REMARK SMILES IDX 28 33 29 34 30 35 80 36 31 37 85 38 79 39 81 40 32 41 84 42
REMARK SMILES IDX 78 43 77 44 33 46 65 47 45 48 64 49 46 50 49 51 63 52 82 53
REMARK SMILES IDX 47 54 48 55 62 57 83 58 50 59 34 60 35 61 43 62 36 63 38 64
REMARK SMILES IDX 44 65 37 66 39 67 40 68 41 69 42 70 66 71 67 72 75 73 68 74
REMARK SMILES IDX 70 75 76 76 69 77 71 78 72 79 73 80 74 81 51 82 52 83 60 84
REMARK SMILES IDX 53 85 55 86 61 87 54 88 56 89 57 90 58 91 59 92
REMARK H PARENT 81 45 49 56
REMARK Flexibility Score: inf
ROOT
ATOM      1  C   UNL A   1      36.869  22.930  23.539  1.00  0.00     0.274 C 
ENDROOT
BRANCH   1   2
ATOM      2  O   UNL A   1      35.637  22.915  22.788  1.00  0.00    -0.461 OA
BRANCH   2   3
ATOM      3  C   UNL A   1      34.587  23.572  23.345  1.00  0.00     0.317 C 
ATOM      4  O   UNL A   1      34.678  24.184  24.402  1.00  0.00    -0.251 OA
BRANCH   3   5
ATOM      5  C   UNL A   1      33.309  23.498  22.520  1.00  0.00     0.175 C 
BRANCH   5   6
ATOM      6  C   UNL A   1      32.866  24.888  22.041  1.00  0.00     0.171 C 
ATOM      7  O   UNL A   1      33.445  25.469  21.115  1.00  0.00    -0.294 OA
BRANCH   6   8
ATOM      8  C   UNL A   1      31.656  25.579  22.566  1.00  0.00     0.069 C 
ATOM      9  C   UNL A   1      31.444  26.427  23.594  1.00  0.00     0.016 C 
BRANCH   9  10
ATOM     10  C   UNL A   1      30.000  26.942  23.715  1.00  0.00     0.050 C 
ATOM     11  C   UNL A   1      29.696  28.170  22.867  1.00  0.00     0.010 C 
ENDBRANCH   9  10
BRANCH   9  12
ATOM     12  N   UNL A   1      32.373  26.981  24.488  1.00  0.00    -0.381 N 
ATOM     13  C   UNL A   1      32.198  26.882  25.950  1.00  0.00     0.143 C 
ATOM     14  C   UNL A   1      33.557  27.730  24.079  1.00  0.00     0.143 C 
ENDBRANCH   9  12
ENDBRANCH   6   8
ENDBRANCH   5   6
BRANCH   5  15
ATOM     15  C   UNL A   1      32.112  22.819  23.254  1.00  0.00     0.060 C 
BRANCH  15  16
ATOM     16  C   UNL A   1      32.273  21.356  23.642  1.00  0.00    -0.028 A 
ATOM     17  C   UNL A   1      32.197  20.369  22.644  1.00  0.00     0.007 A 
ATOM     18  C   UNL A   1      32.556  20.937  24.955  1.00  0.00     0.045 A 
ATOM     19  C   UNL A   1      32.355  19.014  22.948  1.00  0.00     0.021 A 
ATOM     20  C   UNL A   1      32.743  19.582  25.258  1.00  0.00     0.041 A 
ATOM     21  Cl  UNL A   1      32.723  22.067  26.254  1.00  0.00    -0.084 Cl
ATOM     22  C   UNL A   1      32.629  18.627  24.253  1.00  0.00     0.042 A 
ATOM     23  Cl  UNL A   1      32.849  16.960  24.619  1.00  0.00    -0.084 Cl
ENDBRANCH  15  16
ENDBRANCH   5  15
ENDBRANCH   3   5
ENDBRANCH   2   3
ENDBRANCH   1   2
BRANCH   1  24
ATOM     24  C   UNL A   1      37.021  21.648  24.355  1.00  0.00     0.275 C 
BRANCH  24  25
ATOM     25  O   UNL A   1      37.424  21.962  25.701  1.00  0.00    -0.458 OA
BRANCH  25  26
ATOM     26  C   UNL A   1      38.715  21.710  26.014  1.00  0.00     0.338 C 
ATOM     27  O   UNL A   1      39.305  20.650  25.917  1.00  0.00    -0.246 OA
BRANCH  26  28
ATOM     28  C   UNL A   1      39.342  22.931  26.546  1.00  0.00     0.060 A 
ATOM     29  C   UNL A   1      40.442  22.843  27.396  1.00  0.00     0.016 A 
ATOM     30  C   UNL A   1      38.783  24.175  26.242  1.00  0.00     0.016 A 
ATOM     31  C   UNL A   1      40.973  24.004  27.954  1.00  0.00     0.010 A 
ATOM     32  C   UNL A   1      39.369  25.341  26.744  1.00  0.00     0.010 A 
ATOM     33  C   UNL A   1      40.478  25.265  27.598  1.00  0.00    -0.014 A 
BRANCH  33  34
ATOM     34  C   UNL A   1      41.184  26.490  28.056  1.00  0.00     0.031 A 
ATOM     35  C   UNL A   1      40.468  27.553  28.834  1.00  0.00     0.074 A 
ATOM     36  C   UNL A   1      42.490  26.638  27.756  1.00  0.00     0.049 A 
ATOM     37  N   UNL A   1      40.896  28.735  29.195  1.00  0.00    -0.248 NA
ATOM     38  C   UNL A   1      39.096  27.250  29.269  1.00  0.00     0.031 C 
ATOM     39  C   UNL A   1      43.302  25.657  27.032  1.00  0.00     0.029 A 
ATOM     40  N   UNL A   1      43.364  27.666  28.009  1.00  0.00    -0.354 N 
ATOM     41  C   UNL A   1      39.835  29.340  29.854  1.00  0.00     0.074 A 
ATOM     42  C   UNL A   1      38.748  28.383  29.868  1.00  0.00     0.031 C 
ATOM     43  C   UNL A   1      44.554  26.120  26.914  1.00  0.00     0.029 A 
ATOM     44  C   UNL A   1      44.617  27.464  27.476  1.00  0.00     0.049 A 
ATOM     45  H   UNL A   1      43.119  28.470  28.522  1.00  0.00     0.167 HD
ATOM     46  C   UNL A   1      39.774  30.581  30.394  1.00  0.00     0.034 A 
ATOM     47  C   UNL A   1      45.684  28.286  27.401  1.00  0.00     0.034 A 
ATOM     48  C   UNL A   1      40.867  31.517  30.400  1.00  0.00     0.049 A 
ATOM     49  C   UNL A   1      45.571  29.675  27.962  1.00  0.00     0.074 A 
ATOM     50  C   UNL A   1      40.905  32.795  30.930  1.00  0.00     0.029 A 
ATOM     51  N   UNL A   1      42.116  31.280  29.843  1.00  0.00    -0.354 N 
ATOM     52  N   UNL A   1      44.574  30.217  28.618  1.00  0.00    -0.248 NA
ATOM     53  C   UNL A   1      46.722  30.566  27.765  1.00  0.00     0.031 C 
ATOM     54  C   UNL A   1      42.170  33.338  30.677  1.00  0.00     0.029 A 
ATOM     55  C   UNL A   1      42.924  32.393  29.999  1.00  0.00     0.049 A 
ATOM     56  H   UNL A   1      42.387  30.443  29.402  1.00  0.00     0.167 HD
ATOM     57  C   UNL A   1      44.972  31.518  28.904  1.00  0.00     0.074 A 
ATOM     58  C   UNL A   1      46.319  31.665  28.392  1.00  0.00     0.031 C 
ATOM     59  C   UNL A   1      44.273  32.511  29.505  1.00  0.00     0.034 A 
BRANCH  46  60
ATOM     60  C   UNL A   1      38.477  31.003  31.028  1.00  0.00     0.023 A 
ATOM     61  C   UNL A   1      38.275  30.800  32.407  1.00  0.00     0.012 A 
ATOM     62  C   UNL A   1      37.482  31.651  30.269  1.00  0.00     0.148 A 
ATOM     63  C   UNL A   1      37.093  31.219  33.018  1.00  0.00     0.002 A 
ATOM     64  C   UNL A   1      36.320  32.092  30.891  1.00  0.00     0.091 A 
ATOM     65  F   UNL A   1      37.685  31.810  28.954  1.00  0.00    -0.205 F 
ATOM     66  C   UNL A   1      36.121  31.873  32.263  1.00  0.00     0.022 A 
BRANCH  64  67
ATOM     67  S   UNL A   1      35.038  32.991  30.008  1.00  0.00     0.127 S 
ATOM     68  O   UNL A   1      34.135  33.361  31.096  1.00  0.00    -0.237 OA
ATOM     69  O   UNL A   1      35.785  34.110  29.429  1.00  0.00    -0.237 OA
ATOM     70  O   UNL A   1      34.498  32.055  29.032  1.00  0.00    -0.744 OA
ENDBRANCH  64  67
ENDBRANCH  46  60
BRANCH  47  71
ATOM     71  C   UNL A   1      46.939  27.810  26.751  1.00  0.00     0.023 A 
ATOM     72  C   UNL A   1      47.888  27.103  27.512  1.00  0.00     0.012 A 
ATOM     73  C   UNL A   1      47.167  27.997  25.374  1.00  0.00     0.148 A 
ATOM     74  C   UNL A   1      49.042  26.594  26.912  1.00  0.00     0.002 A 
ATOM     75  C   UNL A   1      48.282  27.428  24.770  1.00  0.00     0.091 A 
ATOM     76  F   UNL A   1      46.275  28.709  24.670  1.00  0.00    -0.205 F 
ATOM     77  C   UNL A   1      49.230  26.738  25.539  1.00  0.00     0.022 A 
BRANCH  75  78
ATOM     78  S   UNL A   1      48.484  27.427  22.984  1.00  0.00     0.127 S 
ATOM     79  O   UNL A   1      48.383  26.005  22.670  1.00  0.00    -0.237 OA
ATOM     80  O   UNL A   1      47.350  28.239  22.541  1.00  0.00    -0.237 OA
ATOM     81  O   UNL A   1      49.782  28.048  22.751  1.00  0.00    -0.744 OA
ENDBRANCH  75  78
ENDBRANCH  47  71
BRANCH  59  82
ATOM     82  C   UNL A   1      44.944  33.854  29.614  1.00  0.00     0.023 A 
ATOM     83  C   UNL A   1      45.711  34.143  30.760  1.00  0.00     0.012 A 
ATOM     84  C   UNL A   1      44.869  34.797  28.572  1.00  0.00     0.148 A 
ATOM     85  C   UNL A   1      46.376  35.362  30.878  1.00  0.00     0.002 A 
ATOM     86  C   UNL A   1      45.566  35.995  28.680  1.00  0.00     0.091 A 
ATOM     87  F   UNL A   1      44.115  34.509  27.502  1.00  0.00    -0.205 F 
ATOM     88  C   UNL A   1      46.312  36.283  29.835  1.00  0.00     0.022 A 
BRANCH  86  89
ATOM     89  S   UNL A   1      45.603  37.206  27.354  1.00  0.00     0.127 S 
ATOM     90  O   UNL A   1      46.203  36.437  26.264  1.00  0.00    -0.237 OA
ATOM     91  O   UNL A   1      44.183  37.515  27.173  1.00  0.00    -0.237 OA
ATOM     92  O   UNL A   1      46.402  38.317  27.851  1.00  0.00    -0.744 OA
ENDBRANCH  86  89
ENDBRANCH  59  82
ENDBRANCH  33  34
ENDBRANCH  26  28
ENDBRANCH  25  26
ENDBRANCH  24  25
ENDBRANCH   1  24
TORSDOF 20
ENDMDL
MODEL 2
REMARK VINA RESULT:     -11.2      5.217      9.616
REMARK SMILES CC/C(=C/C(=O)[C@H](Cc1ccc(Cl)cc1Cl)C(=O)OCCOC(=O)c1ccc(-c2c3nc(c(-c4cccc(S(=O)(=O)[O-])c4F)c4ccc([nH]4)c(-c4cccc(S(=O)(=O)[O-])c4F)c4nc(c(-c5cccc(S(=O)(=O)[O-])c5F)c5ccc2[nH]5)C=C4)C=C3)cc1)N(C)C
REMARK SMILES IDX 20 1 19 2 17 3 18 4 7 5 5 6 6 7 4 8 3 9 2 10 1 11 88 12
REMARK SMILES IDX 89 13 90 14 8 15 9 16 10 17 15 18 11 19 14 20 16 21 12 22
REMARK SMILES IDX 13 23 21 24 22 25 23 26 24 27 25 28 26 29 87 30 27 31 86 32
REMARK SMILES IDX 28 33 29 34 30 35 80 36 31 37 85 38 79 39 81 40 32 41 84 42
REMARK SMILES IDX 78 43 77 44 33 46 65 47 45 48 64 49 46 50 49 51 63 52 82 53
REMARK SMILES IDX 47 54 48 55 62 57 83 58 50 59 34 60 35 61 43 62 36 63 38 64
REMARK SMILES IDX 44 65 37 66 39 67 40 68 41 69 42 70 66 71 67 72 75 73 68 74
REMARK SMILES IDX 70 75 76 76 69 77 71 78 72 79 73 80 74 81 51 82 52 83 60 84
REMARK SMILES IDX 53 85 55 86 61 87 54 88 56 89 57 90 58 91 59 92
REMARK H PARENT 81 45 49 56
REMARK Flexibility Score: inf
ROOT
ATOM      1  C   UNL A   1      32.324  28.938  23.886  1.00  0.00     0.274 C 
ENDROOT
BRANCH   1   2
ATOM      2  O   UNL A   1      33.148  27.772  24.091  1.00  0.00    -0.461 OA
BRANCH   2   3
ATOM      3  C   UNL A   1      33.619  27.165  22.970  1.00  0.00     0.317 C 
ATOM      4  O   UNL A   1      33.986  27.794  21.986  1.00  0.00    -0.251 OA
BRANCH   3   5
ATOM      5  C   UNL A   1      33.672  25.647  23.070  1.00  0.00     0.175 C 
BRANCH   5   6
ATOM      6  C   UNL A   1      32.364  25.003  22.588  1.00  0.00     0.171 C 
ATOM      7  O   UNL A   1      32.356  23.913  22.005  1.00  0.00    -0.294 OA
BRANCH   6   8
ATOM      8  C   UNL A   1      31.022  25.574  22.885  1.00  0.00     0.069 C 
ATOM      9  C   UNL A   1      30.306  25.722  24.020  1.00  0.00     0.016 C 
BRANCH   9  10
ATOM     10  C   UNL A   1      28.959  26.443  23.841  1.00  0.00     0.050 C 
ATOM     11  C   UNL A   1      29.057  27.803  23.163  1.00  0.00     0.010 C 
ENDBRANCH   9  10
BRANCH   9  12
ATOM     12  N   UNL A   1      30.669  25.412  25.340  1.00  0.00    -0.381 N 
ATOM     13  C   UNL A   1      30.712  24.021  25.827  1.00  0.00     0.143 C 
ATOM     14  C   UNL A   1      30.993  26.410  26.356  1.00  0.00     0.143 C 
ENDBRANCH   9  12
ENDBRANCH   6   8
ENDBRANCH   5   6
BRANCH   5  15
ATOM     15  C   UNL A   1      33.994  25.111  24.499  1.00  0.00     0.060 C 
BRANCH  15  16
ATOM     16  C   UNL A   1      34.912  23.901  24.599  1.00  0.00    -0.028 A 
ATOM     17  C   UNL A   1      35.811  23.633  23.552  1.00  0.00     0.007 A 
ATOM     18  C   UNL A   1      34.951  23.059  25.726  1.00  0.00     0.045 A 
ATOM     19  C   UNL A   1      36.686  22.544  23.606  1.00  0.00     0.021 A 
ATOM     20  C   UNL A   1      35.847  21.984  25.795  1.00  0.00     0.041 A 
ATOM     21  Cl  UNL A   1      33.928  23.323  27.094  1.00  0.00    -0.084 Cl
ATOM     22  C   UNL A   1      36.701  21.726  24.728  1.00  0.00     0.042 A 
ATOM     23  Cl  UNL A   1      37.797  20.402  24.801  1.00  0.00    -0.084 Cl
ENDBRANCH  15  16
ENDBRANCH   5  15
ENDBRANCH   3   5
ENDBRANCH   2   3
ENDBRANCH   1   2
BRANCH   1  24
ATOM     24  C   UNL A   1      32.137  29.705  25.194  1.00  0.00     0.275 C 
BRANCH  24  25
ATOM     25  O   UNL A   1      33.412  29.932  25.822  1.00  0.00    -0.458 OA
BRANCH  25  26
ATOM     26  C   UNL A   1      33.433  30.838  26.826  1.00  0.00     0.338 C 
ATOM     27  O   UNL A   1      32.622  31.719  27.043  1.00  0.00    -0.246 OA
BRANCH  26  28
ATOM     28  C   UNL A   1      34.640  30.639  27.645  1.00  0.00     0.060 A 
ATOM     29  C   UNL A   1      34.864  29.421  28.282  1.00  0.00     0.016 A 
ATOM     30  C   UNL A   1      35.524  31.705  27.830  1.00  0.00     0.016 A 
ATOM     31  C   UNL A   1      35.970  29.276  29.117  1.00  0.00     0.010 A 
ATOM     32  C   UNL A   1      36.673  31.528  28.608  1.00  0.00     0.010 A 
ATOM     33  C   UNL A   1      36.911  30.306  29.251  1.00  0.00    -0.014 A 
BRANCH  33  34
ATOM     34  C   UNL A   1      38.175  30.057  29.992  1.00  0.00     0.031 A 
ATOM     35  C   UNL A   1      39.241  29.166  29.428  1.00  0.00     0.074 A 
ATOM     36  C   UNL A   1      38.352  30.644  31.192  1.00  0.00     0.049 A 
ATOM     37  N   UNL A   1      40.340  28.740  29.996  1.00  0.00    -0.248 NA
ATOM     38  C   UNL A   1      39.055  28.696  28.047  1.00  0.00     0.031 C 
ATOM     39  C   UNL A   1      37.400  31.557  31.828  1.00  0.00     0.029 A 
ATOM     40  N   UNL A   1      39.381  30.559  32.096  1.00  0.00    -0.354 N 
ATOM     41  C   UNL A   1      40.952  27.911  29.066  1.00  0.00     0.074 A 
ATOM     42  C   UNL A   1      40.117  27.915  27.883  1.00  0.00     0.031 C 
ATOM     43  C   UNL A   1      37.894  31.960  33.008  1.00  0.00     0.029 A 
ATOM     44  C   UNL A   1      39.156  31.272  33.252  1.00  0.00     0.049 A 
ATOM     45  H   UNL A   1      40.202  30.039  31.934  1.00  0.00     0.167 HD
ATOM     46  C   UNL A   1      42.105  27.210  29.191  1.00  0.00     0.034 A 
ATOM     47  C   UNL A   1      39.858  31.327  34.402  1.00  0.00     0.034 A 
ATOM     48  C   UNL A   1      42.944  27.232  30.360  1.00  0.00     0.049 A 
ATOM     49  C   UNL A   1      41.104  30.498  34.532  1.00  0.00     0.074 A 
ATOM     50  C   UNL A   1      44.136  26.562  30.578  1.00  0.00     0.029 A 
ATOM     51  N   UNL A   1      42.678  27.957  31.512  1.00  0.00    -0.354 N 
ATOM     52  N   UNL A   1      41.693  29.752  33.629  1.00  0.00    -0.248 NA
ATOM     53  C   UNL A   1      41.778  30.511  35.838  1.00  0.00     0.031 C 
ATOM     54  C   UNL A   1      44.580  26.867  31.870  1.00  0.00     0.029 A 
ATOM     55  C   UNL A   1      43.672  27.736  32.452  1.00  0.00     0.049 A 
ATOM     56  H   UNL A   1      41.899  28.542  31.644  1.00  0.00     0.167 HD
ATOM     57  C   UNL A   1      42.800  29.197  34.259  1.00  0.00     0.074 A 
ATOM     58  C   UNL A   1      42.827  29.732  35.606  1.00  0.00     0.031 C 
ATOM     59  C   UNL A   1      43.694  28.299  33.778  1.00  0.00     0.034 A 
BRANCH  46  60
ATOM     60  C   UNL A   1      42.531  26.355  28.029  1.00  0.00     0.023 A 
ATOM     61  C   UNL A   1      43.482  26.844  27.113  1.00  0.00     0.012 A 
ATOM     62  C   UNL A   1      42.031  25.046  27.877  1.00  0.00     0.148 A 
ATOM     63  C   UNL A   1      43.916  26.050  26.052  1.00  0.00     0.002 A 
ATOM     64  C   UNL A   1      42.490  24.251  26.834  1.00  0.00     0.091 A 
ATOM     65  F   UNL A   1      41.107  24.611  28.746  1.00  0.00    -0.205 F 
ATOM     66  C   UNL A   1      43.428  24.752  25.918  1.00  0.00     0.022 A 
BRANCH  64  67
ATOM     67  S   UNL A   1      41.957  22.548  26.616  1.00  0.00     0.127 S 
ATOM     68  O   UNL A   1      42.729  22.146  25.442  1.00  0.00    -0.237 OA
ATOM     69  O   UNL A   1      42.385  21.925  27.870  1.00  0.00    -0.237 OA
ATOM     70  O   UNL A   1      40.514  22.605  26.432  1.00  0.00    -0.744 OA
ENDBRANCH  64  67
ENDBRANCH  46  60
BRANCH  47  71
ATOM     71  C   UNL A   1      39.378  32.188  35.521  1.00  0.00     0.023 A 
ATOM     72  C   UNL A   1      38.581  31.626  36.536  1.00  0.00     0.012 A 
ATOM     73  C   UNL A   1      39.759  33.540  35.621  1.00  0.00     0.148 A 
ATOM     74  C   UNL A   1      38.171  32.396  37.626  1.00  0.00     0.002 A 
ATOM     75  C   UNL A   1      39.406  34.282  36.741  1.00  0.00     0.091 A 
ATOM     76  F   UNL A   1      40.483  34.075  34.626  1.00  0.00    -0.205 F 
ATOM     77  C   UNL A   1      38.599  33.717  37.739  1.00  0.00     0.022 A 
BRANCH  75  78
ATOM     78  S   UNL A   1      40.075  35.925  37.029  1.00  0.00     0.127 S 
ATOM     79  O   UNL A   1      39.442  36.293  38.291  1.00  0.00    -0.237 OA
ATOM     80  O   UNL A   1      41.513  35.666  37.112  1.00  0.00    -0.237 OA
ATOM     81  O   UNL A   1      39.682  36.703  35.859  1.00  0.00    -0.744 OA
ENDBRANCH  75  78
ENDBRANCH  47  71
BRANCH  59  82
ATOM     82  C   UNL A   1      44.760  27.817  34.726  1.00  0.00     0.023 A 
ATOM     83  C   UNL A   1      45.963  28.541  34.827  1.00  0.00     0.012 A 
ATOM     84  C   UNL A   1      44.553  26.696  35.552  1.00  0.00     0.148 A 
ATOM     85  C   UNL A   1      46.957  28.145  35.720  1.00  0.00     0.002 A 
ATOM     86  C   UNL A   1      45.532  26.328  36.468  1.00  0.00     0.091 A 
ATOM     87  F   UNL A   1      43.409  26.009  35.422  1.00  0.00    -0.205 F 
ATOM     88  C   UNL A   1      46.737  27.045  36.547  1.00  0.00     0.022 A 
BRANCH  86  89
ATOM     89  S   UNL A   1      45.303  24.973  37.625  1.00  0.00     0.127 S 
ATOM     90  O   UNL A   1      46.468  25.124  38.495  1.00  0.00    -0.237 OA
ATOM     91  O   UNL A   1      44.025  25.312  38.253  1.00  0.00    -0.237 OA
ATOM     92  O   UNL A   1      45.275  23.761  36.818  1.00  0.00    -0.744 OA
ENDBRANCH  86  89
ENDBRANCH  59  82
ENDBRANCH  33  34
ENDBRANCH  26  28
ENDBRANCH  25  26
ENDBRANCH  24  25
ENDBRANCH   1  24
TORSDOF 20
ENDMDL
MODEL 3
REMARK VINA RESULT:     -10.7      5.231      9.687
REMARK SMILES CC/C(=C/C(=O)[C@H](Cc1ccc(Cl)cc1Cl)C(=O)OCCOC(=O)c1ccc(-c2c3nc(c(-c4cccc(S(=O)(=O)[O-])c4F)c4ccc([nH]4)c(-c4cccc(S(=O)(=O)[O-])c4F)c4nc(c(-c5cccc(S(=O)(=O)[O-])c5F)c5ccc2[nH]5)C=C4)C=C3)cc1)N(C)C
REMARK SMILES IDX 20 1 19 2 17 3 18 4 7 5 5 6 6 7 4 8 3 9 2 10 1 11 88 12
REMARK SMILES IDX 89 13 90 14 8 15 9 16 10 17 15 18 11 19 14 20 16 21 12 22
REMARK SMILES IDX 13 23 21 24 22 25 23 26 24 27 25 28 26 29 87 30 27 31 86 32
REMARK SMILES IDX 28 33 29 34 30 35 80 36 31 37 85 38 79 39 81 40 32 41 84 42
REMARK SMILES IDX 78 43 77 44 33 46 65 47 45 48 64 49 46 50 49 51 63 52 82 53
REMARK SMILES IDX 47 54 48 55 62 57 83 58 50 59 34 60 35 61 43 62 36 63 38 64
REMARK SMILES IDX 44 65 37 66 39 67 40 68 41 69 42 70 66 71 67 72 75 73 68 74
REMARK SMILES IDX 70 75 76 76 69 77 71 78 72 79 73 80 74 81 51 82 52 83 60 84
REMARK SMILES IDX 53 85 55 86 61 87 54 88 56 89 57 90 58 91 59 92
REMARK H PARENT 81 45 49 56
REMARK Flexibility Score: inf
ROOT
ATOM      1  C   UNL A   1      32.077  28.884  23.717  1.00  0.00     0.274 C 
ENDROOT
BRANCH   1   2
ATOM      2  O   UNL A   1      33.352  28.209  23.700  1.00  0.00    -0.461 OA
BRANCH   2   3
ATOM      3  C   UNL A   1      33.468  27.167  22.835  1.00  0.00     0.317 C 
ATOM      4  O   UNL A   1      33.723  27.322  21.648  1.00  0.00    -0.251 OA
BRANCH   3   5
ATOM      5  C   UNL A   1      33.283  25.804  23.488  1.00  0.00     0.175 C 
BRANCH   5   6
ATOM      6  C   UNL A   1      33.193  25.917  25.016  1.00  0.00     0.171 C 
ATOM      7  O   UNL A   1      34.041  26.537  25.670  1.00  0.00    -0.294 OA
BRANCH   6   8
ATOM      8  C   UNL A   1      32.039  25.400  25.802  1.00  0.00     0.069 C 
ATOM      9  C   UNL A   1      30.751  25.136  25.495  1.00  0.00     0.016 C 
BRANCH   9  10
ATOM     10  C   UNL A   1      29.925  24.542  26.648  1.00  0.00     0.050 C 
ATOM     11  C   UNL A   1      30.072  23.035  26.817  1.00  0.00     0.010 C 
ENDBRANCH   9  10
BRANCH   9  12
ATOM     12  N   UNL A   1      30.103  25.225  24.254  1.00  0.00    -0.381 N 
ATOM     13  C   UNL A   1      29.144  26.305  23.955  1.00  0.00     0.143 C 
ATOM     14  C   UNL A   1      30.271  24.260  23.171  1.00  0.00     0.143 C 
ENDBRANCH   9  12
ENDBRANCH   6   8
ENDBRANCH   5   6
BRANCH   5  15
ATOM     15  C   UNL A   1      34.392  24.768  23.130  1.00  0.00     0.060 C 
BRANCH  15  16
ATOM     16  C   UNL A   1      34.196  23.340  23.622  1.00  0.00    -0.028 A 
ATOM     17  C   UNL A   1      33.104  22.594  23.148  1.00  0.00     0.007 A 
ATOM     18  C   UNL A   1      35.098  22.699  24.493  1.00  0.00     0.045 A 
ATOM     19  C   UNL A   1      32.893  21.274  23.557  1.00  0.00     0.021 A 
ATOM     20  C   UNL A   1      34.904  21.368  24.882  1.00  0.00     0.041 A 
ATOM     21  Cl  UNL A   1      36.504  23.502  25.098  1.00  0.00    -0.084 Cl
ATOM     22  C   UNL A   1      33.795  20.667  24.421  1.00  0.00     0.042 A 
ATOM     23  Cl  UNL A   1      33.545  19.034  24.903  1.00  0.00    -0.084 Cl
ENDBRANCH  15  16
ENDBRANCH   5  15
ENDBRANCH   3   5
ENDBRANCH   2   3
ENDBRANCH   1   2
BRANCH   1  24
ATOM     24  C   UNL A   1      31.925  29.722  24.985  1.00  0.00     0.275 C 
BRANCH  24  25
ATOM     25  O   UNL A   1      33.191  29.833  25.660  1.00  0.00    -0.458 OA
BRANCH  25  26
ATOM     26  C   UNL A   1      33.267  30.760  26.642  1.00  0.00     0.338 C 
ATOM     27  O   UNL A   1      32.481  31.661  26.870  1.00  0.00    -0.246 OA
BRANCH  26  28
ATOM     28  C   UNL A   1      34.501  30.555  27.420  1.00  0.00     0.060 A 
ATOM     29  C   UNL A   1      34.759  29.323  28.016  1.00  0.00     0.016 A 
ATOM     30  C   UNL A   1      35.377  31.627  27.606  1.00  0.00     0.016 A 
ATOM     31  C   UNL A   1      35.891  29.170  28.814  1.00  0.00     0.010 A 
ATOM     32  C   UNL A   1      36.550  31.445  28.345  1.00  0.00     0.010 A 
ATOM     33  C   UNL A   1      36.823  30.209  28.947  1.00  0.00    -0.014 A 
BRANCH  33  34
ATOM     34  C   UNL A   1      38.112  29.957  29.643  1.00  0.00     0.031 A 
ATOM     35  C   UNL A   1      39.154  29.060  29.044  1.00  0.00     0.074 A 
ATOM     36  C   UNL A   1      38.334  30.547  30.835  1.00  0.00     0.049 A 
ATOM     37  N   UNL A   1      40.270  28.631  29.573  1.00  0.00    -0.248 NA
ATOM     38  C   UNL A   1      38.916  28.587  27.672  1.00  0.00     0.031 C 
ATOM     39  C   UNL A   1      37.409  31.465  31.502  1.00  0.00     0.029 A 
ATOM     40  N   UNL A   1      39.395  30.460  31.702  1.00  0.00    -0.354 N 
ATOM     41  C   UNL A   1      40.846  27.798  28.624  1.00  0.00     0.074 A 
ATOM     42  C   UNL A   1      39.968  27.802  27.472  1.00  0.00     0.031 C 
ATOM     43  C   UNL A   1      37.946  31.870  32.661  1.00  0.00     0.029 A 
ATOM     44  C   UNL A   1      39.214  31.177  32.862  1.00  0.00     0.049 A 
ATOM     45  H   UNL A   1      40.207  29.936  31.511  1.00  0.00     0.167 HD
ATOM     46  C   UNL A   1      41.999  27.093  28.710  1.00  0.00     0.034 A 
ATOM     47  C   UNL A   1      39.957  31.233  33.987  1.00  0.00     0.034 A 
ATOM     48  C   UNL A   1      42.880  27.115  29.849  1.00  0.00     0.049 A 
ATOM     49  C   UNL A   1      41.204  30.399  34.074  1.00  0.00     0.074 A 
ATOM     50  C   UNL A   1      44.076  26.440  30.026  1.00  0.00     0.029 A 
ATOM     51  N   UNL A   1      42.659  27.844  31.007  1.00  0.00    -0.354 N 
ATOM     52  N   UNL A   1      41.756  29.648  33.152  1.00  0.00    -0.248 NA
ATOM     53  C   UNL A   1      41.923  30.413  35.355  1.00  0.00     0.031 C 
ATOM     54  C   UNL A   1      44.568  26.747  31.299  1.00  0.00     0.029 A 
ATOM     55  C   UNL A   1      43.684  27.621  31.911  1.00  0.00     0.049 A 
ATOM     56  H   UNL A   1      41.886  28.432  31.165  1.00  0.00     0.167 HD
ATOM     57  C   UNL A   1      42.884  29.091  33.744  1.00  0.00     0.074 A 
ATOM     58  C   UNL A   1      42.960  29.629  35.087  1.00  0.00     0.031 C 
ATOM     59  C   UNL A   1      43.756  28.188  33.235  1.00  0.00     0.034 A 
BRANCH  46  60
ATOM     60  C   UNL A   1      42.380  26.232  27.536  1.00  0.00     0.023 A 
ATOM     61  C   UNL A   1      43.115  26.789  26.472  1.00  0.00     0.012 A 
ATOM     62  C   UNL A   1      42.059  24.861  27.515  1.00  0.00     0.148 A 
ATOM     63  C   UNL A   1      43.509  25.997  25.393  1.00  0.00     0.002 A 
ATOM     64  C   UNL A   1      42.479  24.072  26.451  1.00  0.00     0.091 A 
ATOM     65  F   UNL A   1      41.336  24.358  28.526  1.00  0.00    -0.205 F 
ATOM     66  C   UNL A   1      43.199  24.638  25.387  1.00  0.00     0.022 A 
BRANCH  64  67
ATOM     67  S   UNL A   1      42.172  22.302  26.385  1.00  0.00     0.127 S 
ATOM     68  O   UNL A   1      42.644  21.872  27.700  1.00  0.00    -0.237 OA
ATOM     69  O   UNL A   1      40.719  22.244  26.210  1.00  0.00    -0.237 OA
ATOM     70  O   UNL A   1      42.937  21.809  25.249  1.00  0.00    -0.744 OA
ENDBRANCH  64  67
ENDBRANCH  46  60
BRANCH  47  71
ATOM     71  C   UNL A   1      39.520  32.099  35.120  1.00  0.00     0.023 A 
ATOM     72  C   UNL A   1      39.712  33.490  35.043  1.00  0.00     0.012 A 
ATOM     73  C   UNL A   1      38.858  31.560  36.240  1.00  0.00     0.148 A 
ATOM     74  C   UNL A   1      39.256  34.328  36.062  1.00  0.00     0.002 A 
ATOM     75  C   UNL A   1      38.346  32.404  37.217  1.00  0.00     0.091 A 
ATOM     76  F   UNL A   1      38.719  30.229  36.321  1.00  0.00    -0.205 F 
ATOM     77  C   UNL A   1      38.556  33.789  37.139  1.00  0.00     0.022 A 
BRANCH  75  78
ATOM     78  S   UNL A   1      37.284  31.786  38.529  1.00  0.00     0.127 S 
ATOM     79  O   UNL A   1      38.125  31.964  39.708  1.00  0.00    -0.237 OA
ATOM     80  O   UNL A   1      36.134  32.689  38.451  1.00  0.00    -0.237 OA
ATOM     81  O   UNL A   1      36.981  30.410  38.154  1.00  0.00    -0.744 OA
ENDBRANCH  75  78
ENDBRANCH  47  71
BRANCH  59  82
ATOM     82  C   UNL A   1      44.853  27.704  34.145  1.00  0.00     0.023 A 
ATOM     83  C   UNL A   1      46.055  28.436  34.216  1.00  0.00     0.012 A 
ATOM     84  C   UNL A   1      44.678  26.575  34.966  1.00  0.00     0.148 A 
ATOM     85  C   UNL A   1      47.077  28.037  35.075  1.00  0.00     0.002 A 
ATOM     86  C   UNL A   1      45.687  26.205  35.848  1.00  0.00     0.091 A 
ATOM     87  F   UNL A   1      43.536  25.881  34.865  1.00  0.00    -0.205 F 
ATOM     88  C   UNL A   1      46.890  26.929  35.897  1.00  0.00     0.022 A 
BRANCH  86  89
ATOM     89  S   UNL A   1      45.502  24.837  36.999  1.00  0.00     0.127 S 
ATOM     90  O   UNL A   1      46.891  24.425  37.198  1.00  0.00    -0.237 OA
ATOM     91  O   UNL A   1      44.886  25.486  38.157  1.00  0.00    -0.237 OA
ATOM     92  O   UNL A   1      44.650  23.865  36.328  1.00  0.00    -0.744 OA
ENDBRANCH  86  89
ENDBRANCH  59  82
ENDBRANCH  33  34
ENDBRANCH  26  28
ENDBRANCH  25  26
ENDBRANCH  24  25
ENDBRANCH   1  24
TORSDOF 20
ENDMDL
