MODEL 1
REMARK VINA RESULT:     -11.4      0.000      0.000
REMARK SMILES CCC[C@@H](C(=O)OCCOC(=O)c1ccc(-c2c3nc(c(-c4cccc(S(=O)(=O)[O-])c4F)c4ccc([nH]4)c(-c4cccc(S(=O)(=O)[O-])c4F)c4nc(c(-c5cccc(S(=O)(=O)[O-])c5F)c5ccc2[nH]5)C=C4)C=C3)cc1)n1nc(/C=C/c2ccc(OC)cc2)ccc1=O
REMARK SMILES IDX 8 1 7 2 5 3 6 4 4 5 3 6 2 7 1 8 76 9 77 10 91 11 78 12 90 13
REMARK SMILES IDX 92 14 89 15 79 16 80 17 81 18 82 19 88 20 83 21 87 22 84 23
REMARK SMILES IDX 85 24 86 25 9 26 10 27 11 28 12 29 13 30 14 31 75 32 15 33
REMARK SMILES IDX 74 34 16 35 17 36 18 37 68 38 19 39 73 40 67 41 69 42 20 43
REMARK SMILES IDX 72 44 66 45 65 46 21 48 53 49 33 50 52 51 34 52 37 53 51 54
REMARK SMILES IDX 70 55 35 56 36 57 50 59 71 60 38 61 22 62 23 63 31 64 24 65
REMARK SMILES IDX 26 66 32 67 25 68 27 69 28 70 29 71 30 72 54 73 55 74 63 75
REMARK SMILES IDX 56 76 58 77 64 78 57 79 59 80 60 81 61 82 62 83 39 84 40 85
REMARK SMILES IDX 48 86 41 87 43 88 49 89 42 90 44 91 45 92 46 93 47 94
REMARK H PARENT 69 47 37 58
REMARK Flexibility Score: inf
ROOT
ATOM      1  C   UNL A   1      31.706  29.084  26.950  1.00  0.00     0.274 C 
ENDROOT
BRANCH   1   2
ATOM      2  O   UNL A   1      31.715  28.273  25.756  1.00  0.00    -0.460 OA
BRANCH   2   3
ATOM      3  C   UNL A   1      31.259  26.994  25.861  1.00  0.00     0.331 C 
ATOM      4  O   UNL A   1      30.759  26.542  26.887  1.00  0.00    -0.250 OA
BRANCH   3   5
ATOM      5  C   UNL A   1      31.519  26.160  24.590  1.00  0.00     0.221 C 
BRANCH   5   6
ATOM      6  C   UNL A   1      30.284  25.407  24.035  1.00  0.00     0.039 C 
BRANCH   6   7
ATOM      7  C   UNL A   1      29.152  26.235  23.409  1.00  0.00    -0.001 C 
ATOM      8  C   UNL A   1      27.888  26.332  24.241  1.00  0.00     0.004 C 
ENDBRANCH   6   7
ENDBRANCH   5   6
BRANCH   5   9
ATOM      9  N   UNL A   1      32.728  25.291  24.751  1.00  0.00    -0.215 N 
ATOM     10  N   UNL A   1      32.479  23.914  24.805  1.00  0.00    -0.169 NA
ATOM     11  C   UNL A   1      34.020  25.806  24.706  1.00  0.00     0.267 A 
ATOM     12  C   UNL A   1      33.492  23.100  24.912  1.00  0.00     0.084 A 
ATOM     13  C   UNL A   1      35.111  24.860  25.005  1.00  0.00     0.075 A 
ATOM     14  O   UNL A   1      34.326  26.973  24.482  1.00  0.00    -0.268 OA
ATOM     15  C   UNL A   1      34.882  23.554  25.117  1.00  0.00     0.036 A 
BRANCH  12  16
ATOM     16  C   UNL A   1      33.254  21.619  24.822  1.00  0.00     0.031 C 
ATOM     17  C   UNL A   1      34.187  20.661  24.964  1.00  0.00     0.010 C 
BRANCH  17  18
ATOM     18  C   UNL A   1      33.944  19.215  24.853  1.00  0.00    -0.025 A 
ATOM     19  C   UNL A   1      32.800  18.679  25.457  1.00  0.00     0.012 A 
ATOM     20  C   UNL A   1      34.862  18.339  24.265  1.00  0.00     0.012 A 
ATOM     21  C   UNL A   1      32.569  17.300  25.449  1.00  0.00     0.047 A 
ATOM     22  C   UNL A   1      34.632  16.954  24.264  1.00  0.00     0.047 A 
ATOM     23  C   UNL A   1      33.479  16.429  24.851  1.00  0.00     0.118 A 
BRANCH  23  24
ATOM     24  O   UNL A   1      33.137  15.107  24.924  1.00  0.00    -0.497 OA
ATOM     25  C   UNL A   1      32.051  14.770  25.779  1.00  0.00     0.278 C 
ENDBRANCH  23  24
ENDBRANCH  17  18
ENDBRANCH  12  16
ENDBRANCH   5   9
ENDBRANCH   3   5
ENDBRANCH   2   3
ENDBRANCH   1   2
BRANCH   1  26
ATOM     26  C   UNL A   1      31.848  30.554  26.576  1.00  0.00     0.275 C 
BRANCH  26  27
ATOM     27  O   UNL A   1      33.247  30.854  26.491  1.00  0.00    -0.458 OA
BRANCH  27  28
ATOM     28  C   UNL A   1      33.710  31.798  27.343  1.00  0.00     0.338 C 
ATOM     29  O   UNL A   1      33.173  32.849  27.641  1.00  0.00    -0.246 OA
BRANCH  28  30
ATOM     30  C   UNL A   1      35.013  31.351  27.869  1.00  0.00     0.060 A 
ATOM     31  C   UNL A   1      35.176  30.041  28.314  1.00  0.00     0.016 A 
ATOM     32  C   UNL A   1      36.060  32.261  27.988  1.00  0.00     0.016 A 
ATOM     33  C   UNL A   1      36.350  29.666  28.962  1.00  0.00     0.010 A 
ATOM     34  C   UNL A   1      37.272  31.850  28.554  1.00  0.00     0.010 A 
ATOM     35  C   UNL A   1      37.418  30.561  29.096  1.00  0.00    -0.014 A 
BRANCH  35  36
ATOM     36  C   UNL A   1      38.648  30.172  29.849  1.00  0.00     0.031 A 
ATOM     37  C   UNL A   1      39.633  29.200  29.240  1.00  0.00     0.074 A 
ATOM     38  C   UNL A   1      38.909  30.682  31.071  1.00  0.00     0.049 A 
ATOM     39  N   UNL A   1      40.633  28.574  29.806  1.00  0.00    -0.248 NA
ATOM     40  C   UNL A   1      39.461  28.879  27.813  1.00  0.00     0.031 C 
ATOM     41  C   UNL A   1      38.077  31.654  31.783  1.00  0.00     0.029 A 
ATOM     42  N   UNL A   1      39.952  30.449  31.936  1.00  0.00    -0.354 N 
ATOM     43  C   UNL A   1      41.139  27.711  28.840  1.00  0.00     0.074 A 
ATOM     44  C   UNL A   1      40.355  27.915  27.641  1.00  0.00     0.031 C 
ATOM     45  C   UNL A   1      38.657  31.964  32.951  1.00  0.00     0.029 A 
ATOM     46  C   UNL A   1      39.846  31.137  33.124  1.00  0.00     0.049 A 
ATOM     47  H   UNL A   1      40.703  29.848  31.726  1.00  0.00     0.167 HD
ATOM     48  C   UNL A   1      42.168  26.836  28.936  1.00  0.00     0.034 A 
ATOM     49  C   UNL A   1      40.583  31.076  34.250  1.00  0.00     0.034 A 
ATOM     50  C   UNL A   1      43.018  26.707  30.090  1.00  0.00     0.049 A 
ATOM     51  C   UNL A   1      41.737  30.118  34.323  1.00  0.00     0.074 A 
ATOM     52  C   UNL A   1      44.108  25.871  30.267  1.00  0.00     0.029 A 
ATOM     53  N   UNL A   1      42.894  27.451  31.252  1.00  0.00    -0.354 N 
ATOM     54  N   UNL A   1      42.199  29.312  33.399  1.00  0.00    -0.248 NA
ATOM     55  C   UNL A   1      42.474  30.061  35.595  1.00  0.00     0.031 C 
ATOM     56  C   UNL A   1      44.648  26.116  31.534  1.00  0.00     0.029 A 
ATOM     57  C   UNL A   1      43.896  27.108  32.143  1.00  0.00     0.049 A 
ATOM     58  H   UNL A   1      42.196  28.126  31.418  1.00  0.00     0.167 HD
ATOM     59  C   UNL A   1      43.285  28.659  33.973  1.00  0.00     0.074 A 
ATOM     60  C   UNL A   1      43.435  29.192  35.311  1.00  0.00     0.031 C 
ATOM     61  C   UNL A   1      44.068  27.686  33.449  1.00  0.00     0.034 A 
BRANCH  48  62
ATOM     62  C   UNL A   1      42.463  25.961  27.745  1.00  0.00     0.023 A 
ATOM     63  C   UNL A   1      43.338  26.416  26.741  1.00  0.00     0.012 A 
ATOM     64  C   UNL A   1      41.930  24.658  27.660  1.00  0.00     0.148 A 
ATOM     65  C   UNL A   1      43.657  25.601  25.655  1.00  0.00     0.002 A 
ATOM     66  C   UNL A   1      42.285  23.836  26.597  1.00  0.00     0.091 A 
ATOM     67  F   UNL A   1      41.080  24.251  28.614  1.00  0.00    -0.205 F 
ATOM     68  C   UNL A   1      43.141  24.309  25.589  1.00  0.00     0.022 A 
BRANCH  66  69
ATOM     69  S   UNL A   1      41.736  22.129  26.475  1.00  0.00     0.127 S 
ATOM     70  O   UNL A   1      40.284  22.288  26.422  1.00  0.00    -0.237 OA
ATOM     71  O   UNL A   1      42.349  21.693  25.219  1.00  0.00    -0.237 OA
ATOM     72  O   UNL A   1      42.254  21.460  27.661  1.00  0.00    -0.744 OA
ENDBRANCH  66  69
ENDBRANCH  48  62
BRANCH  49  73
ATOM     73  C   UNL A   1      40.247  31.959  35.404  1.00  0.00     0.023 A 
ATOM     74  C   UNL A   1      41.001  33.128  35.616  1.00  0.00     0.012 A 
ATOM     75  C   UNL A   1      39.166  31.675  36.260  1.00  0.00     0.148 A 
ATOM     76  C   UNL A   1      40.699  33.983  36.676  1.00  0.00     0.002 A 
ATOM     77  C   UNL A   1      38.823  32.572  37.264  1.00  0.00     0.091 A 
ATOM     78  F   UNL A   1      38.479  30.539  36.068  1.00  0.00    -0.205 F 
ATOM     79  C   UNL A   1      39.599  33.718  37.487  1.00  0.00     0.022 A 
BRANCH  77  80
ATOM     80  S   UNL A   1      37.314  32.386  38.221  1.00  0.00     0.127 S 
ATOM     81  O   UNL A   1      37.191  30.934  38.311  1.00  0.00    -0.237 OA
ATOM     82  O   UNL A   1      37.661  33.055  39.476  1.00  0.00    -0.237 OA
ATOM     83  O   UNL A   1      36.286  33.074  37.449  1.00  0.00    -0.744 OA
ENDBRANCH  77  80
ENDBRANCH  49  73
BRANCH  61  84
ATOM     84  C   UNL A   1      45.174  27.145  34.316  1.00  0.00     0.023 A 
ATOM     85  C   UNL A   1      46.440  27.763  34.288  1.00  0.00     0.012 A 
ATOM     86  C   UNL A   1      44.945  26.071  35.196  1.00  0.00     0.148 A 
ATOM     87  C   UNL A   1      47.470  27.301  35.105  1.00  0.00     0.002 A 
ATOM     88  C   UNL A   1      45.966  25.641  36.035  1.00  0.00     0.091 A 
ATOM     89  F   UNL A   1      43.740  25.482  35.190  1.00  0.00    -0.205 F 
ATOM     90  C   UNL A   1      47.231  26.249  35.985  1.00  0.00     0.022 A 
BRANCH  88  91
ATOM     91  S   UNL A   1      45.715  24.344  37.254  1.00  0.00     0.127 S 
ATOM     92  O   UNL A   1      46.963  24.404  38.014  1.00  0.00    -0.237 OA
ATOM     93  O   UNL A   1      44.537  24.818  37.981  1.00  0.00    -0.237 OA
ATOM     94  O   UNL A   1      45.499  23.123  36.492  1.00  0.00    -0.744 OA
ENDBRANCH  88  91
ENDBRANCH  61  84
ENDBRANCH  35  36
ENDBRANCH  28  30
ENDBRANCH  27  28
ENDBRANCH  26  27
ENDBRANCH   1  26
TORSDOF 20
ENDMDL
MODEL 2
REMARK VINA RESULT:     -10.9      5.203      8.542
REMARK SMILES CCC[C@@H](C(=O)OCCOC(=O)c1ccc(-c2c3nc(c(-c4cccc(S(=O)(=O)[O-])c4F)c4ccc([nH]4)c(-c4cccc(S(=O)(=O)[O-])c4F)c4nc(c(-c5cccc(S(=O)(=O)[O-])c5F)c5ccc2[nH]5)C=C4)C=C3)cc1)n1nc(/C=C/c2ccc(OC)cc2)ccc1=O
REMARK SMILES IDX 8 1 7 2 5 3 6 4 4 5 3 6 2 7 1 8 76 9 77 10 91 11 78 12 90 13
REMARK SMILES IDX 92 14 89 15 79 16 80 17 81 18 82 19 88 20 83 21 87 22 84 23
REMARK SMILES IDX 85 24 86 25 9 26 10 27 11 28 12 29 13 30 14 31 75 32 15 33
REMARK SMILES IDX 74 34 16 35 17 36 18 37 68 38 19 39 73 40 67 41 69 42 20 43
REMARK SMILES IDX 72 44 66 45 65 46 21 48 53 49 33 50 52 51 34 52 37 53 51 54
REMARK SMILES IDX 70 55 35 56 36 57 50 59 71 60 38 61 22 62 23 63 31 64 24 65
REMARK SMILES IDX 26 66 32 67 25 68 27 69 28 70 29 71 30 72 54 73 55 74 63 75
REMARK SMILES IDX 56 76 58 77 64 78 57 79 59 80 60 81 61 82 62 83 39 84 40 85
REMARK SMILES IDX 48 86 41 87 43 88 49 89 42 90 44 91 45 92 46 93 47 94
REMARK H PARENT 69 47 37 58
REMARK Flexibility Score: inf
ROOT
ATOM      1  C   UNL A   1      35.986  20.418  25.009  1.00  0.00     0.274 C 
ENDROOT
BRANCH   1   2
ATOM      2  O   UNL A   1      35.946  21.794  24.574  1.00  0.00    -0.460 OA
BRANCH   2   3
ATOM      3  C   UNL A   1      35.016  22.607  25.148  1.00  0.00     0.331 C 
ATOM      4  O   UNL A   1      35.056  22.943  26.327  1.00  0.00    -0.250 OA
BRANCH   3   5
ATOM      5  C   UNL A   1      33.872  22.982  24.184  1.00  0.00     0.221 C 
BRANCH   5   6
ATOM      6  C   UNL A   1      34.236  24.041  23.114  1.00  0.00     0.039 C 
BRANCH   6   7
ATOM      7  C   UNL A   1      33.343  24.152  21.869  1.00  0.00    -0.001 C 
ATOM      8  C   UNL A   1      32.978  22.832  21.220  1.00  0.00     0.004 C 
ENDBRANCH   6   7
ENDBRANCH   5   6
BRANCH   5   9
ATOM      9  N   UNL A   1      32.613  23.293  24.933  1.00  0.00    -0.215 N 
ATOM     10  N   UNL A   1      32.098  24.580  24.739  1.00  0.00    -0.169 NA
ATOM     11  C   UNL A   1      31.925  22.325  25.658  1.00  0.00     0.267 A 
ATOM     12  C   UNL A   1      30.986  24.906  25.337  1.00  0.00     0.084 A 
ATOM     13  C   UNL A   1      30.774  22.797  26.449  1.00  0.00     0.075 A 
ATOM     14  O   UNL A   1      32.213  21.135  25.728  1.00  0.00    -0.268 OA
ATOM     15  C   UNL A   1      30.307  24.036  26.319  1.00  0.00     0.036 A 
BRANCH  12  16
ATOM     16  C   UNL A   1      30.344  26.228  25.023  1.00  0.00     0.031 C 
ATOM     17  C   UNL A   1      29.921  26.629  23.812  1.00  0.00     0.010 C 
BRANCH  17  18
ATOM     18  C   UNL A   1      29.312  27.936  23.515  1.00  0.00    -0.025 A 
ATOM     19  C   UNL A   1      30.106  29.084  23.622  1.00  0.00     0.012 A 
ATOM     20  C   UNL A   1      27.950  28.087  23.238  1.00  0.00     0.012 A 
ATOM     21  C   UNL A   1      29.552  30.354  23.430  1.00  0.00     0.047 A 
ATOM     22  C   UNL A   1      27.394  29.364  23.054  1.00  0.00     0.047 A 
ATOM     23  C   UNL A   1      28.196  30.503  23.142  1.00  0.00     0.118 A 
BRANCH  23  24
ATOM     24  O   UNL A   1      27.784  31.798  22.990  1.00  0.00    -0.497 OA
ATOM     25  C   UNL A   1      28.391  32.548  21.945  1.00  0.00     0.278 C 
ENDBRANCH  23  24
ENDBRANCH  17  18
ENDBRANCH  12  16
ENDBRANCH   5   9
ENDBRANCH   3   5
ENDBRANCH   2   3
ENDBRANCH   1   2
BRANCH   1  26
ATOM     26  C   UNL A   1      37.431  19.937  25.062  1.00  0.00     0.275 C 
BRANCH  26  27
ATOM     27  O   UNL A   1      38.269  21.080  25.276  1.00  0.00    -0.458 OA
BRANCH  27  28
ATOM     28  C   UNL A   1      39.350  20.891  26.067  1.00  0.00     0.338 C 
ATOM     29  O   UNL A   1      39.900  19.836  26.324  1.00  0.00    -0.246 OA
BRANCH  28  30
ATOM     30  C   UNL A   1      39.773  22.200  26.597  1.00  0.00     0.060 A 
ATOM     31  C   UNL A   1      39.083  23.357  26.239  1.00  0.00     0.016 A 
ATOM     32  C   UNL A   1      40.909  22.288  27.398  1.00  0.00     0.016 A 
ATOM     33  C   UNL A   1      39.580  24.605  26.602  1.00  0.00     0.010 A 
ATOM     34  C   UNL A   1      41.348  23.542  27.840  1.00  0.00     0.010 A 
ATOM     35  C   UNL A   1      40.720  24.723  27.407  1.00  0.00    -0.014 A 
BRANCH  35  36
ATOM     36  C   UNL A   1      41.284  26.066  27.739  1.00  0.00     0.031 A 
ATOM     37  C   UNL A   1      42.676  26.437  27.282  1.00  0.00     0.074 A 
ATOM     38  C   UNL A   1      40.566  26.970  28.438  1.00  0.00     0.049 A 
ATOM     39  N   UNL A   1      43.423  27.448  27.645  1.00  0.00    -0.248 NA
ATOM     40  C   UNL A   1      43.318  25.546  26.300  1.00  0.00     0.031 C 
ATOM     41  C   UNL A   1      39.198  26.780  28.924  1.00  0.00     0.029 A 
ATOM     42  N   UNL A   1      40.892  28.235  28.867  1.00  0.00    -0.354 N 
ATOM     43  C   UNL A   1      44.652  27.258  27.024  1.00  0.00     0.074 A 
ATOM     44  C   UNL A   1      44.543  26.049  26.236  1.00  0.00     0.031 C 
ATOM     45  C   UNL A   1      38.788  27.895  29.545  1.00  0.00     0.029 A 
ATOM     46  C   UNL A   1      39.896  28.842  29.598  1.00  0.00     0.049 A 
ATOM     47  H   UNL A   1      41.755  28.666  28.669  1.00  0.00     0.167 HD
ATOM     48  C   UNL A   1      45.768  28.022  27.093  1.00  0.00     0.034 A 
ATOM     49  C   UNL A   1      39.882  30.002  30.283  1.00  0.00     0.034 A 
ATOM     50  C   UNL A   1      45.848  29.280  27.788  1.00  0.00     0.049 A 
ATOM     51  C   UNL A   1      41.124  30.848  30.322  1.00  0.00     0.074 A 
ATOM     52  C   UNL A   1      46.926  30.142  27.885  1.00  0.00     0.029 A 
ATOM     53  N   UNL A   1      44.802  29.869  28.481  1.00  0.00    -0.354 N 
ATOM     54  N   UNL A   1      42.275  30.650  29.728  1.00  0.00    -0.248 NA
ATOM     55  C   UNL A   1      41.064  32.078  31.126  1.00  0.00     0.031 C 
ATOM     56  C   UNL A   1      46.530  31.258  28.630  1.00  0.00     0.029 A 
ATOM     57  C   UNL A   1      45.203  31.092  28.993  1.00  0.00     0.049 A 
ATOM     58  H   UNL A   1      43.906  29.477  28.591  1.00  0.00     0.167 HD
ATOM     59  C   UNL A   1      43.073  31.734  30.077  1.00  0.00     0.074 A 
ATOM     60  C   UNL A   1      42.261  32.603  30.904  1.00  0.00     0.031 C 
ATOM     61  C   UNL A   1      44.370  31.973  29.766  1.00  0.00     0.034 A 
BRANCH  48  62
ATOM     62  C   UNL A   1      46.998  27.541  26.369  1.00  0.00     0.023 A 
ATOM     63  C   UNL A   1      47.925  26.716  27.034  1.00  0.00     0.012 A 
ATOM     64  C   UNL A   1      47.197  27.847  25.007  1.00  0.00     0.148 A 
ATOM     65  C   UNL A   1      49.046  26.224  26.365  1.00  0.00     0.002 A 
ATOM     66  C   UNL A   1      48.294  27.319  24.334  1.00  0.00     0.091 A 
ATOM     67  F   UNL A   1      46.317  28.653  24.396  1.00  0.00    -0.205 F 
ATOM     68  C   UNL A   1      49.224  26.515  25.015  1.00  0.00     0.022 A 
BRANCH  66  69
ATOM     69  S   UNL A   1      48.558  27.572  22.575  1.00  0.00     0.127 S 
ATOM     70  O   UNL A   1      49.808  28.330  22.569  1.00  0.00    -0.237 OA
ATOM     71  O   UNL A   1      48.674  26.201  22.076  1.00  0.00    -0.237 OA
ATOM     72  O   UNL A   1      47.384  28.289  22.097  1.00  0.00    -0.744 OA
ENDBRANCH  66  69
ENDBRANCH  48  62
BRANCH  49  73
ATOM     73  C   UNL A   1      38.641  30.432  30.988  1.00  0.00     0.023 A 
ATOM     74  C   UNL A   1      38.518  30.195  32.370  1.00  0.00     0.012 A 
ATOM     75  C   UNL A   1      37.607  31.111  30.314  1.00  0.00     0.148 A 
ATOM     76  C   UNL A   1      37.377  30.602  33.060  1.00  0.00     0.002 A 
ATOM     77  C   UNL A   1      36.511  31.584  31.024  1.00  0.00     0.091 A 
ATOM     78  F   UNL A   1      37.721  31.299  28.991  1.00  0.00    -0.205 F 
ATOM     79  C   UNL A   1      36.383  31.315  32.394  1.00  0.00     0.022 A 
BRANCH  77  80
ATOM     80  S   UNL A   1      35.291  32.663  30.267  1.00  0.00     0.127 S 
ATOM     81  O   UNL A   1      36.100  33.819  29.892  1.00  0.00    -0.237 OA
ATOM     82  O   UNL A   1      34.816  31.852  29.145  1.00  0.00    -0.237 OA
ATOM     83  O   UNL A   1      34.287  32.887  31.301  1.00  0.00    -0.744 OA
ENDBRANCH  77  80
ENDBRANCH  49  73
BRANCH  61  84
ATOM     84  C   UNL A   1      44.990  33.234  30.302  1.00  0.00     0.023 A 
ATOM     85  C   UNL A   1      45.677  33.200  31.532  1.00  0.00     0.012 A 
ATOM     86  C   UNL A   1      44.946  34.433  29.566  1.00  0.00     0.148 A 
ATOM     87  C   UNL A   1      46.288  34.348  32.033  1.00  0.00     0.002 A 
ATOM     88  C   UNL A   1      45.590  35.564  30.054  1.00  0.00     0.091 A 
ATOM     89  F   UNL A   1      44.267  34.451  28.409  1.00  0.00    -0.205 F 
ATOM     90  C   UNL A   1      46.254  35.525  31.291  1.00  0.00     0.022 A 
BRANCH  88  91
ATOM     91  S   UNL A   1      45.661  37.098  29.121  1.00  0.00     0.127 S 
ATOM     92  O   UNL A   1      46.097  36.628  27.807  1.00  0.00    -0.237 OA
ATOM     93  O   UNL A   1      44.275  37.563  29.173  1.00  0.00    -0.237 OA
ATOM     94  O   UNL A   1      46.606  37.948  29.831  1.00  0.00    -0.744 OA
ENDBRANCH  88  91
ENDBRANCH  61  84
ENDBRANCH  35  36
ENDBRANCH  28  30
ENDBRANCH  27  28
ENDBRANCH  26  27
ENDBRANCH   1  26
TORSDOF 20
ENDMDL
MODEL 3
REMARK VINA RESULT:     -10.9      2.296      2.670
REMARK SMILES CCC[C@@H](C(=O)OCCOC(=O)c1ccc(-c2c3nc(c(-c4cccc(S(=O)(=O)[O-])c4F)c4ccc([nH]4)c(-c4cccc(S(=O)(=O)[O-])c4F)c4nc(c(-c5cccc(S(=O)(=O)[O-])c5F)c5ccc2[nH]5)C=C4)C=C3)cc1)n1nc(/C=C/c2ccc(OC)cc2)ccc1=O
REMARK SMILES IDX 8 1 7 2 5 3 6 4 4 5 3 6 2 7 1 8 76 9 77 10 91 11 78 12 90 13
REMARK SMILES IDX 92 14 89 15 79 16 80 17 81 18 82 19 88 20 83 21 87 22 84 23
REMARK SMILES IDX 85 24 86 25 9 26 10 27 11 28 12 29 13 30 14 31 75 32 15 33
REMARK SMILES IDX 74 34 16 35 17 36 18 37 68 38 19 39 73 40 67 41 69 42 20 43
REMARK SMILES IDX 72 44 66 45 65 46 21 48 53 49 33 50 52 51 34 52 37 53 51 54
REMARK SMILES IDX 70 55 35 56 36 57 50 59 71 60 38 61 22 62 23 63 31 64 24 65
REMARK SMILES IDX 26 66 32 67 25 68 27 69 28 70 29 71 30 72 54 73 55 74 63 75
REMARK SMILES IDX 56 76 58 77 64 78 57 79 59 80 60 81 61 82 62 83 39 84 40 85
REMARK SMILES IDX 48 86 41 87 43 88 49 89 42 90 44 91 45 92 46 93 47 94
REMARK H PARENT 69 47 37 58
REMARK Flexibility Score: inf
ROOT
ATOM      1  C   UNL A   1      31.725  28.919  26.832  1.00  0.00     0.274 C 
ENDROOT
BRANCH   1   2
ATOM      2  O   UNL A   1      31.268  28.319  25.602  1.00  0.00    -0.460 OA
BRANCH   2   3
ATOM      3  C   UNL A   1      31.920  27.205  25.166  1.00  0.00     0.331 C 
ATOM      4  O   UNL A   1      33.138  27.075  25.224  1.00  0.00    -0.250 OA
BRANCH   3   5
ATOM      5  C   UNL A   1      30.974  26.174  24.516  1.00  0.00     0.221 C 
BRANCH   5   6
ATOM      6  C   UNL A   1      30.298  25.190  25.503  1.00  0.00     0.039 C 
BRANCH   6   7
ATOM      7  C   UNL A   1      31.165  24.552  26.599  1.00  0.00    -0.001 C 
ATOM      8  C   UNL A   1      30.980  23.059  26.778  1.00  0.00     0.004 C 
ENDBRANCH   6   7
ENDBRANCH   5   6
BRANCH   5   9
ATOM      9  N   UNL A   1      31.627  25.499  23.350  1.00  0.00    -0.215 N 
ATOM     10  N   UNL A   1      31.986  24.161  23.550  1.00  0.00    -0.169 NA
ATOM     11  C   UNL A   1      31.740  26.115  22.107  1.00  0.00     0.267 A 
ATOM     12  C   UNL A   1      32.531  23.506  22.563  1.00  0.00     0.084 A 
ATOM     13  C   UNL A   1      32.517  25.389  21.086  1.00  0.00     0.075 A 
ATOM     14  O   UNL A   1      31.290  27.215  21.802  1.00  0.00    -0.268 OA
ATOM     15  C   UNL A   1      32.916  24.135  21.284  1.00  0.00     0.036 A 
BRANCH  12  16
ATOM     16  C   UNL A   1      32.785  22.032  22.714  1.00  0.00     0.031 C 
ATOM     17  C   UNL A   1      32.182  21.215  23.594  1.00  0.00     0.010 C 
BRANCH  17  18
ATOM     18  C   UNL A   1      32.456  19.777  23.744  1.00  0.00    -0.025 A 
ATOM     19  C   UNL A   1      32.826  19.294  25.005  1.00  0.00     0.012 A 
ATOM     20  C   UNL A   1      32.470  18.895  22.660  1.00  0.00     0.012 A 
ATOM     21  C   UNL A   1      33.177  17.952  25.180  1.00  0.00     0.047 A 
ATOM     22  C   UNL A   1      32.830  17.549  22.835  1.00  0.00     0.047 A 
ATOM     23  C   UNL A   1      33.178  17.070  24.099  1.00  0.00     0.118 A 
BRANCH  23  24
ATOM     24  O   UNL A   1      33.551  15.791  24.408  1.00  0.00    -0.497 OA
ATOM     25  C   UNL A   1      32.846  15.152  25.464  1.00  0.00     0.278 C 
ENDBRANCH  23  24
ENDBRANCH  17  18
ENDBRANCH  12  16
ENDBRANCH   5   9
ENDBRANCH   3   5
ENDBRANCH   2   3
ENDBRANCH   1   2
BRANCH   1  26
ATOM     26  C   UNL A   1      32.069  30.384  26.595  1.00  0.00     0.275 C 
BRANCH  26  27
ATOM     27  O   UNL A   1      33.484  30.538  26.771  1.00  0.00    -0.458 OA
BRANCH  27  28
ATOM     28  C   UNL A   1      33.883  31.607  27.498  1.00  0.00     0.338 C 
ATOM     29  O   UNL A   1      33.313  32.678  27.609  1.00  0.00    -0.246 OA
BRANCH  28  30
ATOM     30  C   UNL A   1      35.161  31.273  28.152  1.00  0.00     0.060 A 
ATOM     31  C   UNL A   1      35.364  30.001  28.684  1.00  0.00     0.016 A 
ATOM     32  C   UNL A   1      36.139  32.253  28.303  1.00  0.00     0.016 A 
ATOM     33  C   UNL A   1      36.499  29.737  29.446  1.00  0.00     0.010 A 
ATOM     34  C   UNL A   1      37.321  31.951  28.988  1.00  0.00     0.010 A 
ATOM     35  C   UNL A   1      37.497  30.704  29.613  1.00  0.00    -0.014 A 
BRANCH  35  36
ATOM     36  C   UNL A   1      38.681  30.435  30.484  1.00  0.00     0.031 A 
ATOM     37  C   UNL A   1      39.792  29.535  29.994  1.00  0.00     0.074 A 
ATOM     38  C   UNL A   1      38.786  30.991  31.709  1.00  0.00     0.049 A 
ATOM     39  N   UNL A   1      40.783  29.006  30.665  1.00  0.00    -0.248 NA
ATOM     40  C   UNL A   1      39.778  29.170  28.568  1.00  0.00     0.031 C 
ATOM     41  C   UNL A   1      37.817  31.907  32.315  1.00  0.00     0.029 A 
ATOM     42  N   UNL A   1      39.761  30.865  32.670  1.00  0.00    -0.354 N 
ATOM     43  C   UNL A   1      41.443  28.167  29.774  1.00  0.00     0.074 A 
ATOM     44  C   UNL A   1      40.758  28.279  28.505  1.00  0.00     0.031 C 
ATOM     45  C   UNL A   1      38.261  32.289  33.521  1.00  0.00     0.029 A 
ATOM     46  C   UNL A   1      39.492  31.567  33.823  1.00  0.00     0.049 A 
ATOM     47  H   UNL A   1      40.574  30.324  32.546  1.00  0.00     0.167 HD
ATOM     48  C   UNL A   1      42.527  27.382  29.987  1.00  0.00     0.034 A 
ATOM     49  C   UNL A   1      40.125  31.592  35.012  1.00  0.00     0.034 A 
ATOM     50  C   UNL A   1      43.275  27.349  31.216  1.00  0.00     0.049 A 
ATOM     51  C   UNL A   1      41.342  30.734  35.216  1.00  0.00     0.074 A 
ATOM     52  C   UNL A   1      44.407  26.611  31.514  1.00  0.00     0.029 A 
ATOM     53  N   UNL A   1      42.985  28.106  32.340  1.00  0.00    -0.354 N 
ATOM     54  N   UNL A   1      41.949  29.949  34.361  1.00  0.00    -0.248 NA
ATOM     55  C   UNL A   1      41.961  30.767  36.550  1.00  0.00     0.031 C 
ATOM     56  C   UNL A   1      44.807  26.928  32.817  1.00  0.00     0.029 A 
ATOM     57  C   UNL A   1      43.926  27.867  33.327  1.00  0.00     0.049 A 
ATOM     58  H   UNL A   1      42.223  28.724  32.424  1.00  0.00     0.167 HD
ATOM     59  C   UNL A   1      43.027  29.402  35.049  1.00  0.00     0.074 A 
ATOM     60  C   UNL A   1      43.010  29.974  36.379  1.00  0.00     0.031 C 
ATOM     61  C   UNL A   1      43.931  28.485  34.626  1.00  0.00     0.034 A 
BRANCH  48  62
ATOM     62  C   UNL A   1      42.998  26.509  28.854  1.00  0.00     0.023 A 
ATOM     63  C   UNL A   1      42.416  25.243  28.656  1.00  0.00     0.012 A 
ATOM     64  C   UNL A   1      43.968  26.975  27.942  1.00  0.00     0.148 A 
ATOM     65  C   UNL A   1      42.809  24.441  27.584  1.00  0.00     0.002 A 
ATOM     66  C   UNL A   1      44.324  26.188  26.852  1.00  0.00     0.091 A 
ATOM     67  F   UNL A   1      44.528  28.173  28.160  1.00  0.00    -0.205 F 
ATOM     68  C   UNL A   1      43.752  24.917  26.678  1.00  0.00     0.022 A 
BRANCH  66  69
ATOM     69  S   UNL A   1      45.468  26.755  25.588  1.00  0.00     0.127 S 
ATOM     70  O   UNL A   1      45.795  25.506  24.903  1.00  0.00    -0.237 OA
ATOM     71  O   UNL A   1      44.642  27.680  24.811  1.00  0.00    -0.237 OA
ATOM     72  O   UNL A   1      46.568  27.388  26.305  1.00  0.00    -0.744 OA
ENDBRANCH  66  69
ENDBRANCH  48  62
BRANCH  49  73
ATOM     73  C   UNL A   1      39.616  32.469  36.105  1.00  0.00     0.023 A 
ATOM     74  C   UNL A   1      38.689  31.950  37.027  1.00  0.00     0.012 A 
ATOM     75  C   UNL A   1      40.074  33.792  36.263  1.00  0.00     0.148 A 
ATOM     76  C   UNL A   1      38.208  32.741  38.071  1.00  0.00     0.002 A 
ATOM     77  C   UNL A   1      39.651  34.546  37.351  1.00  0.00     0.091 A 
ATOM     78  F   UNL A   1      40.929  34.286  35.356  1.00  0.00    -0.205 F 
ATOM     79  C   UNL A   1      38.704  34.030  38.246  1.00  0.00     0.022 A 
BRANCH  77  80
ATOM     80  S   UNL A   1      40.386  36.139  37.738  1.00  0.00     0.127 S 
ATOM     81  O   UNL A   1      39.565  36.587  38.858  1.00  0.00    -0.237 OA
ATOM     82  O   UNL A   1      41.758  35.768  38.089  1.00  0.00    -0.237 OA
ATOM     83  O   UNL A   1      40.281  36.915  36.508  1.00  0.00    -0.744 OA
ENDBRANCH  77  80
ENDBRANCH  49  73
BRANCH  61  84
ATOM     84  C   UNL A   1      44.993  28.057  35.603  1.00  0.00     0.023 A 
ATOM     85  C   UNL A   1      46.284  28.612  35.509  1.00  0.00     0.012 A 
ATOM     86  C   UNL A   1      44.698  27.158  36.645  1.00  0.00     0.148 A 
ATOM     87  C   UNL A   1      47.275  28.256  36.422  1.00  0.00     0.002 A 
ATOM     88  C   UNL A   1      45.680  26.837  37.574  1.00  0.00     0.091 A 
ATOM     89  F   UNL A   1      43.469  26.623  36.702  1.00  0.00    -0.205 F 
ATOM     90  C   UNL A   1      46.971  27.378  37.460  1.00  0.00     0.022 A 
BRANCH  88  91
ATOM     91  S   UNL A   1      45.347  25.777  38.986  1.00  0.00     0.127 S 
ATOM     92  O   UNL A   1      46.653  25.732  39.641  1.00  0.00    -0.237 OA
ATOM     93  O   UNL A   1      44.326  26.532  39.714  1.00  0.00    -0.237 OA
ATOM     94  O   UNL A   1      44.877  24.515  38.430  1.00  0.00    -0.744 OA
ENDBRANCH  88  91
ENDBRANCH  61  84
ENDBRANCH  35  36
ENDBRANCH  28  30
ENDBRANCH  27  28
ENDBRANCH  26  27
ENDBRANCH   1  26
TORSDOF 20
ENDMDL
