MODEL 1
REMARK VINA RESULT:     -11.0      0.000      0.000
REMARK SMILES COC(=O)C[C@H](NC(=O)N1CC[N@@H+]2CCC[C@@H]2C1)C(=O)OCCOC(=O)c1ccc(-c2c3nc(c(-c4cccc(S(=O)(=O)[O-])c4F)c4ccc([nH]4)c(-c4cccc(S(=O)(=O)[O-])c4F)c4nc(c(-c5cccc(S(=O)(=O)[O-])c5F)c5ccc2[nH]5)C=C4)C=C3)cc1
REMARK SMILES IDX 22 1 21 2 19 3 20 4 6 5 5 6 3 7 4 8 2 9 1 10 7 11 8 12 9 14
REMARK SMILES IDX 10 15 11 16 18 17 12 18 17 19 13 20 16 21 14 22 15 24 23 25
REMARK SMILES IDX 24 26 25 27 26 28 27 29 28 30 89 31 29 32 88 33 30 34 31 35
REMARK SMILES IDX 32 36 82 37 33 38 87 39 81 40 83 41 34 42 86 43 80 44 79 45
REMARK SMILES IDX 35 47 67 48 47 49 66 50 48 51 51 52 65 53 84 54 49 55 50 56
REMARK SMILES IDX 64 58 85 59 52 60 36 61 37 62 45 63 38 64 40 65 46 66 39 67
REMARK SMILES IDX 41 68 42 69 43 70 44 71 68 72 69 73 77 74 70 75 72 76 78 77
REMARK SMILES IDX 71 78 73 79 74 80 75 81 76 82 53 83 54 84 62 85 55 86 57 87
REMARK SMILES IDX 63 88 56 89 58 90 59 91 60 92 61 93
REMARK H PARENT 7 13 13 23 83 46 51 57
REMARK Flexibility Score: inf
ROOT
ATOM      1  C   UNL A   1      31.779  29.226  26.686  1.00  0.00     0.274 C 
ENDROOT
BRANCH   1   2
ATOM      2  O   UNL A   1      31.786  28.794  25.313  1.00  0.00    -0.461 OA
BRANCH   2   3
ATOM      3  C   UNL A   1      31.174  27.596  25.084  1.00  0.00     0.329 C 
ATOM      4  O   UNL A   1      30.799  26.831  25.967  1.00  0.00    -0.250 OA
BRANCH   3   5
ATOM      5  C   UNL A   1      31.024  27.262  23.592  1.00  0.00     0.204 C 
BRANCH   5   6
ATOM      6  C   UNL A   1      29.618  27.664  23.171  1.00  0.00     0.159 C 
BRANCH   6   7
ATOM      7  C   UNL A   1      29.487  29.034  22.593  1.00  0.00     0.308 C 
ATOM      8  O   UNL A   1      30.227  29.483  21.727  1.00  0.00    -0.252 OA
BRANCH   7   9
ATOM      9  O   UNL A   1      28.398  29.660  23.112  1.00  0.00    -0.469 OA
ATOM     10  C   UNL A   1      27.210  28.873  23.129  1.00  0.00     0.282 C 
ENDBRANCH   7   9
ENDBRANCH   6   7
ENDBRANCH   5   6
BRANCH   5  11
ATOM     11  N   UNL A   1      31.471  25.902  23.291  1.00  0.00    -0.324 N 
ATOM     12  C   UNL A   1      32.815  25.658  23.224  1.00  0.00     0.318 C 
ATOM     13  H   UNL A   1      30.819  25.180  23.141  1.00  0.00     0.166 HD
ATOM     14  O   UNL A   1      33.575  26.515  22.774  1.00  0.00    -0.249 OA
BRANCH  12  15
ATOM     15  N   UNL A   1      33.274  24.484  23.786  1.00  0.00    -0.313 N 
ATOM     16  C   UNL A   1      32.902  23.897  25.076  1.00  0.00     0.183 C 
ATOM     17  C   UNL A   1      34.448  23.904  23.126  1.00  0.00     0.186 C 
ATOM     18  C   UNL A   1      34.116  23.505  25.939  1.00  0.00     0.284 C 
ATOM     19  C   UNL A   1      35.105  22.691  23.818  1.00  0.00     0.204 C 
ATOM     20  N   UNL A   1      35.043  22.576  25.292  1.00  0.00    -0.330 N 
ATOM     21  C   UNL A   1      36.597  22.580  23.463  1.00  0.00     0.073 C 
ATOM     22  C   UNL A   1      36.410  22.686  25.813  1.00  0.00     0.262 C 
ATOM     23  H   UNL A   1      34.649  21.663  25.522  1.00  0.00     0.348 HD
ATOM     24  C   UNL A   1      37.241  22.037  24.724  1.00  0.00     0.068 C 
ENDBRANCH  12  15
ENDBRANCH   5  11
ENDBRANCH   3   5
ENDBRANCH   2   3
ENDBRANCH   1   2
BRANCH   1  25
ATOM     25  C   UNL A   1      31.739  30.751  26.808  1.00  0.00     0.275 C 
BRANCH  25  26
ATOM     26  O   UNL A   1      32.983  31.358  26.416  1.00  0.00    -0.458 OA
BRANCH  26  27
ATOM     27  C   UNL A   1      33.484  32.214  27.337  1.00  0.00     0.338 C 
ATOM     28  O   UNL A   1      33.007  33.278  27.674  1.00  0.00    -0.246 OA
BRANCH  27  29
ATOM     29  C   UNL A   1      34.752  31.761  27.895  1.00  0.00     0.060 A 
ATOM     30  C   UNL A   1      35.826  32.641  28.017  1.00  0.00     0.016 A 
ATOM     31  C   UNL A   1      34.892  30.397  28.155  1.00  0.00     0.016 A 
ATOM     32  C   UNL A   1      37.059  32.150  28.435  1.00  0.00     0.010 A 
ATOM     33  C   UNL A   1      36.108  29.918  28.627  1.00  0.00     0.010 A 
ATOM     34  C   UNL A   1      37.190  30.796  28.789  1.00  0.00    -0.014 A 
BRANCH  34  35
ATOM     35  C   UNL A   1      38.371  30.348  29.555  1.00  0.00     0.031 A 
ATOM     36  C   UNL A   1      39.340  29.350  29.009  1.00  0.00     0.074 A 
ATOM     37  C   UNL A   1      38.473  30.802  30.819  1.00  0.00     0.049 A 
ATOM     38  N   UNL A   1      40.375  28.813  29.600  1.00  0.00    -0.248 NA
ATOM     39  C   UNL A   1      39.119  28.880  27.633  1.00  0.00     0.031 C 
ATOM     40  C   UNL A   1      37.528  31.727  31.455  1.00  0.00     0.029 A 
ATOM     41  N   UNL A   1      39.386  30.533  31.803  1.00  0.00    -0.354 N 
ATOM     42  C   UNL A   1      40.918  27.923  28.684  1.00  0.00     0.074 A 
ATOM     43  C   UNL A   1      40.093  27.987  27.495  1.00  0.00     0.031 C 
ATOM     44  C   UNL A   1      37.906  31.945  32.720  1.00  0.00     0.029 A 
ATOM     45  C   UNL A   1      39.095  31.149  32.996  1.00  0.00     0.049 A 
ATOM     46  H   UNL A   1      40.172  29.956  31.668  1.00  0.00     0.167 HD
ATOM     47  C   UNL A   1      42.013  27.139  28.828  1.00  0.00     0.034 A 
ATOM     48  C   UNL A   1      39.706  31.069  34.192  1.00  0.00     0.034 A 
ATOM     49  C   UNL A   1      42.830  27.110  30.016  1.00  0.00     0.049 A 
ATOM     50  C   UNL A   1      40.935  30.220  34.306  1.00  0.00     0.074 A 
ATOM     51  C   UNL A   1      44.000  26.406  30.239  1.00  0.00     0.029 A 
ATOM     52  N   UNL A   1      42.557  27.810  31.183  1.00  0.00    -0.354 N 
ATOM     53  N   UNL A   1      41.520  29.496  33.384  1.00  0.00    -0.248 NA
ATOM     54  C   UNL A   1      41.607  30.201  35.610  1.00  0.00     0.031 C 
ATOM     55  C   UNL A   1      44.427  26.671  31.546  1.00  0.00     0.029 A 
ATOM     56  C   UNL A   1      43.530  27.548  32.133  1.00  0.00     0.049 A 
ATOM     57  H   UNL A   1      41.785  28.407  31.315  1.00  0.00     0.167 HD
ATOM     58  C   UNL A   1      42.641  28.946  33.987  1.00  0.00     0.074 A 
ATOM     59  C   UNL A   1      42.666  29.446  35.348  1.00  0.00     0.031 C 
ATOM     60  C   UNL A   1      43.555  28.088  33.470  1.00  0.00     0.034 A 
BRANCH  47  61
ATOM     61  C   UNL A   1      42.426  26.282  27.661  1.00  0.00     0.023 A 
ATOM     62  C   UNL A   1      43.343  26.793  26.721  1.00  0.00     0.012 A 
ATOM     63  C   UNL A   1      41.977  24.952  27.534  1.00  0.00     0.148 A 
ATOM     64  C   UNL A   1      43.794  26.003  25.663  1.00  0.00     0.002 A 
ATOM     65  C   UNL A   1      42.455  24.160  26.494  1.00  0.00     0.091 A 
ATOM     66  F   UNL A   1      41.087  24.490  28.422  1.00  0.00    -0.205 F 
ATOM     67  C   UNL A   1      43.358  24.685  25.556  1.00  0.00     0.022 A 
BRANCH  65  68
ATOM     68  S   UNL A   1      42.000  22.430  26.316  1.00  0.00     0.127 S 
ATOM     69  O   UNL A   1      42.571  22.107  25.009  1.00  0.00    -0.237 OA
ATOM     70  O   UNL A   1      42.686  21.807  27.449  1.00  0.00    -0.237 OA
ATOM     71  O   UNL A   1      40.547  22.391  26.397  1.00  0.00    -0.744 OA
ENDBRANCH  65  68
ENDBRANCH  47  61
BRANCH  48  72
ATOM     72  C   UNL A   1      39.188  31.879  35.327  1.00  0.00     0.023 A 
ATOM     73  C   UNL A   1      38.310  31.282  36.249  1.00  0.00     0.012 A 
ATOM     74  C   UNL A   1      39.643  33.193  35.558  1.00  0.00     0.148 A 
ATOM     75  C   UNL A   1      37.883  31.983  37.377  1.00  0.00     0.002 A 
ATOM     76  C   UNL A   1      39.259  33.865  36.713  1.00  0.00     0.091 A 
ATOM     77  F   UNL A   1      40.470  33.749  34.661  1.00  0.00    -0.205 F 
ATOM     78  C   UNL A   1      38.369  33.266  37.617  1.00  0.00     0.022 A 
BRANCH  76  79
ATOM     79  S   UNL A   1      39.970  35.451  37.166  1.00  0.00     0.127 S 
ATOM     80  O   UNL A   1      41.385  35.118  37.306  1.00  0.00    -0.237 OA
ATOM     81  O   UNL A   1      39.645  36.281  36.004  1.00  0.00    -0.237 OA
ATOM     82  O   UNL A   1      39.280  35.846  38.387  1.00  0.00    -0.744 OA
ENDBRANCH  76  79
ENDBRANCH  48  72
BRANCH  60  83
ATOM     83  C   UNL A   1      44.659  27.641  34.385  1.00  0.00     0.023 A 
ATOM     84  C   UNL A   1      45.820  28.430  34.502  1.00  0.00     0.012 A 
ATOM     85  C   UNL A   1      44.530  26.474  35.163  1.00  0.00     0.148 A 
ATOM     86  C   UNL A   1      46.851  28.048  35.359  1.00  0.00     0.002 A 
ATOM     87  C   UNL A   1      45.545  26.122  36.045  1.00  0.00     0.091 A 
ATOM     88  F   UNL A   1      43.428  25.723  35.017  1.00  0.00    -0.205 F 
ATOM     89  C   UNL A   1      46.709  26.902  36.137  1.00  0.00     0.022 A 
BRANCH  87  90
ATOM     90  S   UNL A   1      45.405  24.706  37.140  1.00  0.00     0.127 S 
ATOM     91  O   UNL A   1      46.637  24.806  37.919  1.00  0.00    -0.237 OA
ATOM     92  O   UNL A   1      44.183  25.007  37.889  1.00  0.00    -0.237 OA
ATOM     93  O   UNL A   1      45.301  23.542  36.269  1.00  0.00    -0.744 OA
ENDBRANCH  87  90
ENDBRANCH  60  83
ENDBRANCH  34  35
ENDBRANCH  27  29
ENDBRANCH  26  27
ENDBRANCH  25  26
ENDBRANCH   1  25
TORSDOF 19
ENDMDL
MODEL 2
REMARK VINA RESULT:     -10.7      5.121      7.933
REMARK SMILES COC(=O)C[C@H](NC(=O)N1CC[N@@H+]2CCC[C@@H]2C1)C(=O)OCCOC(=O)c1ccc(-c2c3nc(c(-c4cccc(S(=O)(=O)[O-])c4F)c4ccc([nH]4)c(-c4cccc(S(=O)(=O)[O-])c4F)c4nc(c(-c5cccc(S(=O)(=O)[O-])c5F)c5ccc2[nH]5)C=C4)C=C3)cc1
REMARK SMILES IDX 22 1 21 2 19 3 20 4 6 5 5 6 3 7 4 8 2 9 1 10 7 11 8 12 9 14
REMARK SMILES IDX 10 15 11 16 18 17 12 18 17 19 13 20 16 21 14 22 15 24 23 25
REMARK SMILES IDX 24 26 25 27 26 28 27 29 28 30 89 31 29 32 88 33 30 34 31 35
REMARK SMILES IDX 32 36 82 37 33 38 87 39 81 40 83 41 34 42 86 43 80 44 79 45
REMARK SMILES IDX 35 47 67 48 47 49 66 50 48 51 51 52 65 53 84 54 49 55 50 56
REMARK SMILES IDX 64 58 85 59 52 60 36 61 37 62 45 63 38 64 40 65 46 66 39 67
REMARK SMILES IDX 41 68 42 69 43 70 44 71 68 72 69 73 77 74 70 75 72 76 78 77
REMARK SMILES IDX 71 78 73 79 74 80 75 81 76 82 53 83 54 84 62 85 55 86 57 87
REMARK SMILES IDX 63 88 56 89 58 90 59 91 60 92 61 93
REMARK H PARENT 7 13 13 23 83 46 51 57
REMARK Flexibility Score: inf
ROOT
ATOM      1  C   UNL A   1      36.866  22.734  23.987  1.00  0.00     0.274 C 
ENDROOT
BRANCH   1   2
ATOM      2  O   UNL A   1      35.803  22.570  23.031  1.00  0.00    -0.461 OA
BRANCH   2   3
ATOM      3  C   UNL A   1      34.670  23.282  23.301  1.00  0.00     0.329 C 
ATOM      4  O   UNL A   1      34.379  24.346  22.763  1.00  0.00    -0.250 OA
BRANCH   3   5
ATOM      5  C   UNL A   1      33.791  22.644  24.386  1.00  0.00     0.204 C 
BRANCH   5   6
ATOM      6  C   UNL A   1      33.774  21.142  24.138  1.00  0.00     0.159 C 
BRANCH   6   7
ATOM      7  C   UNL A   1      32.437  20.487  24.252  1.00  0.00     0.308 C 
ATOM      8  O   UNL A   1      31.679  20.644  25.201  1.00  0.00    -0.252 OA
BRANCH   7   9
ATOM      9  O   UNL A   1      32.168  19.770  23.129  1.00  0.00    -0.469 OA
ATOM     10  C   UNL A   1      32.475  18.381  23.222  1.00  0.00     0.282 C 
ENDBRANCH   7   9
ENDBRANCH   6   7
ENDBRANCH   5   6
BRANCH   5  11
ATOM     11  N   UNL A   1      32.510  23.334  24.524  1.00  0.00    -0.324 N 
ATOM     12  C   UNL A   1      32.298  24.099  25.638  1.00  0.00     0.318 C 
ATOM     13  H   UNL A   1      31.815  23.249  23.831  1.00  0.00     0.166 HD
ATOM     14  O   UNL A   1      32.767  23.753  26.722  1.00  0.00    -0.249 OA
BRANCH  12  15
ATOM     15  N   UNL A   1      31.657  25.309  25.463  1.00  0.00    -0.313 N 
ATOM     16  C   UNL A   1      31.009  25.818  24.251  1.00  0.00     0.183 C 
ATOM     17  C   UNL A   1      31.879  26.283  26.536  1.00  0.00     0.186 C 
ATOM     18  C   UNL A   1      31.457  27.242  23.874  1.00  0.00     0.284 C 
ATOM     19  C   UNL A   1      31.330  27.708  26.304  1.00  0.00     0.204 C 
ATOM     20  N   UNL A   1      31.251  28.239  24.926  1.00  0.00    -0.330 N 
ATOM     21  C   UNL A   1      32.127  28.754  27.100  1.00  0.00     0.073 C 
ATOM     22  C   UNL A   1      32.180  29.370  24.823  1.00  0.00     0.262 C 
ATOM     23  H   UNL A   1      30.294  28.551  24.761  1.00  0.00     0.348 HD
ATOM     24  C   UNL A   1      32.125  29.981  26.209  1.00  0.00     0.068 C 
ENDBRANCH  12  15
ENDBRANCH   5  11
ENDBRANCH   3   5
ENDBRANCH   2   3
ENDBRANCH   1   2
BRANCH   1  25
ATOM     25  C   UNL A   1      37.375  21.391  24.517  1.00  0.00     0.275 C 
BRANCH  25  26
ATOM     26  O   UNL A   1      37.715  21.455  25.913  1.00  0.00    -0.458 OA
BRANCH  26  27
ATOM     27  C   UNL A   1      39.044  21.382  26.153  1.00  0.00     0.338 C 
ATOM     28  O   UNL A   1      39.745  20.395  26.063  1.00  0.00    -0.246 OA
BRANCH  27  29
ATOM     29  C   UNL A   1      39.604  22.648  26.609  1.00  0.00     0.060 A 
ATOM     30  C   UNL A   1      40.679  22.668  27.496  1.00  0.00     0.016 A 
ATOM     31  C   UNL A   1      38.934  23.817  26.247  1.00  0.00     0.016 A 
ATOM     32  C   UNL A   1      41.109  23.887  28.010  1.00  0.00     0.010 A 
ATOM     33  C   UNL A   1      39.400  25.039  26.716  1.00  0.00     0.010 A 
ATOM     34  C   UNL A   1      40.503  25.080  27.582  1.00  0.00    -0.014 A 
BRANCH  34  35
ATOM     35  C   UNL A   1      41.167  26.375  27.840  1.00  0.00     0.031 A 
ATOM     36  C   UNL A   1      42.587  26.631  27.453  1.00  0.00     0.074 A 
ATOM     37  C   UNL A   1      40.460  27.280  28.543  1.00  0.00     0.049 A 
ATOM     38  N   UNL A   1      43.315  27.691  27.685  1.00  0.00    -0.248 NA
ATOM     39  C   UNL A   1      43.289  25.563  26.725  1.00  0.00     0.031 C 
ATOM     40  C   UNL A   1      39.088  27.081  29.023  1.00  0.00     0.029 A 
ATOM     41  N   UNL A   1      40.795  28.525  29.006  1.00  0.00    -0.354 N 
ATOM     42  C   UNL A   1      44.570  27.416  27.158  1.00  0.00     0.074 A 
ATOM     43  C   UNL A   1      44.506  26.082  26.596  1.00  0.00     0.031 C 
ATOM     44  C   UNL A   1      38.700  28.161  29.713  1.00  0.00     0.029 A 
ATOM     45  C   UNL A   1      39.804  29.109  29.757  1.00  0.00     0.049 A 
ATOM     46  H   UNL A   1      41.659  28.957  28.817  1.00  0.00     0.167 HD
ATOM     47  C   UNL A   1      45.663  28.215  27.139  1.00  0.00     0.034 A 
ATOM     48  C   UNL A   1      39.791  30.275  30.428  1.00  0.00     0.034 A 
ATOM     49  C   UNL A   1      45.693  29.548  27.687  1.00  0.00     0.049 A 
ATOM     50  C   UNL A   1      41.004  31.151  30.356  1.00  0.00     0.074 A 
ATOM     51  C   UNL A   1      46.726  30.468  27.656  1.00  0.00     0.029 A 
ATOM     52  N   UNL A   1      44.645  30.148  28.371  1.00  0.00    -0.354 N 
ATOM     53  N   UNL A   1      42.135  30.936  29.728  1.00  0.00    -0.248 NA
ATOM     54  C   UNL A   1      40.934  32.440  31.053  1.00  0.00     0.031 C 
ATOM     55  C   UNL A   1      46.306  31.619  28.334  1.00  0.00     0.029 A 
ATOM     56  C   UNL A   1      45.008  31.421  28.777  1.00  0.00     0.049 A 
ATOM     57  H   UNL A   1      43.770  29.729  28.542  1.00  0.00     0.167 HD
ATOM     58  C   UNL A   1      42.907  32.069  29.937  1.00  0.00     0.074 A 
ATOM     59  C   UNL A   1      42.101  32.979  30.727  1.00  0.00     0.031 C 
ATOM     60  C   UNL A   1      44.175  32.324  29.531  1.00  0.00     0.034 A 
BRANCH  47  61
ATOM     61  C   UNL A   1      46.905  27.696  26.464  1.00  0.00     0.023 A 
ATOM     62  C   UNL A   1      47.818  26.918  27.203  1.00  0.00     0.012 A 
ATOM     63  C   UNL A   1      47.131  27.904  25.089  1.00  0.00     0.148 A 
ATOM     64  C   UNL A   1      48.945  26.370  26.591  1.00  0.00     0.002 A 
ATOM     65  C   UNL A   1      48.241  27.328  24.478  1.00  0.00     0.091 A 
ATOM     66  F   UNL A   1      46.266  28.667  24.406  1.00  0.00    -0.205 F 
ATOM     67  C   UNL A   1      49.151  26.566  25.228  1.00  0.00     0.022 A 
BRANCH  65  68
ATOM     68  S   UNL A   1      48.552  27.472  22.713  1.00  0.00     0.127 S 
ATOM     69  O   UNL A   1      47.399  28.256  22.272  1.00  0.00    -0.237 OA
ATOM     70  O   UNL A   1      49.826  28.191  22.677  1.00  0.00    -0.237 OA
ATOM     71  O   UNL A   1      48.617  26.107  22.209  1.00  0.00    -0.744 OA
ENDBRANCH  65  68
ENDBRANCH  47  61
BRANCH  48  72
ATOM     72  C   UNL A   1      38.555  30.684  31.147  1.00  0.00     0.023 A 
ATOM     73  C   UNL A   1      38.499  30.543  32.546  1.00  0.00     0.012 A 
ATOM     74  C   UNL A   1      37.486  31.307  30.474  1.00  0.00     0.148 A 
ATOM     75  C   UNL A   1      37.394  31.006  33.260  1.00  0.00     0.002 A 
ATOM     76  C   UNL A   1      36.415  31.818  31.197  1.00  0.00     0.091 A 
ATOM     77  F   UNL A   1      37.553  31.421  29.139  1.00  0.00    -0.205 F 
ATOM     78  C   UNL A   1      36.361  31.656  32.590  1.00  0.00     0.022 A 
BRANCH  76  79
ATOM     79  S   UNL A   1      35.131  32.805  30.420  1.00  0.00     0.127 S 
ATOM     80  O   UNL A   1      34.241  33.080  31.544  1.00  0.00    -0.237 OA
ATOM     81  O   UNL A   1      35.882  33.964  29.932  1.00  0.00    -0.237 OA
ATOM     82  O   UNL A   1      34.588  31.964  29.362  1.00  0.00    -0.744 OA
ENDBRANCH  76  79
ENDBRANCH  48  72
BRANCH  60  83
ATOM     83  C   UNL A   1      44.763  33.646  29.937  1.00  0.00     0.023 A 
ATOM     84  C   UNL A   1      45.489  33.736  31.141  1.00  0.00     0.012 A 
ATOM     85  C   UNL A   1      44.642  34.780  29.111  1.00  0.00     0.148 A 
ATOM     86  C   UNL A   1      46.062  34.946  31.532  1.00  0.00     0.002 A 
ATOM     87  C   UNL A   1      45.251  35.971  29.488  1.00  0.00     0.091 A 
ATOM     88  F   UNL A   1      43.925  34.678  27.982  1.00  0.00    -0.205 F 
ATOM     89  C   UNL A   1      45.952  36.058  30.701  1.00  0.00     0.022 A 
BRANCH  87  90
ATOM     90  S   UNL A   1      45.224  37.427  28.437  1.00  0.00     0.127 S 
ATOM     91  O   UNL A   1      43.795  37.723  28.372  1.00  0.00    -0.237 OA
ATOM     92  O   UNL A   1      46.011  38.388  29.212  1.00  0.00    -0.237 OA
ATOM     93  O   UNL A   1      45.843  37.020  27.182  1.00  0.00    -0.744 OA
ENDBRANCH  87  90
ENDBRANCH  60  83
ENDBRANCH  34  35
ENDBRANCH  27  29
ENDBRANCH  26  27
ENDBRANCH  25  26
ENDBRANCH   1  25
TORSDOF 19
ENDMDL
MODEL 3
REMARK VINA RESULT:     -10.7      1.627      1.978
REMARK SMILES COC(=O)C[C@H](NC(=O)N1CC[N@@H+]2CCC[C@@H]2C1)C(=O)OCCOC(=O)c1ccc(-c2c3nc(c(-c4cccc(S(=O)(=O)[O-])c4F)c4ccc([nH]4)c(-c4cccc(S(=O)(=O)[O-])c4F)c4nc(c(-c5cccc(S(=O)(=O)[O-])c5F)c5ccc2[nH]5)C=C4)C=C3)cc1
REMARK SMILES IDX 22 1 21 2 19 3 20 4 6 5 5 6 3 7 4 8 2 9 1 10 7 11 8 12 9 14
REMARK SMILES IDX 10 15 11 16 18 17 12 18 17 19 13 20 16 21 14 22 15 24 23 25
REMARK SMILES IDX 24 26 25 27 26 28 27 29 28 30 89 31 29 32 88 33 30 34 31 35
REMARK SMILES IDX 32 36 82 37 33 38 87 39 81 40 83 41 34 42 86 43 80 44 79 45
REMARK SMILES IDX 35 47 67 48 47 49 66 50 48 51 51 52 65 53 84 54 49 55 50 56
REMARK SMILES IDX 64 58 85 59 52 60 36 61 37 62 45 63 38 64 40 65 46 66 39 67
REMARK SMILES IDX 41 68 42 69 43 70 44 71 68 72 69 73 77 74 70 75 72 76 78 77
REMARK SMILES IDX 71 78 73 79 74 80 75 81 76 82 53 83 54 84 62 85 55 86 57 87
REMARK SMILES IDX 63 88 56 89 58 90 59 91 60 92 61 93
REMARK H PARENT 7 13 13 23 83 46 51 57
REMARK Flexibility Score: inf
ROOT
ATOM      1  C   UNL A   1      31.838  28.640  26.595  1.00  0.00     0.274 C 
ENDROOT
BRANCH   1   2
ATOM      2  O   UNL A   1      30.843  28.242  25.634  1.00  0.00    -0.461 OA
BRANCH   2   3
ATOM      3  C   UNL A   1      31.332  27.892  24.410  1.00  0.00     0.329 C 
ATOM      4  O   UNL A   1      32.496  28.059  24.058  1.00  0.00    -0.250 OA
BRANCH   3   5
ATOM      5  C   UNL A   1      30.271  27.293  23.475  1.00  0.00     0.204 C 
BRANCH   5   6
ATOM      6  C   UNL A   1      29.176  28.335  23.299  1.00  0.00     0.159 C 
BRANCH   6   7
ATOM      7  C   UNL A   1      29.608  29.626  22.687  1.00  0.00     0.308 C 
ATOM      8  O   UNL A   1      30.048  29.728  21.549  1.00  0.00    -0.252 OA
BRANCH   7   9
ATOM      9  O   UNL A   1      29.370  30.654  23.543  1.00  0.00    -0.469 OA
ATOM     10  C   UNL A   1      28.111  31.297  23.366  1.00  0.00     0.282 C 
ENDBRANCH   7   9
ENDBRANCH   6   7
ENDBRANCH   5   6
BRANCH   5  11
ATOM     11  N   UNL A   1      29.881  25.946  23.887  1.00  0.00    -0.324 N 
ATOM     12  C   UNL A   1      30.721  24.906  23.596  1.00  0.00     0.318 C 
ATOM     13  H   UNL A   1      29.033  25.791  24.362  1.00  0.00     0.166 HD
ATOM     14  O   UNL A   1      31.369  24.911  22.549  1.00  0.00    -0.249 OA
BRANCH  12  15
ATOM     15  N   UNL A   1      30.895  23.942  24.568  1.00  0.00    -0.313 N 
ATOM     16  C   UNL A   1      30.497  24.000  25.977  1.00  0.00     0.183 C 
ATOM     17  C   UNL A   1      31.805  22.853  24.198  1.00  0.00     0.186 C 
ATOM     18  C   UNL A   1      31.632  23.625  26.947  1.00  0.00     0.284 C 
ATOM     19  C   UNL A   1      32.169  21.845  25.309  1.00  0.00     0.204 C 
ATOM     20  N   UNL A   1      32.212  22.301  26.716  1.00  0.00    -0.330 N 
ATOM     21  C   UNL A   1      33.537  21.193  25.051  1.00  0.00     0.073 C 
ATOM     22  C   UNL A   1      33.598  22.201  27.182  1.00  0.00     0.262 C 
ATOM     23  H   UNL A   1      31.608  21.689  27.265  1.00  0.00     0.348 HD
ATOM     24  C   UNL A   1      34.122  20.991  26.435  1.00  0.00     0.068 C 
ENDBRANCH  12  15
ENDBRANCH   5  11
ENDBRANCH   3   5
ENDBRANCH   2   3
ENDBRANCH   1   2
BRANCH   1  25
ATOM     25  C   UNL A   1      31.853  30.155  26.813  1.00  0.00     0.275 C 
BRANCH  25  26
ATOM     26  O   UNL A   1      33.120  30.738  26.461  1.00  0.00    -0.458 OA
BRANCH  26  27
ATOM     27  C   UNL A   1      33.589  31.615  27.379  1.00  0.00     0.338 C 
ATOM     28  O   UNL A   1      33.044  32.633  27.756  1.00  0.00    -0.246 OA
BRANCH  27  29
ATOM     29  C   UNL A   1      34.908  31.254  27.880  1.00  0.00     0.060 A 
ATOM     30  C   UNL A   1      35.897  32.225  28.035  1.00  0.00     0.016 A 
ATOM     31  C   UNL A   1      35.185  29.897  28.050  1.00  0.00     0.016 A 
ATOM     32  C   UNL A   1      37.182  31.831  28.395  1.00  0.00     0.010 A 
ATOM     33  C   UNL A   1      36.453  29.509  28.464  1.00  0.00     0.010 A 
ATOM     34  C   UNL A   1      37.450  30.477  28.659  1.00  0.00    -0.014 A 
BRANCH  34  35
ATOM     35  C   UNL A   1      38.690  30.099  29.370  1.00  0.00     0.031 A 
ATOM     36  C   UNL A   1      39.632  29.072  28.831  1.00  0.00     0.074 A 
ATOM     37  C   UNL A   1      38.875  30.649  30.585  1.00  0.00     0.049 A 
ATOM     38  N   UNL A   1      40.715  28.591  29.385  1.00  0.00    -0.248 NA
ATOM     39  C   UNL A   1      39.321  28.497  27.514  1.00  0.00     0.031 C 
ATOM     40  C   UNL A   1      37.963  31.609  31.216  1.00  0.00     0.029 A 
ATOM     41  N   UNL A   1      39.859  30.464  31.519  1.00  0.00    -0.354 N 
ATOM     42  C   UNL A   1      41.205  27.639  28.501  1.00  0.00     0.074 A 
ATOM     43  C   UNL A   1      40.296  27.606  27.373  1.00  0.00     0.031 C 
ATOM     44  C   UNL A   1      38.427  31.926  32.431  1.00  0.00     0.029 A 
ATOM     45  C   UNL A   1      39.644  31.165  32.680  1.00  0.00     0.049 A 
ATOM     46  H   UNL A   1      40.642  29.886  31.371  1.00  0.00     0.167 HD
ATOM     47  C   UNL A   1      42.318  26.879  28.625  1.00  0.00     0.034 A 
ATOM     48  C   UNL A   1      40.340  31.182  33.831  1.00  0.00     0.034 A 
ATOM     49  C   UNL A   1      43.218  26.948  29.749  1.00  0.00     0.049 A 
ATOM     50  C   UNL A   1      41.586  30.356  33.920  1.00  0.00     0.074 A 
ATOM     51  C   UNL A   1      44.411  26.273  29.940  1.00  0.00     0.029 A 
ATOM     52  N   UNL A   1      43.018  27.732  30.877  1.00  0.00    -0.354 N 
ATOM     53  N   UNL A   1      42.115  29.569  33.015  1.00  0.00    -0.248 NA
ATOM     54  C   UNL A   1      42.350  30.441  35.170  1.00  0.00     0.031 C 
ATOM     55  C   UNL A   1      44.926  26.641  31.189  1.00  0.00     0.029 A 
ATOM     56  C   UNL A   1      44.059  27.551  31.772  1.00  0.00     0.049 A 
ATOM     57  H   UNL A   1      42.249  28.329  31.020  1.00  0.00     0.167 HD
ATOM     58  C   UNL A   1      43.284  29.077  33.575  1.00  0.00     0.074 A 
ATOM     59  C   UNL A   1      43.398  29.679  34.890  1.00  0.00     0.031 C 
ATOM     60  C   UNL A   1      44.171  28.191  33.059  1.00  0.00     0.034 A 
BRANCH  47  61
ATOM     61  C   UNL A   1      42.660  25.940  27.498  1.00  0.00     0.023 A 
ATOM     62  C   UNL A   1      43.546  26.368  26.488  1.00  0.00     0.012 A 
ATOM     63  C   UNL A   1      42.177  24.617  27.476  1.00  0.00     0.148 A 
ATOM     64  C   UNL A   1      43.931  25.501  25.465  1.00  0.00     0.002 A 
ATOM     65  C   UNL A   1      42.590  23.749  26.470  1.00  0.00     0.091 A 
ATOM     66  F   UNL A   1      41.317  24.233  28.430  1.00  0.00    -0.205 F 
ATOM     67  C   UNL A   1      43.462  24.191  25.462  1.00  0.00     0.022 A 
BRANCH  65  68
ATOM     68  S   UNL A   1      42.090  22.022  26.422  1.00  0.00     0.127 S 
ATOM     69  O   UNL A   1      42.483  21.563  27.753  1.00  0.00    -0.237 OA
ATOM     70  O   UNL A   1      40.645  22.120  26.215  1.00  0.00    -0.237 OA
ATOM     71  O   UNL A   1      42.819  21.429  25.309  1.00  0.00    -0.744 OA
ENDBRANCH  65  68
ENDBRANCH  47  61
BRANCH  48  72
ATOM     72  C   UNL A   1      39.892  32.070  34.937  1.00  0.00     0.023 A 
ATOM     73  C   UNL A   1      40.105  33.457  34.830  1.00  0.00     0.012 A 
ATOM     74  C   UNL A   1      39.164  31.567  36.033  1.00  0.00     0.148 A 
ATOM     75  C   UNL A   1      39.612  34.327  35.802  1.00  0.00     0.002 A 
ATOM     76  C   UNL A   1      38.626  32.444  36.968  1.00  0.00     0.091 A 
ATOM     77  F   UNL A   1      38.982  30.242  36.123  1.00  0.00    -0.205 F 
ATOM     78  C   UNL A   1      38.860  33.823  36.861  1.00  0.00     0.022 A 
BRANCH  76  79
ATOM     79  S   UNL A   1      37.516  31.883  38.264  1.00  0.00     0.127 S 
ATOM     80  O   UNL A   1      36.393  32.805  38.119  1.00  0.00    -0.237 OA
ATOM     81  O   UNL A   1      37.236  30.504  37.859  1.00  0.00    -0.237 OA
ATOM     82  O   UNL A   1      38.281  31.994  39.499  1.00  0.00    -0.744 OA
ENDBRANCH  76  79
ENDBRANCH  48  72
BRANCH  60  83
ATOM     83  C   UNL A   1      45.345  27.825  33.924  1.00  0.00     0.023 A 
ATOM     84  C   UNL A   1      46.523  28.593  33.848  1.00  0.00     0.012 A 
ATOM     85  C   UNL A   1      45.266  26.759  34.841  1.00  0.00     0.148 A 
ATOM     86  C   UNL A   1      47.619  28.286  34.653  1.00  0.00     0.002 A 
ATOM     87  C   UNL A   1      46.348  26.486  35.669  1.00  0.00     0.091 A 
ATOM     88  F   UNL A   1      44.144  26.025  34.878  1.00  0.00    -0.205 F 
ATOM     89  C   UNL A   1      47.528  27.242  35.570  1.00  0.00     0.022 A 
BRANCH  87  90
ATOM     90  S   UNL A   1      46.283  25.210  36.931  1.00  0.00     0.127 S 
ATOM     91  O   UNL A   1      45.607  24.124  36.224  1.00  0.00    -0.237 OA
ATOM     92  O   UNL A   1      47.700  24.968  37.208  1.00  0.00    -0.237 OA
ATOM     93  O   UNL A   1      45.546  25.793  38.044  1.00  0.00    -0.744 OA
ENDBRANCH  87  90
ENDBRANCH  60  83
ENDBRANCH  34  35
ENDBRANCH  27  29
ENDBRANCH  26  27
ENDBRANCH  25  26
ENDBRANCH   1  25
TORSDOF 19
ENDMDL
