MODEL 1
REMARK VINA RESULT:     -11.8      0.000      0.000
REMARK SMILES COc1cc2c(cc1OC)[C@@H](CC(=O)OCCOC(=O)c1ccc(-c3c4nc(c(-c5cccc(S(=O)(=O)[O-])c5F)c5ccc([nH]5)c(-c5cccc(S(=O)(=O)[O-])c5F)c5nc(c(-c6cccc(S(=O)(=O)[O-])c6F)c6ccc3[nH]6)C=C5)C=C4)cc1)N(C(=O)Nc1ccc(Cl)cc1)CC2
REMARK SMILES IDX 16 1 15 2 13 3 14 4 12 5 11 6 3 7 4 8 8 9 5 10 7 11 6 12
REMARK SMILES IDX 96 13 95 14 84 15 2 16 1 17 9 18 10 19 85 20 86 21 87 22
REMARK SMILES IDX 88 24 89 25 94 26 90 27 93 28 91 29 92 30 17 31 18 32 19 33
REMARK SMILES IDX 20 34 21 35 22 36 83 37 23 38 82 39 24 40 25 41 26 42 76 43
REMARK SMILES IDX 27 44 81 45 75 46 77 47 28 48 80 49 74 50 73 51 29 53 61 54
REMARK SMILES IDX 41 55 60 56 42 57 45 58 59 59 78 60 43 61 44 62 58 64 79 65
REMARK SMILES IDX 46 66 30 67 31 68 39 69 32 70 34 71 40 72 33 73 35 74 36 75
REMARK SMILES IDX 37 76 38 77 62 78 63 79 71 80 64 81 66 82 72 83 65 84 67 85
REMARK SMILES IDX 68 86 69 87 70 88 47 89 48 90 56 91 49 92 51 93 57 94 50 95
REMARK SMILES IDX 52 96 53 97 54 98 55 99
REMARK H PARENT 87 23 77 52 45 63
REMARK Flexibility Score: inf
ROOT
ATOM      1  C   UNL A   1      31.614  31.596  26.783  1.00  0.00     0.274 C 
ENDROOT
BRANCH   1   2
ATOM      2  O   UNL A   1      32.903  30.952  26.795  1.00  0.00    -0.462 OA
BRANCH   2   3
ATOM      3  C   UNL A   1      32.949  29.673  26.357  1.00  0.00     0.308 C 
ATOM      4  O   UNL A   1      33.986  29.027  26.218  1.00  0.00    -0.252 OA
BRANCH   3   5
ATOM      5  C   UNL A   1      31.602  29.054  26.051  1.00  0.00     0.152 C 
BRANCH   5   6
ATOM      6  C   UNL A   1      31.362  28.391  24.675  1.00  0.00     0.128 C 
ATOM      7  C   UNL A   1      28.622  30.571  22.020  1.00  0.00     0.161 A 
ATOM      8  C   UNL A   1      29.130  29.321  21.676  1.00  0.00     0.054 A 
ATOM      9  C   UNL A   1      29.003  31.174  23.224  1.00  0.00     0.161 A 
ATOM     10  C   UNL A   1      30.013  28.661  22.537  1.00  0.00    -0.037 A 
ATOM     11  C   UNL A   1      29.883  30.493  24.087  1.00  0.00     0.056 A 
ATOM     12  C   UNL A   1      30.397  29.220  23.772  1.00  0.00    -0.018 A 
ATOM     13  C   UNL A   1      30.513  27.289  22.211  1.00  0.00     0.057 C 
ATOM     14  C   UNL A   1      30.302  26.439  23.454  1.00  0.00     0.127 C 
ATOM     15  N   UNL A   1      30.989  26.923  24.657  1.00  0.00    -0.317 N 
BRANCH   7  16
ATOM     16  O   UNL A   1      27.667  31.074  21.173  1.00  0.00    -0.493 OA
ATOM     17  C   UNL A   1      28.208  31.979  20.214  1.00  0.00     0.278 C 
ENDBRANCH   7  16
BRANCH   9  18
ATOM     18  O   UNL A   1      28.427  32.384  23.521  1.00  0.00    -0.493 OA
ATOM     19  C   UNL A   1      29.216  33.548  23.302  1.00  0.00     0.278 C 
ENDBRANCH   9  18
BRANCH  15  20
ATOM     20  C   UNL A   1      31.165  26.140  25.774  1.00  0.00     0.322 C 
ATOM     21  O   UNL A   1      30.252  25.867  26.558  1.00  0.00    -0.248 OA
ATOM     22  N   UNL A   1      32.400  25.709  26.172  1.00  0.00    -0.308 N 
ATOM     23  H   UNL A   1      32.619  25.847  27.121  1.00  0.00     0.171 HD
BRANCH  22  24
ATOM     24  C   UNL A   1      33.389  25.096  25.400  1.00  0.00     0.042 A 
ATOM     25  C   UNL A   1      34.443  24.469  26.064  1.00  0.00     0.028 A 
ATOM     26  C   UNL A   1      33.354  25.150  24.005  1.00  0.00     0.028 A 
ATOM     27  C   UNL A   1      35.416  23.794  25.329  1.00  0.00     0.022 A 
ATOM     28  C   UNL A   1      34.319  24.456  23.271  1.00  0.00     0.022 A 
ATOM     29  C   UNL A   1      35.336  23.770  23.938  1.00  0.00     0.041 A 
ATOM     30  Cl  UNL A   1      36.494  22.871  23.039  1.00  0.00    -0.084 Cl
ENDBRANCH  22  24
ENDBRANCH  15  20
ENDBRANCH   5   6
ENDBRANCH   3   5
ENDBRANCH   2   3
ENDBRANCH   1   2
BRANCH   1  31
ATOM     31  C   UNL A   1      31.774  33.110  26.906  1.00  0.00     0.275 C 
BRANCH  31  32
ATOM     32  O   UNL A   1      33.161  33.467  27.029  1.00  0.00    -0.458 OA
BRANCH  32  33
ATOM     33  C   UNL A   1      33.502  34.026  28.210  1.00  0.00     0.338 C 
ATOM     34  O   UNL A   1      32.873  34.863  28.849  1.00  0.00    -0.246 OA
BRANCH  33  35
ATOM     35  C   UNL A   1      34.702  33.364  28.733  1.00  0.00     0.060 A 
ATOM     36  C   UNL A   1      34.532  32.206  29.500  1.00  0.00     0.016 A 
ATOM     37  C   UNL A   1      35.972  33.902  28.520  1.00  0.00     0.016 A 
ATOM     38  C   UNL A   1      35.637  31.585  30.073  1.00  0.00     0.010 A 
ATOM     39  C   UNL A   1      37.078  33.282  29.100  1.00  0.00     0.010 A 
ATOM     40  C   UNL A   1      36.914  32.132  29.893  1.00  0.00    -0.014 A 
BRANCH  40  41
ATOM     41  C   UNL A   1      38.075  31.538  30.591  1.00  0.00     0.031 A 
ATOM     42  C   UNL A   1      38.898  30.492  29.898  1.00  0.00     0.074 A 
ATOM     43  C   UNL A   1      38.373  31.926  31.844  1.00  0.00     0.049 A 
ATOM     44  N   UNL A   1      39.909  29.802  30.353  1.00  0.00    -0.248 NA
ATOM     45  C   UNL A   1      38.533  30.179  28.506  1.00  0.00     0.031 C 
ATOM     46  C   UNL A   1      37.641  32.935  32.610  1.00  0.00     0.029 A 
ATOM     47  N   UNL A   1      39.354  31.499  32.701  1.00  0.00    -0.354 N 
ATOM     48  C   UNL A   1      40.279  28.947  29.323  1.00  0.00     0.074 A 
ATOM     49  C   UNL A   1      39.380  29.203  28.218  1.00  0.00     0.031 C 
ATOM     50  C   UNL A   1      38.187  33.035  33.833  1.00  0.00     0.029 A 
ATOM     51  C   UNL A   1      39.284  32.077  33.946  1.00  0.00     0.049 A 
ATOM     52  H   UNL A   1      40.043  30.842  32.448  1.00  0.00     0.167 HD
ATOM     53  C   UNL A   1      41.284  28.040  29.297  1.00  0.00     0.034 A 
ATOM     54  C   UNL A   1      40.009  31.842  35.057  1.00  0.00     0.034 A 
ATOM     55  C   UNL A   1      42.190  27.813  30.390  1.00  0.00     0.049 A 
ATOM     56  C   UNL A   1      41.117  30.823  35.002  1.00  0.00     0.074 A 
ATOM     57  C   UNL A   1      43.267  26.947  30.450  1.00  0.00     0.029 A 
ATOM     58  N   UNL A   1      42.123  28.455  31.618  1.00  0.00    -0.354 N 
ATOM     59  N   UNL A   1      41.520  30.096  33.988  1.00  0.00    -0.248 NA
ATOM     60  C   UNL A   1      41.886  30.612  36.235  1.00  0.00     0.031 C 
ATOM     61  C   UNL A   1      43.844  27.056  31.721  1.00  0.00     0.029 A 
ATOM     62  C   UNL A   1      43.136  28.001  32.446  1.00  0.00     0.049 A 
ATOM     63  H   UNL A   1      41.453  29.133  31.864  1.00  0.00     0.167 HD
ATOM     64  C   UNL A   1      42.608  29.364  34.450  1.00  0.00     0.074 A 
ATOM     65  C   UNL A   1      42.813  29.754  35.831  1.00  0.00     0.031 C 
ATOM     66  C   UNL A   1      43.358  28.442  33.799  1.00  0.00     0.034 A 
BRANCH  53  67
ATOM     67  C   UNL A   1      41.474  27.248  28.031  1.00  0.00     0.023 A 
ATOM     68  C   UNL A   1      42.010  27.880  26.891  1.00  0.00     0.012 A 
ATOM     69  C   UNL A   1      41.165  25.875  27.979  1.00  0.00     0.148 A 
ATOM     70  C   UNL A   1      42.208  27.165  25.710  1.00  0.00     0.002 A 
ATOM     71  C   UNL A   1      41.401  25.161  26.811  1.00  0.00     0.091 A 
ATOM     72  F   UNL A   1      40.630  25.298  29.066  1.00  0.00    -0.205 F 
ATOM     73  C   UNL A   1      41.914  25.806  25.674  1.00  0.00     0.022 A 
BRANCH  71  74
ATOM     74  S   UNL A   1      41.114  23.391  26.688  1.00  0.00     0.127 S 
ATOM     75  O   UNL A   1      39.666  23.340  26.491  1.00  0.00    -0.237 OA
ATOM     76  O   UNL A   1      41.901  23.030  25.509  1.00  0.00    -0.237 OA
ATOM     77  O   UNL A   1      41.600  22.822  27.937  1.00  0.00    -0.744 OA
ENDBRANCH  71  74
ENDBRANCH  53  67
BRANCH  54  78
ATOM     78  C   UNL A   1      39.737  32.619  36.298  1.00  0.00     0.023 A 
ATOM     79  C   UNL A   1      40.432  33.822  36.526  1.00  0.00     0.012 A 
ATOM     80  C   UNL A   1      38.772  32.194  37.233  1.00  0.00     0.148 A 
ATOM     81  C   UNL A   1      40.187  34.577  37.673  1.00  0.00     0.002 A 
ATOM     82  C   UNL A   1      38.494  32.979  38.347  1.00  0.00     0.091 A 
ATOM     83  F   UNL A   1      38.137  31.036  37.009  1.00  0.00    -0.205 F 
ATOM     84  C   UNL A   1      39.211  34.163  38.576  1.00  0.00     0.022 A 
BRANCH  82  85
ATOM     85  S   UNL A   1      37.166  32.584  39.490  1.00  0.00     0.127 S 
ATOM     86  O   UNL A   1      35.989  32.707  38.635  1.00  0.00    -0.237 OA
ATOM     87  O   UNL A   1      37.501  31.216  39.885  1.00  0.00    -0.237 OA
ATOM     88  O   UNL A   1      37.275  33.560  40.566  1.00  0.00    -0.744 OA
ENDBRANCH  82  85
ENDBRANCH  54  78
BRANCH  66  89
ATOM     89  C   UNL A   1      44.489  27.803  34.560  1.00  0.00     0.023 A 
ATOM     90  C   UNL A   1      45.732  28.460  34.641  1.00  0.00     0.012 A 
ATOM     91  C   UNL A   1      44.297  26.593  35.257  1.00  0.00     0.148 A 
ATOM     92  C   UNL A   1      46.777  27.908  35.382  1.00  0.00     0.002 A 
ATOM     93  C   UNL A   1      45.329  26.074  36.028  1.00  0.00     0.091 A 
ATOM     94  F   UNL A   1      43.113  25.973  35.149  1.00  0.00    -0.205 F 
ATOM     95  C   UNL A   1      46.572  26.723  36.085  1.00  0.00     0.022 A 
BRANCH  93  96
ATOM     96  S   UNL A   1      45.119  24.601  37.038  1.00  0.00     0.127 S 
ATOM     97  O   UNL A   1      46.493  24.326  37.453  1.00  0.00    -0.237 OA
ATOM     98  O   UNL A   1      44.243  25.078  38.109  1.00  0.00    -0.237 OA
ATOM     99  O   UNL A   1      44.512  23.605  36.166  1.00  0.00    -0.744 OA
ENDBRANCH  93  96
ENDBRANCH  66  89
ENDBRANCH  40  41
ENDBRANCH  33  35
ENDBRANCH  32  33
ENDBRANCH  31  32
ENDBRANCH   1  31
TORSDOF 19
ENDMDL
MODEL 2
REMARK VINA RESULT:     -11.6      1.957      4.343
REMARK SMILES COc1cc2c(cc1OC)[C@@H](CC(=O)OCCOC(=O)c1ccc(-c3c4nc(c(-c5cccc(S(=O)(=O)[O-])c5F)c5ccc([nH]5)c(-c5cccc(S(=O)(=O)[O-])c5F)c5nc(c(-c6cccc(S(=O)(=O)[O-])c6F)c6ccc3[nH]6)C=C5)C=C4)cc1)N(C(=O)Nc1ccc(Cl)cc1)CC2
REMARK SMILES IDX 16 1 15 2 13 3 14 4 12 5 11 6 3 7 4 8 8 9 5 10 7 11 6 12
REMARK SMILES IDX 96 13 95 14 84 15 2 16 1 17 9 18 10 19 85 20 86 21 87 22
REMARK SMILES IDX 88 24 89 25 94 26 90 27 93 28 91 29 92 30 17 31 18 32 19 33
REMARK SMILES IDX 20 34 21 35 22 36 83 37 23 38 82 39 24 40 25 41 26 42 76 43
REMARK SMILES IDX 27 44 81 45 75 46 77 47 28 48 80 49 74 50 73 51 29 53 61 54
REMARK SMILES IDX 41 55 60 56 42 57 45 58 59 59 78 60 43 61 44 62 58 64 79 65
REMARK SMILES IDX 46 66 30 67 31 68 39 69 32 70 34 71 40 72 33 73 35 74 36 75
REMARK SMILES IDX 37 76 38 77 62 78 63 79 71 80 64 81 66 82 72 83 65 84 67 85
REMARK SMILES IDX 68 86 69 87 70 88 47 89 48 90 56 91 49 92 51 93 57 94 50 95
REMARK SMILES IDX 52 96 53 97 54 98 55 99
REMARK H PARENT 87 23 77 52 45 63
REMARK Flexibility Score: inf
ROOT
ATOM      1  C   UNL A   1      31.772  30.184  26.828  1.00  0.00     0.274 C 
ENDROOT
BRANCH   1   2
ATOM      2  O   UNL A   1      32.864  29.548  26.135  1.00  0.00    -0.462 OA
BRANCH   2   3
ATOM      3  C   UNL A   1      33.040  28.225  26.360  1.00  0.00     0.308 C 
ATOM      4  O   UNL A   1      32.511  27.605  27.280  1.00  0.00    -0.252 OA
BRANCH   3   5
ATOM      5  C   UNL A   1      33.945  27.525  25.369  1.00  0.00     0.152 C 
BRANCH   5   6
ATOM      6  C   UNL A   1      33.358  26.442  24.435  1.00  0.00     0.128 C 
ATOM      7  C   UNL A   1      35.318  22.517  24.688  1.00  0.00     0.161 A 
ATOM      8  C   UNL A   1      34.326  22.777  23.747  1.00  0.00     0.054 A 
ATOM      9  C   UNL A   1      35.695  23.509  25.601  1.00  0.00     0.161 A 
ATOM     10  C   UNL A   1      33.711  24.032  23.704  1.00  0.00    -0.037 A 
ATOM     11  C   UNL A   1      35.076  24.773  25.538  1.00  0.00     0.056 A 
ATOM     12  C   UNL A   1      34.082  25.068  24.584  1.00  0.00    -0.018 A 
ATOM     13  C   UNL A   1      32.692  24.346  22.654  1.00  0.00     0.057 C 
ATOM     14  C   UNL A   1      33.096  25.673  22.033  1.00  0.00     0.127 C 
ATOM     15  N   UNL A   1      33.173  26.798  22.975  1.00  0.00    -0.317 N 
BRANCH   7  16
ATOM     16  O   UNL A   1      35.948  21.304  24.564  1.00  0.00    -0.493 OA
ATOM     17  C   UNL A   1      37.323  21.434  24.213  1.00  0.00     0.278 C 
ENDBRANCH   7  16
BRANCH   9  18
ATOM     18  O   UNL A   1      36.711  23.200  26.469  1.00  0.00    -0.493 OA
ATOM     19  C   UNL A   1      37.773  24.141  26.585  1.00  0.00     0.278 C 
ENDBRANCH   9  18
BRANCH  15  20
ATOM     20  C   UNL A   1      33.220  28.108  22.559  1.00  0.00     0.322 C 
ATOM     21  O   UNL A   1      34.158  28.577  21.911  1.00  0.00    -0.248 OA
ATOM     22  N   UNL A   1      32.286  29.027  22.948  1.00  0.00    -0.308 N 
ATOM     23  H   UNL A   1      32.637  29.880  23.292  1.00  0.00     0.171 HD
BRANCH  22  24
ATOM     24  C   UNL A   1      30.895  28.909  22.915  1.00  0.00     0.042 A 
ATOM     25  C   UNL A   1      30.316  27.802  23.538  1.00  0.00     0.028 A 
ATOM     26  C   UNL A   1      30.105  29.842  22.239  1.00  0.00     0.028 A 
ATOM     27  C   UNL A   1      28.929  27.682  23.580  1.00  0.00     0.022 A 
ATOM     28  C   UNL A   1      28.715  29.729  22.299  1.00  0.00     0.022 A 
ATOM     29  C   UNL A   1      28.134  28.658  22.981  1.00  0.00     0.041 A 
ATOM     30  Cl  UNL A   1      26.422  28.547  23.102  1.00  0.00    -0.084 Cl
ENDBRANCH  22  24
ENDBRANCH  15  20
ENDBRANCH   5   6
ENDBRANCH   3   5
ENDBRANCH   2   3
ENDBRANCH   1   2
BRANCH   1  31
ATOM     31  C   UNL A   1      31.948  31.701  26.820  1.00  0.00     0.275 C 
BRANCH  31  32
ATOM     32  O   UNL A   1      33.334  32.052  26.668  1.00  0.00    -0.458 OA
BRANCH  32  33
ATOM     33  C   UNL A   1      33.817  32.884  27.616  1.00  0.00     0.338 C 
ATOM     34  O   UNL A   1      33.275  33.881  28.081  1.00  0.00    -0.246 OA
BRANCH  33  35
ATOM     35  C   UNL A   1      35.066  32.334  28.154  1.00  0.00     0.060 A 
ATOM     36  C   UNL A   1      35.045  31.031  28.662  1.00  0.00     0.016 A 
ATOM     37  C   UNL A   1      36.227  33.107  28.210  1.00  0.00     0.016 A 
ATOM     38  C   UNL A   1      36.189  30.496  29.244  1.00  0.00     0.010 A 
ATOM     39  C   UNL A   1      37.372  32.571  28.800  1.00  0.00     0.010 A 
ATOM     40  C   UNL A   1      37.352  31.270  29.335  1.00  0.00    -0.014 A 
BRANCH  40  41
ATOM     41  C   UNL A   1      38.534  30.743  30.052  1.00  0.00     0.031 A 
ATOM     42  C   UNL A   1      39.399  29.710  29.391  1.00  0.00     0.074 A 
ATOM     43  C   UNL A   1      38.814  31.180  31.293  1.00  0.00     0.049 A 
ATOM     44  N   UNL A   1      40.436  29.074  29.867  1.00  0.00    -0.248 NA
ATOM     45  C   UNL A   1      39.049  29.342  28.009  1.00  0.00     0.031 C 
ATOM     46  C   UNL A   1      38.042  32.183  32.027  1.00  0.00     0.029 A 
ATOM     47  N   UNL A   1      39.810  30.818  32.162  1.00  0.00    -0.354 N 
ATOM     48  C   UNL A   1      40.840  28.203  28.864  1.00  0.00     0.074 A 
ATOM     49  C   UNL A   1      39.935  28.391  27.751  1.00  0.00     0.031 C 
ATOM     50  C   UNL A   1      38.581  32.341  33.247  1.00  0.00     0.029 A 
ATOM     51  C   UNL A   1      39.715  31.430  33.390  1.00  0.00     0.049 A 
ATOM     52  H   UNL A   1      40.524  30.181  31.930  1.00  0.00     0.167 HD
ATOM     53  C   UNL A   1      41.881  27.336  28.866  1.00  0.00     0.034 A 
ATOM     54  C   UNL A   1      40.446  31.257  34.508  1.00  0.00     0.034 A 
ATOM     55  C   UNL A   1      42.792  27.178  29.966  1.00  0.00     0.049 A 
ATOM     56  C   UNL A   1      41.593  30.281  34.484  1.00  0.00     0.074 A 
ATOM     57  C   UNL A   1      43.902  26.357  30.053  1.00  0.00     0.029 A 
ATOM     58  N   UNL A   1      42.698  27.853  31.174  1.00  0.00    -0.354 N 
ATOM     59  N   UNL A   1      42.026  29.541  33.493  1.00  0.00    -0.248 NA
ATOM     60  C   UNL A   1      42.367  30.138  35.724  1.00  0.00     0.031 C 
ATOM     61  C   UNL A   1      44.472  26.527  31.320  1.00  0.00     0.029 A 
ATOM     62  C   UNL A   1      43.726  27.464  32.016  1.00  0.00     0.049 A 
ATOM     63  H   UNL A   1      42.002  28.511  31.399  1.00  0.00     0.167 HD
ATOM     64  C   UNL A   1      43.141  28.866  33.978  1.00  0.00     0.074 A 
ATOM     65  C   UNL A   1      43.328  29.304  35.347  1.00  0.00     0.031 C 
ATOM     66  C   UNL A   1      43.928  27.954  33.356  1.00  0.00     0.034 A 
BRANCH  53  67
ATOM     67  C   UNL A   1      42.104  26.515  27.624  1.00  0.00     0.023 A 
ATOM     68  C   UNL A   1      42.584  27.140  26.456  1.00  0.00     0.012 A 
ATOM     69  C   UNL A   1      41.882  25.124  27.624  1.00  0.00     0.148 A 
ATOM     70  C   UNL A   1      42.811  26.399  25.297  1.00  0.00     0.002 A 
ATOM     71  C   UNL A   1      42.148  24.387  26.476  1.00  0.00     0.091 A 
ATOM     72  F   UNL A   1      41.400  24.552  28.737  1.00  0.00    -0.205 F 
ATOM     73  C   UNL A   1      42.603  25.023  25.310  1.00  0.00     0.022 A 
BRANCH  71  74
ATOM     74  S   UNL A   1      41.973  22.599  26.418  1.00  0.00     0.127 S 
ATOM     75  O   UNL A   1      40.523  22.441  26.526  1.00  0.00    -0.237 OA
ATOM     76  O   UNL A   1      42.523  22.276  25.101  1.00  0.00    -0.237 OA
ATOM     77  O   UNL A   1      42.747  22.086  27.539  1.00  0.00    -0.744 OA
ENDBRANCH  71  74
ENDBRANCH  53  67
BRANCH  54  78
ATOM     78  C   UNL A   1      40.141  32.059  35.725  1.00  0.00     0.023 A 
ATOM     79  C   UNL A   1      40.918  33.197  36.013  1.00  0.00     0.012 A 
ATOM     80  C   UNL A   1      39.069  31.724  36.575  1.00  0.00     0.148 A 
ATOM     81  C   UNL A   1      40.645  33.976  37.140  1.00  0.00     0.002 A 
ATOM     82  C   UNL A   1      38.770  32.535  37.665  1.00  0.00     0.091 A 
ATOM     83  F   UNL A   1      38.355  30.625  36.295  1.00  0.00    -0.205 F 
ATOM     84  C   UNL A   1      39.566  33.652  37.957  1.00  0.00     0.022 A 
BRANCH  82  85
ATOM     85  S   UNL A   1      37.322  32.263  38.693  1.00  0.00     0.127 S 
ATOM     86  O   UNL A   1      36.262  32.851  37.878  1.00  0.00    -0.237 OA
ATOM     87  O   UNL A   1      37.287  30.803  38.789  1.00  0.00    -0.237 OA
ATOM     88  O   UNL A   1      37.605  32.938  39.952  1.00  0.00    -0.744 OA
ENDBRANCH  82  85
ENDBRANCH  54  78
BRANCH  66  89
ATOM     89  C   UNL A   1      45.082  27.383  34.136  1.00  0.00     0.023 A 
ATOM     90  C   UNL A   1      46.330  28.036  34.111  1.00  0.00     0.012 A 
ATOM     91  C   UNL A   1      44.908  26.249  34.953  1.00  0.00     0.148 A 
ATOM     92  C   UNL A   1      47.397  27.550  34.866  1.00  0.00     0.002 A 
ATOM     93  C   UNL A   1      45.964  25.798  35.737  1.00  0.00     0.091 A 
ATOM     94  F   UNL A   1      43.718  25.630  34.947  1.00  0.00    -0.205 F 
ATOM     95  C   UNL A   1      47.211  26.440  35.688  1.00  0.00     0.022 A 
BRANCH  93  96
ATOM     96  S   UNL A   1      45.782  24.433  36.891  1.00  0.00     0.127 S 
ATOM     97  O   UNL A   1      44.718  24.921  37.766  1.00  0.00    -0.237 OA
ATOM     98  O   UNL A   1      45.391  23.329  36.013  1.00  0.00    -0.237 OA
ATOM     99  O   UNL A   1      47.087  24.267  37.518  1.00  0.00    -0.744 OA
ENDBRANCH  93  96
ENDBRANCH  66  89
ENDBRANCH  40  41
ENDBRANCH  33  35
ENDBRANCH  32  33
ENDBRANCH  31  32
ENDBRANCH   1  31
TORSDOF 19
ENDMDL
MODEL 3
REMARK VINA RESULT:     -11.4      0.513      7.263
REMARK SMILES COc1cc2c(cc1OC)[C@@H](CC(=O)OCCOC(=O)c1ccc(-c3c4nc(c(-c5cccc(S(=O)(=O)[O-])c5F)c5ccc([nH]5)c(-c5cccc(S(=O)(=O)[O-])c5F)c5nc(c(-c6cccc(S(=O)(=O)[O-])c6F)c6ccc3[nH]6)C=C5)C=C4)cc1)N(C(=O)Nc1ccc(Cl)cc1)CC2
REMARK SMILES IDX 16 1 15 2 13 3 14 4 12 5 11 6 3 7 4 8 8 9 5 10 7 11 6 12
REMARK SMILES IDX 96 13 95 14 84 15 2 16 1 17 9 18 10 19 85 20 86 21 87 22
REMARK SMILES IDX 88 24 89 25 94 26 90 27 93 28 91 29 92 30 17 31 18 32 19 33
REMARK SMILES IDX 20 34 21 35 22 36 83 37 23 38 82 39 24 40 25 41 26 42 76 43
REMARK SMILES IDX 27 44 81 45 75 46 77 47 28 48 80 49 74 50 73 51 29 53 61 54
REMARK SMILES IDX 41 55 60 56 42 57 45 58 59 59 78 60 43 61 44 62 58 64 79 65
REMARK SMILES IDX 46 66 30 67 31 68 39 69 32 70 34 71 40 72 33 73 35 74 36 75
REMARK SMILES IDX 37 76 38 77 62 78 63 79 71 80 64 81 66 82 72 83 65 84 67 85
REMARK SMILES IDX 68 86 69 87 70 88 47 89 48 90 56 91 49 92 51 93 57 94 50 95
REMARK SMILES IDX 52 96 53 97 54 98 55 99
REMARK H PARENT 87 23 77 52 45 63
REMARK Flexibility Score: inf
ROOT
ATOM      1  C   UNL A   1      31.974  31.952  26.514  1.00  0.00     0.274 C 
ENDROOT
BRANCH   1   2
ATOM      2  O   UNL A   1      32.543  30.832  27.220  1.00  0.00    -0.462 OA
BRANCH   2   3
ATOM      3  C   UNL A   1      32.755  29.704  26.504  1.00  0.00     0.308 C 
ATOM      4  O   UNL A   1      33.861  29.323  26.126  1.00  0.00    -0.252 OA
BRANCH   3   5
ATOM      5  C   UNL A   1      31.509  28.900  26.198  1.00  0.00     0.152 C 
BRANCH   5   6
ATOM      6  C   UNL A   1      31.355  28.231  24.813  1.00  0.00     0.128 C 
ATOM      7  C   UNL A   1      28.709  30.351  22.018  1.00  0.00     0.161 A 
ATOM      8  C   UNL A   1      29.260  29.113  21.702  1.00  0.00     0.054 A 
ATOM      9  C   UNL A   1      29.014  30.963  23.239  1.00  0.00     0.161 A 
ATOM     10  C   UNL A   1      30.112  28.472  22.608  1.00  0.00    -0.037 A 
ATOM     11  C   UNL A   1      29.863  30.301  24.148  1.00  0.00     0.056 A 
ATOM     12  C   UNL A   1      30.420  29.039  23.860  1.00  0.00    -0.018 A 
ATOM     13  C   UNL A   1      30.656  27.111  22.310  1.00  0.00     0.057 C 
ATOM     14  C   UNL A   1      30.400  26.257  23.541  1.00  0.00     0.127 C 
ATOM     15  N   UNL A   1      31.014  26.756  24.778  1.00  0.00    -0.317 N 
BRANCH   7  16
ATOM     16  O   UNL A   1      27.788  30.834  21.122  1.00  0.00    -0.493 OA
ATOM     17  C   UNL A   1      28.311  31.881  20.309  1.00  0.00     0.278 C 
ENDBRANCH   7  16
BRANCH   9  18
ATOM     18  O   UNL A   1      28.399  32.160  23.504  1.00  0.00    -0.493 OA
ATOM     19  C   UNL A   1      29.176  33.340  23.339  1.00  0.00     0.278 C 
ENDBRANCH   9  18
BRANCH  15  20
ATOM     20  C   UNL A   1      31.150  25.976  25.904  1.00  0.00     0.322 C 
ATOM     21  O   UNL A   1      30.223  25.756  26.686  1.00  0.00    -0.248 OA
ATOM     22  N   UNL A   1      32.361  25.492  26.310  1.00  0.00    -0.308 N 
ATOM     23  H   UNL A   1      32.584  25.629  27.259  1.00  0.00     0.171 HD
BRANCH  22  24
ATOM     24  C   UNL A   1      33.322  24.825  25.548  1.00  0.00     0.042 A 
ATOM     25  C   UNL A   1      33.431  25.152  24.197  1.00  0.00     0.028 A 
ATOM     26  C   UNL A   1      34.119  23.822  26.107  1.00  0.00     0.028 A 
ATOM     27  C   UNL A   1      34.419  24.552  23.419  1.00  0.00     0.022 A 
ATOM     28  C   UNL A   1      35.121  23.236  25.331  1.00  0.00     0.022 A 
ATOM     29  C   UNL A   1      35.276  23.615  23.995  1.00  0.00     0.041 A 
ATOM     30  Cl  UNL A   1      36.543  22.934  23.052  1.00  0.00    -0.084 Cl
ENDBRANCH  22  24
ENDBRANCH  15  20
ENDBRANCH   5   6
ENDBRANCH   3   5
ENDBRANCH   2   3
ENDBRANCH   1   2
BRANCH   1  31
ATOM     31  C   UNL A   1      31.950  33.190  27.409  1.00  0.00     0.275 C 
BRANCH  31  32
ATOM     32  O   UNL A   1      33.191  33.910  27.314  1.00  0.00    -0.458 OA
BRANCH  32  33
ATOM     33  C   UNL A   1      33.652  34.403  28.484  1.00  0.00     0.338 C 
ATOM     34  O   UNL A   1      33.159  35.298  29.162  1.00  0.00    -0.246 OA
BRANCH  33  35
ATOM     35  C   UNL A   1      34.787  33.594  28.939  1.00  0.00     0.060 A 
ATOM     36  C   UNL A   1      34.514  32.380  29.578  1.00  0.00     0.016 A 
ATOM     37  C   UNL A   1      36.099  34.046  28.791  1.00  0.00     0.016 A 
ATOM     38  C   UNL A   1      35.558  31.614  30.087  1.00  0.00     0.010 A 
ATOM     39  C   UNL A   1      37.144  33.280  29.307  1.00  0.00     0.010 A 
ATOM     40  C   UNL A   1      36.877  32.069  29.972  1.00  0.00    -0.014 A 
BRANCH  40  41
ATOM     41  C   UNL A   1      37.976  31.312  30.609  1.00  0.00     0.031 A 
ATOM     42  C   UNL A   1      38.293  31.549  32.057  1.00  0.00     0.074 A 
ATOM     43  C   UNL A   1      38.691  30.433  29.885  1.00  0.00     0.049 A 
ATOM     44  N   UNL A   1      39.252  31.043  32.785  1.00  0.00    -0.248 NA
ATOM     45  C   UNL A   1      37.415  32.483  32.782  1.00  0.00     0.031 C 
ATOM     46  C   UNL A   1      38.466  30.124  28.473  1.00  0.00     0.029 A 
ATOM     47  N   UNL A   1      39.766  29.657  30.233  1.00  0.00    -0.354 N 
ATOM     48  C   UNL A   1      39.121  31.621  34.041  1.00  0.00     0.074 A 
ATOM     49  C   UNL A   1      37.989  32.521  33.975  1.00  0.00     0.031 C 
ATOM     50  C   UNL A   1      39.391  29.238  28.067  1.00  0.00     0.029 A 
ATOM     51  C   UNL A   1      40.289  28.942  29.181  1.00  0.00     0.049 A 
ATOM     52  H   UNL A   1      40.130  29.615  31.147  1.00  0.00     0.167 HD
ATOM     53  C   UNL A   1      39.868  31.411  35.151  1.00  0.00     0.034 A 
ATOM     54  C   UNL A   1      41.382  28.156  29.120  1.00  0.00     0.034 A 
ATOM     55  C   UNL A   1      40.972  30.494  35.214  1.00  0.00     0.049 A 
ATOM     56  C   UNL A   1      42.198  27.946  30.367  1.00  0.00     0.074 A 
ATOM     57  C   UNL A   1      41.768  30.178  36.300  1.00  0.00     0.029 A 
ATOM     58  N   UNL A   1      41.441  29.746  34.144  1.00  0.00    -0.354 N 
ATOM     59  N   UNL A   1      41.999  28.420  31.574  1.00  0.00    -0.248 NA
ATOM     60  C   UNL A   1      43.372  27.071  30.252  1.00  0.00     0.031 C 
ATOM     61  C   UNL A   1      42.726  29.247  35.883  1.00  0.00     0.029 A 
ATOM     62  C   UNL A   1      42.518  28.972  34.541  1.00  0.00     0.049 A 
ATOM     63  H   UNL A   1      41.063  29.764  33.235  1.00  0.00     0.167 HD
ATOM     64  C   UNL A   1      43.004  27.879  32.368  1.00  0.00     0.074 A 
ATOM     65  C   UNL A   1      43.797  27.023  31.508  1.00  0.00     0.031 C 
ATOM     66  C   UNL A   1      43.259  28.084  33.683  1.00  0.00     0.034 A 
BRANCH  53  67
ATOM     67  C   UNL A   1      39.491  32.168  36.396  1.00  0.00     0.023 A 
ATOM     68  C   UNL A   1      40.200  33.337  36.739  1.00  0.00     0.012 A 
ATOM     69  C   UNL A   1      38.412  31.752  37.201  1.00  0.00     0.148 A 
ATOM     70  C   UNL A   1      39.861  34.064  37.879  1.00  0.00     0.002 A 
ATOM     71  C   UNL A   1      38.057  32.503  38.315  1.00  0.00     0.091 A 
ATOM     72  F   UNL A   1      37.767  30.623  36.873  1.00  0.00    -0.205 F 
ATOM     73  C   UNL A   1      38.785  33.653  38.661  1.00  0.00     0.022 A 
BRANCH  71  74
ATOM     74  S   UNL A   1      36.643  32.089  39.345  1.00  0.00     0.127 S 
ATOM     75  O   UNL A   1      37.063  32.610  40.645  1.00  0.00    -0.237 OA
ATOM     76  O   UNL A   1      35.564  32.844  38.708  1.00  0.00    -0.237 OA
ATOM     77  O   UNL A   1      36.500  30.643  39.261  1.00  0.00    -0.744 OA
ENDBRANCH  71  74
ENDBRANCH  53  67
BRANCH  54  78
ATOM     78  C   UNL A   1      41.736  27.478  27.843  1.00  0.00     0.023 A 
ATOM     79  C   UNL A   1      42.241  28.241  26.773  1.00  0.00     0.012 A 
ATOM     80  C   UNL A   1      41.611  26.083  27.694  1.00  0.00     0.148 A 
ATOM     81  C   UNL A   1      42.595  27.630  25.569  1.00  0.00     0.002 A 
ATOM     82  C   UNL A   1      42.015  25.473  26.510  1.00  0.00     0.091 A 
ATOM     83  F   UNL A   1      41.108  25.376  28.715  1.00  0.00    -0.205 F 
ATOM     84  C   UNL A   1      42.494  26.247  25.442  1.00  0.00     0.022 A 
BRANCH  82  85
ATOM     85  S   UNL A   1      42.039  23.688  26.310  1.00  0.00     0.127 S 
ATOM     86  O   UNL A   1      40.614  23.376  26.249  1.00  0.00    -0.237 OA
ATOM     87  O   UNL A   1      42.759  23.533  25.046  1.00  0.00    -0.237 OA
ATOM     88  O   UNL A   1      42.752  23.175  27.472  1.00  0.00    -0.744 OA
ENDBRANCH  82  85
ENDBRANCH  54  78
BRANCH  66  89
ATOM     89  C   UNL A   1      44.429  27.353  34.287  1.00  0.00     0.023 A 
ATOM     90  C   UNL A   1      45.723  27.897  34.176  1.00  0.00     0.012 A 
ATOM     91  C   UNL A   1      44.235  26.170  35.028  1.00  0.00     0.148 A 
ATOM     92  C   UNL A   1      46.812  27.260  34.770  1.00  0.00     0.002 A 
ATOM     93  C   UNL A   1      45.318  25.566  35.654  1.00  0.00     0.091 A 
ATOM     94  F   UNL A   1      42.998  25.657  35.104  1.00  0.00    -0.205 F 
ATOM     95  C   UNL A   1      46.608  26.103  35.519  1.00  0.00     0.022 A 
BRANCH  93  96
ATOM     96  S   UNL A   1      45.130  24.126  36.713  1.00  0.00     0.127 S 
ATOM     97  O   UNL A   1      46.518  23.822  37.053  1.00  0.00    -0.237 OA
ATOM     98  O   UNL A   1      44.331  24.654  37.821  1.00  0.00    -0.237 OA
ATOM     99  O   UNL A   1      44.445  23.126  35.904  1.00  0.00    -0.744 OA
ENDBRANCH  93  96
ENDBRANCH  66  89
ENDBRANCH  40  41
ENDBRANCH  33  35
ENDBRANCH  32  33
ENDBRANCH  31  32
ENDBRANCH   1  31
TORSDOF 19
ENDMDL
