MODEL 1
REMARK VINA RESULT:     -12.0      0.000      0.000
REMARK SMILES O=C(OCCOC(=O)[C@H]1C[C@@H](C(=O)N2CCCC2)C[N@@H+](Cc2cccnc2)C1)c1ccc(-c2c3nc(c(-c4cccc(S(=O)(=O)[O-])c4F)c4ccc([nH]4)c(-c4cccc(S(=O)(=O)[O-])c4F)c4nc(c(-c5cccc(S(=O)(=O)[O-])c5F)c5ccc2[nH]5)C=C4)C=C3)cc1
REMARK SMILES IDX 4 1 3 2 2 3 1 4 29 5 30 6 91 7 31 8 90 9 32 10 33 11 34 12
REMARK SMILES IDX 84 13 35 14 89 15 83 16 85 17 36 18 88 19 82 20 81 21 37 23
REMARK SMILES IDX 69 24 49 25 68 26 50 27 53 28 67 29 86 30 51 31 52 32 66 34
REMARK SMILES IDX 87 35 54 36 38 37 39 38 47 39 40 40 42 41 48 42 41 43 43 44
REMARK SMILES IDX 44 45 45 46 46 47 70 48 71 49 79 50 72 51 74 52 80 53 73 54
REMARK SMILES IDX 75 55 76 56 77 57 78 58 55 59 56 60 64 61 57 62 59 63 65 64
REMARK SMILES IDX 58 65 60 66 61 67 62 68 63 69 5 70 6 71 7 72 8 73 9 74 10 75
REMARK SMILES IDX 28 76 11 77 20 78 19 79 12 81 13 82 14 83 15 84 18 85 16 86
REMARK SMILES IDX 17 87 21 88 22 89 23 90 27 91 24 92 26 93 25 94
REMARK H PARENT 85 22 53 33 20 80
REMARK Flexibility Score: inf
ROOT
ATOM      1  C   UNL A   1      32.851  31.210  26.698  1.00  0.00     0.275 C 
ENDROOT
BRANCH   1   2
ATOM      2  O   UNL A   1      32.907  32.288  27.648  1.00  0.00    -0.458 OA
BRANCH   2   3
ATOM      3  C   UNL A   1      33.984  32.990  28.077  1.00  0.00     0.338 C 
ATOM      4  O   UNL A   1      34.016  34.206  27.892  1.00  0.00    -0.246 OA
BRANCH   3   5
ATOM      5  C   UNL A   1      35.224  32.330  28.583  1.00  0.00     0.060 A 
ATOM      6  C   UNL A   1      35.302  31.091  29.217  1.00  0.00     0.016 A 
ATOM      7  C   UNL A   1      36.414  33.050  28.405  1.00  0.00     0.016 A 
ATOM      8  C   UNL A   1      36.544  30.551  29.577  1.00  0.00     0.010 A 
ATOM      9  C   UNL A   1      37.656  32.486  28.689  1.00  0.00     0.010 A 
ATOM     10  C   UNL A   1      37.732  31.240  29.312  1.00  0.00    -0.014 A 
BRANCH  10  11
ATOM     11  C   UNL A   1      39.025  30.738  29.839  1.00  0.00     0.031 A 
ATOM     12  C   UNL A   1      39.541  31.289  31.143  1.00  0.00     0.074 A 
ATOM     13  C   UNL A   1      39.716  29.788  29.180  1.00  0.00     0.049 A 
ATOM     14  N   UNL A   1      40.542  30.875  31.874  1.00  0.00    -0.248 NA
ATOM     15  C   UNL A   1      38.853  32.471  31.693  1.00  0.00     0.031 C 
ATOM     16  C   UNL A   1      39.383  29.257  27.857  1.00  0.00     0.029 A 
ATOM     17  N   UNL A   1      40.848  29.099  29.538  1.00  0.00    -0.354 N 
ATOM     18  C   UNL A   1      40.596  31.738  32.962  1.00  0.00     0.074 A 
ATOM     19  C   UNL A   1      39.591  32.752  32.754  1.00  0.00     0.031 C 
ATOM     20  C   UNL A   1      40.281  28.312  27.523  1.00  0.00     0.029 A 
ATOM     21  C   UNL A   1      41.239  28.157  28.614  1.00  0.00     0.049 A 
ATOM     22  H   UNL A   1      41.334  29.263  30.377  1.00  0.00     0.167 HD
ATOM     23  C   UNL A   1      41.357  31.658  34.077  1.00  0.00     0.034 A 
ATOM     24  C   UNL A   1      42.236  27.248  28.669  1.00  0.00     0.034 A 
ATOM     25  C   UNL A   1      42.331  30.631  34.296  1.00  0.00     0.049 A 
ATOM     26  C   UNL A   1      43.042  27.141  29.943  1.00  0.00     0.074 A 
ATOM     27  C   UNL A   1      43.133  30.420  35.401  1.00  0.00     0.029 A 
ATOM     28  N   UNL A   1      42.631  29.635  33.380  1.00  0.00    -0.354 N 
ATOM     29  N   UNL A   1      42.937  27.837  31.051  1.00  0.00    -0.248 NA
ATOM     30  C   UNL A   1      44.059  26.081  30.000  1.00  0.00     0.031 C 
ATOM     31  C   UNL A   1      43.919  29.289  35.152  1.00  0.00     0.029 A 
ATOM     32  C   UNL A   1      43.598  28.795  33.895  1.00  0.00     0.049 A 
ATOM     33  H   UNL A   1      42.216  29.541  32.491  1.00  0.00     0.167 HD
ATOM     34  C   UNL A   1      43.840  27.273  31.946  1.00  0.00     0.074 A 
ATOM     35  C   UNL A   1      44.465  26.161  31.260  1.00  0.00     0.031 C 
ATOM     36  C   UNL A   1      44.141  27.648  33.215  1.00  0.00     0.034 A 
BRANCH  23  37
ATOM     37  C   UNL A   1      41.073  32.661  35.162  1.00  0.00     0.023 A 
ATOM     38  C   UNL A   1      41.928  33.778  35.292  1.00  0.00     0.012 A 
ATOM     39  C   UNL A   1      40.010  32.495  36.067  1.00  0.00     0.148 A 
ATOM     40  C   UNL A   1      41.763  34.684  36.336  1.00  0.00     0.002 A 
ATOM     41  C   UNL A   1      39.828  33.426  37.084  1.00  0.00     0.091 A 
ATOM     42  F   UNL A   1      39.222  31.418  35.939  1.00  0.00    -0.205 F 
ATOM     43  C   UNL A   1      40.711  34.509  37.229  1.00  0.00     0.022 A 
BRANCH  41  44
ATOM     44  S   UNL A   1      38.475  33.326  38.262  1.00  0.00     0.127 S 
ATOM     45  O   UNL A   1      38.724  34.504  39.095  1.00  0.00    -0.237 OA
ATOM     46  O   UNL A   1      37.304  33.437  37.389  1.00  0.00    -0.237 OA
ATOM     47  O   UNL A   1      38.616  32.047  38.932  1.00  0.00    -0.744 OA
ENDBRANCH  41  44
ENDBRANCH  23  37
BRANCH  24  48
ATOM     48  C   UNL A   1      42.450  26.284  27.549  1.00  0.00     0.023 A 
ATOM     49  C   UNL A   1      43.211  26.682  26.430  1.00  0.00     0.012 A 
ATOM     50  C   UNL A   1      41.902  24.987  27.572  1.00  0.00     0.148 A 
ATOM     51  C   UNL A   1      43.379  25.828  25.339  1.00  0.00     0.002 A 
ATOM     52  C   UNL A   1      42.116  24.122  26.502  1.00  0.00     0.091 A 
ATOM     53  F   UNL A   1      41.170  24.623  28.635  1.00  0.00    -0.205 F 
ATOM     54  C   UNL A   1      42.838  24.547  25.377  1.00  0.00     0.022 A 
BRANCH  52  55
ATOM     55  S   UNL A   1      41.561  22.413  26.532  1.00  0.00     0.127 S 
ATOM     56  O   UNL A   1      42.186  21.872  25.330  1.00  0.00    -0.237 OA
ATOM     57  O   UNL A   1      42.124  21.926  27.793  1.00  0.00    -0.237 OA
ATOM     58  O   UNL A   1      40.106  22.485  26.526  1.00  0.00    -0.744 OA
ENDBRANCH  52  55
ENDBRANCH  24  48
BRANCH  36  59
ATOM     59  C   UNL A   1      45.161  26.835  33.964  1.00  0.00     0.023 A 
ATOM     60  C   UNL A   1      46.524  27.173  33.873  1.00  0.00     0.012 A 
ATOM     61  C   UNL A   1      44.756  25.815  34.847  1.00  0.00     0.148 A 
ATOM     62  C   UNL A   1      47.474  26.493  34.633  1.00  0.00     0.002 A 
ATOM     63  C   UNL A   1      45.702  25.174  35.636  1.00  0.00     0.091 A 
ATOM     64  F   UNL A   1      43.454  25.493  34.902  1.00  0.00    -0.205 F 
ATOM     65  C   UNL A   1      47.062  25.504  35.525  1.00  0.00     0.022 A 
BRANCH  63  66
ATOM     66  S   UNL A   1      45.240  23.968  36.886  1.00  0.00     0.127 S 
ATOM     67  O   UNL A   1      44.636  22.913  36.075  1.00  0.00    -0.237 OA
ATOM     68  O   UNL A   1      46.531  23.619  37.479  1.00  0.00    -0.237 OA
ATOM     69  O   UNL A   1      44.334  24.665  37.791  1.00  0.00    -0.744 OA
ENDBRANCH  63  66
ENDBRANCH  36  59
ENDBRANCH  10  11
ENDBRANCH   3   5
ENDBRANCH   2   3
ENDBRANCH   1   2
BRANCH   1  70
ATOM     70  C   UNL A   1      32.090  29.977  27.179  1.00  0.00     0.274 C 
BRANCH  70  71
ATOM     71  O   UNL A   1      32.816  28.759  26.975  1.00  0.00    -0.462 OA
BRANCH  71  72
ATOM     72  C   UNL A   1      32.098  27.734  26.436  1.00  0.00     0.314 C 
ATOM     73  O   UNL A   1      31.661  26.779  27.067  1.00  0.00    -0.252 OA
BRANCH  72  74
ATOM     74  C   UNL A   1      31.925  27.912  24.945  1.00  0.00     0.155 C 
ATOM     75  C   UNL A   1      32.586  26.754  24.221  1.00  0.00     0.040 C 
ATOM     76  C   UNL A   1      30.443  27.893  24.619  1.00  0.00     0.277 C 
ATOM     77  C   UNL A   1      32.289  26.718  22.724  1.00  0.00     0.134 C 
ATOM     78  N   UNL A   1      30.266  28.128  23.187  1.00  0.00    -0.330 N 
ATOM     79  C   UNL A   1      30.793  26.989  22.415  1.00  0.00     0.276 C 
ATOM     80  H   UNL A   1      30.826  28.946  22.945  1.00  0.00     0.348 HD
BRANCH  77  81
ATOM     81  C   UNL A   1      32.741  25.424  22.018  1.00  0.00     0.231 C 
ATOM     82  O   UNL A   1      33.344  25.474  20.944  1.00  0.00    -0.274 OA
ATOM     83  N   UNL A   1      32.679  24.247  22.732  1.00  0.00    -0.342 N 
ATOM     84  C   UNL A   1      31.518  23.549  23.255  1.00  0.00     0.119 C 
ATOM     85  C   UNL A   1      33.841  23.377  22.818  1.00  0.00     0.119 C 
ATOM     86  C   UNL A   1      32.111  22.745  24.390  1.00  0.00     0.023 C 
ATOM     87  C   UNL A   1      33.425  22.261  23.782  1.00  0.00     0.023 C 
ENDBRANCH  77  81
BRANCH  78  88
ATOM     88  C   UNL A   1      28.912  28.549  22.800  1.00  0.00     0.300 C 
BRANCH  88  89
ATOM     89  C   UNL A   1      28.704  30.011  22.495  1.00  0.00     0.025 A 
ATOM     90  C   UNL A   1      28.946  31.007  23.451  1.00  0.00     0.013 A 
ATOM     91  C   UNL A   1      28.274  30.431  21.244  1.00  0.00     0.120 A 
ATOM     92  C   UNL A   1      28.706  32.341  23.149  1.00  0.00     0.021 A 
ATOM     93  N   UNL A   1      28.053  31.727  20.910  1.00  0.00    -0.264 NA
ATOM     94  C   UNL A   1      28.265  32.648  21.876  1.00  0.00     0.111 A 
ENDBRANCH  88  89
ENDBRANCH  78  88
ENDBRANCH  72  74
ENDBRANCH  71  72
ENDBRANCH  70  71
ENDBRANCH   1  70
TORSDOF 17
ENDMDL
MODEL 2
REMARK VINA RESULT:     -11.8      1.516      2.090
REMARK SMILES O=C(OCCOC(=O)[C@H]1C[C@@H](C(=O)N2CCCC2)C[N@@H+](Cc2cccnc2)C1)c1ccc(-c2c3nc(c(-c4cccc(S(=O)(=O)[O-])c4F)c4ccc([nH]4)c(-c4cccc(S(=O)(=O)[O-])c4F)c4nc(c(-c5cccc(S(=O)(=O)[O-])c5F)c5ccc2[nH]5)C=C4)C=C3)cc1
REMARK SMILES IDX 4 1 3 2 2 3 1 4 29 5 30 6 91 7 31 8 90 9 32 10 33 11 34 12
REMARK SMILES IDX 84 13 35 14 89 15 83 16 85 17 36 18 88 19 82 20 81 21 37 23
REMARK SMILES IDX 69 24 49 25 68 26 50 27 53 28 67 29 86 30 51 31 52 32 66 34
REMARK SMILES IDX 87 35 54 36 38 37 39 38 47 39 40 40 42 41 48 42 41 43 43 44
REMARK SMILES IDX 44 45 45 46 46 47 70 48 71 49 79 50 72 51 74 52 80 53 73 54
REMARK SMILES IDX 75 55 76 56 77 57 78 58 55 59 56 60 64 61 57 62 59 63 65 64
REMARK SMILES IDX 58 65 60 66 61 67 62 68 63 69 5 70 6 71 7 72 8 73 9 74 10 75
REMARK SMILES IDX 28 76 11 77 20 78 19 79 12 81 13 82 14 83 15 84 18 85 16 86
REMARK SMILES IDX 17 87 21 88 22 89 23 90 27 91 24 92 26 93 25 94
REMARK H PARENT 85 22 53 33 20 80
REMARK Flexibility Score: inf
ROOT
ATOM      1  C   UNL A   1      32.799  29.697  26.272  1.00  0.00     0.275 C 
ENDROOT
BRANCH   1   2
ATOM      2  O   UNL A   1      32.568  31.033  26.750  1.00  0.00    -0.458 OA
BRANCH   2   3
ATOM      3  C   UNL A   1      33.380  31.825  27.491  1.00  0.00     0.338 C 
ATOM      4  O   UNL A   1      33.144  33.031  27.554  1.00  0.00    -0.246 OA
BRANCH   3   5
ATOM      5  C   UNL A   1      34.666  31.337  28.071  1.00  0.00     0.060 A 
ATOM      6  C   UNL A   1      34.895  30.085  28.640  1.00  0.00     0.016 A 
ATOM      7  C   UNL A   1      35.732  32.248  28.045  1.00  0.00     0.016 A 
ATOM      8  C   UNL A   1      36.176  29.725  29.082  1.00  0.00     0.010 A 
ATOM      9  C   UNL A   1      37.023  31.870  28.410  1.00  0.00     0.010 A 
ATOM     10  C   UNL A   1      37.252  30.612  28.967  1.00  0.00    -0.014 A 
BRANCH  10  11
ATOM     11  C   UNL A   1      38.562  30.286  29.582  1.00  0.00     0.031 A 
ATOM     12  C   UNL A   1      38.888  30.851  30.940  1.00  0.00     0.074 A 
ATOM     13  C   UNL A   1      39.438  29.479  28.952  1.00  0.00     0.049 A 
ATOM     14  N   UNL A   1      39.882  30.560  31.736  1.00  0.00    -0.248 NA
ATOM     15  C   UNL A   1      37.988  31.893  31.469  1.00  0.00     0.031 C 
ATOM     16  C   UNL A   1      39.291  28.962  27.590  1.00  0.00     0.029 A 
ATOM     17  N   UNL A   1      40.631  28.953  29.379  1.00  0.00    -0.354 N 
ATOM     18  C   UNL A   1      39.720  31.374  32.852  1.00  0.00     0.074 A 
ATOM     19  C   UNL A   1      38.592  32.234  32.595  1.00  0.00     0.031 C 
ATOM     20  C   UNL A   1      40.345  28.177  27.302  1.00  0.00     0.029 A 
ATOM     21  C   UNL A   1      41.230  28.120  28.461  1.00  0.00     0.049 A 
ATOM     22  H   UNL A   1      41.021  29.151  30.261  1.00  0.00     0.167 HD
ATOM     23  C   UNL A   1      40.398  31.361  34.022  1.00  0.00     0.034 A 
ATOM     24  C   UNL A   1      42.346  27.369  28.570  1.00  0.00     0.034 A 
ATOM     25  C   UNL A   1      41.498  30.482  34.288  1.00  0.00     0.049 A 
ATOM     26  C   UNL A   1      43.060  27.329  29.901  1.00  0.00     0.074 A 
ATOM     27  C   UNL A   1      42.236  30.346  35.448  1.00  0.00     0.029 A 
ATOM     28  N   UNL A   1      42.015  29.583  33.369  1.00  0.00    -0.354 N 
ATOM     29  N   UNL A   1      42.766  27.953  31.018  1.00  0.00    -0.248 NA
ATOM     30  C   UNL A   1      44.220  26.431  30.008  1.00  0.00     0.031 C 
ATOM     31  C   UNL A   1      43.201  29.357  35.228  1.00  0.00     0.029 A 
ATOM     32  C   UNL A   1      43.056  28.875  33.935  1.00  0.00     0.049 A 
ATOM     33  H   UNL A   1      41.687  29.466  32.447  1.00  0.00     0.167 HD
ATOM     34  C   UNL A   1      43.674  27.492  31.966  1.00  0.00     0.074 A 
ATOM     35  C   UNL A   1      44.512  26.516  31.299  1.00  0.00     0.031 C 
ATOM     36  C   UNL A   1      43.817  27.853  33.266  1.00  0.00     0.034 A 
BRANCH  23  37
ATOM     37  C   UNL A   1      39.883  32.263  35.111  1.00  0.00     0.023 A 
ATOM     38  C   UNL A   1      38.881  31.773  35.978  1.00  0.00     0.012 A 
ATOM     39  C   UNL A   1      40.343  33.582  35.262  1.00  0.00     0.148 A 
ATOM     40  C   UNL A   1      38.307  32.599  36.941  1.00  0.00     0.002 A 
ATOM     41  C   UNL A   1      39.792  34.389  36.252  1.00  0.00     0.091 A 
ATOM     42  F   UNL A   1      41.281  34.034  34.417  1.00  0.00    -0.205 F 
ATOM     43  C   UNL A   1      38.765  33.905  37.080  1.00  0.00     0.022 A 
BRANCH  41  44
ATOM     44  S   UNL A   1      40.343  36.073  36.552  1.00  0.00     0.127 S 
ATOM     45  O   UNL A   1      41.784  35.884  36.724  1.00  0.00    -0.237 OA
ATOM     46  O   UNL A   1      39.964  36.743  35.305  1.00  0.00    -0.237 OA
ATOM     47  O   UNL A   1      39.628  36.527  37.729  1.00  0.00    -0.744 OA
ENDBRANCH  41  44
ENDBRANCH  23  37
BRANCH  24  48
ATOM     48  C   UNL A   1      42.789  26.497  27.442  1.00  0.00     0.023 A 
ATOM     49  C   UNL A   1      43.660  27.020  26.464  1.00  0.00     0.012 A 
ATOM     50  C   UNL A   1      42.351  25.164  27.319  1.00  0.00     0.148 A 
ATOM     51  C   UNL A   1      44.045  26.253  25.363  1.00  0.00     0.002 A 
ATOM     52  C   UNL A   1      42.780  24.387  26.245  1.00  0.00     0.091 A 
ATOM     53  F   UNL A   1      41.514  24.680  28.247  1.00  0.00    -0.205 F 
ATOM     54  C   UNL A   1      43.610  24.935  25.256  1.00  0.00     0.022 A 
BRANCH  52  55
ATOM     55  S   UNL A   1      42.367  22.643  26.106  1.00  0.00     0.127 S 
ATOM     56  O   UNL A   1      43.012  22.281  24.848  1.00  0.00    -0.237 OA
ATOM     57  O   UNL A   1      42.993  22.080  27.304  1.00  0.00    -0.237 OA
ATOM     58  O   UNL A   1      40.912  22.593  26.123  1.00  0.00    -0.744 OA
ENDBRANCH  52  55
ENDBRANCH  24  48
BRANCH  36  59
ATOM     59  C   UNL A   1      44.889  27.169  34.071  1.00  0.00     0.023 A 
ATOM     60  C   UNL A   1      46.187  27.713  34.105  1.00  0.00     0.012 A 
ATOM     61  C   UNL A   1      44.579  26.061  34.882  1.00  0.00     0.148 A 
ATOM     62  C   UNL A   1      47.169  27.150  34.918  1.00  0.00     0.002 A 
ATOM     63  C   UNL A   1      45.548  25.535  35.726  1.00  0.00     0.091 A 
ATOM     64  F   UNL A   1      43.343  25.544  34.818  1.00  0.00    -0.205 F 
ATOM     65  C   UNL A   1      46.846  26.071  35.739  1.00  0.00     0.022 A 
BRANCH  63  66
ATOM     66  S   UNL A   1      45.183  24.218  36.892  1.00  0.00     0.127 S 
ATOM     67  O   UNL A   1      46.484  24.008  37.524  1.00  0.00    -0.237 OA
ATOM     68  O   UNL A   1      44.176  24.834  37.758  1.00  0.00    -0.237 OA
ATOM     69  O   UNL A   1      44.684  23.107  36.091  1.00  0.00    -0.744 OA
ENDBRANCH  63  66
ENDBRANCH  36  59
ENDBRANCH  10  11
ENDBRANCH   3   5
ENDBRANCH   2   3
ENDBRANCH   1   2
BRANCH   1  70
ATOM     70  C   UNL A   1      33.681  29.610  25.029  1.00  0.00     0.274 C 
BRANCH  70  71
ATOM     71  O   UNL A   1      33.442  28.427  24.258  1.00  0.00    -0.462 OA
BRANCH  71  72
ATOM     72  C   UNL A   1      32.725  28.611  23.114  1.00  0.00     0.314 C 
ATOM     73  O   UNL A   1      33.006  29.419  22.236  1.00  0.00    -0.252 OA
BRANCH  72  74
ATOM     74  C   UNL A   1      31.515  27.705  23.072  1.00  0.00     0.155 C 
ATOM     75  C   UNL A   1      31.647  26.642  24.147  1.00  0.00     0.040 C 
ATOM     76  C   UNL A   1      30.277  28.529  23.367  1.00  0.00     0.277 C 
ATOM     77  C   UNL A   1      30.386  25.804  24.338  1.00  0.00     0.134 C 
ATOM     78  N   UNL A   1      29.098  27.671  23.265  1.00  0.00    -0.330 N 
ATOM     79  C   UNL A   1      29.100  26.671  24.349  1.00  0.00     0.276 C 
ATOM     80  H   UNL A   1      29.169  27.165  22.382  1.00  0.00     0.348 HD
BRANCH  77  81
ATOM     81  C   UNL A   1      30.410  24.893  25.581  1.00  0.00     0.231 C 
ATOM     82  O   UNL A   1      29.577  25.034  26.479  1.00  0.00    -0.274 OA
ATOM     83  N   UNL A   1      31.214  23.773  25.541  1.00  0.00    -0.342 N 
ATOM     84  C   UNL A   1      32.661  23.683  25.454  1.00  0.00     0.119 C 
ATOM     85  C   UNL A   1      30.670  22.466  25.872  1.00  0.00     0.119 C 
ATOM     86  C   UNL A   1      32.860  22.310  24.851  1.00  0.00     0.023 C 
ATOM     87  C   UNL A   1      31.812  21.484  25.593  1.00  0.00     0.023 C 
ENDBRANCH  77  81
BRANCH  78  88
ATOM     88  C   UNL A   1      27.827  28.395  23.110  1.00  0.00     0.300 C 
BRANCH  88  89
ATOM     89  C   UNL A   1      27.899  29.822  22.632  1.00  0.00     0.025 A 
ATOM     90  C   UNL A   1      28.104  30.140  21.281  1.00  0.00     0.013 A 
ATOM     91  C   UNL A   1      27.751  30.885  23.512  1.00  0.00     0.120 A 
ATOM     92  C   UNL A   1      28.205  31.466  20.882  1.00  0.00     0.021 A 
ATOM     93  N   UNL A   1      27.820  32.190  23.150  1.00  0.00    -0.264 NA
ATOM     94  C   UNL A   1      28.057  32.446  21.845  1.00  0.00     0.111 A 
ENDBRANCH  88  89
ENDBRANCH  78  88
ENDBRANCH  72  74
ENDBRANCH  71  72
ENDBRANCH  70  71
ENDBRANCH   1  70
TORSDOF 17
ENDMDL
MODEL 3
REMARK VINA RESULT:     -11.8      2.245      7.902
REMARK SMILES O=C(OCCOC(=O)[C@H]1C[C@@H](C(=O)N2CCCC2)C[N@@H+](Cc2cccnc2)C1)c1ccc(-c2c3nc(c(-c4cccc(S(=O)(=O)[O-])c4F)c4ccc([nH]4)c(-c4cccc(S(=O)(=O)[O-])c4F)c4nc(c(-c5cccc(S(=O)(=O)[O-])c5F)c5ccc2[nH]5)C=C4)C=C3)cc1
REMARK SMILES IDX 4 1 3 2 2 3 1 4 29 5 30 6 91 7 31 8 90 9 32 10 33 11 34 12
REMARK SMILES IDX 84 13 35 14 89 15 83 16 85 17 36 18 88 19 82 20 81 21 37 23
REMARK SMILES IDX 69 24 49 25 68 26 50 27 53 28 67 29 86 30 51 31 52 32 66 34
REMARK SMILES IDX 87 35 54 36 38 37 39 38 47 39 40 40 42 41 48 42 41 43 43 44
REMARK SMILES IDX 44 45 45 46 46 47 70 48 71 49 79 50 72 51 74 52 80 53 73 54
REMARK SMILES IDX 75 55 76 56 77 57 78 58 55 59 56 60 64 61 57 62 59 63 65 64
REMARK SMILES IDX 58 65 60 66 61 67 62 68 63 69 5 70 6 71 7 72 8 73 9 74 10 75
REMARK SMILES IDX 28 76 11 77 20 78 19 79 12 81 13 82 14 83 15 84 18 85 16 86
REMARK SMILES IDX 17 87 21 88 22 89 23 90 27 91 24 92 26 93 25 94
REMARK H PARENT 85 22 53 33 20 80
REMARK Flexibility Score: inf
ROOT
ATOM      1  C   UNL A   1      32.017  32.535  27.073  1.00  0.00     0.275 C 
ENDROOT
BRANCH   1   2
ATOM      2  O   UNL A   1      32.734  33.773  27.225  1.00  0.00    -0.458 OA
BRANCH   2   3
ATOM      3  C   UNL A   1      33.175  34.367  28.360  1.00  0.00     0.338 C 
ATOM      4  O   UNL A   1      32.742  35.479  28.660  1.00  0.00    -0.246 OA
BRANCH   3   5
ATOM      5  C   UNL A   1      34.314  33.826  29.159  1.00  0.00     0.060 A 
ATOM      6  C   UNL A   1      35.647  34.227  29.079  1.00  0.00     0.016 A 
ATOM      7  C   UNL A   1      33.992  32.803  30.063  1.00  0.00     0.016 A 
ATOM      8  C   UNL A   1      36.608  33.687  29.944  1.00  0.00     0.010 A 
ATOM      9  C   UNL A   1      34.926  32.319  30.978  1.00  0.00     0.010 A 
ATOM     10  C   UNL A   1      36.256  32.731  30.904  1.00  0.00    -0.014 A 
BRANCH  10  11
ATOM     11  C   UNL A   1      37.303  32.049  31.703  1.00  0.00     0.031 A 
ATOM     12  C   UNL A   1      38.082  30.925  31.071  1.00  0.00     0.074 A 
ATOM     13  C   UNL A   1      37.574  32.441  32.963  1.00  0.00     0.049 A 
ATOM     14  N   UNL A   1      39.149  30.313  31.511  1.00  0.00    -0.248 NA
ATOM     15  C   UNL A   1      37.589  30.407  29.781  1.00  0.00     0.031 C 
ATOM     16  C   UNL A   1      36.818  33.437  33.726  1.00  0.00     0.029 A 
ATOM     17  N   UNL A   1      38.565  32.045  33.826  1.00  0.00    -0.354 N 
ATOM     18  C   UNL A   1      39.452  29.351  30.554  1.00  0.00     0.074 A 
ATOM     19  C   UNL A   1      38.410  29.395  29.557  1.00  0.00     0.031 C 
ATOM     20  C   UNL A   1      37.385  33.585  34.937  1.00  0.00     0.029 A 
ATOM     21  C   UNL A   1      38.553  32.713  35.030  1.00  0.00     0.049 A 
ATOM     22  H   UNL A   1      39.224  31.348  33.605  1.00  0.00     0.167 HD
ATOM     23  C   UNL A   1      40.539  28.551  30.463  1.00  0.00     0.034 A 
ATOM     24  C   UNL A   1      39.415  32.651  36.066  1.00  0.00     0.034 A 
ATOM     25  C   UNL A   1      41.589  28.533  31.437  1.00  0.00     0.049 A 
ATOM     26  C   UNL A   1      40.649  31.790  35.924  1.00  0.00     0.074 A 
ATOM     27  C   UNL A   1      42.759  27.798  31.435  1.00  0.00     0.029 A 
ATOM     28  N   UNL A   1      41.591  29.296  32.594  1.00  0.00    -0.354 N 
ATOM     29  N   UNL A   1      41.025  31.041  34.914  1.00  0.00    -0.248 NA
ATOM     30  C   UNL A   1      41.610  31.816  37.037  1.00  0.00     0.031 C 
ATOM     31  C   UNL A   1      43.472  28.122  32.595  1.00  0.00     0.029 A 
ATOM     32  C   UNL A   1      42.747  29.063  33.312  1.00  0.00     0.049 A 
ATOM     33  H   UNL A   1      40.872  29.913  32.864  1.00  0.00     0.167 HD
ATOM     34  C   UNL A   1      42.280  30.544  35.251  1.00  0.00     0.074 A 
ATOM     35  C   UNL A   1      42.612  31.098  36.548  1.00  0.00     0.031 C 
ATOM     36  C   UNL A   1      43.081  29.694  34.562  1.00  0.00     0.034 A 
BRANCH  23  37
ATOM     37  C   UNL A   1      40.664  27.720  29.215  1.00  0.00     0.023 A 
ATOM     38  C   UNL A   1      39.991  26.479  29.159  1.00  0.00     0.012 A 
ATOM     39  C   UNL A   1      41.458  28.126  28.129  1.00  0.00     0.148 A 
ATOM     40  C   UNL A   1      40.150  25.632  28.065  1.00  0.00     0.002 A 
ATOM     41  C   UNL A   1      41.581  27.292  27.023  1.00  0.00     0.091 A 
ATOM     42  F   UNL A   1      42.104  29.298  28.210  1.00  0.00    -0.205 F 
ATOM     43  C   UNL A   1      40.941  26.040  26.996  1.00  0.00     0.022 A 
BRANCH  41  44
ATOM     44  S   UNL A   1      42.536  27.739  25.569  1.00  0.00     0.127 S 
ATOM     45  O   UNL A   1      43.868  27.941  26.143  1.00  0.00    -0.237 OA
ATOM     46  O   UNL A   1      42.409  26.537  24.740  1.00  0.00    -0.237 OA
ATOM     47  O   UNL A   1      41.907  28.925  25.021  1.00  0.00    -0.744 OA
ENDBRANCH  41  44
ENDBRANCH  23  37
BRANCH  24  48
ATOM     48  C   UNL A   1      39.221  33.513  37.269  1.00  0.00     0.023 A 
ATOM     49  C   UNL A   1      39.786  34.805  37.293  1.00  0.00     0.012 A 
ATOM     50  C   UNL A   1      38.497  33.067  38.392  1.00  0.00     0.148 A 
ATOM     51  C   UNL A   1      39.676  35.614  38.425  1.00  0.00     0.002 A 
ATOM     52  C   UNL A   1      38.348  33.899  39.498  1.00  0.00     0.091 A 
ATOM     53  F   UNL A   1      37.974  31.833  38.365  1.00  0.00    -0.205 F 
ATOM     54  C   UNL A   1      38.953  35.165  39.525  1.00  0.00     0.022 A 
BRANCH  52  55
ATOM     55  S   UNL A   1      37.323  33.443  40.903  1.00  0.00     0.127 S 
ATOM     56  O   UNL A   1      38.164  32.466  41.585  1.00  0.00    -0.237 OA
ATOM     57  O   UNL A   1      37.169  34.721  41.603  1.00  0.00    -0.237 OA
ATOM     58  O   UNL A   1      36.086  32.938  40.324  1.00  0.00    -0.744 OA
ENDBRANCH  52  55
ENDBRANCH  24  48
BRANCH  36  59
ATOM     59  C   UNL A   1      44.411  29.334  35.168  1.00  0.00     0.023 A 
ATOM     60  C   UNL A   1      45.564  30.047  34.791  1.00  0.00     0.012 A 
ATOM     61  C   UNL A   1      44.494  28.372  36.194  1.00  0.00     0.148 A 
ATOM     62  C   UNL A   1      46.787  29.793  35.410  1.00  0.00     0.002 A 
ATOM     63  C   UNL A   1      45.705  28.158  36.839  1.00  0.00     0.091 A 
ATOM     64  F   UNL A   1      43.388  27.687  36.522  1.00  0.00    -0.205 F 
ATOM     65  C   UNL A   1      46.854  28.860  36.443  1.00  0.00     0.022 A 
BRANCH  63  66
ATOM     66  S   UNL A   1      45.851  27.055  38.249  1.00  0.00     0.127 S 
ATOM     67  O   UNL A   1      45.510  25.763  37.655  1.00  0.00    -0.237 OA
ATOM     68  O   UNL A   1      47.258  27.203  38.621  1.00  0.00    -0.237 OA
ATOM     69  O   UNL A   1      44.912  27.559  39.244  1.00  0.00    -0.744 OA
ENDBRANCH  63  66
ENDBRANCH  36  59
ENDBRANCH  10  11
ENDBRANCH   3   5
ENDBRANCH   2   3
ENDBRANCH   1   2
BRANCH   1  70
ATOM     70  C   UNL A   1      32.903  31.294  26.990  1.00  0.00     0.274 C 
BRANCH  70  71
ATOM     71  O   UNL A   1      32.244  30.180  26.376  1.00  0.00    -0.462 OA
BRANCH  71  72
ATOM     72  C   UNL A   1      33.058  29.320  25.701  1.00  0.00     0.314 C 
ATOM     73  O   UNL A   1      34.087  28.831  26.155  1.00  0.00    -0.252 OA
BRANCH  72  74
ATOM     74  C   UNL A   1      32.544  29.060  24.304  1.00  0.00     0.155 C 
ATOM     75  C   UNL A   1      33.126  27.757  23.789  1.00  0.00     0.040 C 
ATOM     76  C   UNL A   1      31.035  28.920  24.357  1.00  0.00     0.277 C 
ATOM     77  C   UNL A   1      32.508  27.288  22.474  1.00  0.00     0.134 C 
ATOM     78  N   UNL A   1      30.525  28.733  23.000  1.00  0.00    -0.330 N 
ATOM     79  C   UNL A   1      30.963  27.430  22.466  1.00  0.00     0.276 C 
ATOM     80  H   UNL A   1      30.945  29.458  22.417  1.00  0.00     0.348 HD
BRANCH  77  81
ATOM     81  C   UNL A   1      32.902  25.855  22.063  1.00  0.00     0.231 C 
ATOM     82  O   UNL A   1      33.305  25.619  20.922  1.00  0.00    -0.274 OA
ATOM     83  N   UNL A   1      33.030  24.913  23.061  1.00  0.00    -0.342 N 
ATOM     84  C   UNL A   1      32.018  24.373  23.951  1.00  0.00     0.119 C 
ATOM     85  C   UNL A   1      34.235  24.106  23.158  1.00  0.00     0.119 C 
ATOM     86  C   UNL A   1      32.844  23.907  25.130  1.00  0.00     0.023 C 
ATOM     87  C   UNL A   1      34.056  23.287  24.440  1.00  0.00     0.023 C 
ENDBRANCH  77  81
BRANCH  78  88
ATOM     88  C   UNL A   1      29.087  28.999  22.844  1.00  0.00     0.300 C 
BRANCH  88  89
ATOM     89  C   UNL A   1      28.691  30.336  22.272  1.00  0.00     0.025 A 
ATOM     90  C   UNL A   1      28.880  31.530  22.982  1.00  0.00     0.013 A 
ATOM     91  C   UNL A   1      28.131  30.440  21.006  1.00  0.00     0.120 A 
ATOM     92  C   UNL A   1      28.466  32.740  22.441  1.00  0.00     0.021 A 
ATOM     93  N   UNL A   1      27.739  31.608  20.440  1.00  0.00    -0.264 NA
ATOM     94  C   UNL A   1      27.907  32.727  21.178  1.00  0.00     0.111 A 
ENDBRANCH  88  89
ENDBRANCH  78  88
ENDBRANCH  72  74
ENDBRANCH  71  72
ENDBRANCH  70  71
ENDBRANCH   1  70
TORSDOF 17
ENDMDL
