MODEL 1
REMARK VINA RESULT:     -11.5      0.000      0.000
REMARK SMILES C/C=C/C[C@H](Cc1cccc(F)c1)C(=O)OCCOC(=O)c1ccc(-c2c3nc(c(-c4cccc(S(=O)(=O)[O-])c4F)c4ccc([nH]4)c(-c4cccc(S(=O)(=O)[O-])c4F)c4nc(c(-c5cccc(S(=O)(=O)[O-])c5F)c5ccc2[nH]5)C=C4)C=C3)cc1
REMARK SMILES IDX 18 1 17 2 16 3 14 4 15 5 5 6 4 7 3 8 1 9 2 10 6 11 7 12 8 13
REMARK SMILES IDX 13 14 9 15 11 16 10 17 12 18 19 19 20 20 21 21 22 22 23 23
REMARK SMILES IDX 84 24 24 25 83 26 25 27 26 28 27 29 77 30 28 31 82 32 76 33
REMARK SMILES IDX 78 34 29 35 81 36 75 37 74 38 30 40 62 41 42 42 61 43 43 44
REMARK SMILES IDX 46 45 60 46 79 47 44 48 45 49 59 51 80 52 47 53 31 54 32 55
REMARK SMILES IDX 40 56 33 57 35 58 41 59 34 60 36 61 37 62 38 63 39 64 63 65
REMARK SMILES IDX 64 66 72 67 65 68 67 69 73 70 66 71 68 72 69 73 70 74 71 75
REMARK SMILES IDX 48 76 49 77 57 78 50 79 52 80 58 81 51 82 53 83 54 84 55 85
REMARK SMILES IDX 56 86
REMARK H PARENT 78 39 46 50
REMARK Flexibility Score: inf
ROOT
ATOM      1  C   UNL A   1      36.810  21.203  24.472  1.00  0.00     0.275 C 
ENDROOT
BRANCH   1   2
ATOM      2  C   UNL A   1      36.091  22.449  23.960  1.00  0.00     0.274 C 
BRANCH   2   3
ATOM      3  O   UNL A   1      34.686  22.413  24.285  1.00  0.00    -0.462 OA
BRANCH   3   4
ATOM      4  C   UNL A   1      33.831  22.636  23.252  1.00  0.00     0.309 C 
ATOM      5  O   UNL A   1      34.075  23.362  22.295  1.00  0.00    -0.252 OA
BRANCH   4   6
ATOM      6  C   UNL A   1      32.463  22.001  23.452  1.00  0.00     0.107 C 
BRANCH   6   7
ATOM      7  C   UNL A   1      31.500  23.183  23.690  1.00  0.00     0.042 C 
BRANCH   7   8
ATOM      8  C   UNL A   1      31.718  23.928  24.975  1.00  0.00    -0.031 C 
ATOM      9  C   UNL A   1      32.161  26.035  26.255  1.00  0.00     0.035 C 
ATOM     10  C   UNL A   1      31.849  25.262  25.018  1.00  0.00    -0.035 C 
ENDBRANCH   7   8
ENDBRANCH   6   7
BRANCH   6  11
ATOM     11  C   UNL A   1      32.430  20.886  24.529  1.00  0.00     0.051 C 
BRANCH  11  12
ATOM     12  C   UNL A   1      32.928  19.511  24.112  1.00  0.00    -0.044 A 
ATOM     13  C   UNL A   1      32.351  18.885  22.993  1.00  0.00     0.004 A 
ATOM     14  C   UNL A   1      34.023  18.879  24.719  1.00  0.00     0.043 A 
ATOM     15  C   UNL A   1      32.818  17.651  22.527  1.00  0.00     0.003 A 
ATOM     16  C   UNL A   1      34.467  17.639  24.262  1.00  0.00     0.123 A 
ATOM     17  C   UNL A   1      33.875  17.018  23.172  1.00  0.00     0.039 A 
ATOM     18  F   UNL A   1      35.491  17.039  24.884  1.00  0.00    -0.207 F 
ENDBRANCH  11  12
ENDBRANCH   6  11
ENDBRANCH   4   6
ENDBRANCH   3   4
ENDBRANCH   2   3
ENDBRANCH   1   2
BRANCH   1  19
ATOM     19  O   UNL A   1      37.322  21.431  25.795  1.00  0.00    -0.458 OA
BRANCH  19  20
ATOM     20  C   UNL A   1      38.645  21.200  25.955  1.00  0.00     0.338 C 
ATOM     21  O   UNL A   1      39.254  20.179  25.690  1.00  0.00    -0.246 OA
BRANCH  20  22
ATOM     22  C   UNL A   1      39.282  22.410  26.496  1.00  0.00     0.060 A 
ATOM     23  C   UNL A   1      38.782  23.663  26.141  1.00  0.00     0.016 A 
ATOM     24  C   UNL A   1      40.430  22.301  27.276  1.00  0.00     0.016 A 
ATOM     25  C   UNL A   1      39.458  24.819  26.520  1.00  0.00     0.010 A 
ATOM     26  C   UNL A   1      41.078  23.464  27.703  1.00  0.00     0.010 A 
ATOM     27  C   UNL A   1      40.612  24.731  27.307  1.00  0.00    -0.014 A 
BRANCH  27  28
ATOM     28  C   UNL A   1      41.350  25.960  27.694  1.00  0.00     0.031 A 
ATOM     29  C   UNL A   1      40.674  27.009  28.531  1.00  0.00     0.074 A 
ATOM     30  C   UNL A   1      42.618  26.141  27.278  1.00  0.00     0.049 A 
ATOM     31  N   UNL A   1      41.093  28.206  28.847  1.00  0.00    -0.248 NA
ATOM     32  C   UNL A   1      39.348  26.672  29.075  1.00  0.00     0.031 C 
ATOM     33  C   UNL A   1      43.390  25.186  26.482  1.00  0.00     0.029 A 
ATOM     34  N   UNL A   1      43.477  27.198  27.455  1.00  0.00    -0.354 N 
ATOM     35  C   UNL A   1      40.063  28.787  29.576  1.00  0.00     0.074 A 
ATOM     36  C   UNL A   1      38.999  27.810  29.663  1.00  0.00     0.031 C 
ATOM     37  C   UNL A   1      44.607  25.698  26.240  1.00  0.00     0.029 A 
ATOM     38  C   UNL A   1      44.684  27.038  26.814  1.00  0.00     0.049 A 
ATOM     39  H   UNL A   1      43.251  27.993  27.988  1.00  0.00     0.167 HD
ATOM     40  C   UNL A   1      40.018  30.020  30.135  1.00  0.00     0.034 A 
ATOM     41  C   UNL A   1      45.725  27.884  26.679  1.00  0.00     0.034 A 
ATOM     42  C   UNL A   1      41.106  30.960  30.107  1.00  0.00     0.049 A 
ATOM     43  C   UNL A   1      45.648  29.245  27.315  1.00  0.00     0.074 A 
ATOM     44  C   UNL A   1      41.166  32.217  30.682  1.00  0.00     0.029 A 
ATOM     45  N   UNL A   1      42.326  30.742  29.488  1.00  0.00    -0.354 N 
ATOM     46  N   UNL A   1      44.690  29.759  28.047  1.00  0.00    -0.248 NA
ATOM     47  C   UNL A   1      46.799  30.140  27.119  1.00  0.00     0.031 C 
ATOM     48  C   UNL A   1      42.423  32.764  30.403  1.00  0.00     0.029 A 
ATOM     49  C   UNL A   1      43.147  31.843  29.664  1.00  0.00     0.049 A 
ATOM     50  H   UNL A   1      42.572  29.927  28.994  1.00  0.00     0.167 HD
ATOM     51  C   UNL A   1      45.128  31.026  28.415  1.00  0.00     0.074 A 
ATOM     52  C   UNL A   1      46.449  31.193  27.846  1.00  0.00     0.031 C 
ATOM     53  C   UNL A   1      44.483  31.973  29.140  1.00  0.00     0.034 A 
BRANCH  40  54
ATOM     54  C   UNL A   1      38.767  30.418  30.870  1.00  0.00     0.023 A 
ATOM     55  C   UNL A   1      38.673  30.188  32.256  1.00  0.00     0.012 A 
ATOM     56  C   UNL A   1      37.729  31.104  30.208  1.00  0.00     0.148 A 
ATOM     57  C   UNL A   1      37.559  30.622  32.973  1.00  0.00     0.002 A 
ATOM     58  C   UNL A   1      36.638  31.565  30.935  1.00  0.00     0.091 A 
ATOM     59  F   UNL A   1      37.829  31.292  28.885  1.00  0.00    -0.205 F 
ATOM     60  C   UNL A   1      36.549  31.320  32.315  1.00  0.00     0.022 A 
BRANCH  58  61
ATOM     61  S   UNL A   1      35.322  32.538  30.195  1.00  0.00     0.127 S 
ATOM     62  O   UNL A   1      36.034  33.758  29.816  1.00  0.00    -0.237 OA
ATOM     63  O   UNL A   1      34.910  31.699  29.069  1.00  0.00    -0.237 OA
ATOM     64  O   UNL A   1      34.311  32.702  31.231  1.00  0.00    -0.744 OA
ENDBRANCH  58  61
ENDBRANCH  40  54
BRANCH  41  65
ATOM     65  C   UNL A   1      46.942  27.440  25.944  1.00  0.00     0.023 A 
ATOM     66  C   UNL A   1      47.843  26.561  26.574  1.00  0.00     0.012 A 
ATOM     67  C   UNL A   1      47.177  27.822  24.608  1.00  0.00     0.148 A 
ATOM     68  C   UNL A   1      48.961  26.079  25.893  1.00  0.00     0.002 A 
ATOM     69  C   UNL A   1      48.260  27.292  23.916  1.00  0.00     0.091 A 
ATOM     70  F   UNL A   1      46.322  28.679  24.031  1.00  0.00    -0.205 F 
ATOM     71  C   UNL A   1      49.161  26.431  24.561  1.00  0.00     0.022 A 
BRANCH  69  72
ATOM     72  S   UNL A   1      48.506  27.577  22.159  1.00  0.00     0.127 S 
ATOM     73  O   UNL A   1      48.721  26.221  21.662  1.00  0.00    -0.237 OA
ATOM     74  O   UNL A   1      47.235  28.184  21.765  1.00  0.00    -0.237 OA
ATOM     75  O   UNL A   1      49.648  28.476  22.068  1.00  0.00    -0.744 OA
ENDBRANCH  69  72
ENDBRANCH  41  65
BRANCH  53  76
ATOM     76  C   UNL A   1      45.188  33.280  29.378  1.00  0.00     0.023 A 
ATOM     77  C   UNL A   1      46.030  33.414  30.498  1.00  0.00     0.012 A 
ATOM     78  C   UNL A   1      45.111  34.327  28.437  1.00  0.00     0.148 A 
ATOM     79  C   UNL A   1      46.778  34.576  30.687  1.00  0.00     0.002 A 
ATOM     80  C   UNL A   1      45.889  35.465  28.611  1.00  0.00     0.091 A 
ATOM     81  F   UNL A   1      44.287  34.185  27.389  1.00  0.00    -0.205 F 
ATOM     82  C   UNL A   1      46.718  35.594  29.738  1.00  0.00     0.022 A 
BRANCH  80  83
ATOM     83  S   UNL A   1      45.946  36.786  27.393  1.00  0.00     0.127 S 
ATOM     84  O   UNL A   1      46.881  37.723  28.012  1.00  0.00    -0.237 OA
ATOM     85  O   UNL A   1      46.466  36.099  26.210  1.00  0.00    -0.237 OA
ATOM     86  O   UNL A   1      44.576  37.263  27.258  1.00  0.00    -0.744 OA
ENDBRANCH  80  83
ENDBRANCH  53  76
ENDBRANCH  27  28
ENDBRANCH  20  22
ENDBRANCH  19  20
ENDBRANCH   1  19
TORSDOF 18
ENDMDL
MODEL 2
REMARK VINA RESULT:     -11.4      6.086     10.599
REMARK SMILES C/C=C/C[C@H](Cc1cccc(F)c1)C(=O)OCCOC(=O)c1ccc(-c2c3nc(c(-c4cccc(S(=O)(=O)[O-])c4F)c4ccc([nH]4)c(-c4cccc(S(=O)(=O)[O-])c4F)c4nc(c(-c5cccc(S(=O)(=O)[O-])c5F)c5ccc2[nH]5)C=C4)C=C3)cc1
REMARK SMILES IDX 18 1 17 2 16 3 14 4 15 5 5 6 4 7 3 8 1 9 2 10 6 11 7 12 8 13
REMARK SMILES IDX 13 14 9 15 11 16 10 17 12 18 19 19 20 20 21 21 22 22 23 23
REMARK SMILES IDX 84 24 24 25 83 26 25 27 26 28 27 29 77 30 28 31 82 32 76 33
REMARK SMILES IDX 78 34 29 35 81 36 75 37 74 38 30 40 62 41 42 42 61 43 43 44
REMARK SMILES IDX 46 45 60 46 79 47 44 48 45 49 59 51 80 52 47 53 31 54 32 55
REMARK SMILES IDX 40 56 33 57 35 58 41 59 34 60 36 61 37 62 38 63 39 64 63 65
REMARK SMILES IDX 64 66 72 67 65 68 67 69 73 70 66 71 68 72 69 73 70 74 71 75
REMARK SMILES IDX 48 76 49 77 57 78 50 79 52 80 58 81 51 82 53 83 54 84 55 85
REMARK SMILES IDX 56 86
REMARK H PARENT 78 39 46 50
REMARK Flexibility Score: inf
ROOT
ATOM      1  C   UNL A   1      34.037  33.734  27.993  1.00  0.00     0.275 C 
ENDROOT
BRANCH   1   2
ATOM      2  C   UNL A   1      34.272  34.576  29.246  1.00  0.00     0.274 C 
BRANCH   2   3
ATOM      3  O   UNL A   1      33.719  33.940  30.416  1.00  0.00    -0.462 OA
BRANCH   3   4
ATOM      4  C   UNL A   1      34.615  33.345  31.248  1.00  0.00     0.309 C 
ATOM      5  O   UNL A   1      34.373  32.362  31.939  1.00  0.00    -0.252 OA
BRANCH   4   6
ATOM      6  C   UNL A   1      35.933  34.098  31.354  1.00  0.00     0.107 C 
BRANCH   6   7
ATOM      7  C   UNL A   1      37.005  33.108  30.852  1.00  0.00     0.042 C 
BRANCH   7   8
ATOM      8  C   UNL A   1      38.065  33.711  29.978  1.00  0.00    -0.031 C 
ATOM      9  C   UNL A   1      40.390  34.564  29.599  1.00  0.00     0.035 C 
ATOM     10  C   UNL A   1      39.328  33.883  30.395  1.00  0.00    -0.035 C 
ENDBRANCH   7   8
ENDBRANCH   6   7
BRANCH   6  11
ATOM     11  C   UNL A   1      36.200  34.722  32.747  1.00  0.00     0.051 C 
BRANCH  11  12
ATOM     12  C   UNL A   1      37.223  34.024  33.630  1.00  0.00    -0.044 A 
ATOM     13  C   UNL A   1      38.467  34.640  33.854  1.00  0.00     0.004 A 
ATOM     14  C   UNL A   1      36.944  32.844  34.334  1.00  0.00     0.043 A 
ATOM     15  C   UNL A   1      39.417  34.073  34.711  1.00  0.00     0.003 A 
ATOM     16  C   UNL A   1      37.905  32.275  35.169  1.00  0.00     0.123 A 
ATOM     17  C   UNL A   1      39.139  32.877  35.365  1.00  0.00     0.039 A 
ATOM     18  F   UNL A   1      37.627  31.126  35.801  1.00  0.00    -0.207 F 
ENDBRANCH  11  12
ENDBRANCH   6  11
ENDBRANCH   4   6
ENDBRANCH   3   4
ENDBRANCH   2   3
ENDBRANCH   1   2
BRANCH   1  19
ATOM     19  O   UNL A   1      35.101  32.783  27.825  1.00  0.00    -0.458 OA
BRANCH  19  20
ATOM     20  C   UNL A   1      34.759  31.488  28.013  1.00  0.00     0.338 C 
ATOM     21  O   UNL A   1      33.658  30.987  27.872  1.00  0.00    -0.246 OA
BRANCH  20  22
ATOM     22  C   UNL A   1      35.954  30.727  28.406  1.00  0.00     0.060 A 
ATOM     23  C   UNL A   1      35.893  29.882  29.514  1.00  0.00     0.016 A 
ATOM     24  C   UNL A   1      37.157  30.927  27.733  1.00  0.00     0.016 A 
ATOM     25  C   UNL A   1      37.049  29.270  29.991  1.00  0.00     0.010 A 
ATOM     26  C   UNL A   1      38.306  30.268  28.179  1.00  0.00     0.010 A 
ATOM     27  C   UNL A   1      38.267  29.455  29.327  1.00  0.00    -0.014 A 
BRANCH  27  28
ATOM     28  C   UNL A   1      39.506  28.824  29.846  1.00  0.00     0.031 A 
ATOM     29  C   UNL A   1      40.169  29.375  31.077  1.00  0.00     0.074 A 
ATOM     30  C   UNL A   1      40.045  27.771  29.202  1.00  0.00     0.049 A 
ATOM     31  N   UNL A   1      41.326  29.062  31.599  1.00  0.00    -0.248 NA
ATOM     32  C   UNL A   1      39.441  30.423  31.813  1.00  0.00     0.031 C 
ATOM     33  C   UNL A   1      39.483  27.132  28.012  1.00  0.00     0.029 A 
ATOM     34  N   UNL A   1      41.194  27.062  29.450  1.00  0.00    -0.354 N 
ATOM     35  C   UNL A   1      41.492  29.909  32.687  1.00  0.00     0.074 A 
ATOM     36  C   UNL A   1      40.315  30.748  32.756  1.00  0.00     0.031 C 
ATOM     37  C   UNL A   1      40.285  26.126  27.633  1.00  0.00     0.029 A 
ATOM     38  C   UNL A   1      41.447  26.082  28.517  1.00  0.00     0.049 A 
ATOM     39  H   UNL A   1      41.782  27.238  30.219  1.00  0.00     0.167 HD
ATOM     40  C   UNL A   1      42.528  29.970  33.557  1.00  0.00     0.034 A 
ATOM     41  C   UNL A   1      42.505  25.260  28.372  1.00  0.00     0.034 A 
ATOM     42  C   UNL A   1      43.662  29.087  33.527  1.00  0.00     0.049 A 
ATOM     43  C   UNL A   1      43.639  25.348  29.357  1.00  0.00     0.074 A 
ATOM     44  C   UNL A   1      44.741  29.047  34.392  1.00  0.00     0.029 A 
ATOM     45  N   UNL A   1      43.858  28.080  32.595  1.00  0.00    -0.354 N 
ATOM     46  N   UNL A   1      43.756  26.117  30.411  1.00  0.00    -0.248 NA
ATOM     47  C   UNL A   1      44.781  24.446  29.142  1.00  0.00     0.031 C 
ATOM     48  C   UNL A   1      45.594  28.019  33.979  1.00  0.00     0.029 A 
ATOM     49  C   UNL A   1      45.041  27.413  32.863  1.00  0.00     0.049 A 
ATOM     50  H   UNL A   1      43.247  27.871  31.852  1.00  0.00     0.167 HD
ATOM     51  C   UNL A   1      44.972  25.781  30.996  1.00  0.00     0.074 A 
ATOM     52  C   UNL A   1      45.543  24.721  30.193  1.00  0.00     0.031 C 
ATOM     53  C   UNL A   1      45.570  26.320  32.087  1.00  0.00     0.034 A 
BRANCH  40  54
ATOM     54  C   UNL A   1      42.472  30.999  34.653  1.00  0.00     0.023 A 
ATOM     55  C   UNL A   1      42.015  30.627  35.933  1.00  0.00     0.012 A 
ATOM     56  C   UNL A   1      42.959  32.305  34.443  1.00  0.00     0.148 A 
ATOM     57  C   UNL A   1      42.032  31.541  36.985  1.00  0.00     0.002 A 
ATOM     58  C   UNL A   1      43.006  33.200  35.506  1.00  0.00     0.091 A 
ATOM     59  F   UNL A   1      43.368  32.645  33.213  1.00  0.00    -0.205 F 
ATOM     60  C   UNL A   1      42.538  32.822  36.775  1.00  0.00     0.022 A 
BRANCH  58  61
ATOM     61  S   UNL A   1      43.707  34.847  35.355  1.00  0.00     0.127 S 
ATOM     62  O   UNL A   1      44.976  34.567  34.683  1.00  0.00    -0.237 OA
ATOM     63  O   UNL A   1      42.716  35.532  34.525  1.00  0.00    -0.237 OA
ATOM     64  O   UNL A   1      43.820  35.362  36.713  1.00  0.00    -0.744 OA
ENDBRANCH  58  61
ENDBRANCH  40  54
BRANCH  41  65
ATOM     65  C   UNL A   1      42.511  24.257  27.271  1.00  0.00     0.023 A 
ATOM     66  C   UNL A   1      43.184  24.556  26.072  1.00  0.00     0.012 A 
ATOM     67  C   UNL A   1      41.918  22.987  27.428  1.00  0.00     0.148 A 
ATOM     68  C   UNL A   1      43.260  23.615  25.045  1.00  0.00     0.002 A 
ATOM     69  C   UNL A   1      42.048  22.034  26.424  1.00  0.00     0.091 A 
ATOM     70  F   UNL A   1      41.259  22.729  28.566  1.00  0.00    -0.205 F 
ATOM     71  C   UNL A   1      42.706  22.350  25.226  1.00  0.00     0.022 A 
BRANCH  69  72
ATOM     72  S   UNL A   1      41.492  20.338  26.637  1.00  0.00     0.127 S 
ATOM     73  O   UNL A   1      40.047  20.508  26.755  1.00  0.00    -0.237 OA
ATOM     74  O   UNL A   1      41.939  19.711  25.393  1.00  0.00    -0.237 OA
ATOM     75  O   UNL A   1      42.176  19.852  27.828  1.00  0.00    -0.744 OA
ENDBRANCH  69  72
ENDBRANCH  41  65
BRANCH  53  76
ATOM     76  C   UNL A   1      46.910  25.775  32.498  1.00  0.00     0.023 A 
ATOM     77  C   UNL A   1      48.079  26.325  31.937  1.00  0.00     0.012 A 
ATOM     78  C   UNL A   1      47.018  24.810  33.519  1.00  0.00     0.148 A 
ATOM     79  C   UNL A   1      49.337  25.914  32.375  1.00  0.00     0.002 A 
ATOM     80  C   UNL A   1      48.275  24.433  33.979  1.00  0.00     0.091 A 
ATOM     81  F   UNL A   1      45.893  24.285  34.025  1.00  0.00    -0.205 F 
ATOM     82  C   UNL A   1      49.434  24.980  33.405  1.00  0.00     0.022 A 
BRANCH  80  83
ATOM     83  S   UNL A   1      48.494  23.308  35.363  1.00  0.00     0.127 S 
ATOM     84  O   UNL A   1      49.924  23.443  35.633  1.00  0.00    -0.237 OA
ATOM     85  O   UNL A   1      47.624  23.892  36.383  1.00  0.00    -0.237 OA
ATOM     86  O   UNL A   1      48.067  22.000  34.885  1.00  0.00    -0.744 OA
ENDBRANCH  80  83
ENDBRANCH  53  76
ENDBRANCH  27  28
ENDBRANCH  20  22
ENDBRANCH  19  20
ENDBRANCH   1  19
TORSDOF 18
ENDMDL
MODEL 3
REMARK VINA RESULT:     -11.3      2.249      3.416
REMARK SMILES C/C=C/C[C@H](Cc1cccc(F)c1)C(=O)OCCOC(=O)c1ccc(-c2c3nc(c(-c4cccc(S(=O)(=O)[O-])c4F)c4ccc([nH]4)c(-c4cccc(S(=O)(=O)[O-])c4F)c4nc(c(-c5cccc(S(=O)(=O)[O-])c5F)c5ccc2[nH]5)C=C4)C=C3)cc1
REMARK SMILES IDX 18 1 17 2 16 3 14 4 15 5 5 6 4 7 3 8 1 9 2 10 6 11 7 12 8 13
REMARK SMILES IDX 13 14 9 15 11 16 10 17 12 18 19 19 20 20 21 21 22 22 23 23
REMARK SMILES IDX 84 24 24 25 83 26 25 27 26 28 27 29 77 30 28 31 82 32 76 33
REMARK SMILES IDX 78 34 29 35 81 36 75 37 74 38 30 40 62 41 42 42 61 43 43 44
REMARK SMILES IDX 46 45 60 46 79 47 44 48 45 49 59 51 80 52 47 53 31 54 32 55
REMARK SMILES IDX 40 56 33 57 35 58 41 59 34 60 36 61 37 62 38 63 39 64 63 65
REMARK SMILES IDX 64 66 72 67 65 68 67 69 73 70 66 71 68 72 69 73 70 74 71 75
REMARK SMILES IDX 48 76 49 77 57 78 50 79 52 80 58 81 51 82 53 83 54 84 55 85
REMARK SMILES IDX 56 86
REMARK H PARENT 78 39 46 50
REMARK Flexibility Score: inf
ROOT
ATOM      1  C   UNL A   1      36.065  20.898  24.920  1.00  0.00     0.275 C 
ENDROOT
BRANCH   1   2
ATOM      2  C   UNL A   1      34.699  21.581  24.884  1.00  0.00     0.274 C 
BRANCH   2   3
ATOM      3  O   UNL A   1      34.831  23.017  24.891  1.00  0.00    -0.462 OA
BRANCH   3   4
ATOM      4  C   UNL A   1      34.555  23.645  23.717  1.00  0.00     0.309 C 
ATOM      5  O   UNL A   1      35.103  23.391  22.650  1.00  0.00    -0.252 OA
BRANCH   4   6
ATOM      6  C   UNL A   1      33.582  24.805  23.866  1.00  0.00     0.107 C 
BRANCH   6   7
ATOM      7  C   UNL A   1      33.264  24.873  25.375  1.00  0.00     0.042 C 
BRANCH   7   8
ATOM      8  C   UNL A   1      33.341  26.246  25.976  1.00  0.00    -0.031 C 
ATOM      9  C   UNL A   1      32.268  28.302  26.923  1.00  0.00     0.035 C 
ATOM     10  C   UNL A   1      32.254  26.903  26.408  1.00  0.00    -0.035 C 
ENDBRANCH   7   8
ENDBRANCH   6   7
BRANCH   6  11
ATOM     11  C   UNL A   1      32.351  24.728  22.927  1.00  0.00     0.051 C 
BRANCH  11  12
ATOM     12  C   UNL A   1      31.289  25.804  23.094  1.00  0.00    -0.044 A 
ATOM     13  C   UNL A   1      31.475  27.050  22.470  1.00  0.00     0.004 A 
ATOM     14  C   UNL A   1      30.069  25.576  23.746  1.00  0.00     0.043 A 
ATOM     15  C   UNL A   1      30.498  28.050  22.536  1.00  0.00     0.003 A 
ATOM     16  C   UNL A   1      29.110  26.586  23.825  1.00  0.00     0.123 A 
ATOM     17  C   UNL A   1      29.313  27.821  23.227  1.00  0.00     0.039 A 
ATOM     18  F   UNL A   1      27.969  26.356  24.487  1.00  0.00    -0.207 F 
ENDBRANCH  11  12
ENDBRANCH   6  11
ENDBRANCH   4   6
ENDBRANCH   3   4
ENDBRANCH   2   3
ENDBRANCH   1   2
BRANCH   1  19
ATOM     19  O   UNL A   1      36.874  21.456  25.969  1.00  0.00    -0.458 OA
BRANCH  19  20
ATOM     20  C   UNL A   1      38.210  21.320  25.808  1.00  0.00     0.338 C 
ATOM     21  O   UNL A   1      38.799  20.402  25.266  1.00  0.00    -0.246 OA
BRANCH  20  22
ATOM     22  C   UNL A   1      38.885  22.493  26.382  1.00  0.00     0.060 A 
ATOM     23  C   UNL A   1      38.415  23.770  26.076  1.00  0.00     0.016 A 
ATOM     24  C   UNL A   1      40.040  22.327  27.143  1.00  0.00     0.016 A 
ATOM     25  C   UNL A   1      39.126  24.895  26.486  1.00  0.00     0.010 A 
ATOM     26  C   UNL A   1      40.723  23.457  27.601  1.00  0.00     0.010 A 
ATOM     27  C   UNL A   1      40.287  24.750  27.254  1.00  0.00    -0.014 A 
BRANCH  27  28
ATOM     28  C   UNL A   1      41.062  25.944  27.673  1.00  0.00     0.031 A 
ATOM     29  C   UNL A   1      40.403  27.016  28.495  1.00  0.00     0.074 A 
ATOM     30  C   UNL A   1      42.349  26.075  27.300  1.00  0.00     0.049 A 
ATOM     31  N   UNL A   1      40.860  28.193  28.833  1.00  0.00    -0.248 NA
ATOM     32  C   UNL A   1      39.047  26.731  28.995  1.00  0.00     0.031 C 
ATOM     33  C   UNL A   1      43.106  25.093  26.521  1.00  0.00     0.029 A 
ATOM     34  N   UNL A   1      43.245  27.094  27.512  1.00  0.00    -0.354 N 
ATOM     35  C   UNL A   1      39.833  28.811  29.534  1.00  0.00     0.074 A 
ATOM     36  C   UNL A   1      38.727  27.879  29.579  1.00  0.00     0.031 C 
ATOM     37  C   UNL A   1      44.350  25.556  26.323  1.00  0.00     0.029 A 
ATOM     38  C   UNL A   1      44.464  26.889  26.909  1.00  0.00     0.049 A 
ATOM     39  H   UNL A   1      43.034  27.896  28.043  1.00  0.00     0.167 HD
ATOM     40  C   UNL A   1      39.820  30.041  30.100  1.00  0.00     0.034 A 
ATOM     41  C   UNL A   1      45.542  27.691  26.813  1.00  0.00     0.034 A 
ATOM     42  C   UNL A   1      40.946  30.936  30.113  1.00  0.00     0.049 A 
ATOM     43  C   UNL A   1      45.501  29.051  27.456  1.00  0.00     0.074 A 
ATOM     44  C   UNL A   1      41.040  32.186  30.698  1.00  0.00     0.029 A 
ATOM     45  N   UNL A   1      42.176  30.672  29.531  1.00  0.00    -0.354 N 
ATOM     46  N   UNL A   1      44.542  29.600  28.160  1.00  0.00    -0.248 NA
ATOM     47  C   UNL A   1      46.694  29.898  27.303  1.00  0.00     0.031 C 
ATOM     48  C   UNL A   1      42.326  32.683  30.464  1.00  0.00     0.029 A 
ATOM     49  C   UNL A   1      43.035  31.737  29.742  1.00  0.00     0.049 A 
ATOM     50  H   UNL A   1      42.404  29.849  29.041  1.00  0.00     0.167 HD
ATOM     51  C   UNL A   1      45.020  30.845  28.551  1.00  0.00     0.074 A 
ATOM     52  C   UNL A   1      46.364  30.961  28.026  1.00  0.00     0.031 C 
ATOM     53  C   UNL A   1      44.391  31.814  29.262  1.00  0.00     0.034 A 
BRANCH  40  54
ATOM     54  C   UNL A   1      38.563  30.487  30.797  1.00  0.00     0.023 A 
ATOM     55  C   UNL A   1      38.421  30.265  32.180  1.00  0.00     0.012 A 
ATOM     56  C   UNL A   1      37.571  31.207  30.104  1.00  0.00     0.148 A 
ATOM     57  C   UNL A   1      37.303  30.741  32.863  1.00  0.00     0.002 A 
ATOM     58  C   UNL A   1      36.476  31.710  30.798  1.00  0.00     0.091 A 
ATOM     59  F   UNL A   1      37.715  31.388  28.783  1.00  0.00    -0.205 F 
ATOM     60  C   UNL A   1      36.338  31.473  32.175  1.00  0.00     0.022 A 
BRANCH  58  61
ATOM     61  S   UNL A   1      35.218  32.728  30.018  1.00  0.00     0.127 S 
ATOM     62  O   UNL A   1      34.693  31.819  28.999  1.00  0.00    -0.237 OA
ATOM     63  O   UNL A   1      34.301  32.994  31.127  1.00  0.00    -0.237 OA
ATOM     64  O   UNL A   1      35.910  33.904  29.509  1.00  0.00    -0.744 OA
ENDBRANCH  58  61
ENDBRANCH  40  54
BRANCH  41  65
ATOM     65  C   UNL A   1      46.764  27.202  26.114  1.00  0.00     0.023 A 
ATOM     66  C   UNL A   1      46.922  27.466  24.740  1.00  0.00     0.012 A 
ATOM     67  C   UNL A   1      47.797  26.542  26.810  1.00  0.00     0.148 A 
ATOM     68  C   UNL A   1      48.081  27.074  24.069  1.00  0.00     0.002 A 
ATOM     69  C   UNL A   1      48.972  26.207  26.149  1.00  0.00     0.091 A 
ATOM     70  F   UNL A   1      47.618  26.276  28.112  1.00  0.00    -0.205 F 
ATOM     71  C   UNL A   1      49.111  26.460  24.776  1.00  0.00     0.022 A 
BRANCH  69  72
ATOM     72  S   UNL A   1      50.403  25.547  27.014  1.00  0.00     0.127 S 
ATOM     73  O   UNL A   1      49.861  24.326  27.603  1.00  0.00    -0.237 OA
ATOM     74  O   UNL A   1      51.352  25.336  25.921  1.00  0.00    -0.237 OA
ATOM     75  O   UNL A   1      50.801  26.586  27.955  1.00  0.00    -0.744 OA
ENDBRANCH  69  72
ENDBRANCH  41  65
BRANCH  53  76
ATOM     76  C   UNL A   1      45.141  33.089  29.532  1.00  0.00     0.023 A 
ATOM     77  C   UNL A   1      45.959  33.179  30.674  1.00  0.00     0.012 A 
ATOM     78  C   UNL A   1      45.131  34.147  28.600  1.00  0.00     0.148 A 
ATOM     79  C   UNL A   1      46.747  34.308  30.895  1.00  0.00     0.002 A 
ATOM     80  C   UNL A   1      45.949  35.252  28.806  1.00  0.00     0.091 A 
ATOM     81  F   UNL A   1      44.330  34.049  27.530  1.00  0.00    -0.205 F 
ATOM     82  C   UNL A   1      46.753  35.336  29.955  1.00  0.00     0.022 A 
BRANCH  80  83
ATOM     83  S   UNL A   1      46.091  36.581  27.604  1.00  0.00     0.127 S 
ATOM     84  O   UNL A   1      44.809  37.265  27.763  1.00  0.00    -0.237 OA
ATOM     85  O   UNL A   1      47.246  37.329  28.098  1.00  0.00    -0.237 OA
ATOM     86  O   UNL A   1      46.300  35.932  26.316  1.00  0.00    -0.744 OA
ENDBRANCH  80  83
ENDBRANCH  53  76
ENDBRANCH  27  28
ENDBRANCH  20  22
ENDBRANCH  19  20
ENDBRANCH   1  19
TORSDOF 18
ENDMDL
