MODEL 1
REMARK VINA RESULT:     -11.8      0.000      0.000
REMARK SMILES O=C(Cc1ccccc1-c1ccn(C(F)F)c(=O)c1)OCCOC(=O)c1ccc(-c2c3nc(c(-c4cccc(S(=O)(=O)[O-])c4F)c4ccc([nH]4)c(-c4cccc(S(=O)(=O)[O-])c4F)c4nc(c(-c5cccc(S(=O)(=O)[O-])c5F)c5ccc2[nH]5)C=C4)C=C3)cc1
REMARK SMILES IDX 21 1 20 2 2 3 1 4 3 5 4 6 5 7 9 8 6 9 8 10 7 11 10 12 11 13
REMARK SMILES IDX 19 14 12 15 17 16 13 17 18 18 14 19 15 20 16 21 22 22 23 23
REMARK SMILES IDX 24 24 25 25 26 26 27 27 88 28 28 29 87 30 29 31 30 32 31 33
REMARK SMILES IDX 81 34 32 35 86 36 80 37 82 38 33 39 85 40 79 41 78 42 34 44
REMARK SMILES IDX 66 45 46 46 65 47 47 48 50 49 64 50 83 51 48 52 49 53 63 55
REMARK SMILES IDX 84 56 51 57 35 58 36 59 44 60 37 61 39 62 45 63 38 64 40 65
REMARK SMILES IDX 41 66 42 67 43 68 67 69 68 70 76 71 69 72 71 73 77 74 70 75
REMARK SMILES IDX 72 76 73 77 74 78 75 79 52 80 53 81 61 82 54 83 56 84 62 85
REMARK SMILES IDX 55 86 57 87 58 88 59 89 60 90
REMARK H PARENT 82 43 50 54
REMARK Flexibility Score: inf
ROOT
ATOM      1  C   UNL A   1      37.792  19.842  24.670  1.00  0.00     0.274 C 
ENDROOT
BRANCH   1   2
ATOM      2  O   UNL A   1      37.412  21.230  24.652  1.00  0.00    -0.462 OA
BRANCH   2   3
ATOM      3  C   UNL A   1      36.493  21.833  25.442  1.00  0.00     0.310 C 
ATOM      4  O   UNL A   1      36.851  22.814  26.094  1.00  0.00    -0.252 OA
BRANCH   3   5
ATOM      5  C   UNL A   1      35.080  21.287  25.533  1.00  0.00     0.158 C 
BRANCH   5   6
ATOM      6  C   UNL A   1      34.127  21.701  24.429  1.00  0.00    -0.029 A 
ATOM      7  C   UNL A   1      34.289  22.988  23.874  1.00  0.00     0.005 A 
ATOM      8  C   UNL A   1      33.160  20.836  23.860  1.00  0.00    -0.014 A 
ATOM      9  C   UNL A   1      33.505  23.428  22.812  1.00  0.00     0.000 A 
ATOM     10  C   UNL A   1      32.359  21.312  22.805  1.00  0.00     0.009 A 
ATOM     11  C   UNL A   1      32.532  22.594  22.283  1.00  0.00     0.001 A 
BRANCH   8  12
ATOM     12  C   UNL A   1      33.025  19.406  24.240  1.00  0.00    -0.011 A 
ATOM     13  C   UNL A   1      32.432  18.955  25.482  1.00  0.00     0.027 A 
ATOM     14  C   UNL A   1      33.539  18.481  23.408  1.00  0.00     0.080 A 
ATOM     15  C   UNL A   1      32.614  17.700  25.909  1.00  0.00     0.095 A 
ATOM     16  C   UNL A   1      33.568  17.040  23.789  1.00  0.00     0.255 A 
ATOM     17  N   UNL A   1      33.233  16.765  25.104  1.00  0.00    -0.258 N 
ATOM     18  O   UNL A   1      33.895  16.208  22.952  1.00  0.00    -0.269 OA
BRANCH  17  19
ATOM     19  C   UNL A   1      33.510  15.439  25.584  1.00  0.00     0.451 C 
ATOM     20  F   UNL A   1      32.704  14.517  25.009  1.00  0.00    -0.185 F 
ATOM     21  F   UNL A   1      34.799  15.098  25.341  1.00  0.00    -0.185 F 
ENDBRANCH  17  19
ENDBRANCH   8  12
ENDBRANCH   5   6
ENDBRANCH   3   5
ENDBRANCH   2   3
ENDBRANCH   1   2
BRANCH   1  22
ATOM     22  C   UNL A   1      38.960  19.577  25.617  1.00  0.00     0.275 C 
BRANCH  22  23
ATOM     23  O   UNL A   1      39.670  20.797  25.889  1.00  0.00    -0.458 OA
BRANCH  23  24
ATOM     24  C   UNL A   1      40.460  20.791  26.992  1.00  0.00     0.338 C 
ATOM     25  O   UNL A   1      40.947  19.810  27.529  1.00  0.00    -0.246 OA
BRANCH  24  26
ATOM     26  C   UNL A   1      40.813  22.187  27.345  1.00  0.00     0.060 A 
ATOM     27  C   UNL A   1      40.261  23.220  26.576  1.00  0.00     0.016 A 
ATOM     28  C   UNL A   1      41.634  22.488  28.437  1.00  0.00     0.016 A 
ATOM     29  C   UNL A   1      40.540  24.553  26.890  1.00  0.00     0.010 A 
ATOM     30  C   UNL A   1      41.924  23.822  28.740  1.00  0.00     0.010 A 
ATOM     31  C   UNL A   1      41.393  24.860  27.958  1.00  0.00    -0.014 A 
BRANCH  31  32
ATOM     32  C   UNL A   1      41.833  26.258  28.185  1.00  0.00     0.031 A 
ATOM     33  C   UNL A   1      43.206  26.670  27.740  1.00  0.00     0.074 A 
ATOM     34  C   UNL A   1      41.043  27.144  28.816  1.00  0.00     0.049 A 
ATOM     35  N   UNL A   1      43.789  27.835  27.830  1.00  0.00    -0.248 NA
ATOM     36  C   UNL A   1      44.039  25.622  27.129  1.00  0.00     0.031 C 
ATOM     37  C   UNL A   1      39.705  26.861  29.322  1.00  0.00     0.029 A 
ATOM     38  N   UNL A   1      41.256  28.462  29.140  1.00  0.00    -0.354 N 
ATOM     39  C   UNL A   1      45.068  27.656  27.326  1.00  0.00     0.074 A 
ATOM     40  C   UNL A   1      45.175  26.272  26.918  1.00  0.00     0.031 C 
ATOM     41  C   UNL A   1      39.206  27.978  29.880  1.00  0.00     0.029 A 
ATOM     42  C   UNL A   1      40.194  29.050  29.789  1.00  0.00     0.049 A 
ATOM     43  H   UNL A   1      42.090  28.940  28.929  1.00  0.00     0.167 HD
ATOM     44  C   UNL A   1      46.068  28.561  27.216  1.00  0.00     0.034 A 
ATOM     45  C   UNL A   1      40.037  30.307  30.252  1.00  0.00     0.034 A 
ATOM     46  C   UNL A   1      45.968  29.939  27.608  1.00  0.00     0.049 A 
ATOM     47  C   UNL A   1      41.157  31.304  30.079  1.00  0.00     0.074 A 
ATOM     48  C   UNL A   1      46.920  30.936  27.488  1.00  0.00     0.029 A 
ATOM     49  N   UNL A   1      44.862  30.514  28.214  1.00  0.00    -0.354 N 
ATOM     50  N   UNL A   1      42.309  31.161  29.467  1.00  0.00    -0.248 NA
ATOM     51  C   UNL A   1      40.953  32.643  30.656  1.00  0.00     0.031 C 
ATOM     52  C   UNL A   1      46.401  32.107  28.047  1.00  0.00     0.029 A 
ATOM     53  C   UNL A   1      45.116  31.846  28.496  1.00  0.00     0.049 A 
ATOM     54  H   UNL A   1      44.020  30.045  28.414  1.00  0.00     0.167 HD
ATOM     55  C   UNL A   1      42.955  32.388  29.573  1.00  0.00     0.074 A 
ATOM     56  C   UNL A   1      42.054  33.277  30.276  1.00  0.00     0.031 C 
ATOM     57  C   UNL A   1      44.197  32.738  29.154  1.00  0.00     0.034 A 
BRANCH  44  58
ATOM     58  C   UNL A   1      47.370  28.083  26.639  1.00  0.00     0.023 A 
ATOM     59  C   UNL A   1      48.420  27.710  27.501  1.00  0.00     0.012 A 
ATOM     60  C   UNL A   1      47.535  27.960  25.246  1.00  0.00     0.148 A 
ATOM     61  C   UNL A   1      49.626  27.243  26.984  1.00  0.00     0.002 A 
ATOM     62  C   UNL A   1      48.726  27.459  24.739  1.00  0.00     0.091 A 
ATOM     63  F   UNL A   1      46.533  28.351  24.446  1.00  0.00    -0.205 F 
ATOM     64  C   UNL A   1      49.775  27.107  25.605  1.00  0.00     0.022 A 
BRANCH  62  65
ATOM     65  S   UNL A   1      48.989  27.190  22.983  1.00  0.00     0.127 S 
ATOM     66  O   UNL A   1      50.443  27.047  22.921  1.00  0.00    -0.237 OA
ATOM     67  O   UNL A   1      48.244  25.953  22.746  1.00  0.00    -0.237 OA
ATOM     68  O   UNL A   1      48.445  28.363  22.313  1.00  0.00    -0.744 OA
ENDBRANCH  62  65
ENDBRANCH  44  58
BRANCH  45  69
ATOM     69  C   UNL A   1      38.752  30.720  30.889  1.00  0.00     0.023 A 
ATOM     70  C   UNL A   1      38.593  30.567  32.281  1.00  0.00     0.012 A 
ATOM     71  C   UNL A   1      37.690  31.259  30.138  1.00  0.00     0.148 A 
ATOM     72  C   UNL A   1      37.391  30.908  32.904  1.00  0.00     0.002 A 
ATOM     73  C   UNL A   1      36.518  31.655  30.774  1.00  0.00     0.091 A 
ATOM     74  F   UNL A   1      37.839  31.372  28.810  1.00  0.00    -0.205 F 
ATOM     75  C   UNL A   1      36.359  31.463  32.154  1.00  0.00     0.022 A 
BRANCH  73  76
ATOM     76  S   UNL A   1      35.201  32.507  29.897  1.00  0.00     0.127 S 
ATOM     77  O   UNL A   1      34.250  32.781  30.970  1.00  0.00    -0.237 OA
ATOM     78  O   UNL A   1      35.888  33.687  29.368  1.00  0.00    -0.237 OA
ATOM     79  O   UNL A   1      34.754  31.573  28.870  1.00  0.00    -0.744 OA
ENDBRANCH  73  76
ENDBRANCH  45  69
BRANCH  57  80
ATOM     80  C   UNL A   1      44.679  34.137  29.447  1.00  0.00     0.023 A 
ATOM     81  C   UNL A   1      45.244  34.422  30.705  1.00  0.00     0.012 A 
ATOM     82  C   UNL A   1      44.675  35.133  28.450  1.00  0.00     0.148 A 
ATOM     83  C   UNL A   1      45.779  35.681  30.976  1.00  0.00     0.002 A 
ATOM     84  C   UNL A   1      45.249  36.374  28.712  1.00  0.00     0.091 A 
ATOM     85  F   UNL A   1      44.121  34.848  27.262  1.00  0.00    -0.205 F 
ATOM     86  C   UNL A   1      45.794  36.652  29.976  1.00  0.00     0.022 A 
BRANCH  84  87
ATOM     87  S   UNL A   1      45.403  37.654  27.460  1.00  0.00     0.127 S 
ATOM     88  O   UNL A   1      44.008  38.042  27.257  1.00  0.00    -0.237 OA
ATOM     89  O   UNL A   1      46.221  38.657  28.140  1.00  0.00    -0.237 OA
ATOM     90  O   UNL A   1      46.047  37.023  26.316  1.00  0.00    -0.744 OA
ENDBRANCH  84  87
ENDBRANCH  57  80
ENDBRANCH  31  32
ENDBRANCH  24  26
ENDBRANCH  23  24
ENDBRANCH  22  23
ENDBRANCH   1  22
TORSDOF 17
ENDMDL
MODEL 2
REMARK VINA RESULT:     -11.7      1.536      1.938
REMARK SMILES O=C(Cc1ccccc1-c1ccn(C(F)F)c(=O)c1)OCCOC(=O)c1ccc(-c2c3nc(c(-c4cccc(S(=O)(=O)[O-])c4F)c4ccc([nH]4)c(-c4cccc(S(=O)(=O)[O-])c4F)c4nc(c(-c5cccc(S(=O)(=O)[O-])c5F)c5ccc2[nH]5)C=C4)C=C3)cc1
REMARK SMILES IDX 21 1 20 2 2 3 1 4 3 5 4 6 5 7 9 8 6 9 8 10 7 11 10 12 11 13
REMARK SMILES IDX 19 14 12 15 17 16 13 17 18 18 14 19 15 20 16 21 22 22 23 23
REMARK SMILES IDX 24 24 25 25 26 26 27 27 88 28 28 29 87 30 29 31 30 32 31 33
REMARK SMILES IDX 81 34 32 35 86 36 80 37 82 38 33 39 85 40 79 41 78 42 34 44
REMARK SMILES IDX 66 45 46 46 65 47 47 48 50 49 64 50 83 51 48 52 49 53 63 55
REMARK SMILES IDX 84 56 51 57 35 58 36 59 44 60 37 61 39 62 45 63 38 64 40 65
REMARK SMILES IDX 41 66 42 67 43 68 67 69 68 70 76 71 69 72 71 73 77 74 70 75
REMARK SMILES IDX 72 76 73 77 74 78 75 79 52 80 53 81 61 82 54 83 56 84 62 85
REMARK SMILES IDX 55 86 57 87 58 88 59 89 60 90
REMARK H PARENT 82 43 50 54
REMARK Flexibility Score: inf
ROOT
ATOM      1  C   UNL A   1      36.261  21.022  25.309  1.00  0.00     0.274 C 
ENDROOT
BRANCH   1   2
ATOM      2  O   UNL A   1      36.489  22.294  24.675  1.00  0.00    -0.462 OA
BRANCH   2   3
ATOM      3  C   UNL A   1      35.553  23.200  24.307  1.00  0.00     0.310 C 
ATOM      4  O   UNL A   1      35.411  24.197  25.014  1.00  0.00    -0.252 OA
BRANCH   3   5
ATOM      5  C   UNL A   1      34.694  22.963  23.078  1.00  0.00     0.158 C 
BRANCH   5   6
ATOM      6  C   UNL A   1      33.258  23.438  23.160  1.00  0.00    -0.029 A 
ATOM      7  C   UNL A   1      32.989  24.775  22.798  1.00  0.00     0.005 A 
ATOM      8  C   UNL A   1      32.167  22.592  23.479  1.00  0.00    -0.014 A 
ATOM      9  C   UNL A   1      31.692  25.279  22.777  1.00  0.00     0.000 A 
ATOM     10  C   UNL A   1      30.866  23.130  23.480  1.00  0.00     0.009 A 
ATOM     11  C   UNL A   1      30.630  24.460  23.129  1.00  0.00     0.001 A 
BRANCH   8  12
ATOM     12  C   UNL A   1      32.310  21.130  23.700  1.00  0.00    -0.011 A 
ATOM     13  C   UNL A   1      32.659  20.538  24.974  1.00  0.00     0.027 A 
ATOM     14  C   UNL A   1      32.168  20.315  22.637  1.00  0.00     0.080 A 
ATOM     15  C   UNL A   1      33.074  19.267  25.046  1.00  0.00     0.095 A 
ATOM     16  C   UNL A   1      32.436  18.853  22.752  1.00  0.00     0.255 A 
ATOM     17  N   UNL A   1      33.029  18.448  23.936  1.00  0.00    -0.258 N 
ATOM     18  O   UNL A   1      32.147  18.118  21.817  1.00  0.00    -0.269 OA
BRANCH  17  19
ATOM     19  C   UNL A   1      33.552  17.109  23.980  1.00  0.00     0.451 C 
ATOM     20  F   UNL A   1      34.518  16.916  23.053  1.00  0.00    -0.185 F 
ATOM     21  F   UNL A   1      34.065  16.833  25.203  1.00  0.00    -0.185 F 
ENDBRANCH  17  19
ENDBRANCH   8  12
ENDBRANCH   5   6
ENDBRANCH   3   5
ENDBRANCH   2   3
ENDBRANCH   1   2
BRANCH   1  22
ATOM     22  C   UNL A   1      37.434  20.063  25.113  1.00  0.00     0.275 C 
BRANCH  22  23
ATOM     23  O   UNL A   1      38.672  20.792  25.060  1.00  0.00    -0.458 OA
BRANCH  23  24
ATOM     24  C   UNL A   1      39.501  20.633  26.122  1.00  0.00     0.338 C 
ATOM     25  O   UNL A   1      39.926  19.575  26.557  1.00  0.00    -0.246 OA
BRANCH  24  26
ATOM     26  C   UNL A   1      39.984  21.962  26.567  1.00  0.00     0.060 A 
ATOM     27  C   UNL A   1      39.347  23.099  26.051  1.00  0.00     0.016 A 
ATOM     28  C   UNL A   1      41.010  22.098  27.507  1.00  0.00     0.016 A 
ATOM     29  C   UNL A   1      39.746  24.373  26.465  1.00  0.00     0.010 A 
ATOM     30  C   UNL A   1      41.418  23.374  27.908  1.00  0.00     0.010 A 
ATOM     31  C   UNL A   1      40.800  24.518  27.377  1.00  0.00    -0.014 A 
BRANCH  31  32
ATOM     32  C   UNL A   1      41.344  25.864  27.682  1.00  0.00     0.031 A 
ATOM     33  C   UNL A   1      42.723  26.216  27.207  1.00  0.00     0.074 A 
ATOM     34  C   UNL A   1      40.642  26.750  28.410  1.00  0.00     0.049 A 
ATOM     35  N   UNL A   1      43.387  27.331  27.353  1.00  0.00    -0.248 NA
ATOM     36  C   UNL A   1      43.457  25.164  26.486  1.00  0.00     0.031 C 
ATOM     37  C   UNL A   1      39.309  26.518  28.953  1.00  0.00     0.029 A 
ATOM     38  N   UNL A   1      40.958  28.024  28.816  1.00  0.00    -0.354 N 
ATOM     39  C   UNL A   1      44.630  27.107  26.781  1.00  0.00     0.074 A 
ATOM     40  C   UNL A   1      44.626  25.752  26.272  1.00  0.00     0.031 C 
ATOM     41  C   UNL A   1      38.910  27.622  29.610  1.00  0.00     0.029 A 
ATOM     42  C   UNL A   1      39.965  28.630  29.552  1.00  0.00     0.049 A 
ATOM     43  H   UNL A   1      41.813  28.461  28.602  1.00  0.00     0.167 HD
ATOM     44  C   UNL A   1      45.685  27.950  26.691  1.00  0.00     0.034 A 
ATOM     45  C   UNL A   1      39.913  29.858  30.110  1.00  0.00     0.034 A 
ATOM     46  C   UNL A   1      45.695  29.299  27.184  1.00  0.00     0.049 A 
ATOM     47  C   UNL A   1      41.091  30.789  29.958  1.00  0.00     0.074 A 
ATOM     48  C   UNL A   1      46.708  30.237  27.093  1.00  0.00     0.029 A 
ATOM     49  N   UNL A   1      44.655  29.898  27.878  1.00  0.00    -0.354 N 
ATOM     50  N   UNL A   1      42.205  30.617  29.286  1.00  0.00    -0.248 NA
ATOM     51  C   UNL A   1      41.002  32.093  30.637  1.00  0.00     0.031 C 
ATOM     52  C   UNL A   1      46.292  31.396  27.756  1.00  0.00     0.029 A 
ATOM     53  C   UNL A   1      45.012  31.186  28.242  1.00  0.00     0.049 A 
ATOM     54  H   UNL A   1      43.792  29.472  28.081  1.00  0.00     0.167 HD
ATOM     55  C   UNL A   1      42.938  31.788  29.451  1.00  0.00     0.074 A 
ATOM     56  C   UNL A   1      42.128  32.679  30.254  1.00  0.00     0.031 C 
ATOM     57  C   UNL A   1      44.183  32.086  29.002  1.00  0.00     0.034 A 
BRANCH  44  58
ATOM     58  C   UNL A   1      46.927  27.431  26.024  1.00  0.00     0.023 A 
ATOM     59  C   UNL A   1      47.107  27.622  24.641  1.00  0.00     0.012 A 
ATOM     60  C   UNL A   1      47.933  26.796  26.778  1.00  0.00     0.148 A 
ATOM     61  C   UNL A   1      48.264  27.167  24.010  1.00  0.00     0.002 A 
ATOM     62  C   UNL A   1      49.098  26.379  26.150  1.00  0.00     0.091 A 
ATOM     63  F   UNL A   1      47.723  26.599  28.087  1.00  0.00    -0.205 F 
ATOM     64  C   UNL A   1      49.263  26.556  24.765  1.00  0.00     0.022 A 
BRANCH  62  65
ATOM     65  S   UNL A   1      50.466  25.639  27.048  1.00  0.00     0.127 S 
ATOM     66  O   UNL A   1      49.833  24.454  27.625  1.00  0.00    -0.237 OA
ATOM     67  O   UNL A   1      51.423  25.359  25.977  1.00  0.00    -0.237 OA
ATOM     68  O   UNL A   1      50.906  26.644  28.006  1.00  0.00    -0.744 OA
ENDBRANCH  62  65
ENDBRANCH  44  58
BRANCH  45  69
ATOM     69  C   UNL A   1      38.685  30.306  30.831  1.00  0.00     0.023 A 
ATOM     70  C   UNL A   1      38.535  29.990  32.196  1.00  0.00     0.012 A 
ATOM     71  C   UNL A   1      37.669  31.036  30.185  1.00  0.00     0.148 A 
ATOM     72  C   UNL A   1      37.384  30.362  32.893  1.00  0.00     0.002 A 
ATOM     73  C   UNL A   1      36.553  31.456  30.900  1.00  0.00     0.091 A 
ATOM     74  F   UNL A   1      37.807  31.304  28.878  1.00  0.00    -0.205 F 
ATOM     75  C   UNL A   1      36.398  31.104  32.249  1.00  0.00     0.022 A 
BRANCH  73  76
ATOM     76  S   UNL A   1      35.311  32.536  30.177  1.00  0.00     0.127 S 
ATOM     77  O   UNL A   1      34.375  32.706  31.284  1.00  0.00    -0.237 OA
ATOM     78  O   UNL A   1      36.090  33.729  29.841  1.00  0.00    -0.237 OA
ATOM     79  O   UNL A   1      34.803  31.815  29.016  1.00  0.00    -0.744 OA
ENDBRANCH  73  76
ENDBRANCH  45  69
BRANCH  57  80
ATOM     80  C   UNL A   1      44.770  33.425  29.372  1.00  0.00     0.023 A 
ATOM     81  C   UNL A   1      45.541  33.539  30.545  1.00  0.00     0.012 A 
ATOM     82  C   UNL A   1      44.654  34.535  28.511  1.00  0.00     0.148 A 
ATOM     83  C   UNL A   1      46.171  34.741  30.868  1.00  0.00     0.002 A 
ATOM     84  C   UNL A   1      45.322  35.717  28.816  1.00  0.00     0.091 A 
ATOM     85  F   UNL A   1      43.906  34.411  27.405  1.00  0.00    -0.205 F 
ATOM     86  C   UNL A   1      46.073  35.824  29.998  1.00  0.00     0.022 A 
BRANCH  84  87
ATOM     87  S   UNL A   1      45.334  37.135  27.712  1.00  0.00     0.127 S 
ATOM     88  O   UNL A   1      46.245  38.045  28.406  1.00  0.00    -0.237 OA
ATOM     89  O   UNL A   1      45.870  36.563  26.477  1.00  0.00    -0.237 OA
ATOM     90  O   UNL A   1      43.953  37.587  27.619  1.00  0.00    -0.744 OA
ENDBRANCH  84  87
ENDBRANCH  57  80
ENDBRANCH  31  32
ENDBRANCH  24  26
ENDBRANCH  23  24
ENDBRANCH  22  23
ENDBRANCH   1  22
TORSDOF 17
ENDMDL
MODEL 3
REMARK VINA RESULT:     -11.6      6.068     11.398
REMARK SMILES O=C(Cc1ccccc1-c1ccn(C(F)F)c(=O)c1)OCCOC(=O)c1ccc(-c2c3nc(c(-c4cccc(S(=O)(=O)[O-])c4F)c4ccc([nH]4)c(-c4cccc(S(=O)(=O)[O-])c4F)c4nc(c(-c5cccc(S(=O)(=O)[O-])c5F)c5ccc2[nH]5)C=C4)C=C3)cc1
REMARK SMILES IDX 21 1 20 2 2 3 1 4 3 5 4 6 5 7 9 8 6 9 8 10 7 11 10 12 11 13
REMARK SMILES IDX 19 14 12 15 17 16 13 17 18 18 14 19 15 20 16 21 22 22 23 23
REMARK SMILES IDX 24 24 25 25 26 26 27 27 88 28 28 29 87 30 29 31 30 32 31 33
REMARK SMILES IDX 81 34 32 35 86 36 80 37 82 38 33 39 85 40 79 41 78 42 34 44
REMARK SMILES IDX 66 45 46 46 65 47 47 48 50 49 64 50 83 51 48 52 49 53 63 55
REMARK SMILES IDX 84 56 51 57 35 58 36 59 44 60 37 61 39 62 45 63 38 64 40 65
REMARK SMILES IDX 41 66 42 67 43 68 67 69 68 70 76 71 69 72 71 73 77 74 70 75
REMARK SMILES IDX 72 76 73 77 74 78 75 79 52 80 53 81 61 82 54 83 56 84 62 85
REMARK SMILES IDX 55 86 57 87 58 88 59 89 60 90
REMARK H PARENT 82 43 50 54
REMARK Flexibility Score: inf
ROOT
ATOM      1  C   UNL A   1      31.166  31.075  25.923  1.00  0.00     0.274 C 
ENDROOT
BRANCH   1   2
ATOM      2  O   UNL A   1      31.341  30.110  26.976  1.00  0.00    -0.462 OA
BRANCH   2   3
ATOM      3  C   UNL A   1      31.496  28.773  26.838  1.00  0.00     0.310 C 
ATOM      4  O   UNL A   1      31.108  28.051  27.756  1.00  0.00    -0.252 OA
BRANCH   3   5
ATOM      5  C   UNL A   1      32.159  28.200  25.598  1.00  0.00     0.158 C 
BRANCH   5   6
ATOM      6  C   UNL A   1      31.719  26.810  25.183  1.00  0.00    -0.029 A 
ATOM      7  C   UNL A   1      32.180  25.721  25.952  1.00  0.00     0.005 A 
ATOM      8  C   UNL A   1      30.797  26.557  24.137  1.00  0.00    -0.014 A 
ATOM      9  C   UNL A   1      31.774  24.416  25.686  1.00  0.00     0.000 A 
ATOM     10  C   UNL A   1      30.422  25.227  23.868  1.00  0.00     0.009 A 
ATOM     11  C   UNL A   1      30.902  24.167  24.637  1.00  0.00     0.001 A 
BRANCH   8  12
ATOM     12  C   UNL A   1      30.110  27.636  23.381  1.00  0.00    -0.011 A 
ATOM     13  C   UNL A   1      30.787  28.547  22.482  1.00  0.00     0.027 A 
ATOM     14  C   UNL A   1      28.792  27.814  23.593  1.00  0.00     0.080 A 
ATOM     15  C   UNL A   1      30.190  29.674  22.075  1.00  0.00     0.095 A 
ATOM     16  C   UNL A   1      28.066  28.962  22.981  1.00  0.00     0.255 A 
ATOM     17  N   UNL A   1      28.865  29.917  22.375  1.00  0.00    -0.258 N 
ATOM     18  O   UNL A   1      26.845  29.008  23.062  1.00  0.00    -0.269 OA
BRANCH  17  19
ATOM     19  C   UNL A   1      28.240  31.161  22.018  1.00  0.00     0.451 C 
ATOM     20  F   UNL A   1      29.126  32.183  22.000  1.00  0.00    -0.185 F 
ATOM     21  F   UNL A   1      27.656  31.074  20.798  1.00  0.00    -0.185 F 
ENDBRANCH  17  19
ENDBRANCH   8  12
ENDBRANCH   5   6
ENDBRANCH   3   5
ENDBRANCH   2   3
ENDBRANCH   1   2
BRANCH   1  22
ATOM     22  C   UNL A   1      31.570  32.483  26.358  1.00  0.00     0.275 C 
BRANCH  22  23
ATOM     23  O   UNL A   1      32.391  32.425  27.537  1.00  0.00    -0.458 OA
BRANCH  23  24
ATOM     24  C   UNL A   1      33.390  33.340  27.610  1.00  0.00     0.338 C 
ATOM     25  O   UNL A   1      33.290  34.539  27.410  1.00  0.00    -0.246 OA
BRANCH  24  26
ATOM     26  C   UNL A   1      34.603  32.694  28.168  1.00  0.00     0.060 A 
ATOM     27  C   UNL A   1      34.506  31.358  28.580  1.00  0.00     0.016 A 
ATOM     28  C   UNL A   1      35.827  33.365  28.248  1.00  0.00     0.016 A 
ATOM     29  C   UNL A   1      35.629  30.697  29.083  1.00  0.00     0.010 A 
ATOM     30  C   UNL A   1      36.946  32.707  28.766  1.00  0.00     0.010 A 
ATOM     31  C   UNL A   1      36.849  31.376  29.203  1.00  0.00    -0.014 A 
BRANCH  31  32
ATOM     32  C   UNL A   1      37.994  30.739  29.898  1.00  0.00     0.031 A 
ATOM     33  C   UNL A   1      38.257  31.086  31.335  1.00  0.00     0.074 A 
ATOM     34  C   UNL A   1      38.818  29.894  29.254  1.00  0.00     0.049 A 
ATOM     35  N   UNL A   1      39.190  30.643  32.134  1.00  0.00    -0.248 NA
ATOM     36  C   UNL A   1      37.357  32.077  31.945  1.00  0.00     0.031 C 
ATOM     37  C   UNL A   1      38.689  29.502  27.856  1.00  0.00     0.029 A 
ATOM     38  N   UNL A   1      39.930  29.218  29.696  1.00  0.00    -0.354 N 
ATOM     39  C   UNL A   1      39.020  31.328  33.327  1.00  0.00     0.074 A 
ATOM     40  C   UNL A   1      37.884  32.208  33.154  1.00  0.00     0.031 C 
ATOM     41  C   UNL A   1      39.674  28.637  27.555  1.00  0.00     0.029 A 
ATOM     42  C   UNL A   1      40.515  28.430  28.731  1.00  0.00     0.049 A 
ATOM     43  H   UNL A   1      40.274  29.290  30.614  1.00  0.00     0.167 HD
ATOM     44  C   UNL A   1      39.746  31.238  34.466  1.00  0.00     0.034 A 
ATOM     45  C   UNL A   1      41.601  27.632  28.791  1.00  0.00     0.034 A 
ATOM     46  C   UNL A   1      40.868  30.360  34.650  1.00  0.00     0.049 A 
ATOM     47  C   UNL A   1      42.367  27.522  30.088  1.00  0.00     0.074 A 
ATOM     48  C   UNL A   1      41.631  30.172  35.788  1.00  0.00     0.029 A 
ATOM     49  N   UNL A   1      41.402  29.538  33.670  1.00  0.00    -0.354 N 
ATOM     50  N   UNL A   1      42.106  28.064  31.254  1.00  0.00    -0.248 NA
ATOM     51  C   UNL A   1      43.577  26.683  30.079  1.00  0.00     0.031 C 
ATOM     52  C   UNL A   1      42.646  29.258  35.489  1.00  0.00     0.029 A 
ATOM     53  C   UNL A   1      42.501  28.860  34.171  1.00  0.00     0.049 A 
ATOM     54  H   UNL A   1      41.052  29.450  32.754  1.00  0.00     0.167 HD
ATOM     55  C   UNL A   1      43.106  27.622  32.114  1.00  0.00     0.074 A 
ATOM     56  C   UNL A   1      43.959  26.738  31.348  1.00  0.00     0.031 C 
ATOM     57  C   UNL A   1      43.318  27.945  33.415  1.00  0.00     0.034 A 
BRANCH  44  58
ATOM     58  C   UNL A   1      39.341  32.119  35.613  1.00  0.00     0.023 A 
ATOM     59  C   UNL A   1      38.495  31.610  36.618  1.00  0.00     0.012 A 
ATOM     60  C   UNL A   1      39.835  33.433  35.717  1.00  0.00     0.148 A 
ATOM     61  C   UNL A   1      38.128  32.406  37.701  1.00  0.00     0.002 A 
ATOM     62  C   UNL A   1      39.495  34.208  36.817  1.00  0.00     0.091 A 
ATOM     63  F   UNL A   1      40.613  33.903  34.731  1.00  0.00    -0.205 F 
ATOM     64  C   UNL A   1      38.636  33.700  37.806  1.00  0.00     0.022 A 
BRANCH  62  65
ATOM     65  S   UNL A   1      40.149  35.861  37.071  1.00  0.00     0.127 S 
ATOM     66  O   UNL A   1      39.488  36.251  38.315  1.00  0.00    -0.237 OA
ATOM     67  O   UNL A   1      41.585  35.609  37.196  1.00  0.00    -0.237 OA
ATOM     68  O   UNL A   1      39.769  36.627  35.892  1.00  0.00    -0.744 OA
ENDBRANCH  62  65
ENDBRANCH  44  58
BRANCH  45  69
ATOM     69  C   UNL A   1      42.014  26.830  27.601  1.00  0.00     0.023 A 
ATOM     70  C   UNL A   1      42.674  27.472  26.535  1.00  0.00     0.012 A 
ATOM     71  C   UNL A   1      41.763  25.447  27.514  1.00  0.00     0.148 A 
ATOM     72  C   UNL A   1      43.042  26.761  25.391  1.00  0.00     0.002 A 
ATOM     73  C   UNL A   1      42.187  24.733  26.399  1.00  0.00     0.091 A 
ATOM     74  F   UNL A   1      41.107  24.852  28.520  1.00  0.00    -0.205 F 
ATOM     75  C   UNL A   1      42.810  25.390  25.327  1.00  0.00     0.022 A 
BRANCH  73  76
ATOM     76  S   UNL A   1      42.051  22.943  26.307  1.00  0.00     0.127 S 
ATOM     77  O   UNL A   1      42.803  22.521  27.485  1.00  0.00    -0.237 OA
ATOM     78  O   UNL A   1      40.605  22.733  26.394  1.00  0.00    -0.237 OA
ATOM     79  O   UNL A   1      42.625  22.578  25.018  1.00  0.00    -0.744 OA
ENDBRANCH  73  76
ENDBRANCH  45  69
BRANCH  57  80
ATOM     80  C   UNL A   1      44.522  27.357  34.107  1.00  0.00     0.023 A 
ATOM     81  C   UNL A   1      45.742  28.061  34.083  1.00  0.00     0.012 A 
ATOM     82  C   UNL A   1      44.422  26.175  34.868  1.00  0.00     0.148 A 
ATOM     83  C   UNL A   1      46.849  27.589  34.787  1.00  0.00     0.002 A 
ATOM     84  C   UNL A   1      45.517  25.733  35.603  1.00  0.00     0.091 A 
ATOM     85  F   UNL A   1      43.256  25.512  34.869  1.00  0.00    -0.205 F 
ATOM     86  C   UNL A   1      46.734  26.434  35.557  1.00  0.00     0.022 A 
BRANCH  84  87
ATOM     87  S   UNL A   1      45.438  24.311  36.700  1.00  0.00     0.127 S 
ATOM     88  O   UNL A   1      46.821  24.215  37.164  1.00  0.00    -0.237 OA
ATOM     89  O   UNL A   1      44.484  24.756  37.716  1.00  0.00    -0.237 OA
ATOM     90  O   UNL A   1      44.975  23.198  35.883  1.00  0.00    -0.744 OA
ENDBRANCH  84  87
ENDBRANCH  57  80
ENDBRANCH  31  32
ENDBRANCH  24  26
ENDBRANCH  23  24
ENDBRANCH  22  23
ENDBRANCH   1  22
TORSDOF 17
ENDMDL
