MODEL 1
REMARK VINA RESULT:     -13.0      0.000      0.000
REMARK SMILES O=C(OCCOC(=O)[C@@H]1CN(C(=O)C[NH+]2CCOCC2)C[C@H]1c1ccc2c(c1)OCO2)c1ccc(-c2c3nc(c(-c4cccc(S(=O)(=O)[O-])c4F)c4ccc([nH]4)c(-c4cccc(S(=O)(=O)[O-])c4F)c4nc(c(-c5cccc(S(=O)(=O)[O-])c5F)c5ccc2[nH]5)C=C4)C=C3)cc1
REMARK SMILES IDX 4 1 3 2 2 3 1 4 32 5 33 6 94 7 34 8 93 9 35 10 36 11 37 12
REMARK SMILES IDX 87 13 38 14 92 15 86 16 88 17 39 18 91 19 85 20 84 21 40 23
REMARK SMILES IDX 72 24 52 25 71 26 53 27 56 28 70 29 89 30 54 31 55 32 69 34
REMARK SMILES IDX 90 35 57 36 41 37 42 38 50 39 43 40 45 41 51 42 44 43 46 44
REMARK SMILES IDX 47 45 48 46 49 47 73 48 74 49 82 50 75 51 77 52 83 53 76 54
REMARK SMILES IDX 78 55 79 56 80 57 81 58 58 59 59 60 67 61 60 62 62 63 68 64
REMARK SMILES IDX 61 65 63 66 64 67 65 68 66 69 5 70 6 71 7 72 8 73 9 74 10 75
REMARK SMILES IDX 22 76 11 77 21 78 23 79 24 80 28 81 25 82 27 83 26 84 29 85
REMARK SMILES IDX 31 86 30 87 12 88 13 89 14 90 15 91 16 92 20 93 17 95 19 96
REMARK SMILES IDX 18 97
REMARK H PARENT 88 22 56 33 15 94
REMARK Flexibility Score: inf
ROOT
ATOM      1  C   UNL A   1      32.296  30.050  25.932  1.00  0.00     0.275 C 
ENDROOT
BRANCH   1   2
ATOM      2  O   UNL A   1      32.642  30.689  27.183  1.00  0.00    -0.458 OA
BRANCH   2   3
ATOM      3  C   UNL A   1      33.683  31.459  27.573  1.00  0.00     0.338 C 
ATOM      4  O   UNL A   1      33.544  32.680  27.474  1.00  0.00    -0.246 OA
BRANCH   3   5
ATOM      5  C   UNL A   1      35.022  30.970  28.062  1.00  0.00     0.060 A 
ATOM      6  C   UNL A   1      35.396  29.646  28.297  1.00  0.00     0.016 A 
ATOM      7  C   UNL A   1      36.010  31.960  28.273  1.00  0.00     0.016 A 
ATOM      8  C   UNL A   1      36.727  29.314  28.613  1.00  0.00     0.010 A 
ATOM      9  C   UNL A   1      37.340  31.636  28.595  1.00  0.00     0.010 A 
ATOM     10  C   UNL A   1      37.715  30.302  28.749  1.00  0.00    -0.014 A 
BRANCH  10  11
ATOM     11  C   UNL A   1      39.030  29.911  29.322  1.00  0.00     0.031 A 
ATOM     12  C   UNL A   1      39.256  30.290  30.748  1.00  0.00     0.074 A 
ATOM     13  C   UNL A   1      39.988  29.244  28.646  1.00  0.00     0.049 A 
ATOM     14  N   UNL A   1      40.117  29.824  31.604  1.00  0.00    -0.248 NA
ATOM     15  C   UNL A   1      38.392  31.366  31.265  1.00  0.00     0.031 C 
ATOM     16  C   UNL A   1      39.966  28.991  27.215  1.00  0.00     0.029 A 
ATOM     17  N   UNL A   1      41.145  28.619  29.068  1.00  0.00    -0.354 N 
ATOM     18  C   UNL A   1      39.957  30.607  32.738  1.00  0.00     0.074 A 
ATOM     19  C   UNL A   1      38.872  31.527  32.485  1.00  0.00     0.031 C 
ATOM     20  C   UNL A   1      40.972  28.154  26.896  1.00  0.00     0.029 A 
ATOM     21  C   UNL A   1      41.698  27.787  28.103  1.00  0.00     0.049 A 
ATOM     22  H   UNL A   1      41.537  28.749  29.962  1.00  0.00     0.167 HD
ATOM     23  C   UNL A   1      40.699  30.603  33.866  1.00  0.00     0.034 A 
ATOM     24  C   UNL A   1      42.602  26.783  28.231  1.00  0.00     0.034 A 
ATOM     25  C   UNL A   1      41.821  29.737  34.066  1.00  0.00     0.049 A 
ATOM     26  C   UNL A   1      43.243  26.612  29.591  1.00  0.00     0.074 A 
ATOM     27  C   UNL A   1      42.691  29.679  35.138  1.00  0.00     0.029 A 
ATOM     28  N   UNL A   1      42.251  28.794  33.143  1.00  0.00    -0.354 N 
ATOM     29  N   UNL A   1      42.953  27.206  30.726  1.00  0.00    -0.248 NA
ATOM     30  C   UNL A   1      44.332  25.627  29.695  1.00  0.00     0.031 C 
ATOM     31  C   UNL A   1      43.668  28.721  34.847  1.00  0.00     0.029 A 
ATOM     32  C   UNL A   1      43.374  28.148  33.617  1.00  0.00     0.049 A 
ATOM     33  H   UNL A   1      41.820  28.614  32.277  1.00  0.00     0.167 HD
ATOM     34  C   UNL A   1      43.836  26.686  31.664  1.00  0.00     0.074 A 
ATOM     35  C   UNL A   1      44.590  25.647  30.995  1.00  0.00     0.031 C 
ATOM     36  C   UNL A   1      44.060  27.077  32.943  1.00  0.00     0.034 A 
BRANCH  23  37
ATOM     37  C   UNL A   1      40.365  31.652  34.884  1.00  0.00     0.023 A 
ATOM     38  C   UNL A   1      41.114  32.843  34.957  1.00  0.00     0.012 A 
ATOM     39  C   UNL A   1      39.349  31.408  35.828  1.00  0.00     0.148 A 
ATOM     40  C   UNL A   1      40.891  33.753  35.989  1.00  0.00     0.002 A 
ATOM     41  C   UNL A   1      39.099  32.343  36.822  1.00  0.00     0.091 A 
ATOM     42  F   UNL A   1      38.681  30.248  35.762  1.00  0.00    -0.205 F 
ATOM     43  C   UNL A   1      39.881  33.506  36.916  1.00  0.00     0.022 A 
BRANCH  41  44
ATOM     44  S   UNL A   1      37.783  32.143  38.023  1.00  0.00     0.127 S 
ATOM     45  O   UNL A   1      38.459  32.513  39.266  1.00  0.00    -0.237 OA
ATOM     46  O   UNL A   1      36.796  33.113  37.551  1.00  0.00    -0.237 OA
ATOM     47  O   UNL A   1      37.361  30.752  37.935  1.00  0.00    -0.744 OA
ENDBRANCH  41  44
ENDBRANCH  23  37
BRANCH  24  48
ATOM     48  C   UNL A   1      42.822  25.724  27.171  1.00  0.00     0.023 A 
ATOM     49  C   UNL A   1      43.663  26.046  26.073  1.00  0.00     0.012 A 
ATOM     50  C   UNL A   1      42.264  24.435  27.197  1.00  0.00     0.148 A 
ATOM     51  C   UNL A   1      43.937  25.140  25.046  1.00  0.00     0.002 A 
ATOM     52  C   UNL A   1      42.581  23.511  26.193  1.00  0.00     0.091 A 
ATOM     53  F   UNL A   1      41.411  24.126  28.183  1.00  0.00    -0.205 F 
ATOM     54  C   UNL A   1      43.404  23.865  25.113  1.00  0.00     0.022 A 
BRANCH  52  55
ATOM     55  S   UNL A   1      42.036  21.799  26.262  1.00  0.00     0.127 S 
ATOM     56  O   UNL A   1      42.380  21.430  27.631  1.00  0.00    -0.237 OA
ATOM     57  O   UNL A   1      40.601  21.918  25.998  1.00  0.00    -0.237 OA
ATOM     58  O   UNL A   1      42.780  21.127  25.206  1.00  0.00    -0.744 OA
ENDBRANCH  52  55
ENDBRANCH  24  48
BRANCH  36  59
ATOM     59  C   UNL A   1      45.167  26.392  33.697  1.00  0.00     0.023 A 
ATOM     60  C   UNL A   1      46.480  26.899  33.627  1.00  0.00     0.012 A 
ATOM     61  C   UNL A   1      44.885  25.312  34.554  1.00  0.00     0.148 A 
ATOM     62  C   UNL A   1      47.505  26.315  34.368  1.00  0.00     0.002 A 
ATOM     63  C   UNL A   1      45.900  24.773  35.333  1.00  0.00     0.091 A 
ATOM     64  F   UNL A   1      43.632  24.834  34.592  1.00  0.00    -0.205 F 
ATOM     65  C   UNL A   1      47.212  25.263  35.231  1.00  0.00     0.022 A 
BRANCH  63  66
ATOM     66  S   UNL A   1      45.590  23.494  36.554  1.00  0.00     0.127 S 
ATOM     67  O   UNL A   1      46.946  23.165  36.990  1.00  0.00    -0.237 OA
ATOM     68  O   UNL A   1      44.784  24.203  37.548  1.00  0.00    -0.237 OA
ATOM     69  O   UNL A   1      44.883  22.432  35.850  1.00  0.00    -0.744 OA
ENDBRANCH  63  66
ENDBRANCH  36  59
ENDBRANCH  10  11
ENDBRANCH   3   5
ENDBRANCH   2   3
ENDBRANCH   1   2
BRANCH   1  70
ATOM     70  C   UNL A   1      32.975  28.697  25.760  1.00  0.00     0.274 C 
BRANCH  70  71
ATOM     71  O   UNL A   1      34.025  28.847  24.804  1.00  0.00    -0.462 OA
BRANCH  71  72
ATOM     72  C   UNL A   1      33.945  28.161  23.635  1.00  0.00     0.311 C 
ATOM     73  O   UNL A   1      34.590  28.406  22.626  1.00  0.00    -0.252 OA
BRANCH  72  74
ATOM     74  C   UNL A   1      32.932  27.054  23.787  1.00  0.00     0.128 C 
ATOM     75  C   UNL A   1      33.658  25.747  23.919  1.00  0.00     0.135 C 
ATOM     76  C   UNL A   1      31.953  26.960  22.601  1.00  0.00     0.055 C 
ATOM     77  N   UNL A   1      32.946  24.791  23.131  1.00  0.00    -0.336 N 
ATOM     78  C   UNL A   1      31.864  25.420  22.364  1.00  0.00     0.129 C 
BRANCH  76  79
ATOM     79  C   UNL A   1      30.697  27.774  22.971  1.00  0.00    -0.038 A 
ATOM     80  C   UNL A   1      29.532  27.084  23.419  1.00  0.00     0.008 A 
ATOM     81  C   UNL A   1      30.583  29.153  22.789  1.00  0.00     0.054 A 
ATOM     82  C   UNL A   1      28.259  27.662  23.419  1.00  0.00     0.051 A 
ATOM     83  C   UNL A   1      29.310  29.708  22.805  1.00  0.00     0.166 A 
ATOM     84  C   UNL A   1      28.177  28.973  23.053  1.00  0.00     0.165 A 
ATOM     85  O   UNL A   1      28.996  30.998  22.521  1.00  0.00    -0.454 OA
ATOM     86  O   UNL A   1      27.031  29.687  22.900  1.00  0.00    -0.454 OA
ATOM     87  C   UNL A   1      27.568  30.906  22.353  1.00  0.00     0.468 C 
ENDBRANCH  76  79
BRANCH  77  88
ATOM     88  C   UNL A   1      33.225  23.429  23.090  1.00  0.00     0.277 C 
ATOM     89  O   UNL A   1      33.027  22.767  22.072  1.00  0.00    -0.268 OA
BRANCH  88  90
ATOM     90  C   UNL A   1      33.799  22.764  24.370  1.00  0.00     0.363 C 
BRANCH  90  91
ATOM     91  N   UNL A   1      32.886  21.880  25.136  1.00  0.00    -0.323 N 
ATOM     92  C   UNL A   1      31.580  22.510  25.410  1.00  0.00     0.291 C 
ATOM     93  C   UNL A   1      33.392  21.288  26.382  1.00  0.00     0.291 C 
ATOM     94  H   UNL A   1      32.792  21.099  24.486  1.00  0.00     0.348 HD
ATOM     95  C   UNL A   1      31.627  23.505  26.578  1.00  0.00     0.221 C 
ATOM     96  C   UNL A   1      33.367  22.217  27.604  1.00  0.00     0.221 C 
ATOM     97  O   UNL A   1      32.113  22.890  27.777  1.00  0.00    -0.370 OA
ENDBRANCH  90  91
ENDBRANCH  88  90
ENDBRANCH  77  88
ENDBRANCH  72  74
ENDBRANCH  71  72
ENDBRANCH  70  71
ENDBRANCH   1  70
TORSDOF 18
ENDMDL
MODEL 2
REMARK VINA RESULT:     -12.8      4.884     10.337
REMARK SMILES O=C(OCCOC(=O)[C@@H]1CN(C(=O)C[NH+]2CCOCC2)C[C@H]1c1ccc2c(c1)OCO2)c1ccc(-c2c3nc(c(-c4cccc(S(=O)(=O)[O-])c4F)c4ccc([nH]4)c(-c4cccc(S(=O)(=O)[O-])c4F)c4nc(c(-c5cccc(S(=O)(=O)[O-])c5F)c5ccc2[nH]5)C=C4)C=C3)cc1
REMARK SMILES IDX 4 1 3 2 2 3 1 4 32 5 33 6 94 7 34 8 93 9 35 10 36 11 37 12
REMARK SMILES IDX 87 13 38 14 92 15 86 16 88 17 39 18 91 19 85 20 84 21 40 23
REMARK SMILES IDX 72 24 52 25 71 26 53 27 56 28 70 29 89 30 54 31 55 32 69 34
REMARK SMILES IDX 90 35 57 36 41 37 42 38 50 39 43 40 45 41 51 42 44 43 46 44
REMARK SMILES IDX 47 45 48 46 49 47 73 48 74 49 82 50 75 51 77 52 83 53 76 54
REMARK SMILES IDX 78 55 79 56 80 57 81 58 58 59 59 60 67 61 60 62 62 63 68 64
REMARK SMILES IDX 61 65 63 66 64 67 65 68 66 69 5 70 6 71 7 72 8 73 9 74 10 75
REMARK SMILES IDX 22 76 11 77 21 78 23 79 24 80 28 81 25 82 27 83 26 84 29 85
REMARK SMILES IDX 31 86 30 87 12 88 13 89 14 90 15 91 16 92 20 93 17 95 19 96
REMARK SMILES IDX 18 97
REMARK H PARENT 88 22 56 33 15 94
REMARK Flexibility Score: inf
ROOT
ATOM      1  C   UNL A   1      36.556  21.367  25.190  1.00  0.00     0.275 C 
ENDROOT
BRANCH   1   2
ATOM      2  O   UNL A   1      37.996  21.403  25.054  1.00  0.00    -0.458 OA
BRANCH   2   3
ATOM      3  C   UNL A   1      39.006  21.574  25.937  1.00  0.00     0.338 C 
ATOM      4  O   UNL A   1      39.567  20.557  26.349  1.00  0.00    -0.246 OA
BRANCH   3   5
ATOM      5  C   UNL A   1      39.475  22.884  26.515  1.00  0.00     0.060 A 
ATOM      6  C   UNL A   1      39.034  24.161  26.163  1.00  0.00     0.016 A 
ATOM      7  C   UNL A   1      40.442  22.803  27.544  1.00  0.00     0.016 A 
ATOM      8  C   UNL A   1      39.449  25.295  26.886  1.00  0.00     0.010 A 
ATOM      9  C   UNL A   1      40.866  23.933  28.266  1.00  0.00     0.010 A 
ATOM     10  C   UNL A   1      40.355  25.192  27.953  1.00  0.00    -0.014 A 
BRANCH  10  11
ATOM     11  C   UNL A   1      40.938  26.442  28.508  1.00  0.00     0.031 A 
ATOM     12  C   UNL A   1      42.329  26.761  28.069  1.00  0.00     0.074 A 
ATOM     13  C   UNL A   1      40.291  27.280  29.345  1.00  0.00     0.049 A 
ATOM     14  N   UNL A   1      42.971  27.891  28.101  1.00  0.00    -0.248 NA
ATOM     15  C   UNL A   1      43.105  25.625  27.541  1.00  0.00     0.031 C 
ATOM     16  C   UNL A   1      39.021  26.988  29.988  1.00  0.00     0.029 A 
ATOM     17  N   UNL A   1      40.583  28.561  29.770  1.00  0.00    -0.354 N 
ATOM     18  C   UNL A   1      44.256  27.588  27.674  1.00  0.00     0.074 A 
ATOM     19  C   UNL A   1      44.281  26.186  27.324  1.00  0.00     0.031 C 
ATOM     20  C   UNL A   1      38.572  28.094  30.610  1.00  0.00     0.029 A 
ATOM     21  C   UNL A   1      39.509  29.187  30.390  1.00  0.00     0.049 A 
ATOM     22  H   UNL A   1      41.462  28.987  29.647  1.00  0.00     0.167 HD
ATOM     23  C   UNL A   1      45.337  28.396  27.643  1.00  0.00     0.034 A 
ATOM     24  C   UNL A   1      39.290  30.503  30.635  1.00  0.00     0.034 A 
ATOM     25  C   UNL A   1      45.310  29.762  28.070  1.00  0.00     0.049 A 
ATOM     26  C   UNL A   1      40.433  31.451  30.343  1.00  0.00     0.074 A 
ATOM     27  C   UNL A   1      46.352  30.666  28.146  1.00  0.00     0.029 A 
ATOM     28  N   UNL A   1      44.174  30.411  28.531  1.00  0.00    -0.354 N 
ATOM     29  N   UNL A   1      41.577  31.211  29.746  1.00  0.00    -0.248 NA
ATOM     30  C   UNL A   1      40.256  32.855  30.750  1.00  0.00     0.031 C 
ATOM     31  C   UNL A   1      45.849  31.856  28.685  1.00  0.00     0.029 A 
ATOM     32  C   UNL A   1      44.486  31.705  28.896  1.00  0.00     0.049 A 
ATOM     33  H   UNL A   1      43.278  30.008  28.592  1.00  0.00     0.167 HD
ATOM     34  C   UNL A   1      42.259  32.421  29.730  1.00  0.00     0.074 A 
ATOM     35  C   UNL A   1      41.355  33.416  30.269  1.00  0.00     0.031 C 
ATOM     36  C   UNL A   1      43.541  32.681  29.373  1.00  0.00     0.034 A 
BRANCH  23  37
ATOM     37  C   UNL A   1      46.633  27.755  27.244  1.00  0.00     0.023 A 
ATOM     38  C   UNL A   1      47.568  27.362  28.223  1.00  0.00     0.012 A 
ATOM     39  C   UNL A   1      46.954  27.622  25.880  1.00  0.00     0.148 A 
ATOM     40  C   UNL A   1      48.826  26.895  27.846  1.00  0.00     0.002 A 
ATOM     41  C   UNL A   1      48.189  27.108  25.514  1.00  0.00     0.091 A 
ATOM     42  F   UNL A   1      46.064  28.044  24.971  1.00  0.00    -0.205 F 
ATOM     43  C   UNL A   1      49.133  26.762  26.494  1.00  0.00     0.022 A 
BRANCH  41  44
ATOM     44  S   UNL A   1      48.652  26.845  23.802  1.00  0.00     0.127 S 
ATOM     45  O   UNL A   1      47.913  25.624  23.481  1.00  0.00    -0.237 OA
ATOM     46  O   UNL A   1      48.139  28.055  23.162  1.00  0.00    -0.237 OA
ATOM     47  O   UNL A   1      50.102  26.715  23.789  1.00  0.00    -0.744 OA
ENDBRANCH  41  44
ENDBRANCH  23  37
BRANCH  24  48
ATOM     48  C   UNL A   1      37.925  31.070  30.966  1.00  0.00     0.023 A 
ATOM     49  C   UNL A   1      37.509  31.055  32.323  1.00  0.00     0.012 A 
ATOM     50  C   UNL A   1      37.038  31.625  30.028  1.00  0.00     0.148 A 
ATOM     51  C   UNL A   1      36.273  31.559  32.736  1.00  0.00     0.002 A 
ATOM     52  C   UNL A   1      35.822  32.176  30.450  1.00  0.00     0.091 A 
ATOM     53  F   UNL A   1      37.374  31.589  28.731  1.00  0.00    -0.205 F 
ATOM     54  C   UNL A   1      35.433  32.133  31.798  1.00  0.00     0.022 A 
BRANCH  52  55
ATOM     55  S   UNL A   1      34.725  33.050  29.324  1.00  0.00     0.127 S 
ATOM     56  O   UNL A   1      34.123  31.950  28.578  1.00  0.00    -0.237 OA
ATOM     57  O   UNL A   1      33.818  33.738  30.245  1.00  0.00    -0.237 OA
ATOM     58  O   UNL A   1      35.595  33.942  28.571  1.00  0.00    -0.744 OA
ENDBRANCH  52  55
ENDBRANCH  24  48
BRANCH  36  59
ATOM     59  C   UNL A   1      44.046  34.085  29.563  1.00  0.00     0.023 A 
ATOM     60  C   UNL A   1      44.590  34.472  30.805  1.00  0.00     0.012 A 
ATOM     61  C   UNL A   1      44.077  34.986  28.482  1.00  0.00     0.148 A 
ATOM     62  C   UNL A   1      45.119  35.749  30.980  1.00  0.00     0.002 A 
ATOM     63  C   UNL A   1      44.659  36.236  28.647  1.00  0.00     0.091 A 
ATOM     64  F   UNL A   1      43.539  34.603  27.314  1.00  0.00    -0.205 F 
ATOM     65  C   UNL A   1      45.167  36.624  29.897  1.00  0.00     0.022 A 
BRANCH  63  66
ATOM     66  S   UNL A   1      44.866  37.381  27.281  1.00  0.00     0.127 S 
ATOM     67  O   UNL A   1      43.481  37.612  26.874  1.00  0.00    -0.237 OA
ATOM     68  O   UNL A   1      45.511  38.524  27.930  1.00  0.00    -0.237 OA
ATOM     69  O   UNL A   1      45.700  36.693  26.305  1.00  0.00    -0.744 OA
ENDBRANCH  63  66
ENDBRANCH  36  59
ENDBRANCH  10  11
ENDBRANCH   3   5
ENDBRANCH   2   3
ENDBRANCH   1   2
BRANCH   1  70
ATOM     70  C   UNL A   1      35.933  22.757  25.169  1.00  0.00     0.274 C 
BRANCH  70  71
ATOM     71  O   UNL A   1      35.533  23.083  26.501  1.00  0.00    -0.462 OA
BRANCH  71  72
ATOM     72  C   UNL A   1      34.287  22.735  26.911  1.00  0.00     0.311 C 
ATOM     73  O   UNL A   1      34.001  22.312  28.021  1.00  0.00    -0.252 OA
BRANCH  72  74
ATOM     74  C   UNL A   1      33.320  22.957  25.776  1.00  0.00     0.128 C 
ATOM     75  C   UNL A   1      32.710  24.320  25.918  1.00  0.00     0.135 C 
ATOM     76  C   UNL A   1      32.191  21.910  25.727  1.00  0.00     0.055 C 
ATOM     77  N   UNL A   1      31.319  24.191  25.614  1.00  0.00    -0.336 N 
ATOM     78  C   UNL A   1      30.937  22.786  25.417  1.00  0.00     0.129 C 
BRANCH  76  79
ATOM     79  C   UNL A   1      32.632  20.796  24.757  1.00  0.00    -0.038 A 
ATOM     80  C   UNL A   1      32.143  20.809  23.418  1.00  0.00     0.008 A 
ATOM     81  C   UNL A   1      33.401  19.695  25.138  1.00  0.00     0.054 A 
ATOM     82  C   UNL A   1      32.168  19.685  22.588  1.00  0.00     0.051 A 
ATOM     83  C   UNL A   1      33.422  18.593  24.292  1.00  0.00     0.166 A 
ATOM     84  C   UNL A   1      32.775  18.568  23.081  1.00  0.00     0.165 A 
ATOM     85  O   UNL A   1      34.005  17.395  24.553  1.00  0.00    -0.454 OA
ATOM     86  O   UNL A   1      32.823  17.354  22.473  1.00  0.00    -0.454 OA
ATOM     87  C   UNL A   1      33.421  16.572  23.525  1.00  0.00     0.468 C 
ENDBRANCH  76  79
BRANCH  77  88
ATOM     88  C   UNL A   1      30.426  25.251  25.509  1.00  0.00     0.277 C 
ATOM     89  O   UNL A   1      29.843  25.697  26.497  1.00  0.00    -0.268 OA
BRANCH  88  90
ATOM     90  C   UNL A   1      30.184  25.863  24.103  1.00  0.00     0.363 C 
BRANCH  90  91
ATOM     91  N   UNL A   1      31.292  26.657  23.515  1.00  0.00    -0.323 N 
ATOM     92  C   UNL A   1      31.876  27.616  24.473  1.00  0.00     0.291 C 
ATOM     93  C   UNL A   1      31.034  27.356  22.248  1.00  0.00     0.291 C 
ATOM     94  H   UNL A   1      31.952  25.915  23.283  1.00  0.00     0.348 HD
ATOM     95  C   UNL A   1      31.030  28.885  24.642  1.00  0.00     0.221 C 
ATOM     96  C   UNL A   1      30.275  28.684  22.378  1.00  0.00     0.221 C 
ATOM     97  O   UNL A   1      30.811  29.546  23.391  1.00  0.00    -0.370 OA
ENDBRANCH  90  91
ENDBRANCH  88  90
ENDBRANCH  77  88
ENDBRANCH  72  74
ENDBRANCH  71  72
ENDBRANCH  70  71
ENDBRANCH   1  70
TORSDOF 18
ENDMDL
MODEL 3
REMARK VINA RESULT:     -12.5      1.534      1.940
REMARK SMILES O=C(OCCOC(=O)[C@@H]1CN(C(=O)C[NH+]2CCOCC2)C[C@H]1c1ccc2c(c1)OCO2)c1ccc(-c2c3nc(c(-c4cccc(S(=O)(=O)[O-])c4F)c4ccc([nH]4)c(-c4cccc(S(=O)(=O)[O-])c4F)c4nc(c(-c5cccc(S(=O)(=O)[O-])c5F)c5ccc2[nH]5)C=C4)C=C3)cc1
REMARK SMILES IDX 4 1 3 2 2 3 1 4 32 5 33 6 94 7 34 8 93 9 35 10 36 11 37 12
REMARK SMILES IDX 87 13 38 14 92 15 86 16 88 17 39 18 91 19 85 20 84 21 40 23
REMARK SMILES IDX 72 24 52 25 71 26 53 27 56 28 70 29 89 30 54 31 55 32 69 34
REMARK SMILES IDX 90 35 57 36 41 37 42 38 50 39 43 40 45 41 51 42 44 43 46 44
REMARK SMILES IDX 47 45 48 46 49 47 73 48 74 49 82 50 75 51 77 52 83 53 76 54
REMARK SMILES IDX 78 55 79 56 80 57 81 58 58 59 59 60 67 61 60 62 62 63 68 64
REMARK SMILES IDX 61 65 63 66 64 67 65 68 66 69 5 70 6 71 7 72 8 73 9 74 10 75
REMARK SMILES IDX 22 76 11 77 21 78 23 79 24 80 28 81 25 82 27 83 26 84 29 85
REMARK SMILES IDX 31 86 30 87 12 88 13 89 14 90 15 91 16 92 20 93 17 95 19 96
REMARK SMILES IDX 18 97
REMARK H PARENT 88 22 56 33 15 94
REMARK Flexibility Score: inf
ROOT
ATOM      1  C   UNL A   1      31.571  29.568  26.440  1.00  0.00     0.275 C 
ENDROOT
BRANCH   1   2
ATOM      2  O   UNL A   1      32.769  30.364  26.287  1.00  0.00    -0.458 OA
BRANCH   2   3
ATOM      3  C   UNL A   1      33.418  31.227  27.102  1.00  0.00     0.338 C 
ATOM      4  O   UNL A   1      32.876  32.315  27.310  1.00  0.00    -0.246 OA
BRANCH   3   5
ATOM      5  C   UNL A   1      34.769  31.015  27.736  1.00  0.00     0.060 A 
ATOM      6  C   UNL A   1      35.741  31.986  27.980  1.00  0.00     0.016 A 
ATOM      7  C   UNL A   1      35.064  29.696  28.152  1.00  0.00     0.016 A 
ATOM      8  C   UNL A   1      36.903  31.679  28.713  1.00  0.00     0.010 A 
ATOM      9  C   UNL A   1      36.226  29.381  28.879  1.00  0.00     0.010 A 
ATOM     10  C   UNL A   1      37.150  30.380  29.183  1.00  0.00    -0.014 A 
BRANCH  10  11
ATOM     11  C   UNL A   1      38.498  30.071  29.729  1.00  0.00     0.031 A 
ATOM     12  C   UNL A   1      38.722  30.444  31.157  1.00  0.00     0.074 A 
ATOM     13  C   UNL A   1      39.488  29.478  29.028  1.00  0.00     0.049 A 
ATOM     14  N   UNL A   1      39.627  30.026  31.992  1.00  0.00    -0.248 NA
ATOM     15  C   UNL A   1      37.797  31.453  31.703  1.00  0.00     0.031 C 
ATOM     16  C   UNL A   1      39.459  29.244  27.594  1.00  0.00     0.029 A 
ATOM     17  N   UNL A   1      40.690  28.927  29.422  1.00  0.00    -0.354 N 
ATOM     18  C   UNL A   1      39.434  30.781  33.139  1.00  0.00     0.074 A 
ATOM     19  C   UNL A   1      38.286  31.629  32.918  1.00  0.00     0.031 C 
ATOM     20  C   UNL A   1      40.512  28.481  27.247  1.00  0.00     0.029 A 
ATOM     21  C   UNL A   1      41.282  28.147  28.436  1.00  0.00     0.049 A 
ATOM     22  H   UNL A   1      41.088  29.071  30.311  1.00  0.00     0.167 HD
ATOM     23  C   UNL A   1      40.193  30.811  34.255  1.00  0.00     0.034 A 
ATOM     24  C   UNL A   1      42.252  27.205  28.535  1.00  0.00     0.034 A 
ATOM     25  C   UNL A   1      41.375  30.019  34.425  1.00  0.00     0.049 A 
ATOM     26  C   UNL A   1      42.926  27.058  29.882  1.00  0.00     0.074 A 
ATOM     27  C   UNL A   1      42.263  30.006  35.482  1.00  0.00     0.029 A 
ATOM     28  N   UNL A   1      41.851  29.121  33.481  1.00  0.00    -0.354 N 
ATOM     29  N   UNL A   1      42.616  27.616  31.030  1.00  0.00    -0.248 NA
ATOM     30  C   UNL A   1      44.081  26.147  29.955  1.00  0.00     0.031 C 
ATOM     31  C   UNL A   1      43.298  29.119  35.161  1.00  0.00     0.029 A 
ATOM     32  C   UNL A   1      43.023  28.545  33.928  1.00  0.00     0.049 A 
ATOM     33  H   UNL A   1      41.418  28.924  32.619  1.00  0.00     0.167 HD
ATOM     34  C   UNL A   1      43.548  27.144  31.946  1.00  0.00     0.074 A 
ATOM     35  C   UNL A   1      44.359  26.167  31.250  1.00  0.00     0.031 C 
ATOM     36  C   UNL A   1      43.767  27.532  33.227  1.00  0.00     0.034 A 
BRANCH  23  37
ATOM     37  C   UNL A   1      39.807  31.822  35.294  1.00  0.00     0.023 A 
ATOM     38  C   UNL A   1      38.791  31.535  36.227  1.00  0.00     0.012 A 
ATOM     39  C   UNL A   1      40.404  33.097  35.282  1.00  0.00     0.148 A 
ATOM     40  C   UNL A   1      38.339  32.523  37.101  1.00  0.00     0.002 A 
ATOM     41  C   UNL A   1      39.983  34.058  36.189  1.00  0.00     0.091 A 
ATOM     42  F   UNL A   1      41.336  33.357  34.355  1.00  0.00    -0.205 F 
ATOM     43  C   UNL A   1      38.940  33.780  37.086  1.00  0.00     0.022 A 
BRANCH  41  44
ATOM     44  S   UNL A   1      40.734  35.683  36.286  1.00  0.00     0.127 S 
ATOM     45  O   UNL A   1      39.771  36.403  37.119  1.00  0.00    -0.237 OA
ATOM     46  O   UNL A   1      42.008  35.387  36.940  1.00  0.00    -0.237 OA
ATOM     47  O   UNL A   1      40.848  36.160  34.915  1.00  0.00    -0.744 OA
ENDBRANCH  41  44
ENDBRANCH  23  37
BRANCH  24  48
ATOM     48  C   UNL A   1      42.525  26.177  27.456  1.00  0.00     0.023 A 
ATOM     49  C   UNL A   1      43.374  26.550  26.381  1.00  0.00     0.012 A 
ATOM     50  C   UNL A   1      42.009  24.871  27.444  1.00  0.00     0.148 A 
ATOM     51  C   UNL A   1      43.695  25.677  25.340  1.00  0.00     0.002 A 
ATOM     52  C   UNL A   1      42.372  23.981  26.426  1.00  0.00     0.091 A 
ATOM     53  F   UNL A   1      41.149  24.513  28.408  1.00  0.00    -0.205 F 
ATOM     54  C   UNL A   1      43.203  24.384  25.369  1.00  0.00     0.022 A 
BRANCH  52  55
ATOM     55  S   UNL A   1      41.883  22.251  26.447  1.00  0.00     0.127 S 
ATOM     56  O   UNL A   1      42.355  21.821  27.759  1.00  0.00    -0.237 OA
ATOM     57  O   UNL A   1      40.427  22.337  26.316  1.00  0.00    -0.237 OA
ATOM     58  O   UNL A   1      42.548  21.658  25.296  1.00  0.00    -0.744 OA
ENDBRANCH  52  55
ENDBRANCH  24  48
BRANCH  36  59
ATOM     59  C   UNL A   1      44.929  26.912  33.954  1.00  0.00     0.023 A 
ATOM     60  C   UNL A   1      46.202  27.513  33.877  1.00  0.00     0.012 A 
ATOM     61  C   UNL A   1      44.737  25.798  34.792  1.00  0.00     0.148 A 
ATOM     62  C   UNL A   1      47.277  26.988  34.593  1.00  0.00     0.002 A 
ATOM     63  C   UNL A   1      45.798  25.318  35.547  1.00  0.00     0.091 A 
ATOM     64  F   UNL A   1      43.521  25.233  34.836  1.00  0.00    -0.205 F 
ATOM     65  C   UNL A   1      47.071  25.901  35.439  1.00  0.00     0.022 A 
BRANCH  63  66
ATOM     66  S   UNL A   1      45.596  23.997  36.746  1.00  0.00     0.127 S 
ATOM     67  O   UNL A   1      44.636  24.585  37.678  1.00  0.00    -0.237 OA
ATOM     68  O   UNL A   1      45.062  22.911  35.922  1.00  0.00    -0.237 OA
ATOM     69  O   UNL A   1      46.923  23.743  37.289  1.00  0.00    -0.744 OA
ENDBRANCH  63  66
ENDBRANCH  36  59
ENDBRANCH  10  11
ENDBRANCH   3   5
ENDBRANCH   2   3
ENDBRANCH   1   2
BRANCH   1  70
ATOM     70  C   UNL A   1      31.700  28.521  27.539  1.00  0.00     0.274 C 
BRANCH  70  71
ATOM     71  O   UNL A   1      31.560  27.232  26.942  1.00  0.00    -0.462 OA
BRANCH  71  72
ATOM     72  C   UNL A   1      32.531  26.794  26.100  1.00  0.00     0.311 C 
ATOM     73  O   UNL A   1      33.733  26.915  26.283  1.00  0.00    -0.252 OA
BRANCH  72  74
ATOM     74  C   UNL A   1      31.882  26.136  24.908  1.00  0.00     0.128 C 
ATOM     75  C   UNL A   1      32.469  24.767  24.730  1.00  0.00     0.135 C 
ATOM     76  C   UNL A   1      32.070  26.930  23.601  1.00  0.00     0.055 C 
ATOM     77  N   UNL A   1      32.676  24.578  23.329  1.00  0.00    -0.336 N 
ATOM     78  C   UNL A   1      32.393  25.804  22.570  1.00  0.00     0.129 C 
BRANCH  76  79
ATOM     79  C   UNL A   1      30.830  27.828  23.422  1.00  0.00    -0.038 A 
ATOM     80  C   UNL A   1      29.546  27.318  23.776  1.00  0.00     0.008 A 
ATOM     81  C   UNL A   1      30.864  29.088  22.822  1.00  0.00     0.054 A 
ATOM     82  C   UNL A   1      28.351  27.879  23.319  1.00  0.00     0.051 A 
ATOM     83  C   UNL A   1      29.662  29.633  22.385  1.00  0.00     0.166 A 
ATOM     84  C   UNL A   1      28.450  29.018  22.576  1.00  0.00     0.165 A 
ATOM     85  O   UNL A   1      29.516  30.779  21.673  1.00  0.00    -0.454 OA
ATOM     86  O   UNL A   1      27.421  29.662  21.965  1.00  0.00    -0.454 OA
ATOM     87  C   UNL A   1      28.154  30.653  21.220  1.00  0.00     0.468 C 
ENDBRANCH  76  79
BRANCH  77  88
ATOM     88  C   UNL A   1      33.088  23.388  22.739  1.00  0.00     0.277 C 
ATOM     89  O   UNL A   1      33.488  23.357  21.576  1.00  0.00    -0.268 OA
BRANCH  88  90
ATOM     90  C   UNL A   1      33.029  22.094  23.594  1.00  0.00     0.363 C 
BRANCH  90  91
ATOM     91  N   UNL A   1      34.325  21.512  24.023  1.00  0.00    -0.323 N 
ATOM     92  C   UNL A   1      34.185  20.600  25.175  1.00  0.00     0.291 C 
ATOM     93  C   UNL A   1      35.435  22.437  24.289  1.00  0.00     0.291 C 
ATOM     94  H   UNL A   1      34.593  21.006  23.179  1.00  0.00     0.348 HD
ATOM     95  C   UNL A   1      34.052  21.340  26.513  1.00  0.00     0.221 C 
ATOM     96  C   UNL A   1      35.397  23.128  25.659  1.00  0.00     0.221 C 
ATOM     97  O   UNL A   1      35.156  22.221  26.744  1.00  0.00    -0.370 OA
ENDBRANCH  90  91
ENDBRANCH  88  90
ENDBRANCH  77  88
ENDBRANCH  72  74
ENDBRANCH  71  72
ENDBRANCH  70  71
ENDBRANCH   1  70
TORSDOF 18
ENDMDL
