MODEL 1
REMARK VINA RESULT:     -10.9      0.000      0.000
REMARK SMILES CCC[C@@H](C)C[C@H](C(=O)OCCOC(=O)c1ccc(-c2c3nc(c(-c4cccc(S(=O)(=O)[O-])c4F)c4ccc([nH]4)c(-c4cccc(S(=O)(=O)[O-])c4F)c4nc(c(-c5cccc(S(=O)(=O)[O-])c5F)c5ccc2[nH]5)C=C4)C=C3)cc1)c1ccccc1C
REMARK SMILES IDX 11 1 10 2 8 3 9 4 7 5 6 6 4 7 5 8 3 9 2 10 1 11 79 12 80 13
REMARK SMILES IDX 84 14 81 15 83 16 85 17 82 18 12 19 13 20 14 21 15 22 16 23
REMARK SMILES IDX 17 24 78 25 18 26 77 27 19 28 20 29 21 30 71 31 22 32 76 33
REMARK SMILES IDX 70 34 72 35 23 36 75 37 69 38 68 39 24 41 56 42 36 43 55 44
REMARK SMILES IDX 37 45 40 46 54 47 73 48 38 49 39 50 53 52 74 53 41 54 25 55
REMARK SMILES IDX 26 56 34 57 27 58 29 59 35 60 28 61 30 62 31 63 32 64 33 65
REMARK SMILES IDX 57 66 58 67 66 68 59 69 61 70 67 71 60 72 62 73 63 74 64 75
REMARK SMILES IDX 65 76 42 77 43 78 51 79 44 80 46 81 52 82 45 83 47 84 48 85
REMARK SMILES IDX 49 86 50 87
REMARK H PARENT 72 40 40 51
REMARK Flexibility Score: inf
ROOT
ATOM      1  C   UNL A   1      35.796  22.781  23.402  1.00  0.00     0.274 C 
ENDROOT
BRANCH   1   2
ATOM      2  O   UNL A   1      35.605  23.987  24.170  1.00  0.00    -0.462 OA
BRANCH   2   3
ATOM      3  C   UNL A   1      34.410  24.623  23.972  1.00  0.00     0.313 C 
ATOM      4  O   UNL A   1      34.064  25.066  22.885  1.00  0.00    -0.252 OA
BRANCH   3   5
ATOM      5  C   UNL A   1      33.540  24.592  25.243  1.00  0.00     0.130 C 
BRANCH   5   6
ATOM      6  C   UNL A   1      34.025  23.644  26.369  1.00  0.00     0.023 C 
BRANCH   6   7
ATOM      7  C   UNL A   1      33.266  22.319  26.600  1.00  0.00    -0.013 C 
ATOM      8  C   UNL A   1      32.897  22.204  28.086  1.00  0.00     0.007 C 
BRANCH   7   9
ATOM      9  C   UNL A   1      34.058  21.078  26.169  1.00  0.00     0.003 C 
BRANCH   9  10
ATOM     10  C   UNL A   1      33.407  20.261  25.048  1.00  0.00    -0.003 C 
ATOM     11  C   UNL A   1      32.533  21.095  24.119  1.00  0.00     0.004 C 
ENDBRANCH   9  10
ENDBRANCH   7   9
ENDBRANCH   6   7
ENDBRANCH   5   6
BRANCH   5  12
ATOM     12  C   UNL A   1      33.082  25.971  25.764  1.00  0.00    -0.031 A 
ATOM     13  C   UNL A   1      33.997  27.045  25.832  1.00  0.00     0.005 A 
ATOM     14  C   UNL A   1      31.752  26.226  26.184  1.00  0.00    -0.047 A 
ATOM     15  C   UNL A   1      33.639  28.305  26.313  1.00  0.00     0.000 A 
ATOM     16  C   UNL A   1      31.406  27.510  26.661  1.00  0.00     0.004 A 
ATOM     17  C   UNL A   1      30.617  25.240  26.094  1.00  0.00     0.044 C 
ATOM     18  C   UNL A   1      32.342  28.537  26.735  1.00  0.00     0.000 A 
ENDBRANCH   5  12
ENDBRANCH   3   5
ENDBRANCH   2   3
ENDBRANCH   1   2
BRANCH   1  19
ATOM     19  C   UNL A   1      37.015  21.986  23.877  1.00  0.00     0.275 C 
BRANCH  19  20
ATOM     20  O   UNL A   1      37.092  21.910  25.314  1.00  0.00    -0.458 OA
BRANCH  20  21
ATOM     21  C   UNL A   1      38.263  21.446  25.801  1.00  0.00     0.338 C 
ATOM     22  O   UNL A   1      38.691  20.299  25.731  1.00  0.00    -0.246 OA
BRANCH  21  23
ATOM     23  C   UNL A   1      39.071  22.562  26.307  1.00  0.00     0.060 A 
ATOM     24  C   UNL A   1      38.583  23.852  26.098  1.00  0.00     0.016 A 
ATOM     25  C   UNL A   1      40.311  22.371  26.917  1.00  0.00     0.016 A 
ATOM     26  C   UNL A   1      39.313  24.962  26.489  1.00  0.00     0.010 A 
ATOM     27  C   UNL A   1      41.043  23.492  27.326  1.00  0.00     0.010 A 
ATOM     28  C   UNL A   1      40.548  24.792  27.115  1.00  0.00    -0.014 A 
BRANCH  28  29
ATOM     29  C   UNL A   1      41.304  25.986  27.549  1.00  0.00     0.031 A 
ATOM     30  C   UNL A   1      40.635  27.035  28.382  1.00  0.00     0.074 A 
ATOM     31  C   UNL A   1      42.596  26.111  27.194  1.00  0.00     0.049 A 
ATOM     32  N   UNL A   1      41.086  28.203  28.753  1.00  0.00    -0.248 NA
ATOM     33  C   UNL A   1      39.279  26.728  28.868  1.00  0.00     0.031 C 
ATOM     34  C   UNL A   1      43.362  25.124  26.429  1.00  0.00     0.029 A 
ATOM     35  N   UNL A   1      43.488  27.132  27.409  1.00  0.00    -0.354 N 
ATOM     36  C   UNL A   1      40.056  28.796  29.470  1.00  0.00     0.074 A 
ATOM     37  C   UNL A   1      38.959  27.851  29.498  1.00  0.00     0.031 C 
ATOM     38  C   UNL A   1      44.598  25.598  26.216  1.00  0.00     0.029 A 
ATOM     39  C   UNL A   1      44.694  26.941  26.776  1.00  0.00     0.049 A 
ATOM     40  H   UNL A   1      43.285  27.921  27.962  1.00  0.00     0.167 HD
ATOM     41  C   UNL A   1      40.034  30.017  30.053  1.00  0.00     0.034 A 
ATOM     42  C   UNL A   1      45.738  27.777  26.620  1.00  0.00     0.034 A 
ATOM     43  C   UNL A   1      41.145  30.930  30.047  1.00  0.00     0.049 A 
ATOM     44  C   UNL A   1      45.665  29.149  27.231  1.00  0.00     0.074 A 
ATOM     45  C   UNL A   1      41.239  32.174  30.646  1.00  0.00     0.029 A 
ATOM     46  N   UNL A   1      42.352  30.702  29.405  1.00  0.00    -0.354 N 
ATOM     47  N   UNL A   1      44.716  29.672  27.969  1.00  0.00    -0.248 NA
ATOM     48  C   UNL A   1      46.808  30.042  26.997  1.00  0.00     0.031 C 
ATOM     49  C   UNL A   1      42.497  32.709  30.343  1.00  0.00     0.029 A 
ATOM     50  C   UNL A   1      43.191  31.791  29.572  1.00  0.00     0.049 A 
ATOM     51  H   UNL A   1      42.580  29.887  28.904  1.00  0.00     0.167 HD
ATOM     52  C   UNL A   1      45.149  30.950  28.298  1.00  0.00     0.074 A 
ATOM     53  C   UNL A   1      46.462  31.109  27.706  1.00  0.00     0.031 C 
ATOM     54  C   UNL A   1      44.510  31.915  29.005  1.00  0.00     0.034 A 
BRANCH  41  55
ATOM     55  C   UNL A   1      38.769  30.435  30.753  1.00  0.00     0.023 A 
ATOM     56  C   UNL A   1      38.605  30.163  32.124  1.00  0.00     0.012 A 
ATOM     57  C   UNL A   1      37.768  31.144  30.061  1.00  0.00     0.148 A 
ATOM     58  C   UNL A   1      37.452  30.570  32.795  1.00  0.00     0.002 A 
ATOM     59  C   UNL A   1      36.637  31.579  30.743  1.00  0.00     0.091 A 
ATOM     60  F   UNL A   1      37.931  31.368  28.750  1.00  0.00    -0.205 F 
ATOM     61  C   UNL A   1      36.474  31.285  32.107  1.00  0.00     0.022 A 
BRANCH  59  62
ATOM     62  S   UNL A   1      35.354  32.562  29.960  1.00  0.00     0.127 S 
ATOM     63  O   UNL A   1      36.120  33.701  29.457  1.00  0.00    -0.237 OA
ATOM     64  O   UNL A   1      34.859  31.654  28.924  1.00  0.00    -0.237 OA
ATOM     65  O   UNL A   1      34.389  32.869  31.007  1.00  0.00    -0.744 OA
ENDBRANCH  59  62
ENDBRANCH  41  55
BRANCH  42  66
ATOM     66  C   UNL A   1      46.931  27.336  25.844  1.00  0.00     0.023 A 
ATOM     67  C   UNL A   1      47.860  26.460  26.437  1.00  0.00     0.012 A 
ATOM     68  C   UNL A   1      47.128  27.747  24.511  1.00  0.00     0.148 A 
ATOM     69  C   UNL A   1      48.971  26.015  25.721  1.00  0.00     0.002 A 
ATOM     70  C   UNL A   1      48.207  27.255  23.784  1.00  0.00     0.091 A 
ATOM     71  F   UNL A   1      46.248  28.604  23.971  1.00  0.00    -0.205 F 
ATOM     72  C   UNL A   1      49.138  26.400  24.392  1.00  0.00     0.022 A 
BRANCH  70  73
ATOM     73  S   UNL A   1      48.417  27.594  22.033  1.00  0.00     0.127 S 
ATOM     74  O   UNL A   1      49.587  28.469  22.037  1.00  0.00    -0.237 OA
ATOM     75  O   UNL A   1      48.652  26.256  21.488  1.00  0.00    -0.237 OA
ATOM     76  O   UNL A   1      47.168  28.204  21.600  1.00  0.00    -0.744 OA
ENDBRANCH  70  73
ENDBRANCH  42  66
BRANCH  54  77
ATOM     77  C   UNL A   1      45.220  33.230  29.177  1.00  0.00     0.023 A 
ATOM     78  C   UNL A   1      46.065  33.419  30.288  1.00  0.00     0.012 A 
ATOM     79  C   UNL A   1      45.112  34.246  28.208  1.00  0.00     0.148 A 
ATOM     80  C   UNL A   1      46.774  34.608  30.446  1.00  0.00     0.002 A 
ATOM     81  C   UNL A   1      45.855  35.412  28.349  1.00  0.00     0.091 A 
ATOM     82  F   UNL A   1      44.287  34.053  27.169  1.00  0.00    -0.205 F 
ATOM     83  C   UNL A   1      46.678  35.599  29.471  1.00  0.00     0.022 A 
BRANCH  81  84
ATOM     84  S   UNL A   1      45.865  36.705  27.102  1.00  0.00     0.127 S 
ATOM     85  O   UNL A   1      46.380  35.989  25.936  1.00  0.00    -0.237 OA
ATOM     86  O   UNL A   1      44.451  37.069  27.019  1.00  0.00    -0.237 OA
ATOM     87  O   UNL A   1      46.730  37.757  27.621  1.00  0.00    -0.744 OA
ENDBRANCH  81  84
ENDBRANCH  54  77
ENDBRANCH  28  29
ENDBRANCH  21  23
ENDBRANCH  20  21
ENDBRANCH  19  20
ENDBRANCH   1  19
TORSDOF 19
ENDMDL
MODEL 2
REMARK VINA RESULT:     -10.8      5.338     10.184
REMARK SMILES CCC[C@@H](C)C[C@H](C(=O)OCCOC(=O)c1ccc(-c2c3nc(c(-c4cccc(S(=O)(=O)[O-])c4F)c4ccc([nH]4)c(-c4cccc(S(=O)(=O)[O-])c4F)c4nc(c(-c5cccc(S(=O)(=O)[O-])c5F)c5ccc2[nH]5)C=C4)C=C3)cc1)c1ccccc1C
REMARK SMILES IDX 11 1 10 2 8 3 9 4 7 5 6 6 4 7 5 8 3 9 2 10 1 11 79 12 80 13
REMARK SMILES IDX 84 14 81 15 83 16 85 17 82 18 12 19 13 20 14 21 15 22 16 23
REMARK SMILES IDX 17 24 78 25 18 26 77 27 19 28 20 29 21 30 71 31 22 32 76 33
REMARK SMILES IDX 70 34 72 35 23 36 75 37 69 38 68 39 24 41 56 42 36 43 55 44
REMARK SMILES IDX 37 45 40 46 54 47 73 48 38 49 39 50 53 52 74 53 41 54 25 55
REMARK SMILES IDX 26 56 34 57 27 58 29 59 35 60 28 61 30 62 31 63 32 64 33 65
REMARK SMILES IDX 57 66 58 67 66 68 59 69 61 70 67 71 60 72 62 73 63 74 64 75
REMARK SMILES IDX 65 76 42 77 43 78 51 79 44 80 46 81 52 82 45 83 47 84 48 85
REMARK SMILES IDX 49 86 50 87
REMARK H PARENT 72 40 40 51
REMARK Flexibility Score: inf
ROOT
ATOM      1  C   UNL A   1      31.781  29.082  26.172  1.00  0.00     0.274 C 
ENDROOT
BRANCH   1   2
ATOM      2  O   UNL A   1      32.759  28.759  25.161  1.00  0.00    -0.462 OA
BRANCH   2   3
ATOM      3  C   UNL A   1      33.628  27.754  25.489  1.00  0.00     0.313 C 
ATOM      4  O   UNL A   1      34.466  27.863  26.373  1.00  0.00    -0.252 OA
BRANCH   3   5
ATOM      5  C   UNL A   1      33.325  26.469  24.696  1.00  0.00     0.130 C 
BRANCH   5   6
ATOM      6  C   UNL A   1      33.688  26.506  23.189  1.00  0.00     0.023 C 
BRANCH   6   7
ATOM      7  C   UNL A   1      32.605  26.120  22.158  1.00  0.00    -0.013 C 
ATOM      8  C   UNL A   1      31.415  27.081  22.296  1.00  0.00     0.007 C 
BRANCH   7   9
ATOM      9  C   UNL A   1      32.116  24.672  22.298  1.00  0.00     0.003 C 
BRANCH   9  10
ATOM     10  C   UNL A   1      33.210  23.611  22.150  1.00  0.00    -0.003 C 
ATOM     11  C   UNL A   1      32.971  22.368  22.999  1.00  0.00     0.004 C 
ENDBRANCH   9  10
ENDBRANCH   7   9
ENDBRANCH   6   7
ENDBRANCH   5   6
BRANCH   5  12
ATOM     12  C   UNL A   1      33.737  25.152  25.389  1.00  0.00    -0.031 A 
ATOM     13  C   UNL A   1      35.049  24.649  25.238  1.00  0.00     0.005 A 
ATOM     14  C   UNL A   1      32.845  24.403  26.197  1.00  0.00    -0.047 A 
ATOM     15  C   UNL A   1      35.466  23.455  25.827  1.00  0.00     0.000 A 
ATOM     16  C   UNL A   1      33.287  23.199  26.791  1.00  0.00     0.004 A 
ATOM     17  C   UNL A   1      31.444  24.826  26.553  1.00  0.00     0.044 C 
ATOM     18  C   UNL A   1      34.581  22.724  26.600  1.00  0.00     0.000 A 
ENDBRANCH   5  12
ENDBRANCH   3   5
ENDBRANCH   2   3
ENDBRANCH   1   2
BRANCH   1  19
ATOM     19  C   UNL A   1      32.005  30.477  26.761  1.00  0.00     0.275 C 
BRANCH  19  20
ATOM     20  O   UNL A   1      33.333  30.972  26.505  1.00  0.00    -0.458 OA
BRANCH  20  21
ATOM     21  C   UNL A   1      33.770  31.916  27.366  1.00  0.00     0.338 C 
ATOM     22  O   UNL A   1      33.213  32.970  27.652  1.00  0.00    -0.246 OA
BRANCH  21  23
ATOM     23  C   UNL A   1      34.964  31.436  28.071  1.00  0.00     0.060 A 
ATOM     24  C   UNL A   1      36.061  32.295  28.132  1.00  0.00     0.016 A 
ATOM     25  C   UNL A   1      35.049  30.151  28.609  1.00  0.00     0.016 A 
ATOM     26  C   UNL A   1      37.247  31.895  28.724  1.00  0.00     0.010 A 
ATOM     27  C   UNL A   1      36.242  29.751  29.221  1.00  0.00     0.010 A 
ATOM     28  C   UNL A   1      37.346  30.621  29.282  1.00  0.00    -0.014 A 
BRANCH  28  29
ATOM     29  C   UNL A   1      38.611  30.218  29.934  1.00  0.00     0.031 A 
ATOM     30  C   UNL A   1      39.512  29.223  29.271  1.00  0.00     0.074 A 
ATOM     31  C   UNL A   1      38.942  30.762  31.120  1.00  0.00     0.049 A 
ATOM     32  N   UNL A   1      40.591  28.652  29.735  1.00  0.00    -0.248 NA
ATOM     33  C   UNL A   1      39.157  28.818  27.901  1.00  0.00     0.031 C 
ATOM     34  C   UNL A   1      38.164  31.780  31.829  1.00  0.00     0.029 A 
ATOM     35  N   UNL A   1      40.007  30.518  31.950  1.00  0.00    -0.354 N 
ATOM     36  C   UNL A   1      41.017  27.782  28.742  1.00  0.00     0.074 A 
ATOM     37  C   UNL A   1      40.089  27.912  27.638  1.00  0.00     0.031 C 
ATOM     38  C   UNL A   1      38.761  32.054  32.998  1.00  0.00     0.029 A 
ATOM     39  C   UNL A   1      39.928  31.192  33.146  1.00  0.00     0.049 A 
ATOM     40  H   UNL A   1      40.752  29.920  31.713  1.00  0.00     0.167 HD
ATOM     41  C   UNL A   1      42.088  26.956  28.752  1.00  0.00     0.034 A 
ATOM     42  C   UNL A   1      40.682  31.087  34.257  1.00  0.00     0.034 A 
ATOM     43  C   UNL A   1      43.022  26.865  29.842  1.00  0.00     0.049 A 
ATOM     44  C   UNL A   1      41.833  30.119  34.261  1.00  0.00     0.074 A 
ATOM     45  C   UNL A   1      44.164  26.090  29.934  1.00  0.00     0.029 A 
ATOM     46  N   UNL A   1      42.918  27.566  31.033  1.00  0.00    -0.354 N 
ATOM     47  N   UNL A   1      42.271  29.355  33.290  1.00  0.00    -0.248 NA
ATOM     48  C   UNL A   1      42.600  30.005  35.510  1.00  0.00     0.031 C 
ATOM     49  C   UNL A   1      44.737  26.304  31.193  1.00  0.00     0.029 A 
ATOM     50  C   UNL A   1      43.961  27.227  31.877  1.00  0.00     0.049 A 
ATOM     51  H   UNL A   1      42.206  28.211  31.248  1.00  0.00     0.167 HD
ATOM     52  C   UNL A   1      43.370  28.677  33.804  1.00  0.00     0.074 A 
ATOM     53  C   UNL A   1      43.551  29.148  35.162  1.00  0.00     0.031 C 
ATOM     54  C   UNL A   1      44.145  27.734  33.213  1.00  0.00     0.034 A 
BRANCH  41  55
ATOM     55  C   UNL A   1      42.313  26.086  27.545  1.00  0.00     0.023 A 
ATOM     56  C   UNL A   1      42.951  26.617  26.409  1.00  0.00     0.012 A 
ATOM     57  C   UNL A   1      41.937  24.729  27.559  1.00  0.00     0.148 A 
ATOM     58  C   UNL A   1      43.193  25.817  25.292  1.00  0.00     0.002 A 
ATOM     59  C   UNL A   1      42.214  23.927  26.458  1.00  0.00     0.091 A 
ATOM     60  F   UNL A   1      41.306  24.250  28.641  1.00  0.00    -0.205 F 
ATOM     61  C   UNL A   1      42.834  24.472  25.321  1.00  0.00     0.022 A 
BRANCH  59  62
ATOM     62  S   UNL A   1      41.849  22.169  26.425  1.00  0.00     0.127 S 
ATOM     63  O   UNL A   1      42.411  21.726  27.701  1.00  0.00    -0.237 OA
ATOM     64  O   UNL A   1      40.386  22.158  26.368  1.00  0.00    -0.237 OA
ATOM     65  O   UNL A   1      42.505  21.645  25.235  1.00  0.00    -0.744 OA
ENDBRANCH  59  62
ENDBRANCH  41  55
BRANCH  42  66
ATOM     66  C   UNL A   1      40.360  31.914  35.452  1.00  0.00     0.023 A 
ATOM     67  C   UNL A   1      41.160  33.029  35.762  1.00  0.00     0.012 A 
ATOM     68  C   UNL A   1      39.241  31.626  36.261  1.00  0.00     0.148 A 
ATOM     69  C   UNL A   1      40.863  33.833  36.863  1.00  0.00     0.002 A 
ATOM     70  C   UNL A   1      38.918  32.463  37.322  1.00  0.00     0.091 A 
ATOM     71  F   UNL A   1      38.506  30.544  35.968  1.00  0.00    -0.205 F 
ATOM     72  C   UNL A   1      39.735  33.559  37.635  1.00  0.00     0.022 A 
BRANCH  70  73
ATOM     73  S   UNL A   1      37.411  32.259  38.279  1.00  0.00     0.127 S 
ATOM     74  O   UNL A   1      37.239  30.808  38.259  1.00  0.00    -0.237 OA
ATOM     75  O   UNL A   1      37.795  32.815  39.577  1.00  0.00    -0.237 OA
ATOM     76  O   UNL A   1      36.394  33.030  37.577  1.00  0.00    -0.744 OA
ENDBRANCH  70  73
ENDBRANCH  42  66
BRANCH  54  77
ATOM     77  C   UNL A   1      45.260  27.145  34.034  1.00  0.00     0.023 A 
ATOM     78  C   UNL A   1      46.538  27.737  33.991  1.00  0.00     0.012 A 
ATOM     79  C   UNL A   1      45.029  26.058  34.900  1.00  0.00     0.148 A 
ATOM     80  C   UNL A   1      47.575  27.242  34.778  1.00  0.00     0.002 A 
ATOM     81  C   UNL A   1      46.057  25.598  35.714  1.00  0.00     0.091 A 
ATOM     82  F   UNL A   1      43.811  25.497  34.910  1.00  0.00    -0.205 F 
ATOM     83  C   UNL A   1      47.332  26.182  35.647  1.00  0.00     0.022 A 
BRANCH  81  84
ATOM     84  S   UNL A   1      45.814  24.296  36.929  1.00  0.00     0.127 S 
ATOM     85  O   UNL A   1      45.393  23.179  36.086  1.00  0.00    -0.237 OA
ATOM     86  O   UNL A   1      47.151  24.156  37.505  1.00  0.00    -0.237 OA
ATOM     87  O   UNL A   1      44.806  24.795  37.855  1.00  0.00    -0.744 OA
ENDBRANCH  81  84
ENDBRANCH  54  77
ENDBRANCH  28  29
ENDBRANCH  21  23
ENDBRANCH  20  21
ENDBRANCH  19  20
ENDBRANCH   1  19
TORSDOF 19
ENDMDL
MODEL 3
REMARK VINA RESULT:     -10.7      5.232     10.002
REMARK SMILES CCC[C@@H](C)C[C@H](C(=O)OCCOC(=O)c1ccc(-c2c3nc(c(-c4cccc(S(=O)(=O)[O-])c4F)c4ccc([nH]4)c(-c4cccc(S(=O)(=O)[O-])c4F)c4nc(c(-c5cccc(S(=O)(=O)[O-])c5F)c5ccc2[nH]5)C=C4)C=C3)cc1)c1ccccc1C
REMARK SMILES IDX 11 1 10 2 8 3 9 4 7 5 6 6 4 7 5 8 3 9 2 10 1 11 79 12 80 13
REMARK SMILES IDX 84 14 81 15 83 16 85 17 82 18 12 19 13 20 14 21 15 22 16 23
REMARK SMILES IDX 17 24 78 25 18 26 77 27 19 28 20 29 21 30 71 31 22 32 76 33
REMARK SMILES IDX 70 34 72 35 23 36 75 37 69 38 68 39 24 41 56 42 36 43 55 44
REMARK SMILES IDX 37 45 40 46 54 47 73 48 38 49 39 50 53 52 74 53 41 54 25 55
REMARK SMILES IDX 26 56 34 57 27 58 29 59 35 60 28 61 30 62 31 63 32 64 33 65
REMARK SMILES IDX 57 66 58 67 66 68 59 69 61 70 67 71 60 72 62 73 63 74 64 75
REMARK SMILES IDX 65 76 42 77 43 78 51 79 44 80 46 81 52 82 45 83 47 84 48 85
REMARK SMILES IDX 49 86 50 87
REMARK H PARENT 72 40 40 51
REMARK Flexibility Score: inf
ROOT
ATOM      1  C   UNL A   1      31.830  28.160  27.003  1.00  0.00     0.274 C 
ENDROOT
BRANCH   1   2
ATOM      2  O   UNL A   1      32.108  27.230  25.935  1.00  0.00    -0.462 OA
BRANCH   2   3
ATOM      3  C   UNL A   1      33.273  26.524  26.064  1.00  0.00     0.313 C 
ATOM      4  O   UNL A   1      34.357  27.057  26.251  1.00  0.00    -0.252 OA
BRANCH   3   5
ATOM      5  C   UNL A   1      33.011  25.006  26.064  1.00  0.00     0.130 C 
BRANCH   5   6
ATOM      6  C   UNL A   1      31.806  24.529  25.214  1.00  0.00     0.023 C 
BRANCH   6   7
ATOM      7  C   UNL A   1      32.046  24.150  23.736  1.00  0.00    -0.013 C 
ATOM      8  C   UNL A   1      31.434  25.232  22.834  1.00  0.00     0.007 C 
BRANCH   7   9
ATOM      9  C   UNL A   1      31.473  22.778  23.356  1.00  0.00     0.003 C 
BRANCH   9  10
ATOM     10  C   UNL A   1      31.925  21.625  24.258  1.00  0.00    -0.003 C 
ATOM     11  C   UNL A   1      33.307  21.086  23.907  1.00  0.00     0.004 C 
ENDBRANCH   9  10
ENDBRANCH   7   9
ENDBRANCH   6   7
ENDBRANCH   5   6
BRANCH   5  12
ATOM     12  C   UNL A   1      34.264  24.119  25.893  1.00  0.00    -0.031 A 
ATOM     13  C   UNL A   1      35.239  24.446  24.925  1.00  0.00     0.005 A 
ATOM     14  C   UNL A   1      34.497  22.966  26.684  1.00  0.00    -0.047 A 
ATOM     15  C   UNL A   1      36.379  23.668  24.718  1.00  0.00     0.000 A 
ATOM     16  C   UNL A   1      35.660  22.194  26.465  1.00  0.00     0.004 A 
ATOM     17  C   UNL A   1      33.625  22.515  27.827  1.00  0.00     0.044 C 
ATOM     18  C   UNL A   1      36.587  22.535  25.485  1.00  0.00     0.000 A 
ENDBRANCH   5  12
ENDBRANCH   3   5
ENDBRANCH   2   3
ENDBRANCH   1   2
BRANCH   1  19
ATOM     19  C   UNL A   1      31.617  29.583  26.483  1.00  0.00     0.275 C 
BRANCH  19  20
ATOM     20  O   UNL A   1      32.859  30.245  26.175  1.00  0.00    -0.458 OA
BRANCH  20  21
ATOM     21  C   UNL A   1      33.157  31.300  26.963  1.00  0.00     0.338 C 
ATOM     22  O   UNL A   1      32.433  32.254  27.227  1.00  0.00    -0.246 OA
BRANCH  21  23
ATOM     23  C   UNL A   1      34.449  31.082  27.623  1.00  0.00     0.060 A 
ATOM     24  C   UNL A   1      34.684  29.820  28.171  1.00  0.00     0.016 A 
ATOM     25  C   UNL A   1      35.395  32.096  27.769  1.00  0.00     0.016 A 
ATOM     26  C   UNL A   1      35.851  29.550  28.864  1.00  0.00     0.010 A 
ATOM     27  C   UNL A   1      36.583  31.821  28.457  1.00  0.00     0.010 A 
ATOM     28  C   UNL A   1      36.816  30.547  29.007  1.00  0.00    -0.014 A 
BRANCH  28  29
ATOM     29  C   UNL A   1      38.069  30.235  29.728  1.00  0.00     0.031 A 
ATOM     30  C   UNL A   1      39.069  29.298  29.125  1.00  0.00     0.074 A 
ATOM     31  C   UNL A   1      38.300  30.810  30.924  1.00  0.00     0.049 A 
ATOM     32  N   UNL A   1      40.157  28.805  29.652  1.00  0.00    -0.248 NA
ATOM     33  C   UNL A   1      38.814  28.859  27.743  1.00  0.00     0.031 C 
ATOM     34  C   UNL A   1      37.419  31.779  31.580  1.00  0.00     0.029 A 
ATOM     35  N   UNL A   1      39.334  30.645  31.811  1.00  0.00    -0.354 N 
ATOM     36  C   UNL A   1      40.692  27.957  28.692  1.00  0.00     0.074 A 
ATOM     37  C   UNL A   1      39.817  28.015  27.540  1.00  0.00     0.031 C 
ATOM     38  C   UNL A   1      37.935  32.102  32.774  1.00  0.00     0.029 A 
ATOM     39  C   UNL A   1      39.147  31.322  32.994  1.00  0.00     0.049 A 
ATOM     40  H   UNL A   1      40.129  30.097  31.620  1.00  0.00     0.167 HD
ATOM     41  C   UNL A   1      41.814  27.205  28.768  1.00  0.00     0.034 A 
ATOM     42  C   UNL A   1      39.847  31.277  34.143  1.00  0.00     0.034 A 
ATOM     43  C   UNL A   1      42.693  27.186  29.906  1.00  0.00     0.049 A 
ATOM     44  C   UNL A   1      41.058  30.389  34.219  1.00  0.00     0.074 A 
ATOM     45  C   UNL A   1      43.878  26.490  30.066  1.00  0.00     0.029 A 
ATOM     46  N   UNL A   1      42.479  27.889  31.082  1.00  0.00    -0.354 N 
ATOM     47  N   UNL A   1      41.596  29.648  33.281  1.00  0.00    -0.248 NA
ATOM     48  C   UNL A   1      41.763  30.337  35.507  1.00  0.00     0.031 C 
ATOM     49  C   UNL A   1      44.368  26.754  31.351  1.00  0.00     0.029 A 
ATOM     50  C   UNL A   1      43.497  27.627  31.983  1.00  0.00     0.049 A 
ATOM     51  H   UNL A   1      41.716  28.486  31.252  1.00  0.00     0.167 HD
ATOM     52  C   UNL A   1      42.709  29.050  33.859  1.00  0.00     0.074 A 
ATOM     53  C   UNL A   1      42.787  29.543  35.219  1.00  0.00     0.031 C 
ATOM     54  C   UNL A   1      43.576  28.156  33.320  1.00  0.00     0.034 A 
BRANCH  41  55
ATOM     55  C   UNL A   1      42.159  26.342  27.584  1.00  0.00     0.023 A 
ATOM     56  C   UNL A   1      42.858  26.896  26.495  1.00  0.00     0.012 A 
ATOM     57  C   UNL A   1      41.837  24.971  27.577  1.00  0.00     0.148 A 
ATOM     58  C   UNL A   1      43.212  26.104  25.403  1.00  0.00     0.002 A 
ATOM     59  C   UNL A   1      42.225  24.179  26.503  1.00  0.00     0.091 A 
ATOM     60  F   UNL A   1      41.149  24.470  28.613  1.00  0.00    -0.205 F 
ATOM     61  C   UNL A   1      42.904  24.746  25.411  1.00  0.00     0.022 A 
BRANCH  59  62
ATOM     62  S   UNL A   1      41.932  22.408  26.452  1.00  0.00     0.127 S 
ATOM     63  O   UNL A   1      40.509  22.353  26.119  1.00  0.00    -0.237 OA
ATOM     64  O   UNL A   1      42.827  21.977  25.378  1.00  0.00    -0.237 OA
ATOM     65  O   UNL A   1      42.286  21.905  27.773  1.00  0.00    -0.744 OA
ENDBRANCH  59  62
ENDBRANCH  41  55
BRANCH  42  66
ATOM     66  C   UNL A   1      39.407  32.090  35.310  1.00  0.00     0.023 A 
ATOM     67  C   UNL A   1      38.573  31.512  36.285  1.00  0.00     0.012 A 
ATOM     68  C   UNL A   1      39.843  33.420  35.480  1.00  0.00     0.148 A 
ATOM     69  C   UNL A   1      38.167  32.248  37.399  1.00  0.00     0.002 A 
ATOM     70  C   UNL A   1      39.482  34.129  36.620  1.00  0.00     0.091 A 
ATOM     71  F   UNL A   1      40.615  33.964  34.528  1.00  0.00    -0.205 F 
ATOM     72  C   UNL A   1      38.632  33.550  37.575  1.00  0.00     0.022 A 
BRANCH  70  73
ATOM     73  S   UNL A   1      40.146  35.757  36.987  1.00  0.00     0.127 S 
ATOM     74  O   UNL A   1      39.496  36.066  38.258  1.00  0.00    -0.237 OA
ATOM     75  O   UNL A   1      41.582  35.488  37.079  1.00  0.00    -0.237 OA
ATOM     76  O   UNL A   1      39.768  36.597  35.858  1.00  0.00    -0.744 OA
ENDBRANCH  70  73
ENDBRANCH  42  66
BRANCH  54  77
ATOM     77  C   UNL A   1      44.684  27.650  34.205  1.00  0.00     0.023 A 
ATOM     78  C   UNL A   1      45.903  28.353  34.256  1.00  0.00     0.012 A 
ATOM     79  C   UNL A   1      44.493  26.530  35.037  1.00  0.00     0.148 A 
ATOM     80  C   UNL A   1      46.927  27.935  35.103  1.00  0.00     0.002 A 
ATOM     81  C   UNL A   1      45.503  26.145  35.911  1.00  0.00     0.091 A 
ATOM     82  F   UNL A   1      43.332  25.865  34.958  1.00  0.00    -0.205 F 
ATOM     83  C   UNL A   1      46.723  26.840  35.939  1.00  0.00     0.022 A 
BRANCH  81  84
ATOM     84  S   UNL A   1      45.298  24.802  37.088  1.00  0.00     0.127 S 
ATOM     85  O   UNL A   1      46.631  24.724  37.685  1.00  0.00    -0.237 OA
ATOM     86  O   UNL A   1      44.261  25.324  37.977  1.00  0.00    -0.237 OA
ATOM     87  O   UNL A   1      44.895  23.641  36.306  1.00  0.00    -0.744 OA
ENDBRANCH  81  84
ENDBRANCH  54  77
ENDBRANCH  28  29
ENDBRANCH  21  23
ENDBRANCH  20  21
ENDBRANCH  19  20
ENDBRANCH   1  19
TORSDOF 19
ENDMDL
