MODEL 1
REMARK VINA RESULT:     -11.8      0.000      0.000
REMARK SMILES COc1ccccc1OC1CCN(c2cccc(C(=O)OCCOC(=O)c3ccc(-c4c5nc(c(-c6cccc(S(=O)(=O)[O-])c6F)c6ccc([nH]6)c(-c6cccc(S(=O)(=O)[O-])c6F)c6nc(c(-c7cccc(S(=O)(=O)[O-])c7F)c7ccc4[nH]7)C=C6)C=C5)cc3)n2)CC1
REMARK SMILES IDX 22 1 21 2 19 3 20 4 18 5 14 6 15 7 90 8 16 9 17 10 13 11
REMARK SMILES IDX 10 12 11 13 92 14 12 15 91 16 9 17 8 18 3 19 4 20 5 21 7 22
REMARK SMILES IDX 6 23 2 24 1 25 23 26 24 27 25 28 26 29 27 30 28 31 89 32
REMARK SMILES IDX 29 33 88 34 30 35 31 36 32 37 82 38 33 39 87 40 81 41 83 42
REMARK SMILES IDX 34 43 86 44 80 45 79 46 35 48 67 49 47 50 66 51 48 52 51 53
REMARK SMILES IDX 65 54 84 55 49 56 50 57 64 59 85 60 52 61 36 62 37 63 45 64
REMARK SMILES IDX 38 65 40 66 46 67 39 68 41 69 42 70 43 71 44 72 68 73 69 74
REMARK SMILES IDX 77 75 70 76 72 77 78 78 71 79 73 80 74 81 75 82 76 83 53 84
REMARK SMILES IDX 54 85 62 86 55 87 57 88 63 89 56 90 58 91 59 92 60 93 61 94
REMARK H PARENT 83 47 51 58
REMARK Flexibility Score: inf
ROOT
ATOM      1  C   UNL A   1      31.921  32.066  26.550  1.00  0.00     0.275 C 
ENDROOT
BRANCH   1   2
ATOM      2  O   UNL A   1      31.609  30.656  26.602  1.00  0.00    -0.457 OA
BRANCH   2   3
ATOM      3  C   UNL A   1      32.518  29.822  26.021  1.00  0.00     0.357 C 
ATOM      4  O   UNL A   1      33.731  29.945  26.104  1.00  0.00    -0.244 OA
BRANCH   3   5
ATOM      5  C   UNL A   1      31.835  28.705  25.285  1.00  0.00     0.150 A 
ATOM      6  C   UNL A   1      31.782  26.413  24.827  1.00  0.00     0.129 A 
ATOM      7  C   UNL A   1      30.850  26.633  23.823  1.00  0.00     0.047 A 
ATOM      8  N   UNL A   1      32.285  27.442  25.542  1.00  0.00    -0.224 NA
ATOM      9  C   UNL A   1      30.376  27.923  23.583  1.00  0.00     0.006 A 
ATOM     10  C   UNL A   1      30.871  28.984  24.331  1.00  0.00     0.036 A 
BRANCH   6  11
ATOM     11  N   UNL A   1      32.216  25.121  25.079  1.00  0.00    -0.356 N 
ATOM     12  C   UNL A   1      32.399  21.349  24.603  1.00  0.00     0.177 C 
ATOM     13  C   UNL A   1      33.484  22.546  23.531  1.00  0.00     0.066 C 
ATOM     14  C   UNL A   1      31.032  22.146  25.737  1.00  0.00     0.066 C 
ATOM     15  C   UNL A   1      33.513  24.437  23.957  1.00  0.00     0.122 C 
ATOM     16  C   UNL A   1      31.130  24.058  26.126  1.00  0.00     0.122 C 
BRANCH  12  17
ATOM     17  O   UNL A   1      33.320  20.680  25.509  1.00  0.00    -0.486 OA
BRANCH  17  18
ATOM     18  C   UNL A   1      33.447  19.369  25.102  1.00  0.00     0.161 A 
ATOM     19  C   UNL A   1      34.694  18.890  24.671  1.00  0.00     0.160 A 
ATOM     20  C   UNL A   1      34.823  17.563  24.282  1.00  0.00     0.050 A 
ATOM     21  C   UNL A   1      33.727  16.705  24.395  1.00  0.00     0.004 A 
ATOM     22  C   UNL A   1      32.345  18.531  25.185  1.00  0.00     0.050 A 
ATOM     23  C   UNL A   1      32.496  17.185  24.854  1.00  0.00     0.004 A 
BRANCH  19  24
ATOM     24  O   UNL A   1      35.672  19.852  24.784  1.00  0.00    -0.493 OA
ATOM     25  C   UNL A   1      36.981  21.156  24.858  1.00  0.00     0.278 C 
ENDBRANCH  19  24
ENDBRANCH  17  18
ENDBRANCH  12  17
ENDBRANCH   6  11
ENDBRANCH   3   5
ENDBRANCH   2   3
ENDBRANCH   1   2
BRANCH   1  26
ATOM     26  C   UNL A   1      32.822  32.490  27.715  1.00  0.00     0.275 C 
BRANCH  26  27
ATOM     27  O   UNL A   1      33.388  33.794  27.507  1.00  0.00    -0.458 OA
BRANCH  27  28
ATOM     28  C   UNL A   1      33.367  34.602  28.591  1.00  0.00     0.338 C 
ATOM     29  O   UNL A   1      32.547  35.469  28.849  1.00  0.00    -0.246 OA
BRANCH  28  30
ATOM     30  C   UNL A   1      34.428  34.201  29.522  1.00  0.00     0.060 A 
ATOM     31  C   UNL A   1      35.718  34.583  29.211  1.00  0.00     0.016 A 
ATOM     32  C   UNL A   1      34.200  33.367  30.616  1.00  0.00     0.016 A 
ATOM     33  C   UNL A   1      36.777  34.071  29.937  1.00  0.00     0.010 A 
ATOM     34  C   UNL A   1      35.291  32.873  31.360  1.00  0.00     0.010 A 
ATOM     35  C   UNL A   1      36.610  33.182  30.999  1.00  0.00    -0.014 A 
BRANCH  35  36
ATOM     36  C   UNL A   1      37.828  32.568  31.623  1.00  0.00     0.031 A 
ATOM     37  C   UNL A   1      38.591  31.470  30.914  1.00  0.00     0.074 A 
ATOM     38  C   UNL A   1      38.355  33.075  32.763  1.00  0.00     0.049 A 
ATOM     39  N   UNL A   1      39.605  30.760  31.344  1.00  0.00    -0.248 NA
ATOM     40  C   UNL A   1      38.172  31.131  29.545  1.00  0.00     0.031 C 
ATOM     41  C   UNL A   1      37.833  34.224  33.508  1.00  0.00     0.029 A 
ATOM     42  N   UNL A   1      39.466  32.704  33.486  1.00  0.00    -0.354 N 
ATOM     43  C   UNL A   1      39.885  29.836  30.343  1.00  0.00     0.074 A 
ATOM     44  C   UNL A   1      38.949  30.093  29.269  1.00  0.00     0.031 C 
ATOM     45  C   UNL A   1      38.632  34.484  34.550  1.00  0.00     0.029 A 
ATOM     46  C   UNL A   1      39.633  33.432  34.642  1.00  0.00     0.049 A 
ATOM     47  H   UNL A   1      40.082  31.989  33.203  1.00  0.00     0.167 HD
ATOM     48  C   UNL A   1      40.821  28.854  30.326  1.00  0.00     0.034 A 
ATOM     49  C   UNL A   1      40.429  33.241  35.712  1.00  0.00     0.034 A 
ATOM     50  C   UNL A   1      41.771  28.617  31.383  1.00  0.00     0.049 A 
ATOM     51  C   UNL A   1      41.369  32.071  35.724  1.00  0.00     0.074 A 
ATOM     52  C   UNL A   1      42.758  27.648  31.445  1.00  0.00     0.029 A 
ATOM     53  N   UNL A   1      41.841  29.331  32.569  1.00  0.00    -0.354 N 
ATOM     54  N   UNL A   1      41.599  31.192  34.783  1.00  0.00    -0.248 NA
ATOM     55  C   UNL A   1      42.171  31.878  36.941  1.00  0.00     0.031 C 
ATOM     56  C   UNL A   1      43.359  27.714  32.704  1.00  0.00     0.029 A 
ATOM     57  C   UNL A   1      42.823  28.794  33.384  1.00  0.00     0.049 A 
ATOM     58  H   UNL A   1      41.277  30.104  32.797  1.00  0.00     0.167 HD
ATOM     59  C   UNL A   1      42.605  30.368  35.274  1.00  0.00     0.074 A 
ATOM     60  C   UNL A   1      42.950  30.865  36.589  1.00  0.00     0.031 C 
ATOM     61  C   UNL A   1      43.188  29.300  34.681  1.00  0.00     0.034 A 
BRANCH  48  62
ATOM     62  C   UNL A   1      40.826  27.896  29.160  1.00  0.00     0.023 A 
ATOM     63  C   UNL A   1      39.946  26.799  29.114  1.00  0.00     0.012 A 
ATOM     64  C   UNL A   1      41.685  28.138  28.066  1.00  0.00     0.148 A 
ATOM     65  C   UNL A   1      39.954  25.930  28.021  1.00  0.00     0.002 A 
ATOM     66  C   UNL A   1      41.650  27.302  26.959  1.00  0.00     0.091 A 
ATOM     67  F   UNL A   1      42.517  29.188  28.128  1.00  0.00    -0.205 F 
ATOM     68  C   UNL A   1      40.798  26.187  26.942  1.00  0.00     0.022 A 
BRANCH  66  69
ATOM     69  S   UNL A   1      42.646  27.593  25.494  1.00  0.00     0.127 S 
ATOM     70  O   UNL A   1      42.341  26.409  24.691  1.00  0.00    -0.237 OA
ATOM     71  O   UNL A   1      42.079  28.840  24.981  1.00  0.00    -0.237 OA
ATOM     72  O   UNL A   1      44.026  27.689  25.950  1.00  0.00    -0.744 OA
ENDBRANCH  66  69
ENDBRANCH  48  62
BRANCH  49  73
ATOM     73  C   UNL A   1      40.313  34.129  36.905  1.00  0.00     0.023 A 
ATOM     74  C   UNL A   1      40.939  35.390  36.909  1.00  0.00     0.012 A 
ATOM     75  C   UNL A   1      39.605  33.709  38.050  1.00  0.00     0.148 A 
ATOM     76  C   UNL A   1      40.899  36.195  38.048  1.00  0.00     0.002 A 
ATOM     77  C   UNL A   1      39.515  34.542  39.155  1.00  0.00     0.091 A 
ATOM     78  F   UNL A   1      39.022  32.502  38.029  1.00  0.00    -0.205 F 
ATOM     79  C   UNL A   1      40.181  35.777  39.166  1.00  0.00     0.022 A 
BRANCH  77  80
ATOM     80  S   UNL A   1      38.530  34.129  40.598  1.00  0.00     0.127 S 
ATOM     81  O   UNL A   1      39.352  33.106  41.237  1.00  0.00    -0.237 OA
ATOM     82  O   UNL A   1      38.482  35.411  41.301  1.00  0.00    -0.237 OA
ATOM     83  O   UNL A   1      37.245  33.670  40.087  1.00  0.00    -0.744 OA
ENDBRANCH  77  80
ENDBRANCH  49  73
BRANCH  61  84
ATOM     84  C   UNL A   1      44.328  28.630  35.406  1.00  0.00     0.023 A 
ATOM     85  C   UNL A   1      45.663  29.012  35.165  1.00  0.00     0.012 A 
ATOM     86  C   UNL A   1      44.056  27.639  36.371  1.00  0.00     0.148 A 
ATOM     87  C   UNL A   1      46.711  28.383  35.839  1.00  0.00     0.002 A 
ATOM     88  C   UNL A   1      45.099  27.061  37.081  1.00  0.00     0.091 A 
ATOM     89  F   UNL A   1      42.780  27.284  36.580  1.00  0.00    -0.205 F 
ATOM     90  C   UNL A   1      46.427  27.417  36.804  1.00  0.00     0.022 A 
BRANCH  88  91
ATOM     91  S   UNL A   1      44.825  25.871  38.397  1.00  0.00     0.127 S 
ATOM     92  O   UNL A   1      44.055  26.663  39.357  1.00  0.00    -0.237 OA
ATOM     93  O   UNL A   1      44.058  24.829  37.713  1.00  0.00    -0.237 OA
ATOM     94  O   UNL A   1      46.143  25.457  38.857  1.00  0.00    -0.744 OA
ENDBRANCH  88  91
ENDBRANCH  61  84
ENDBRANCH  35  36
ENDBRANCH  28  30
ENDBRANCH  27  28
ENDBRANCH  26  27
ENDBRANCH   1  26
TORSDOF 18
ENDMDL
MODEL 2
REMARK VINA RESULT:     -11.7      0.930      7.658
REMARK SMILES COc1ccccc1OC1CCN(c2cccc(C(=O)OCCOC(=O)c3ccc(-c4c5nc(c(-c6cccc(S(=O)(=O)[O-])c6F)c6ccc([nH]6)c(-c6cccc(S(=O)(=O)[O-])c6F)c6nc(c(-c7cccc(S(=O)(=O)[O-])c7F)c7ccc4[nH]7)C=C6)C=C5)cc3)n2)CC1
REMARK SMILES IDX 22 1 21 2 19 3 20 4 18 5 14 6 15 7 90 8 16 9 17 10 13 11
REMARK SMILES IDX 10 12 11 13 92 14 12 15 91 16 9 17 8 18 3 19 4 20 5 21 7 22
REMARK SMILES IDX 6 23 2 24 1 25 23 26 24 27 25 28 26 29 27 30 28 31 89 32
REMARK SMILES IDX 29 33 88 34 30 35 31 36 32 37 82 38 33 39 87 40 81 41 83 42
REMARK SMILES IDX 34 43 86 44 80 45 79 46 35 48 67 49 47 50 66 51 48 52 51 53
REMARK SMILES IDX 65 54 84 55 49 56 50 57 64 59 85 60 52 61 36 62 37 63 45 64
REMARK SMILES IDX 38 65 40 66 46 67 39 68 41 69 42 70 43 71 44 72 68 73 69 74
REMARK SMILES IDX 77 75 70 76 72 77 78 78 71 79 73 80 74 81 75 82 76 83 53 84
REMARK SMILES IDX 54 85 62 86 55 87 57 88 63 89 56 90 58 91 59 92 60 93 61 94
REMARK H PARENT 83 47 51 58
REMARK Flexibility Score: inf
ROOT
ATOM      1  C   UNL A   1      32.679  31.386  27.244  1.00  0.00     0.275 C 
ENDROOT
BRANCH   1   2
ATOM      2  O   UNL A   1      33.053  30.051  27.652  1.00  0.00    -0.457 OA
BRANCH   2   3
ATOM      3  C   UNL A   1      34.135  29.515  27.019  1.00  0.00     0.357 C 
ATOM      4  O   UNL A   1      35.298  29.716  27.334  1.00  0.00    -0.244 OA
BRANCH   3   5
ATOM      5  C   UNL A   1      33.713  28.611  25.896  1.00  0.00     0.150 A 
ATOM      6  C   UNL A   1      33.599  26.420  25.090  1.00  0.00     0.129 A 
ATOM      7  C   UNL A   1      33.225  26.895  23.841  1.00  0.00     0.047 A 
ATOM      8  N   UNL A   1      33.859  27.269  26.106  1.00  0.00    -0.224 NA
ATOM      9  C   UNL A   1      33.054  28.266  23.641  1.00  0.00     0.006 A 
ATOM     10  C   UNL A   1      33.296  29.146  24.689  1.00  0.00     0.036 A 
BRANCH   6  11
ATOM     11  N   UNL A   1      33.728  25.053  25.284  1.00  0.00    -0.356 N 
ATOM     12  C   UNL A   1      33.462  21.363  24.389  1.00  0.00     0.177 C 
ATOM     13  C   UNL A   1      34.996  22.416  23.843  1.00  0.00     0.066 C 
ATOM     14  C   UNL A   1      31.954  22.310  25.175  1.00  0.00     0.066 C 
ATOM     15  C   UNL A   1      35.185  24.229  24.504  1.00  0.00     0.122 C 
ATOM     16  C   UNL A   1      32.222  24.133  25.823  1.00  0.00     0.122 C 
BRANCH  12  17
ATOM     17  O   UNL A   1      33.945  20.464  25.425  1.00  0.00    -0.486 OA
BRANCH  17  18
ATOM     18  C   UNL A   1      33.768  19.169  24.988  1.00  0.00     0.161 A 
ATOM     19  C   UNL A   1      34.872  18.425  24.545  1.00  0.00     0.160 A 
ATOM     20  C   UNL A   1      34.693  17.113  24.125  1.00  0.00     0.050 A 
ATOM     21  C   UNL A   1      33.429  16.529  24.219  1.00  0.00     0.004 A 
ATOM     22  C   UNL A   1      32.502  18.607  25.053  1.00  0.00     0.050 A 
ATOM     23  C   UNL A   1      32.340  17.269  24.690  1.00  0.00     0.004 A 
BRANCH  19  24
ATOM     24  O   UNL A   1      36.045  19.132  24.679  1.00  0.00    -0.493 OA
ATOM     25  C   UNL A   1      37.656  20.016  24.884  1.00  0.00     0.278 C 
ENDBRANCH  19  24
ENDBRANCH  17  18
ENDBRANCH  12  17
ENDBRANCH   6  11
ENDBRANCH   3   5
ENDBRANCH   2   3
ENDBRANCH   1   2
BRANCH   1  26
ATOM     26  C   UNL A   1      33.547  32.449  27.928  1.00  0.00     0.275 C 
BRANCH  26  27
ATOM     27  O   UNL A   1      33.114  33.781  27.606  1.00  0.00    -0.458 OA
BRANCH  27  28
ATOM     28  C   UNL A   1      33.311  34.694  28.584  1.00  0.00     0.338 C 
ATOM     29  O   UNL A   1      32.678  35.719  28.774  1.00  0.00    -0.246 OA
BRANCH  28  30
ATOM     30  C   UNL A   1      34.349  34.211  29.503  1.00  0.00     0.060 A 
ATOM     31  C   UNL A   1      35.662  34.336  29.095  1.00  0.00     0.016 A 
ATOM     32  C   UNL A   1      34.056  33.539  30.689  1.00  0.00     0.016 A 
ATOM     33  C   UNL A   1      36.666  33.725  29.822  1.00  0.00     0.010 A 
ATOM     34  C   UNL A   1      35.095  32.941  31.431  1.00  0.00     0.010 A 
ATOM     35  C   UNL A   1      36.422  32.985  30.979  1.00  0.00    -0.014 A 
BRANCH  35  36
ATOM     36  C   UNL A   1      37.559  32.237  31.609  1.00  0.00     0.031 A 
ATOM     37  C   UNL A   1      38.023  32.572  33.011  1.00  0.00     0.074 A 
ATOM     38  C   UNL A   1      38.102  31.156  31.001  1.00  0.00     0.049 A 
ATOM     39  N   UNL A   1      39.048  32.098  33.676  1.00  0.00    -0.248 NA
ATOM     40  C   UNL A   1      37.233  33.556  33.767  1.00  0.00     0.031 C 
ATOM     41  C   UNL A   1      37.683  30.602  29.710  1.00  0.00     0.029 A 
ATOM     42  N   UNL A   1      39.112  30.309  31.399  1.00  0.00    -0.354 N 
ATOM     43  C   UNL A   1      39.079  32.785  34.884  1.00  0.00     0.074 A 
ATOM     44  C   UNL A   1      37.952  33.694  34.873  1.00  0.00     0.031 C 
ATOM     45  C   UNL A   1      38.397  29.502  29.441  1.00  0.00     0.029 A 
ATOM     46  C   UNL A   1      39.427  29.355  30.458  1.00  0.00     0.049 A 
ATOM     47  H   UNL A   1      39.563  30.378  32.272  1.00  0.00     0.167 HD
ATOM     48  C   UNL A   1      39.971  32.684  35.900  1.00  0.00     0.034 A 
ATOM     49  C   UNL A   1      40.473  28.512  30.356  1.00  0.00     0.034 A 
ATOM     50  C   UNL A   1      41.076  31.759  35.924  1.00  0.00     0.049 A 
ATOM     51  C   UNL A   1      41.517  28.507  31.434  1.00  0.00     0.074 A 
ATOM     52  C   UNL A   1      42.025  31.585  36.917  1.00  0.00     0.029 A 
ATOM     53  N   UNL A   1      41.399  30.875  34.908  1.00  0.00    -0.354 N 
ATOM     54  N   UNL A   1      41.546  29.184  32.552  1.00  0.00    -0.248 NA
ATOM     55  C   UNL A   1      42.664  27.609  31.241  1.00  0.00     0.031 C 
ATOM     56  C   UNL A   1      42.974  30.667  36.461  1.00  0.00     0.029 A 
ATOM     57  C   UNL A   1      42.556  30.187  35.232  1.00  0.00     0.049 A 
ATOM     58  H   UNL A   1      40.882  30.753  34.079  1.00  0.00     0.167 HD
ATOM     59  C   UNL A   1      42.688  28.762  33.220  1.00  0.00     0.074 A 
ATOM     60  C   UNL A   1      43.315  27.757  32.386  1.00  0.00     0.031 C 
ATOM     61  C   UNL A   1      43.169  29.170  34.418  1.00  0.00     0.034 A 
BRANCH  48  62
ATOM     62  C   UNL A   1      39.850  33.650  37.053  1.00  0.00     0.023 A 
ATOM     63  C   UNL A   1      40.382  34.951  36.974  1.00  0.00     0.012 A 
ATOM     64  C   UNL A   1      39.136  33.266  38.209  1.00  0.00     0.148 A 
ATOM     65  C   UNL A   1      40.249  35.837  38.045  1.00  0.00     0.002 A 
ATOM     66  C   UNL A   1      38.960  34.170  39.248  1.00  0.00     0.091 A 
ATOM     67  F   UNL A   1      38.636  32.023  38.268  1.00  0.00    -0.205 F 
ATOM     68  C   UNL A   1      39.532  35.450  39.175  1.00  0.00     0.022 A 
BRANCH  66  69
ATOM     69  S   UNL A   1      37.991  33.789  40.710  1.00  0.00     0.127 S 
ATOM     70  O   UNL A   1      37.774  35.120  41.275  1.00  0.00    -0.237 OA
ATOM     71  O   UNL A   1      36.799  33.169  40.134  1.00  0.00    -0.237 OA
ATOM     72  O   UNL A   1      38.811  32.901  41.524  1.00  0.00    -0.744 OA
ENDBRANCH  66  69
ENDBRANCH  48  62
BRANCH  49  73
ATOM     73  C   UNL A   1      40.635  27.658  29.143  1.00  0.00     0.023 A 
ATOM     74  C   UNL A   1      39.959  26.427  29.052  1.00  0.00     0.012 A 
ATOM     75  C   UNL A   1      41.485  28.055  28.091  1.00  0.00     0.148 A 
ATOM     76  C   UNL A   1      40.164  25.587  27.956  1.00  0.00     0.002 A 
ATOM     77  C   UNL A   1      41.634  27.245  26.974  1.00  0.00     0.091 A 
ATOM     78  F   UNL A   1      42.126  29.228  28.200  1.00  0.00    -0.205 F 
ATOM     79  C   UNL A   1      40.992  25.999  26.915  1.00  0.00     0.022 A 
BRANCH  77  80
ATOM     80  S   UNL A   1      42.599  27.739  25.544  1.00  0.00     0.127 S 
ATOM     81  O   UNL A   1      41.857  28.904  25.071  1.00  0.00    -0.237 OA
ATOM     82  O   UNL A   1      43.897  28.038  26.151  1.00  0.00    -0.237 OA
ATOM     83  O   UNL A   1      42.600  26.591  24.647  1.00  0.00    -0.744 OA
ENDBRANCH  77  80
ENDBRANCH  49  73
BRANCH  61  84
ATOM     84  C   UNL A   1      44.394  28.477  34.957  1.00  0.00     0.023 A 
ATOM     85  C   UNL A   1      45.682  29.000  34.726  1.00  0.00     0.012 A 
ATOM     86  C   UNL A   1      44.252  27.315  35.742  1.00  0.00     0.148 A 
ATOM     87  C   UNL A   1      46.811  28.349  35.226  1.00  0.00     0.002 A 
ATOM     88  C   UNL A   1      45.374  26.707  36.287  1.00  0.00     0.091 A 
ATOM     89  F   UNL A   1      43.020  26.828  35.944  1.00  0.00    -0.205 F 
ATOM     90  C   UNL A   1      46.655  27.211  36.016  1.00  0.00     0.022 A 
BRANCH  88  91
ATOM     91  S   UNL A   1      45.264  25.288  37.382  1.00  0.00     0.127 S 
ATOM     92  O   UNL A   1      46.676  24.995  37.630  1.00  0.00    -0.237 OA
ATOM     93  O   UNL A   1      44.545  25.843  38.530  1.00  0.00    -0.237 OA
ATOM     94  O   UNL A   1      44.541  24.259  36.648  1.00  0.00    -0.744 OA
ENDBRANCH  88  91
ENDBRANCH  61  84
ENDBRANCH  35  36
ENDBRANCH  28  30
ENDBRANCH  27  28
ENDBRANCH  26  27
ENDBRANCH   1  26
TORSDOF 18
ENDMDL
MODEL 3
REMARK VINA RESULT:     -11.2      6.407     12.069
REMARK SMILES COc1ccccc1OC1CCN(c2cccc(C(=O)OCCOC(=O)c3ccc(-c4c5nc(c(-c6cccc(S(=O)(=O)[O-])c6F)c6ccc([nH]6)c(-c6cccc(S(=O)(=O)[O-])c6F)c6nc(c(-c7cccc(S(=O)(=O)[O-])c7F)c7ccc4[nH]7)C=C6)C=C5)cc3)n2)CC1
REMARK SMILES IDX 22 1 21 2 19 3 20 4 18 5 14 6 15 7 90 8 16 9 17 10 13 11
REMARK SMILES IDX 10 12 11 13 92 14 12 15 91 16 9 17 8 18 3 19 4 20 5 21 7 22
REMARK SMILES IDX 6 23 2 24 1 25 23 26 24 27 25 28 26 29 27 30 28 31 89 32
REMARK SMILES IDX 29 33 88 34 30 35 31 36 32 37 82 38 33 39 87 40 81 41 83 42
REMARK SMILES IDX 34 43 86 44 80 45 79 46 35 48 67 49 47 50 66 51 48 52 51 53
REMARK SMILES IDX 65 54 84 55 49 56 50 57 64 59 85 60 52 61 36 62 37 63 45 64
REMARK SMILES IDX 38 65 40 66 46 67 39 68 41 69 42 70 43 71 44 72 68 73 69 74
REMARK SMILES IDX 77 75 70 76 72 77 78 78 71 79 73 80 74 81 75 82 76 83 53 84
REMARK SMILES IDX 54 85 62 86 55 87 57 88 63 89 56 90 58 91 59 92 60 93 61 94
REMARK H PARENT 83 47 51 58
REMARK Flexibility Score: inf
ROOT
ATOM      1  C   UNL A   1      41.819  20.474  27.030  1.00  0.00     0.275 C 
ENDROOT
BRANCH   1   2
ATOM      2  O   UNL A   1      40.377  20.577  27.009  1.00  0.00    -0.457 OA
BRANCH   2   3
ATOM      3  C   UNL A   1      39.868  21.687  26.401  1.00  0.00     0.357 C 
ATOM      4  O   UNL A   1      40.441  22.763  26.319  1.00  0.00    -0.244 OA
BRANCH   3   5
ATOM      5  C   UNL A   1      38.515  21.407  25.810  1.00  0.00     0.150 A 
ATOM      6  C   UNL A   1      36.304  22.124  25.569  1.00  0.00     0.129 A 
ATOM      7  C   UNL A   1      35.965  20.900  25.011  1.00  0.00     0.047 A 
ATOM      8  N   UNL A   1      37.564  22.372  25.982  1.00  0.00    -0.224 NA
ATOM      9  C   UNL A   1      36.947  19.928  24.816  1.00  0.00     0.006 A 
ATOM     10  C   UNL A   1      38.253  20.184  25.217  1.00  0.00     0.036 A 
BRANCH   6  11
ATOM     11  N   UNL A   1      35.325  23.094  25.721  1.00  0.00    -0.356 N 
ATOM     12  C   UNL A   1      31.868  24.647  25.363  1.00  0.00     0.177 C 
ATOM     13  C   UNL A   1      32.275  23.438  26.824  1.00  0.00     0.066 C 
ATOM     14  C   UNL A   1      33.196  24.831  23.951  1.00  0.00     0.066 C 
ATOM     15  C   UNL A   1      34.102  22.845  27.083  1.00  0.00     0.122 C 
ATOM     16  C   UNL A   1      35.018  24.214  24.287  1.00  0.00     0.122 C 
BRANCH  12  17
ATOM     17  O   UNL A   1      31.745  25.967  25.961  1.00  0.00    -0.486 OA
BRANCH  17  18
ATOM     18  C   UNL A   1      30.980  26.749  25.123  1.00  0.00     0.161 A 
ATOM     19  C   UNL A   1      31.395  28.054  24.814  1.00  0.00     0.160 A 
ATOM     20  C   UNL A   1      30.633  28.832  23.952  1.00  0.00     0.050 A 
ATOM     21  C   UNL A   1      29.503  28.279  23.347  1.00  0.00     0.004 A 
ATOM     22  C   UNL A   1      29.840  26.204  24.552  1.00  0.00     0.050 A 
ATOM     23  C   UNL A   1      29.114  26.968  23.638  1.00  0.00     0.004 A 
BRANCH  19  24
ATOM     24  O   UNL A   1      32.611  28.348  25.389  1.00  0.00    -0.493 OA
ATOM     25  C   UNL A   1      34.209  28.742  26.232  1.00  0.00     0.278 C 
ENDBRANCH  19  24
ENDBRANCH  17  18
ENDBRANCH  12  17
ENDBRANCH   6  11
ENDBRANCH   3   5
ENDBRANCH   2   3
ENDBRANCH   1   2
BRANCH   1  26
ATOM     26  C   UNL A   1      42.341  19.617  25.870  1.00  0.00     0.275 C 
BRANCH  26  27
ATOM     27  O   UNL A   1      43.777  19.579  25.838  1.00  0.00    -0.458 OA
BRANCH  27  28
ATOM     28  C   UNL A   1      44.332  20.076  24.709  1.00  0.00     0.338 C 
ATOM     29  O   UNL A   1      44.358  19.551  23.607  1.00  0.00    -0.246 OA
BRANCH  28  30
ATOM     30  C   UNL A   1      44.811  21.440  24.958  1.00  0.00     0.060 A 
ATOM     31  C   UNL A   1      45.371  21.698  26.193  1.00  0.00     0.016 A 
ATOM     32  C   UNL A   1      44.614  22.487  24.057  1.00  0.00     0.016 A 
ATOM     33  C   UNL A   1      45.658  23.001  26.556  1.00  0.00     0.010 A 
ATOM     34  C   UNL A   1      44.934  23.807  24.436  1.00  0.00     0.010 A 
ATOM     35  C   UNL A   1      45.420  24.091  25.720  1.00  0.00    -0.014 A 
BRANCH  35  36
ATOM     36  C   UNL A   1      45.623  25.474  26.265  1.00  0.00     0.031 A 
ATOM     37  C   UNL A   1      44.469  26.247  26.867  1.00  0.00     0.074 A 
ATOM     38  C   UNL A   1      46.864  26.007  26.361  1.00  0.00     0.049 A 
ATOM     39  N   UNL A   1      44.439  27.484  27.296  1.00  0.00    -0.248 NA
ATOM     40  C   UNL A   1      43.187  25.539  27.016  1.00  0.00     0.031 C 
ATOM     41  C   UNL A   1      48.110  25.348  25.962  1.00  0.00     0.029 A 
ATOM     42  N   UNL A   1      47.288  27.223  26.850  1.00  0.00    -0.354 N 
ATOM     43  C   UNL A   1      43.125  27.731  27.680  1.00  0.00     0.074 A 
ATOM     44  C   UNL A   1      42.391  26.504  27.457  1.00  0.00     0.031 C 
ATOM     45  C   UNL A   1      49.150  26.141  26.249  1.00  0.00     0.029 A 
ATOM     46  C   UNL A   1      48.643  27.425  26.708  1.00  0.00     0.049 A 
ATOM     47  H   UNL A   1      46.683  27.882  27.262  1.00  0.00     0.167 HD
ATOM     48  C   UNL A   1      42.577  28.877  28.155  1.00  0.00     0.034 A 
ATOM     49  C   UNL A   1      49.399  28.532  26.837  1.00  0.00     0.034 A 
ATOM     50  C   UNL A   1      43.313  30.090  28.403  1.00  0.00     0.049 A 
ATOM     51  C   UNL A   1      48.746  29.821  27.244  1.00  0.00     0.074 A 
ATOM     52  C   UNL A   1      42.838  31.296  28.892  1.00  0.00     0.029 A 
ATOM     53  N   UNL A   1      44.667  30.266  28.163  1.00  0.00    -0.354 N 
ATOM     54  N   UNL A   1      47.500  30.043  27.573  1.00  0.00    -0.248 NA
ATOM     55  C   UNL A   1      49.610  31.009  27.311  1.00  0.00     0.031 C 
ATOM     56  C   UNL A   1      43.879  32.225  28.855  1.00  0.00     0.029 A 
ATOM     57  C   UNL A   1      45.030  31.571  28.450  1.00  0.00     0.049 A 
ATOM     58  H   UNL A   1      45.278  29.567  27.838  1.00  0.00     0.167 HD
ATOM     59  C   UNL A   1      47.437  31.383  27.932  1.00  0.00     0.074 A 
ATOM     60  C   UNL A   1      48.776  31.918  27.795  1.00  0.00     0.031 C 
ATOM     61  C   UNL A   1      46.364  32.101  28.341  1.00  0.00     0.034 A 
BRANCH  48  62
ATOM     62  C   UNL A   1      41.084  28.914  28.371  1.00  0.00     0.023 A 
ATOM     63  C   UNL A   1      40.192  29.015  27.287  1.00  0.00     0.012 A 
ATOM     64  C   UNL A   1      40.567  28.785  29.679  1.00  0.00     0.148 A 
ATOM     65  C   UNL A   1      38.813  29.035  27.504  1.00  0.00     0.002 A 
ATOM     66  C   UNL A   1      39.195  28.750  29.882  1.00  0.00     0.091 A 
ATOM     67  F   UNL A   1      41.431  28.691  30.700  1.00  0.00    -0.205 F 
ATOM     68  C   UNL A   1      38.316  28.894  28.798  1.00  0.00     0.022 A 
BRANCH  66  69
ATOM     69  S   UNL A   1      38.462  28.499  31.502  1.00  0.00     0.127 S 
ATOM     70  O   UNL A   1      37.084  28.934  31.272  1.00  0.00    -0.237 OA
ATOM     71  O   UNL A   1      38.623  27.059  31.690  1.00  0.00    -0.237 OA
ATOM     72  O   UNL A   1      39.222  29.328  32.428  1.00  0.00    -0.744 OA
ENDBRANCH  66  69
ENDBRANCH  48  62
BRANCH  49  73
ATOM     73  C   UNL A   1      50.850  28.496  26.495  1.00  0.00     0.023 A 
ATOM     74  C   UNL A   1      51.272  28.766  25.179  1.00  0.00     0.012 A 
ATOM     75  C   UNL A   1      51.813  28.163  27.471  1.00  0.00     0.148 A 
ATOM     76  C   UNL A   1      52.620  28.660  24.832  1.00  0.00     0.002 A 
ATOM     77  C   UNL A   1      53.158  28.123  27.134  1.00  0.00     0.091 A 
ATOM     78  F   UNL A   1      51.391  27.902  28.716  1.00  0.00    -0.205 F 
ATOM     79  C   UNL A   1      53.562  28.348  25.809  1.00  0.00     0.022 A 
BRANCH  77  80
ATOM     80  S   UNL A   1      54.449  27.830  28.346  1.00  0.00     0.127 S 
ATOM     81  O   UNL A   1      55.655  28.109  27.571  1.00  0.00    -0.237 OA
ATOM     82  O   UNL A   1      54.128  28.825  29.369  1.00  0.00    -0.237 OA
ATOM     83  O   UNL A   1      54.287  26.447  28.775  1.00  0.00    -0.744 OA
ENDBRANCH  77  80
ENDBRANCH  49  73
BRANCH  61  84
ATOM     84  C   UNL A   1      46.593  33.531  28.757  1.00  0.00     0.023 A 
ATOM     85  C   UNL A   1      46.915  33.854  30.091  1.00  0.00     0.012 A 
ATOM     86  C   UNL A   1      46.529  34.558  27.794  1.00  0.00     0.148 A 
ATOM     87  C   UNL A   1      47.121  35.183  30.466  1.00  0.00     0.002 A 
ATOM     88  C   UNL A   1      46.795  35.869  28.162  1.00  0.00     0.091 A 
ATOM     89  F   UNL A   1      46.214  34.232  26.532  1.00  0.00    -0.205 F 
ATOM     90  C   UNL A   1      47.073  36.186  29.500  1.00  0.00     0.022 A 
BRANCH  88  91
ATOM     91  S   UNL A   1      46.837  37.214  26.973  1.00  0.00     0.127 S 
ATOM     92  O   UNL A   1      45.436  37.631  26.948  1.00  0.00    -0.237 OA
ATOM     93  O   UNL A   1      47.745  38.163  27.617  1.00  0.00    -0.237 OA
ATOM     94  O   UNL A   1      47.333  36.644  25.728  1.00  0.00    -0.744 OA
ENDBRANCH  88  91
ENDBRANCH  61  84
ENDBRANCH  35  36
ENDBRANCH  28  30
ENDBRANCH  27  28
ENDBRANCH  26  27
ENDBRANCH   1  26
TORSDOF 18
ENDMDL
