MODEL 1
REMARK VINA RESULT:     -10.7      0.000      0.000
REMARK SMILES CC(C)c1ccc(CCCC(=O)OCCOC(=O)c2ccc(-c3c4nc(c(-c5cccc(S(=O)(=O)[O-])c5F)c5ccc([nH]5)c(-c5cccc(S(=O)(=O)[O-])c5F)c5nc(c(-c6cccc(S(=O)(=O)[O-])c6F)c6ccc3[nH]6)C=C5)C=C4)cc2)cc1
REMARK SMILES IDX 14 1 13 2 11 3 12 4 10 5 9 6 8 7 7 8 4 9 5 10 83 11 6 12
REMARK SMILES IDX 82 13 2 14 1 15 3 16 15 17 16 18 17 19 18 20 19 21 20 22
REMARK SMILES IDX 81 23 21 24 80 25 22 26 23 27 24 28 74 29 25 30 79 31 73 32
REMARK SMILES IDX 75 33 26 34 78 35 72 36 71 37 27 39 59 40 39 41 58 42 40 43
REMARK SMILES IDX 43 44 57 45 76 46 41 47 42 48 56 50 77 51 44 52 28 53 29 54
REMARK SMILES IDX 37 55 30 56 32 57 38 58 31 59 33 60 34 61 35 62 36 63 60 64
REMARK SMILES IDX 61 65 69 66 62 67 64 68 70 69 63 70 65 71 66 72 67 73 68 74
REMARK SMILES IDX 45 75 46 76 54 77 47 78 49 79 55 80 48 81 50 82 51 83 52 84
REMARK SMILES IDX 53 85
REMARK H PARENT 75 38 43 49
REMARK Flexibility Score: inf
ROOT
ATOM      1  C   UNL A   1      35.358  20.476  25.184  1.00  0.00     0.274 C 
ENDROOT
BRANCH   1   2
ATOM      2  O   UNL A   1      34.535  19.443  24.610  1.00  0.00    -0.462 OA
BRANCH   2   3
ATOM      3  C   UNL A   1      33.194  19.554  24.756  1.00  0.00     0.305 C 
ATOM      4  O   UNL A   1      32.575  19.232  25.764  1.00  0.00    -0.252 OA
BRANCH   3   5
ATOM      5  C   UNL A   1      32.498  20.079  23.515  1.00  0.00     0.123 C 
BRANCH   5   6
ATOM      6  C   UNL A   1      32.236  21.587  23.430  1.00  0.00     0.016 C 
BRANCH   6   7
ATOM      7  C   UNL A   1      33.466  22.508  23.356  1.00  0.00     0.036 C 
BRANCH   7   8
ATOM      8  C   UNL A   1      33.294  23.803  24.108  1.00  0.00    -0.048 A 
ATOM      9  C   UNL A   1      33.076  26.089  25.745  1.00  0.00    -0.045 A 
ATOM     10  C   UNL A   1      32.041  25.150  25.694  1.00  0.00     0.004 A 
ATOM     11  C   UNL A   1      34.193  25.903  24.916  1.00  0.00     0.004 A 
ATOM     12  C   UNL A   1      32.140  24.033  24.866  1.00  0.00     0.004 A 
ATOM     13  C   UNL A   1      34.308  24.763  24.117  1.00  0.00     0.004 A 
BRANCH   9  14
ATOM     14  C   UNL A   1      32.966  27.265  26.695  1.00  0.00     0.013 C 
ATOM     15  C   UNL A   1      34.071  28.297  26.452  1.00  0.00     0.012 C 
ATOM     16  C   UNL A   1      31.581  27.903  26.619  1.00  0.00     0.012 C 
ENDBRANCH   9  14
ENDBRANCH   7   8
ENDBRANCH   6   7
ENDBRANCH   5   6
ENDBRANCH   3   5
ENDBRANCH   2   3
ENDBRANCH   1   2
BRANCH   1  17
ATOM     17  C   UNL A   1      36.840  20.156  24.984  1.00  0.00     0.275 C 
BRANCH  17  18
ATOM     18  O   UNL A   1      37.651  21.300  25.302  1.00  0.00    -0.458 OA
BRANCH  18  19
ATOM     19  C   UNL A   1      38.835  21.009  25.891  1.00  0.00     0.338 C 
ATOM     20  O   UNL A   1      39.447  19.956  25.843  1.00  0.00    -0.246 OA
BRANCH  19  21
ATOM     21  C   UNL A   1      39.396  22.236  26.471  1.00  0.00     0.060 A 
ATOM     22  C   UNL A   1      38.816  23.448  26.092  1.00  0.00     0.016 A 
ATOM     23  C   UNL A   1      40.511  22.212  27.309  1.00  0.00     0.016 A 
ATOM     24  C   UNL A   1      39.352  24.650  26.536  1.00  0.00     0.010 A 
ATOM     25  C   UNL A   1      41.052  23.422  27.756  1.00  0.00     0.010 A 
ATOM     26  C   UNL A   1      40.487  24.647  27.355  1.00  0.00    -0.014 A 
BRANCH  26  27
ATOM     27  C   UNL A   1      41.113  25.941  27.714  1.00  0.00     0.031 A 
ATOM     28  C   UNL A   1      42.511  26.240  27.259  1.00  0.00     0.074 A 
ATOM     29  C   UNL A   1      40.409  26.858  28.405  1.00  0.00     0.049 A 
ATOM     30  N   UNL A   1      43.240  27.305  27.475  1.00  0.00    -0.248 NA
ATOM     31  C   UNL A   1      43.182  25.206  26.454  1.00  0.00     0.031 C 
ATOM     32  C   UNL A   1      39.036  26.682  28.881  1.00  0.00     0.029 A 
ATOM     33  N   UNL A   1      40.751  28.117  28.824  1.00  0.00    -0.354 N 
ATOM     34  C   UNL A   1      44.466  27.053  26.873  1.00  0.00     0.074 A 
ATOM     35  C   UNL A   1      44.385  25.735  26.282  1.00  0.00     0.031 C 
ATOM     36  C   UNL A   1      38.654  27.793  29.530  1.00  0.00     0.029 A 
ATOM     37  C   UNL A   1      39.761  28.745  29.542  1.00  0.00     0.049 A 
ATOM     38  H   UNL A   1      41.623  28.532  28.631  1.00  0.00     0.167 HD
ATOM     39  C   UNL A   1      45.555  27.854  26.805  1.00  0.00     0.034 A 
ATOM     40  C   UNL A   1      39.754  29.947  30.150  1.00  0.00     0.034 A 
ATOM     41  C   UNL A   1      45.614  29.182  27.354  1.00  0.00     0.049 A 
ATOM     42  C   UNL A   1      40.974  30.824  30.045  1.00  0.00     0.074 A 
ATOM     43  C   UNL A   1      46.662  30.085  27.315  1.00  0.00     0.029 A 
ATOM     44  N   UNL A   1      44.577  29.802  28.035  1.00  0.00    -0.354 N 
ATOM     45  N   UNL A   1      42.096  30.603  29.403  1.00  0.00    -0.248 NA
ATOM     46  C   UNL A   1      40.916  32.127  30.723  1.00  0.00     0.031 C 
ATOM     47  C   UNL A   1      46.260  31.249  27.979  1.00  0.00     0.029 A 
ATOM     48  C   UNL A   1      44.958  31.075  28.422  1.00  0.00     0.049 A 
ATOM     49  H   UNL A   1      43.699  29.396  28.218  1.00  0.00     0.167 HD
ATOM     50  C   UNL A   1      42.869  31.744  29.582  1.00  0.00     0.074 A 
ATOM     51  C   UNL A   1      42.073  32.667  30.365  1.00  0.00     0.031 C 
ATOM     52  C   UNL A   1      44.131  31.998  29.156  1.00  0.00     0.034 A 
BRANCH  39  53
ATOM     53  C   UNL A   1      46.764  27.324  26.083  1.00  0.00     0.023 A 
ATOM     54  C   UNL A   1      46.866  27.483  24.686  1.00  0.00     0.012 A 
ATOM     55  C   UNL A   1      47.815  26.706  26.787  1.00  0.00     0.148 A 
ATOM     56  C   UNL A   1      47.982  27.011  23.998  1.00  0.00     0.002 A 
ATOM     57  C   UNL A   1      48.942  26.271  26.098  1.00  0.00     0.091 A 
ATOM     58  F   UNL A   1      47.687  26.537  28.111  1.00  0.00    -0.205 F 
ATOM     59  C   UNL A   1      49.023  26.415  24.704  1.00  0.00     0.022 A 
BRANCH  57  60
ATOM     60  S   UNL A   1      50.362  25.551  26.932  1.00  0.00     0.127 S 
ATOM     61  O   UNL A   1      50.760  26.635  27.828  1.00  0.00    -0.237 OA
ATOM     62  O   UNL A   1      49.772  24.392  27.604  1.00  0.00    -0.237 OA
ATOM     63  O   UNL A   1      51.314  25.220  25.881  1.00  0.00    -0.744 OA
ENDBRANCH  57  60
ENDBRANCH  39  53
BRANCH  40  64
ATOM     64  C   UNL A   1      38.533  30.408  30.869  1.00  0.00     0.023 A 
ATOM     65  C   UNL A   1      38.406  30.157  32.249  1.00  0.00     0.012 A 
ATOM     66  C   UNL A   1      37.517  31.122  30.206  1.00  0.00     0.148 A 
ATOM     67  C   UNL A   1      37.280  30.592  32.950  1.00  0.00     0.002 A 
ATOM     68  C   UNL A   1      36.426  31.602  30.921  1.00  0.00     0.091 A 
ATOM     69  F   UNL A   1      37.641  31.329  28.887  1.00  0.00    -0.205 F 
ATOM     70  C   UNL A   1      36.298  31.326  32.290  1.00  0.00     0.022 A 
BRANCH  68  71
ATOM     71  S   UNL A   1      35.190  32.668  30.170  1.00  0.00     0.127 S 
ATOM     72  O   UNL A   1      34.315  32.957  31.302  1.00  0.00    -0.237 OA
ATOM     73  O   UNL A   1      35.998  33.800  29.711  1.00  0.00    -0.237 OA
ATOM     74  O   UNL A   1      34.605  31.880  29.092  1.00  0.00    -0.744 OA
ENDBRANCH  68  71
ENDBRANCH  40  64
BRANCH  52  75
ATOM     75  C   UNL A   1      44.727  33.333  29.518  1.00  0.00     0.023 A 
ATOM     76  C   UNL A   1      45.489  33.455  30.696  1.00  0.00     0.012 A 
ATOM     77  C   UNL A   1      44.584  34.446  28.666  1.00  0.00     0.148 A 
ATOM     78  C   UNL A   1      46.074  34.674  31.038  1.00  0.00     0.002 A 
ATOM     79  C   UNL A   1      45.206  35.646  28.993  1.00  0.00     0.091 A 
ATOM     80  F   UNL A   1      43.836  34.318  27.561  1.00  0.00    -0.205 F 
ATOM     81  C   UNL A   1      45.943  35.765  30.182  1.00  0.00     0.022 A 
BRANCH  79  82
ATOM     82  S   UNL A   1      45.155  37.068  27.895  1.00  0.00     0.127 S 
ATOM     83  O   UNL A   1      43.727  37.379  27.876  1.00  0.00    -0.237 OA
ATOM     84  O   UNL A   1      45.982  38.046  28.604  1.00  0.00    -0.237 OA
ATOM     85  O   UNL A   1      45.721  36.609  26.634  1.00  0.00    -0.744 OA
ENDBRANCH  79  82
ENDBRANCH  52  75
ENDBRANCH  26  27
ENDBRANCH  19  21
ENDBRANCH  18  19
ENDBRANCH  17  18
ENDBRANCH   1  17
TORSDOF 18
ENDMDL
MODEL 2
REMARK VINA RESULT:     -10.4      4.928     10.522
REMARK SMILES CC(C)c1ccc(CCCC(=O)OCCOC(=O)c2ccc(-c3c4nc(c(-c5cccc(S(=O)(=O)[O-])c5F)c5ccc([nH]5)c(-c5cccc(S(=O)(=O)[O-])c5F)c5nc(c(-c6cccc(S(=O)(=O)[O-])c6F)c6ccc3[nH]6)C=C5)C=C4)cc2)cc1
REMARK SMILES IDX 14 1 13 2 11 3 12 4 10 5 9 6 8 7 7 8 4 9 5 10 83 11 6 12
REMARK SMILES IDX 82 13 2 14 1 15 3 16 15 17 16 18 17 19 18 20 19 21 20 22
REMARK SMILES IDX 81 23 21 24 80 25 22 26 23 27 24 28 74 29 25 30 79 31 73 32
REMARK SMILES IDX 75 33 26 34 78 35 72 36 71 37 27 39 59 40 39 41 58 42 40 43
REMARK SMILES IDX 43 44 57 45 76 46 41 47 42 48 56 50 77 51 44 52 28 53 29 54
REMARK SMILES IDX 37 55 30 56 32 57 38 58 31 59 33 60 34 61 35 62 36 63 60 64
REMARK SMILES IDX 61 65 69 66 62 67 64 68 70 69 63 70 65 71 66 72 67 73 68 74
REMARK SMILES IDX 45 75 46 76 54 77 47 78 49 79 55 80 48 81 50 82 51 83 52 84
REMARK SMILES IDX 53 85
REMARK H PARENT 75 38 43 49
REMARK Flexibility Score: inf
ROOT
ATOM      1  C   UNL A   1      31.436  30.575  26.656  1.00  0.00     0.274 C 
ENDROOT
BRANCH   1   2
ATOM      2  O   UNL A   1      31.715  30.199  25.293  1.00  0.00    -0.462 OA
BRANCH   2   3
ATOM      3  C   UNL A   1      32.759  29.366  25.072  1.00  0.00     0.305 C 
ATOM      4  O   UNL A   1      33.839  29.436  25.648  1.00  0.00    -0.252 OA
BRANCH   3   5
ATOM      5  C   UNL A   1      32.488  28.342  23.987  1.00  0.00     0.123 C 
BRANCH   5   6
ATOM      6  C   UNL A   1      33.608  27.351  23.648  1.00  0.00     0.016 C 
BRANCH   6   7
ATOM      7  C   UNL A   1      33.315  26.311  22.554  1.00  0.00     0.036 C 
BRANCH   7   8
ATOM      8  C   UNL A   1      33.487  24.886  23.015  1.00  0.00    -0.048 A 
ATOM      9  C   UNL A   1      33.586  22.266  24.054  1.00  0.00    -0.045 A 
ATOM     10  C   UNL A   1      34.259  23.312  24.696  1.00  0.00     0.004 A 
ATOM     11  C   UNL A   1      32.918  22.537  22.851  1.00  0.00     0.004 A 
ATOM     12  C   UNL A   1      34.229  24.601  24.168  1.00  0.00     0.004 A 
ATOM     13  C   UNL A   1      32.856  23.837  22.344  1.00  0.00     0.004 A 
BRANCH   9  14
ATOM     14  C   UNL A   1      33.589  20.886  24.681  1.00  0.00     0.013 C 
ATOM     15  C   UNL A   1      32.786  19.882  23.848  1.00  0.00     0.012 C 
ATOM     16  C   UNL A   1      35.016  20.396  24.919  1.00  0.00     0.012 C 
ENDBRANCH   9  14
ENDBRANCH   7   8
ENDBRANCH   6   7
ENDBRANCH   5   6
ENDBRANCH   3   5
ENDBRANCH   2   3
ENDBRANCH   1   2
BRANCH   1  17
ATOM     17  C   UNL A   1      31.478  32.095  26.813  1.00  0.00     0.275 C 
BRANCH  17  18
ATOM     18  O   UNL A   1      32.814  32.587  26.616  1.00  0.00    -0.458 OA
BRANCH  18  19
ATOM     19  C   UNL A   1      33.299  33.335  27.635  1.00  0.00     0.338 C 
ATOM     20  O   UNL A   1      32.748  34.266  28.197  1.00  0.00    -0.246 OA
BRANCH  19  21
ATOM     21  C   UNL A   1      34.552  32.738  28.114  1.00  0.00     0.060 A 
ATOM     22  C   UNL A   1      34.507  31.410  28.541  1.00  0.00     0.016 A 
ATOM     23  C   UNL A   1      35.730  33.478  28.215  1.00  0.00     0.016 A 
ATOM     24  C   UNL A   1      35.636  30.811  29.085  1.00  0.00     0.010 A 
ATOM     25  C   UNL A   1      36.867  32.875  28.763  1.00  0.00     0.010 A 
ATOM     26  C   UNL A   1      36.820  31.545  29.220  1.00  0.00    -0.014 A 
BRANCH  26  27
ATOM     27  C   UNL A   1      37.972  30.925  29.914  1.00  0.00     0.031 A 
ATOM     28  C   UNL A   1      38.249  31.275  31.347  1.00  0.00     0.074 A 
ATOM     29  C   UNL A   1      38.733  30.019  29.273  1.00  0.00     0.049 A 
ATOM     30  N   UNL A   1      39.208  30.852  32.129  1.00  0.00    -0.248 NA
ATOM     31  C   UNL A   1      37.327  32.227  31.988  1.00  0.00     0.031 C 
ATOM     32  C   UNL A   1      38.543  29.589  27.887  1.00  0.00     0.029 A 
ATOM     33  N   UNL A   1      39.817  29.298  29.702  1.00  0.00    -0.354 N 
ATOM     34  C   UNL A   1      39.033  31.515  33.336  1.00  0.00     0.074 A 
ATOM     35  C   UNL A   1      37.875  32.370  33.186  1.00  0.00     0.031 C 
ATOM     36  C   UNL A   1      39.481  28.679  27.579  1.00  0.00     0.029 A 
ATOM     37  C   UNL A   1      40.354  28.485  28.733  1.00  0.00     0.049 A 
ATOM     38  H   UNL A   1      40.176  29.356  30.617  1.00  0.00     0.167 HD
ATOM     39  C   UNL A   1      39.762  31.410  34.473  1.00  0.00     0.034 A 
ATOM     40  C   UNL A   1      41.437  27.683  28.770  1.00  0.00     0.034 A 
ATOM     41  C   UNL A   1      40.883  30.524  34.632  1.00  0.00     0.049 A 
ATOM     42  C   UNL A   1      42.219  27.573  30.052  1.00  0.00     0.074 A 
ATOM     43  C   UNL A   1      41.671  30.324  35.752  1.00  0.00     0.029 A 
ATOM     44  N   UNL A   1      41.372  29.683  33.644  1.00  0.00    -0.354 N 
ATOM     45  N   UNL A   1      41.992  28.147  31.209  1.00  0.00    -0.248 NA
ATOM     46  C   UNL A   1      43.390  26.685  30.042  1.00  0.00     0.031 C 
ATOM     47  C   UNL A   1      42.641  29.365  35.437  1.00  0.00     0.029 A 
ATOM     48  C   UNL A   1      42.450  28.961  34.125  1.00  0.00     0.049 A 
ATOM     49  H   UNL A   1      41.007  29.611  32.732  1.00  0.00     0.167 HD
ATOM     50  C   UNL A   1      42.976  27.675  32.070  1.00  0.00     0.074 A 
ATOM     51  C   UNL A   1      43.781  26.743  31.308  1.00  0.00     0.031 C 
ATOM     52  C   UNL A   1      43.207  27.999  33.366  1.00  0.00     0.034 A 
BRANCH  39  53
ATOM     53  C   UNL A   1      39.346  32.255  35.646  1.00  0.00     0.023 A 
ATOM     54  C   UNL A   1      38.494  31.711  36.629  1.00  0.00     0.012 A 
ATOM     55  C   UNL A   1      39.826  33.570  35.798  1.00  0.00     0.148 A 
ATOM     56  C   UNL A   1      38.105  32.472  37.731  1.00  0.00     0.002 A 
ATOM     57  C   UNL A   1      39.464  34.309  36.919  1.00  0.00     0.091 A 
ATOM     58  F   UNL A   1      40.612  34.080  34.839  1.00  0.00    -0.205 F 
ATOM     59  C   UNL A   1      38.597  33.766  37.880  1.00  0.00     0.022 A 
BRANCH  57  60
ATOM     60  S   UNL A   1      40.101  35.961  37.230  1.00  0.00     0.127 S 
ATOM     61  O   UNL A   1      39.372  36.335  38.441  1.00  0.00    -0.237 OA
ATOM     62  O   UNL A   1      41.529  35.710  37.433  1.00  0.00    -0.237 OA
ATOM     63  O   UNL A   1      39.788  36.739  36.040  1.00  0.00    -0.744 OA
ENDBRANCH  57  60
ENDBRANCH  39  53
BRANCH  40  64
ATOM     64  C   UNL A   1      41.812  26.886  27.568  1.00  0.00     0.023 A 
ATOM     65  C   UNL A   1      42.443  27.525  26.483  1.00  0.00     0.012 A 
ATOM     66  C   UNL A   1      41.580  25.499  27.506  1.00  0.00     0.148 A 
ATOM     67  C   UNL A   1      42.819  26.799  25.351  1.00  0.00     0.002 A 
ATOM     68  C   UNL A   1      42.009  24.773  26.401  1.00  0.00     0.091 A 
ATOM     69  F   UNL A   1      40.954  24.911  28.536  1.00  0.00    -0.205 F 
ATOM     70  C   UNL A   1      42.615  25.422  25.316  1.00  0.00     0.022 A 
BRANCH  68  71
ATOM     71  S   UNL A   1      41.903  22.980  26.341  1.00  0.00     0.127 S 
ATOM     72  O   UNL A   1      42.637  22.596  27.543  1.00  0.00    -0.237 OA
ATOM     73  O   UNL A   1      40.457  22.754  26.404  1.00  0.00    -0.237 OA
ATOM     74  O   UNL A   1      42.508  22.600  25.071  1.00  0.00    -0.744 OA
ENDBRANCH  68  71
ENDBRANCH  40  64
BRANCH  52  75
ATOM     75  C   UNL A   1      44.371  27.331  34.048  1.00  0.00     0.023 A 
ATOM     76  C   UNL A   1      45.626  27.968  34.059  1.00  0.00     0.012 A 
ATOM     77  C   UNL A   1      44.209  26.107  34.727  1.00  0.00     0.148 A 
ATOM     78  C   UNL A   1      46.713  27.383  34.709  1.00  0.00     0.002 A 
ATOM     79  C   UNL A   1      45.286  25.551  35.408  1.00  0.00     0.091 A 
ATOM     80  F   UNL A   1      43.012  25.502  34.686  1.00  0.00    -0.205 F 
ATOM     81  C   UNL A   1      46.540  26.182  35.392  1.00  0.00     0.022 A 
BRANCH  79  82
ATOM     82  S   UNL A   1      45.116  24.051  36.384  1.00  0.00     0.127 S 
ATOM     83  O   UNL A   1      44.565  24.569  37.634  1.00  0.00    -0.237 OA
ATOM     84  O   UNL A   1      44.178  23.259  35.586  1.00  0.00    -0.237 OA
ATOM     85  O   UNL A   1      46.455  23.485  36.467  1.00  0.00    -0.744 OA
ENDBRANCH  79  82
ENDBRANCH  52  75
ENDBRANCH  26  27
ENDBRANCH  19  21
ENDBRANCH  18  19
ENDBRANCH  17  18
ENDBRANCH   1  17
TORSDOF 18
ENDMDL
MODEL 3
REMARK VINA RESULT:     -10.3      1.705      2.057
REMARK SMILES CC(C)c1ccc(CCCC(=O)OCCOC(=O)c2ccc(-c3c4nc(c(-c5cccc(S(=O)(=O)[O-])c5F)c5ccc([nH]5)c(-c5cccc(S(=O)(=O)[O-])c5F)c5nc(c(-c6cccc(S(=O)(=O)[O-])c6F)c6ccc3[nH]6)C=C5)C=C4)cc2)cc1
REMARK SMILES IDX 14 1 13 2 11 3 12 4 10 5 9 6 8 7 7 8 4 9 5 10 83 11 6 12
REMARK SMILES IDX 82 13 2 14 1 15 3 16 15 17 16 18 17 19 18 20 19 21 20 22
REMARK SMILES IDX 81 23 21 24 80 25 22 26 23 27 24 28 74 29 25 30 79 31 73 32
REMARK SMILES IDX 75 33 26 34 78 35 72 36 71 37 27 39 59 40 39 41 58 42 40 43
REMARK SMILES IDX 43 44 57 45 76 46 41 47 42 48 56 50 77 51 44 52 28 53 29 54
REMARK SMILES IDX 37 55 30 56 32 57 38 58 31 59 33 60 34 61 35 62 36 63 60 64
REMARK SMILES IDX 61 65 69 66 62 67 64 68 70 69 63 70 65 71 66 72 67 73 68 74
REMARK SMILES IDX 45 75 46 76 54 77 47 78 49 79 55 80 48 81 50 82 51 83 52 84
REMARK SMILES IDX 53 85
REMARK H PARENT 75 38 43 49
REMARK Flexibility Score: inf
ROOT
ATOM      1  C   UNL A   1      36.245  19.797  24.973  1.00  0.00     0.274 C 
ENDROOT
BRANCH   1   2
ATOM      2  O   UNL A   1      34.877  20.235  24.866  1.00  0.00    -0.462 OA
BRANCH   2   3
ATOM      3  C   UNL A   1      33.937  19.299  24.591  1.00  0.00     0.305 C 
ATOM      4  O   UNL A   1      34.181  18.135  24.295  1.00  0.00    -0.252 OA
BRANCH   3   5
ATOM      5  C   UNL A   1      32.522  19.843  24.632  1.00  0.00     0.123 C 
BRANCH   5   6
ATOM      6  C   UNL A   1      32.339  21.358  24.486  1.00  0.00     0.016 C 
BRANCH   6   7
ATOM      7  C   UNL A   1      31.655  22.096  25.650  1.00  0.00     0.036 C 
BRANCH   7   8
ATOM      8  C   UNL A   1      31.171  23.476  25.286  1.00  0.00    -0.048 A 
ATOM      9  C   UNL A   1      30.542  26.140  24.606  1.00  0.00    -0.045 A 
ATOM     10  C   UNL A   1      30.688  25.763  25.945  1.00  0.00     0.004 A 
ATOM     11  C   UNL A   1      30.650  25.152  23.615  1.00  0.00     0.004 A 
ATOM     12  C   UNL A   1      30.975  24.442  26.281  1.00  0.00     0.004 A 
ATOM     13  C   UNL A   1      30.977  23.836  23.951  1.00  0.00     0.004 A 
BRANCH   9  14
ATOM     14  C   UNL A   1      30.285  27.594  24.267  1.00  0.00     0.013 C 
ATOM     15  C   UNL A   1      31.588  28.354  23.998  1.00  0.00     0.012 C 
ATOM     16  C   UNL A   1      29.315  27.720  23.094  1.00  0.00     0.012 C 
ENDBRANCH   9  14
ENDBRANCH   7   8
ENDBRANCH   6   7
ENDBRANCH   5   6
ENDBRANCH   3   5
ENDBRANCH   2   3
ENDBRANCH   1   2
BRANCH   1  17
ATOM     17  C   UNL A   1      37.203  20.950  24.672  1.00  0.00     0.275 C 
BRANCH  17  18
ATOM     18  O   UNL A   1      37.651  21.565  25.892  1.00  0.00    -0.458 OA
BRANCH  18  19
ATOM     19  C   UNL A   1      38.962  21.376  26.175  1.00  0.00     0.338 C 
ATOM     20  O   UNL A   1      39.645  20.404  25.901  1.00  0.00    -0.246 OA
BRANCH  19  21
ATOM     21  C   UNL A   1      39.520  22.621  26.718  1.00  0.00     0.060 A 
ATOM     22  C   UNL A   1      39.054  23.821  26.178  1.00  0.00     0.016 A 
ATOM     23  C   UNL A   1      40.530  22.618  27.680  1.00  0.00     0.016 A 
ATOM     24  C   UNL A   1      39.601  25.031  26.586  1.00  0.00     0.010 A 
ATOM     25  C   UNL A   1      41.082  23.836  28.090  1.00  0.00     0.010 A 
ATOM     26  C   UNL A   1      40.634  25.047  27.530  1.00  0.00    -0.014 A 
BRANCH  26  27
ATOM     27  C   UNL A   1      41.285  26.336  27.857  1.00  0.00     0.031 A 
ATOM     28  C   UNL A   1      42.684  26.602  27.382  1.00  0.00     0.074 A 
ATOM     29  C   UNL A   1      40.604  27.278  28.535  1.00  0.00     0.049 A 
ATOM     30  N   UNL A   1      43.432  27.658  27.568  1.00  0.00    -0.248 NA
ATOM     31  C   UNL A   1      43.329  25.541  26.591  1.00  0.00     0.031 C 
ATOM     32  C   UNL A   1      39.234  27.136  29.029  1.00  0.00     0.029 A 
ATOM     33  N   UNL A   1      40.972  28.540  28.926  1.00  0.00    -0.354 N 
ATOM     34  C   UNL A   1      44.648  27.374  26.959  1.00  0.00     0.074 A 
ATOM     35  C   UNL A   1      44.539  26.046  26.396  1.00  0.00     0.031 C 
ATOM     36  C   UNL A   1      38.877  28.266  29.659  1.00  0.00     0.029 A 
ATOM     37  C   UNL A   1      40.000  29.199  29.641  1.00  0.00     0.049 A 
ATOM     38  H   UNL A   1      41.848  28.936  28.715  1.00  0.00     0.167 HD
ATOM     39  C   UNL A   1      45.749  28.155  26.864  1.00  0.00     0.034 A 
ATOM     40  C   UNL A   1      40.019  30.413  30.224  1.00  0.00     0.034 A 
ATOM     41  C   UNL A   1      45.836  29.493  27.385  1.00  0.00     0.049 A 
ATOM     42  C   UNL A   1      41.252  31.267  30.089  1.00  0.00     0.074 A 
ATOM     43  C   UNL A   1      46.899  30.377  27.318  1.00  0.00     0.029 A 
ATOM     44  N   UNL A   1      44.818  30.144  28.065  1.00  0.00    -0.354 N 
ATOM     45  N   UNL A   1      42.365  31.014  29.441  1.00  0.00    -0.248 NA
ATOM     46  C   UNL A   1      41.224  32.584  30.742  1.00  0.00     0.031 C 
ATOM     47  C   UNL A   1      46.523  31.561  27.962  1.00  0.00     0.029 A 
ATOM     48  C   UNL A   1      45.223  31.418  28.421  1.00  0.00     0.049 A 
ATOM     49  H   UNL A   1      43.935  29.756  28.264  1.00  0.00     0.167 HD
ATOM     50  C   UNL A   1      43.158  32.145  29.589  1.00  0.00     0.074 A 
ATOM     51  C   UNL A   1      42.386  33.097  30.361  1.00  0.00     0.031 C 
ATOM     52  C   UNL A   1      44.420  32.369  29.145  1.00  0.00     0.034 A 
BRANCH  39  53
ATOM     53  C   UNL A   1      46.941  27.591  26.141  1.00  0.00     0.023 A 
ATOM     54  C   UNL A   1      47.807  26.704  26.812  1.00  0.00     0.012 A 
ATOM     55  C   UNL A   1      47.184  27.903  24.789  1.00  0.00     0.148 A 
ATOM     56  C   UNL A   1      48.911  26.158  26.157  1.00  0.00     0.002 A 
ATOM     57  C   UNL A   1      48.265  27.326  24.133  1.00  0.00     0.091 A 
ATOM     58  F   UNL A   1      46.367  28.771  24.176  1.00  0.00    -0.205 F 
ATOM     59  C   UNL A   1      49.134  26.461  24.817  1.00  0.00     0.022 A 
BRANCH  57  60
ATOM     60  S   UNL A   1      48.594  27.606  22.388  1.00  0.00     0.127 S 
ATOM     61  O   UNL A   1      48.683  26.237  21.881  1.00  0.00    -0.237 OA
ATOM     62  O   UNL A   1      47.401  28.337  21.960  1.00  0.00    -0.237 OA
ATOM     63  O   UNL A   1      49.827  28.378  22.335  1.00  0.00    -0.744 OA
ENDBRANCH  57  60
ENDBRANCH  39  53
BRANCH  40  64
ATOM     64  C   UNL A   1      38.814  30.909  30.947  1.00  0.00     0.023 A 
ATOM     65  C   UNL A   1      38.774  30.845  32.353  1.00  0.00     0.012 A 
ATOM     66  C   UNL A   1      37.726  31.475  30.254  1.00  0.00     0.148 A 
ATOM     67  C   UNL A   1      37.664  31.318  33.055  1.00  0.00     0.002 A 
ATOM     68  C   UNL A   1      36.649  31.994  30.963  1.00  0.00     0.091 A 
ATOM     69  F   UNL A   1      37.769  31.503  28.914  1.00  0.00    -0.205 F 
ATOM     70  C   UNL A   1      36.608  31.905  32.361  1.00  0.00     0.022 A 
BRANCH  68  71
ATOM     71  S   UNL A   1      35.316  32.885  30.149  1.00  0.00     0.127 S 
ATOM     72  O   UNL A   1      34.796  31.876  29.232  1.00  0.00    -0.237 OA
ATOM     73  O   UNL A   1      34.434  33.211  31.271  1.00  0.00    -0.237 OA
ATOM     74  O   UNL A   1      35.948  34.046  29.534  1.00  0.00    -0.744 OA
ENDBRANCH  68  71
ENDBRANCH  40  64
BRANCH  52  75
ATOM     75  C   UNL A   1      45.041  33.700  29.474  1.00  0.00     0.023 A 
ATOM     76  C   UNL A   1      45.744  33.858  30.685  1.00  0.00     0.012 A 
ATOM     77  C   UNL A   1      44.984  34.773  28.563  1.00  0.00     0.148 A 
ATOM     78  C   UNL A   1      46.352  35.073  30.999  1.00  0.00     0.002 A 
ATOM     79  C   UNL A   1      45.629  35.967  28.864  1.00  0.00     0.091 A 
ATOM     80  F   UNL A   1      44.292  34.614  27.425  1.00  0.00    -0.205 F 
ATOM     81  C   UNL A   1      46.305  36.122  30.085  1.00  0.00     0.022 A 
BRANCH  79  82
ATOM     82  S   UNL A   1      45.686  37.333  27.697  1.00  0.00     0.127 S 
ATOM     83  O   UNL A   1      46.304  36.705  26.532  1.00  0.00    -0.237 OA
ATOM     84  O   UNL A   1      44.270  37.667  27.530  1.00  0.00    -0.237 OA
ATOM     85  O   UNL A   1      46.471  38.372  28.349  1.00  0.00    -0.744 OA
ENDBRANCH  79  82
ENDBRANCH  52  75
ENDBRANCH  26  27
ENDBRANCH  19  21
ENDBRANCH  18  19
ENDBRANCH  17  18
ENDBRANCH   1  17
TORSDOF 18
ENDMDL
