MODEL 1
REMARK VINA RESULT:     -12.2      0.000      0.000
REMARK SMILES C[C@H]1[C@H](C(=O)OCCOC(=O)c2ccc(-c3c4nc(c(-c5cccc(S(=O)(=O)[O-])c5F)c5ccc([nH]5)c(-c5cccc(S(=O)(=O)[O-])c5F)c5nc(c(-c6cccc(S(=O)(=O)[O-])c6F)c6ccc3[nH]6)C=C5)C=C4)cc2)CC[N@@H+]1Cc1nnnn1-c1ccccc1
REMARK SMILES IDX 7 1 6 2 4 3 5 4 3 5 1 6 2 7 77 8 75 9 76 10 78 12 79 13
REMARK SMILES IDX 80 14 83 15 81 16 82 17 84 18 85 19 89 20 86 21 88 22 87 23
REMARK SMILES IDX 8 24 9 25 10 26 11 27 12 28 13 29 74 30 14 31 73 32 15 33
REMARK SMILES IDX 16 34 17 35 67 36 18 37 72 38 66 39 68 40 19 41 71 42 65 43
REMARK SMILES IDX 64 44 20 46 52 47 32 48 51 49 33 50 36 51 50 52 69 53 34 54
REMARK SMILES IDX 35 55 49 57 70 58 37 59 21 60 22 61 30 62 23 63 25 64 31 65
REMARK SMILES IDX 24 66 26 67 27 68 28 69 29 70 53 71 54 72 62 73 55 74 57 75
REMARK SMILES IDX 63 76 56 77 58 78 59 79 60 80 61 81 38 82 39 83 47 84 40 85
REMARK SMILES IDX 42 86 48 87 41 88 43 89 44 90 45 91 46 92
REMARK H PARENT 77 11 68 45 36 56
REMARK Flexibility Score: inf
ROOT
ATOM      1  C   UNL A   1      34.759  21.461  24.588  1.00  0.00     0.274 C 
ENDROOT
BRANCH   1   2
ATOM      2  O   UNL A   1      35.044  22.557  23.701  1.00  0.00    -0.462 OA
BRANCH   2   3
ATOM      3  C   UNL A   1      33.999  23.168  23.103  1.00  0.00     0.315 C 
ATOM      4  O   UNL A   1      33.908  23.383  21.898  1.00  0.00    -0.252 OA
BRANCH   3   5
ATOM      5  C   UNL A   1      32.864  23.480  24.066  1.00  0.00     0.162 C 
ATOM      6  C   UNL A   1      32.546  24.947  26.078  1.00  0.00     0.076 C 
ATOM      7  C   UNL A   1      32.740  24.930  24.551  1.00  0.00     0.195 C 
ATOM      8  N   UNL A   1      31.511  25.458  23.937  1.00  0.00    -0.326 N 
ATOM      9  C   UNL A   1      31.518  23.128  23.442  1.00  0.00     0.083 C 
ATOM     10  C   UNL A   1      30.627  24.325  23.698  1.00  0.00     0.263 C 
ATOM     11  H   UNL A   1      31.038  26.088  24.585  1.00  0.00     0.348 HD
BRANCH   8  12
ATOM     12  C   UNL A   1      31.704  26.420  22.845  1.00  0.00     0.343 C 
BRANCH  12  13
ATOM     13  C   UNL A   1      31.043  27.757  22.920  1.00  0.00     0.210 A 
ATOM     14  N   UNL A   1      30.169  28.221  22.042  1.00  0.00    -0.107 NA
ATOM     15  N   UNL A   1      31.178  28.710  23.917  1.00  0.00    -0.192 N 
ATOM     16  N   UNL A   1      29.686  29.393  22.552  1.00  0.00    -0.023 NA
ATOM     17  N   UNL A   1      30.234  29.660  23.724  1.00  0.00    -0.040 NA
BRANCH  15  18
ATOM     18  C   UNL A   1      32.064  28.783  25.011  1.00  0.00     0.069 A 
ATOM     19  C   UNL A   1      31.539  29.003  26.291  1.00  0.00     0.028 A 
ATOM     20  C   UNL A   1      33.436  28.569  24.841  1.00  0.00     0.028 A 
ATOM     21  C   UNL A   1      32.369  28.883  27.405  1.00  0.00     0.002 A 
ATOM     22  C   UNL A   1      34.265  28.482  25.958  1.00  0.00     0.002 A 
ATOM     23  C   UNL A   1      33.728  28.611  27.238  1.00  0.00     0.000 A 
ENDBRANCH  15  18
ENDBRANCH  12  13
ENDBRANCH   8  12
ENDBRANCH   3   5
ENDBRANCH   2   3
ENDBRANCH   1   2
BRANCH   1  24
ATOM     24  C   UNL A   1      36.075  20.878  25.100  1.00  0.00     0.275 C 
BRANCH  24  25
ATOM     25  O   UNL A   1      36.897  21.917  25.657  1.00  0.00    -0.458 OA
BRANCH  25  26
ATOM     26  C   UNL A   1      38.196  21.584  25.828  1.00  0.00     0.338 C 
ATOM     27  O   UNL A   1      38.772  20.579  25.450  1.00  0.00    -0.246 OA
BRANCH  26  28
ATOM     28  C   UNL A   1      38.891  22.692  26.485  1.00  0.00     0.060 A 
ATOM     29  C   UNL A   1      38.440  23.996  26.273  1.00  0.00     0.016 A 
ATOM     30  C   UNL A   1      40.052  22.442  27.209  1.00  0.00     0.016 A 
ATOM     31  C   UNL A   1      39.199  25.072  26.711  1.00  0.00     0.010 A 
ATOM     32  C   UNL A   1      40.768  23.521  27.720  1.00  0.00     0.010 A 
ATOM     33  C   UNL A   1      40.364  24.842  27.448  1.00  0.00    -0.014 A 
BRANCH  33  34
ATOM     34  C   UNL A   1      41.184  25.968  27.949  1.00  0.00     0.031 A 
ATOM     35  C   UNL A   1      40.526  27.047  28.757  1.00  0.00     0.074 A 
ATOM     36  C   UNL A   1      42.480  26.054  27.598  1.00  0.00     0.049 A 
ATOM     37  N   UNL A   1      40.963  28.243  29.046  1.00  0.00    -0.248 NA
ATOM     38  C   UNL A   1      39.186  26.747  29.292  1.00  0.00     0.031 C 
ATOM     39  C   UNL A   1      43.224  25.044  26.842  1.00  0.00     0.029 A 
ATOM     40  N   UNL A   1      43.391  27.063  27.791  1.00  0.00    -0.354 N 
ATOM     41  C   UNL A   1      39.924  28.867  29.726  1.00  0.00     0.074 A 
ATOM     42  C   UNL A   1      38.843  27.910  29.826  1.00  0.00     0.031 C 
ATOM     43  C   UNL A   1      44.465  25.494  26.609  1.00  0.00     0.029 A 
ATOM     44  C   UNL A   1      44.579  26.849  27.131  1.00  0.00     0.049 A 
ATOM     45  H   UNL A   1      43.211  27.856  28.345  1.00  0.00     0.167 HD
ATOM     46  C   UNL A   1      39.883  30.127  30.216  1.00  0.00     0.034 A 
ATOM     47  C   UNL A   1      45.619  27.679  26.917  1.00  0.00     0.034 A 
ATOM     48  C   UNL A   1      40.993  31.039  30.148  1.00  0.00     0.049 A 
ATOM     49  C   UNL A   1      45.548  29.074  27.472  1.00  0.00     0.074 A 
ATOM     50  C   UNL A   1      41.081  32.325  30.647  1.00  0.00     0.029 A 
ATOM     51  N   UNL A   1      42.210  30.754  29.547  1.00  0.00    -0.354 N 
ATOM     52  N   UNL A   1      44.584  29.640  28.158  1.00  0.00    -0.248 NA
ATOM     53  C   UNL A   1      46.711  29.942  27.240  1.00  0.00     0.031 C 
ATOM     54  C   UNL A   1      42.352  32.823  30.337  1.00  0.00     0.029 A 
ATOM     55  C   UNL A   1      43.059  31.838  29.663  1.00  0.00     0.049 A 
ATOM     56  H   UNL A   1      42.436  29.905  29.103  1.00  0.00     0.167 HD
ATOM     57  C   UNL A   1      45.036  30.914  28.473  1.00  0.00     0.074 A 
ATOM     58  C   UNL A   1      46.366  31.035  27.909  1.00  0.00     0.031 C 
ATOM     59  C   UNL A   1      44.406  31.901  29.155  1.00  0.00     0.034 A 
BRANCH  46  60
ATOM     60  C   UNL A   1      38.612  30.588  30.877  1.00  0.00     0.023 A 
ATOM     61  C   UNL A   1      38.436  30.401  32.262  1.00  0.00     0.012 A 
ATOM     62  C   UNL A   1      37.615  31.252  30.136  1.00  0.00     0.148 A 
ATOM     63  C   UNL A   1      37.275  30.845  32.895  1.00  0.00     0.002 A 
ATOM     64  C   UNL A   1      36.478  31.727  30.781  1.00  0.00     0.091 A 
ATOM     65  F   UNL A   1      37.789  31.398  28.815  1.00  0.00    -0.205 F 
ATOM     66  C   UNL A   1      36.302  31.515  32.158  1.00  0.00     0.022 A 
BRANCH  64  67
ATOM     67  S   UNL A   1      35.206  32.666  29.929  1.00  0.00     0.127 S 
ATOM     68  O   UNL A   1      34.754  31.707  28.923  1.00  0.00    -0.237 OA
ATOM     69  O   UNL A   1      34.242  32.924  31.000  1.00  0.00    -0.237 OA
ATOM     70  O   UNL A   1      35.866  33.856  29.410  1.00  0.00    -0.744 OA
ENDBRANCH  64  67
ENDBRANCH  46  60
BRANCH  47  71
ATOM     71  C   UNL A   1      46.805  27.198  26.156  1.00  0.00     0.023 A 
ATOM     72  C   UNL A   1      46.866  27.417  24.768  1.00  0.00     0.012 A 
ATOM     73  C   UNL A   1      47.895  26.581  26.803  1.00  0.00     0.148 A 
ATOM     74  C   UNL A   1      47.981  27.013  24.033  1.00  0.00     0.002 A 
ATOM     75  C   UNL A   1      49.026  26.232  26.074  1.00  0.00     0.091 A 
ATOM     76  F   UNL A   1      47.813  26.366  28.123  1.00  0.00    -0.205 F 
ATOM     77  C   UNL A   1      49.065  26.434  24.686  1.00  0.00     0.022 A 
BRANCH  75  78
ATOM     78  S   UNL A   1      50.520  25.609  26.857  1.00  0.00     0.127 S 
ATOM     79  O   UNL A   1      50.040  24.378  27.478  1.00  0.00    -0.237 OA
ATOM     80  O   UNL A   1      51.407  25.415  25.709  1.00  0.00    -0.237 OA
ATOM     81  O   UNL A   1      50.947  26.659  27.771  1.00  0.00    -0.744 OA
ENDBRANCH  75  78
ENDBRANCH  47  71
BRANCH  59  82
ATOM     82  C   UNL A   1      45.159  33.179  29.388  1.00  0.00     0.023 A 
ATOM     83  C   UNL A   1      46.046  33.281  30.477  1.00  0.00     0.012 A 
ATOM     84  C   UNL A   1      45.075  34.231  28.455  1.00  0.00     0.148 A 
ATOM     85  C   UNL A   1      46.829  34.422  30.642  1.00  0.00     0.002 A 
ATOM     86  C   UNL A   1      45.890  35.345  28.601  1.00  0.00     0.091 A 
ATOM     87  F   UNL A   1      44.209  34.114  27.438  1.00  0.00    -0.205 F 
ATOM     88  C   UNL A   1      46.762  35.446  29.698  1.00  0.00     0.022 A 
BRANCH  86  89
ATOM     89  S   UNL A   1      45.944  36.665  27.385  1.00  0.00     0.127 S 
ATOM     90  O   UNL A   1      44.540  37.065  27.318  1.00  0.00    -0.237 OA
ATOM     91  O   UNL A   1      46.827  37.640  28.026  1.00  0.00    -0.237 OA
ATOM     92  O   UNL A   1      46.481  36.070  26.168  1.00  0.00    -0.744 OA
ENDBRANCH  86  89
ENDBRANCH  59  82
ENDBRANCH  33  34
ENDBRANCH  26  28
ENDBRANCH  25  26
ENDBRANCH  24  25
ENDBRANCH   1  24
TORSDOF 17
ENDMDL
MODEL 2
REMARK VINA RESULT:     -12.1      4.897      9.924
REMARK SMILES C[C@H]1[C@H](C(=O)OCCOC(=O)c2ccc(-c3c4nc(c(-c5cccc(S(=O)(=O)[O-])c5F)c5ccc([nH]5)c(-c5cccc(S(=O)(=O)[O-])c5F)c5nc(c(-c6cccc(S(=O)(=O)[O-])c6F)c6ccc3[nH]6)C=C5)C=C4)cc2)CC[N@@H+]1Cc1nnnn1-c1ccccc1
REMARK SMILES IDX 7 1 6 2 4 3 5 4 3 5 1 6 2 7 77 8 75 9 76 10 78 12 79 13
REMARK SMILES IDX 80 14 83 15 81 16 82 17 84 18 85 19 89 20 86 21 88 22 87 23
REMARK SMILES IDX 8 24 9 25 10 26 11 27 12 28 13 29 74 30 14 31 73 32 15 33
REMARK SMILES IDX 16 34 17 35 67 36 18 37 72 38 66 39 68 40 19 41 71 42 65 43
REMARK SMILES IDX 64 44 20 46 52 47 32 48 51 49 33 50 36 51 50 52 69 53 34 54
REMARK SMILES IDX 35 55 49 57 70 58 37 59 21 60 22 61 30 62 23 63 25 64 31 65
REMARK SMILES IDX 24 66 26 67 27 68 28 69 29 70 53 71 54 72 62 73 55 74 57 75
REMARK SMILES IDX 63 76 56 77 58 78 59 79 60 80 61 81 38 82 39 83 47 84 40 85
REMARK SMILES IDX 42 86 48 87 41 88 43 89 44 90 45 91 46 92
REMARK H PARENT 77 11 68 45 36 56
REMARK Flexibility Score: inf
ROOT
ATOM      1  C   UNL A   1      31.352  29.157  24.958  1.00  0.00     0.274 C 
ENDROOT
BRANCH   1   2
ATOM      2  O   UNL A   1      31.957  28.088  25.708  1.00  0.00    -0.462 OA
BRANCH   2   3
ATOM      3  C   UNL A   1      31.364  26.875  25.660  1.00  0.00     0.315 C 
ATOM      4  O   UNL A   1      30.661  26.404  26.548  1.00  0.00    -0.252 OA
BRANCH   3   5
ATOM      5  C   UNL A   1      31.564  26.170  24.328  1.00  0.00     0.162 C 
ATOM      6  C   UNL A   1      33.516  25.293  23.016  1.00  0.00     0.076 C 
ATOM      7  C   UNL A   1      32.646  25.085  24.269  1.00  0.00     0.195 C 
ATOM      8  N   UNL A   1      31.930  23.808  24.110  1.00  0.00    -0.326 N 
ATOM      9  C   UNL A   1      30.271  25.500  23.876  1.00  0.00     0.083 C 
ATOM     10  C   UNL A   1      30.665  24.101  23.451  1.00  0.00     0.263 C 
ATOM     11  H   UNL A   1      32.459  23.182  23.503  1.00  0.00     0.348 HD
BRANCH   8  12
ATOM     12  C   UNL A   1      31.902  22.940  25.295  1.00  0.00     0.343 C 
BRANCH  12  13
ATOM     13  C   UNL A   1      32.435  21.548  25.197  1.00  0.00     0.210 A 
ATOM     14  N   UNL A   1      31.699  20.450  25.252  1.00  0.00    -0.107 NA
ATOM     15  N   UNL A   1      33.748  21.161  24.986  1.00  0.00    -0.192 N 
ATOM     16  N   UNL A   1      32.533  19.407  24.963  1.00  0.00    -0.023 NA
ATOM     17  N   UNL A   1      33.761  19.833  24.725  1.00  0.00    -0.040 NA
BRANCH  15  18
ATOM     18  C   UNL A   1      34.942  21.910  24.978  1.00  0.00     0.069 A 
ATOM     19  C   UNL A   1      35.533  22.225  23.747  1.00  0.00     0.028 A 
ATOM     20  C   UNL A   1      35.495  22.395  26.168  1.00  0.00     0.028 A 
ATOM     21  C   UNL A   1      36.598  23.125  23.705  1.00  0.00     0.002 A 
ATOM     22  C   UNL A   1      36.579  23.269  26.119  1.00  0.00     0.002 A 
ATOM     23  C   UNL A   1      37.111  23.656  24.889  1.00  0.00     0.000 A 
ENDBRANCH  15  18
ENDBRANCH  12  13
ENDBRANCH   8  12
ENDBRANCH   3   5
ENDBRANCH   2   3
ENDBRANCH   1   2
BRANCH   1  24
ATOM     24  C   UNL A   1      31.608  30.479  25.679  1.00  0.00     0.275 C 
BRANCH  24  25
ATOM     25  O   UNL A   1      32.630  30.313  26.677  1.00  0.00    -0.458 OA
BRANCH  25  26
ATOM     26  C   UNL A   1      33.166  31.465  27.138  1.00  0.00     0.338 C 
ATOM     27  O   UNL A   1      32.641  32.562  27.218  1.00  0.00    -0.246 OA
BRANCH  26  28
ATOM     28  C   UNL A   1      34.511  31.195  27.649  1.00  0.00     0.060 A 
ATOM     29  C   UNL A   1      34.853  29.888  28.000  1.00  0.00     0.016 A 
ATOM     30  C   UNL A   1      35.381  32.254  27.886  1.00  0.00     0.016 A 
ATOM     31  C   UNL A   1      36.039  29.639  28.676  1.00  0.00     0.010 A 
ATOM     32  C   UNL A   1      36.608  31.990  28.490  1.00  0.00     0.010 A 
ATOM     33  C   UNL A   1      36.931  30.688  28.916  1.00  0.00    -0.014 A 
BRANCH  33  34
ATOM     34  C   UNL A   1      38.215  30.452  29.615  1.00  0.00     0.031 A 
ATOM     35  C   UNL A   1      39.209  29.504  29.013  1.00  0.00     0.074 A 
ATOM     36  C   UNL A   1      38.431  31.017  30.816  1.00  0.00     0.049 A 
ATOM     37  N   UNL A   1      40.242  28.931  29.569  1.00  0.00    -0.248 NA
ATOM     38  C   UNL A   1      38.999  29.134  27.602  1.00  0.00     0.031 C 
ATOM     39  C   UNL A   1      37.543  31.977  31.476  1.00  0.00     0.029 A 
ATOM     40  N   UNL A   1      39.446  30.827  31.721  1.00  0.00    -0.354 N 
ATOM     41  C   UNL A   1      40.759  28.074  28.606  1.00  0.00     0.074 A 
ATOM     42  C   UNL A   1      39.939  28.217  27.422  1.00  0.00     0.031 C 
ATOM     43  C   UNL A   1      38.033  32.270  32.688  1.00  0.00     0.029 A 
ATOM     44  C   UNL A   1      39.224  31.464  32.920  1.00  0.00     0.049 A 
ATOM     45  H   UNL A   1      40.249  30.292  31.530  1.00  0.00     0.167 HD
ATOM     46  C   UNL A   1      41.820  27.241  28.709  1.00  0.00     0.034 A 
ATOM     47  C   UNL A   1      39.873  31.358  34.097  1.00  0.00     0.034 A 
ATOM     48  C   UNL A   1      42.650  27.159  29.880  1.00  0.00     0.049 A 
ATOM     49  C   UNL A   1      41.049  30.427  34.185  1.00  0.00     0.074 A 
ATOM     50  C   UNL A   1      43.776  26.383  30.084  1.00  0.00     0.029 A 
ATOM     51  N   UNL A   1      42.443  27.884  31.044  1.00  0.00    -0.354 N 
ATOM     52  N   UNL A   1      41.562  29.658  33.255  1.00  0.00    -0.248 NA
ATOM     53  C   UNL A   1      41.747  30.358  35.476  1.00  0.00     0.031 C 
ATOM     54  C   UNL A   1      44.245  26.633  31.378  1.00  0.00     0.029 A 
ATOM     55  C   UNL A   1      43.421  27.578  31.971  1.00  0.00     0.049 A 
ATOM     56  H   UNL A   1      41.707  28.523  31.188  1.00  0.00     0.167 HD
ATOM     57  C   UNL A   1      42.664  29.043  33.832  1.00  0.00     0.074 A 
ATOM     58  C   UNL A   1      42.750  29.535  35.194  1.00  0.00     0.031 C 
ATOM     59  C   UNL A   1      43.521  28.142  33.293  1.00  0.00     0.034 A 
BRANCH  46  60
ATOM     60  C   UNL A   1      42.153  26.370  27.527  1.00  0.00     0.023 A 
ATOM     61  C   UNL A   1      42.897  26.899  26.454  1.00  0.00     0.012 A 
ATOM     62  C   UNL A   1      41.774  25.013  27.505  1.00  0.00     0.148 A 
ATOM     63  C   UNL A   1      43.236  26.098  25.364  1.00  0.00     0.002 A 
ATOM     64  C   UNL A   1      42.150  24.211  26.433  1.00  0.00     0.091 A 
ATOM     65  F   UNL A   1      41.045  24.534  28.523  1.00  0.00    -0.205 F 
ATOM     66  C   UNL A   1      42.871  24.754  25.357  1.00  0.00     0.022 A 
BRANCH  64  67
ATOM     67  S   UNL A   1      41.790  22.452  26.371  1.00  0.00     0.127 S 
ATOM     68  O   UNL A   1      42.647  22.015  25.270  1.00  0.00    -0.237 OA
ATOM     69  O   UNL A   1      42.222  22.000  27.694  1.00  0.00    -0.237 OA
ATOM     70  O   UNL A   1      40.358  22.344  26.132  1.00  0.00    -0.744 OA
ENDBRANCH  64  67
ENDBRANCH  46  60
BRANCH  47  71
ATOM     71  C   UNL A   1      39.425  32.167  35.264  1.00  0.00     0.023 A 
ATOM     72  C   UNL A   1      38.596  31.572  36.233  1.00  0.00     0.012 A 
ATOM     73  C   UNL A   1      39.859  33.495  35.452  1.00  0.00     0.148 A 
ATOM     74  C   UNL A   1      38.191  32.291  37.359  1.00  0.00     0.002 A 
ATOM     75  C   UNL A   1      39.498  34.185  36.603  1.00  0.00     0.091 A 
ATOM     76  F   UNL A   1      40.635  34.050  34.511  1.00  0.00    -0.205 F 
ATOM     77  C   UNL A   1      38.651  33.590  37.551  1.00  0.00     0.022 A 
BRANCH  75  78
ATOM     78  S   UNL A   1      40.157  35.811  36.995  1.00  0.00     0.127 S 
ATOM     79  O   UNL A   1      39.658  36.613  35.882  1.00  0.00    -0.237 OA
ATOM     80  O   UNL A   1      39.530  36.091  38.288  1.00  0.00    -0.237 OA
ATOM     81  O   UNL A   1      41.602  35.640  37.058  1.00  0.00    -0.744 OA
ENDBRANCH  75  78
ENDBRANCH  47  71
BRANCH  59  82
ATOM     82  C   UNL A   1      44.664  27.669  34.146  1.00  0.00     0.023 A 
ATOM     83  C   UNL A   1      45.848  28.429  34.214  1.00  0.00     0.012 A 
ATOM     84  C   UNL A   1      44.512  26.537  34.970  1.00  0.00     0.148 A 
ATOM     85  C   UNL A   1      46.873  28.057  35.082  1.00  0.00     0.002 A 
ATOM     86  C   UNL A   1      45.519  26.200  35.864  1.00  0.00     0.091 A 
ATOM     87  F   UNL A   1      43.382  25.823  34.871  1.00  0.00    -0.205 F 
ATOM     88  C   UNL A   1      46.703  26.953  35.916  1.00  0.00     0.022 A 
BRANCH  86  89
ATOM     89  S   UNL A   1      45.348  24.857  37.044  1.00  0.00     0.127 S 
ATOM     90  O   UNL A   1      45.368  23.686  36.168  1.00  0.00    -0.237 OA
ATOM     91  O   UNL A   1      46.543  25.020  37.874  1.00  0.00    -0.237 OA
ATOM     92  O   UNL A   1      44.091  25.090  37.742  1.00  0.00    -0.744 OA
ENDBRANCH  86  89
ENDBRANCH  59  82
ENDBRANCH  33  34
ENDBRANCH  26  28
ENDBRANCH  25  26
ENDBRANCH  24  25
ENDBRANCH   1  24
TORSDOF 17
ENDMDL
MODEL 3
REMARK VINA RESULT:     -11.9      1.729      2.269
REMARK SMILES C[C@H]1[C@H](C(=O)OCCOC(=O)c2ccc(-c3c4nc(c(-c5cccc(S(=O)(=O)[O-])c5F)c5ccc([nH]5)c(-c5cccc(S(=O)(=O)[O-])c5F)c5nc(c(-c6cccc(S(=O)(=O)[O-])c6F)c6ccc3[nH]6)C=C5)C=C4)cc2)CC[N@@H+]1Cc1nnnn1-c1ccccc1
REMARK SMILES IDX 7 1 6 2 4 3 5 4 3 5 1 6 2 7 77 8 75 9 76 10 78 12 79 13
REMARK SMILES IDX 80 14 83 15 81 16 82 17 84 18 85 19 89 20 86 21 88 22 87 23
REMARK SMILES IDX 8 24 9 25 10 26 11 27 12 28 13 29 74 30 14 31 73 32 15 33
REMARK SMILES IDX 16 34 17 35 67 36 18 37 72 38 66 39 68 40 19 41 71 42 65 43
REMARK SMILES IDX 64 44 20 46 52 47 32 48 51 49 33 50 36 51 50 52 69 53 34 54
REMARK SMILES IDX 35 55 49 57 70 58 37 59 21 60 22 61 30 62 23 63 25 64 31 65
REMARK SMILES IDX 24 66 26 67 27 68 28 69 29 70 53 71 54 72 62 73 55 74 57 75
REMARK SMILES IDX 63 76 56 77 58 78 59 79 60 80 61 81 38 82 39 83 47 84 40 85
REMARK SMILES IDX 42 86 48 87 41 88 43 89 44 90 45 91 46 92
REMARK H PARENT 77 11 68 45 36 56
REMARK Flexibility Score: inf
ROOT
ATOM      1  C   UNL A   1      36.478  20.400  24.887  1.00  0.00     0.274 C 
ENDROOT
BRANCH   1   2
ATOM      2  O   UNL A   1      35.218  20.851  25.416  1.00  0.00    -0.462 OA
BRANCH   2   3
ATOM      3  C   UNL A   1      34.100  20.222  24.995  1.00  0.00     0.315 C 
ATOM      4  O   UNL A   1      34.055  19.058  24.610  1.00  0.00    -0.252 OA
BRANCH   3   5
ATOM      5  C   UNL A   1      32.848  21.072  25.146  1.00  0.00     0.162 C 
ATOM      6  C   UNL A   1      31.956  22.701  26.834  1.00  0.00     0.076 C 
ATOM      7  C   UNL A   1      33.024  22.470  25.750  1.00  0.00     0.195 C 
ATOM      8  N   UNL A   1      32.763  23.420  24.655  1.00  0.00    -0.326 N 
ATOM      9  C   UNL A   1      32.174  21.279  23.794  1.00  0.00     0.083 C 
ATOM     10  C   UNL A   1      31.867  22.760  23.716  1.00  0.00     0.263 C 
ATOM     11  H   UNL A   1      32.283  24.245  25.013  1.00  0.00     0.348 HD
BRANCH   8  12
ATOM     12  C   UNL A   1      33.941  24.108  24.112  1.00  0.00     0.343 C 
BRANCH  12  13
ATOM     13  C   UNL A   1      33.756  25.343  23.293  1.00  0.00     0.210 A 
ATOM     14  N   UNL A   1      34.003  25.438  21.997  1.00  0.00    -0.107 NA
ATOM     15  N   UNL A   1      33.260  26.567  23.713  1.00  0.00    -0.192 N 
ATOM     16  N   UNL A   1      33.556  26.666  21.602  1.00  0.00    -0.023 NA
ATOM     17  N   UNL A   1      33.033  27.329  22.618  1.00  0.00    -0.040 NA
BRANCH  15  18
ATOM     18  C   UNL A   1      32.962  27.049  25.004  1.00  0.00     0.069 A 
ATOM     19  C   UNL A   1      33.904  27.854  25.658  1.00  0.00     0.028 A 
ATOM     20  C   UNL A   1      31.723  26.792  25.599  1.00  0.00     0.028 A 
ATOM     21  C   UNL A   1      33.553  28.499  26.844  1.00  0.00     0.002 A 
ATOM     22  C   UNL A   1      31.391  27.415  26.801  1.00  0.00     0.002 A 
ATOM     23  C   UNL A   1      32.294  28.289  27.407  1.00  0.00     0.000 A 
ENDBRANCH  15  18
ENDBRANCH  12  13
ENDBRANCH   8  12
ENDBRANCH   3   5
ENDBRANCH   2   3
ENDBRANCH   1   2
BRANCH   1  24
ATOM     24  C   UNL A   1      37.386  21.607  24.662  1.00  0.00     0.275 C 
BRANCH  24  25
ATOM     25  O   UNL A   1      37.808  22.156  25.922  1.00  0.00    -0.458 OA
BRANCH  25  26
ATOM     26  C   UNL A   1      39.110  21.952  26.224  1.00  0.00     0.338 C 
ATOM     27  O   UNL A   1      39.805  20.990  25.949  1.00  0.00    -0.246 OA
BRANCH  26  28
ATOM     28  C   UNL A   1      39.641  23.146  26.882  1.00  0.00     0.060 A 
ATOM     29  C   UNL A   1      39.165  24.401  26.496  1.00  0.00     0.016 A 
ATOM     30  C   UNL A   1      40.687  23.023  27.791  1.00  0.00     0.016 A 
ATOM     31  C   UNL A   1      39.795  25.551  26.951  1.00  0.00     0.010 A 
ATOM     32  C   UNL A   1      41.262  24.179  28.310  1.00  0.00     0.010 A 
ATOM     33  C   UNL A   1      40.841  25.448  27.871  1.00  0.00    -0.014 A 
BRANCH  33  34
ATOM     34  C   UNL A   1      41.518  26.657  28.393  1.00  0.00     0.031 A 
ATOM     35  C   UNL A   1      40.705  27.704  29.094  1.00  0.00     0.074 A 
ATOM     36  C   UNL A   1      42.830  26.840  28.153  1.00  0.00     0.049 A 
ATOM     37  N   UNL A   1      41.015  28.942  29.369  1.00  0.00    -0.248 NA
ATOM     38  C   UNL A   1      39.351  27.310  29.523  1.00  0.00     0.031 C 
ATOM     39  C   UNL A   1      43.719  25.871  27.508  1.00  0.00     0.029 A 
ATOM     40  N   UNL A   1      43.634  27.928  28.381  1.00  0.00    -0.354 N 
ATOM     41  C   UNL A   1      39.873  29.499  29.929  1.00  0.00     0.074 A 
ATOM     42  C   UNL A   1      38.868  28.458  29.976  1.00  0.00     0.031 C 
ATOM     43  C   UNL A   1      44.935  26.416  27.365  1.00  0.00     0.029 A 
ATOM     44  C   UNL A   1      44.891  27.793  27.837  1.00  0.00     0.049 A 
ATOM     45  H   UNL A   1      43.342  28.722  28.883  1.00  0.00     0.167 HD
ATOM     46  C   UNL A   1      39.685  30.768  30.359  1.00  0.00     0.034 A 
ATOM     47  C   UNL A   1      45.874  28.701  27.678  1.00  0.00     0.034 A 
ATOM     48  C   UNL A   1      40.718  31.767  30.350  1.00  0.00     0.049 A 
ATOM     49  C   UNL A   1      45.641  30.103  28.165  1.00  0.00     0.074 A 
ATOM     50  C   UNL A   1      40.657  33.074  30.800  1.00  0.00     0.029 A 
ATOM     51  N   UNL A   1      42.004  31.566  29.870  1.00  0.00    -0.354 N 
ATOM     52  N   UNL A   1      44.576  30.609  28.740  1.00  0.00    -0.248 NA
ATOM     53  C   UNL A   1      46.746  31.057  27.999  1.00  0.00     0.031 C 
ATOM     54  C   UNL A   1      41.905  33.666  30.581  1.00  0.00     0.029 A 
ATOM     55  C   UNL A   1      42.748  32.722  30.013  1.00  0.00     0.049 A 
ATOM     56  H   UNL A   1      42.337  30.724  29.483  1.00  0.00     0.167 HD
ATOM     57  C   UNL A   1      44.893  31.926  29.040  1.00  0.00     0.074 A 
ATOM     58  C   UNL A   1      46.254  32.140  28.588  1.00  0.00     0.031 C 
ATOM     59  C   UNL A   1      44.125  32.880  29.621  1.00  0.00     0.034 A 
BRANCH  46  60
ATOM     60  C   UNL A   1      38.326  31.142  30.888  1.00  0.00     0.023 A 
ATOM     61  C   UNL A   1      38.023  30.936  32.248  1.00  0.00     0.012 A 
ATOM     62  C   UNL A   1      37.369  31.745  30.049  1.00  0.00     0.148 A 
ATOM     63  C   UNL A   1      36.777  31.301  32.759  1.00  0.00     0.002 A 
ATOM     64  C   UNL A   1      36.144  32.142  30.574  1.00  0.00     0.091 A 
ATOM     65  F   UNL A   1      37.666  31.910  28.752  1.00  0.00    -0.205 F 
ATOM     66  C   UNL A   1      35.843  31.911  31.927  1.00  0.00     0.022 A 
BRANCH  64  67
ATOM     67  S   UNL A   1      34.907  33.003  29.597  1.00  0.00     0.127 S 
ATOM     68  O   UNL A   1      34.000  33.493  30.634  1.00  0.00    -0.237 OA
ATOM     69  O   UNL A   1      35.699  34.044  28.941  1.00  0.00    -0.237 OA
ATOM     70  O   UNL A   1      34.347  32.008  28.693  1.00  0.00    -0.744 OA
ENDBRANCH  64  67
ENDBRANCH  46  60
BRANCH  47  71
ATOM     71  C   UNL A   1      47.159  28.295  27.045  1.00  0.00     0.023 A 
ATOM     72  C   UNL A   1      48.280  28.052  27.860  1.00  0.00     0.012 A 
ATOM     73  C   UNL A   1      47.264  28.089  25.654  1.00  0.00     0.148 A 
ATOM     74  C   UNL A   1      49.488  27.632  27.301  1.00  0.00     0.002 A 
ATOM     75  C   UNL A   1      48.453  27.616  25.111  1.00  0.00     0.091 A 
ATOM     76  F   UNL A   1      46.191  28.340  24.891  1.00  0.00    -0.205 F 
ATOM     77  C   UNL A   1      49.571  27.402  25.932  1.00  0.00     0.022 A 
BRANCH  75  78
ATOM     78  S   UNL A   1      48.605  27.162  23.378  1.00  0.00     0.127 S 
ATOM     79  O   UNL A   1      47.935  28.278  22.717  1.00  0.00    -0.237 OA
ATOM     80  O   UNL A   1      50.057  27.121  23.201  1.00  0.00    -0.237 OA
ATOM     81  O   UNL A   1      47.952  25.866  23.258  1.00  0.00    -0.744 OA
ENDBRANCH  75  78
ENDBRANCH  47  71
BRANCH  59  82
ATOM     82  C   UNL A   1      44.749  34.225  29.864  1.00  0.00     0.023 A 
ATOM     83  C   UNL A   1      45.467  34.460  31.052  1.00  0.00     0.012 A 
ATOM     84  C   UNL A   1      44.720  35.211  28.859  1.00  0.00     0.148 A 
ATOM     85  C   UNL A   1      46.138  35.666  31.242  1.00  0.00     0.002 A 
ATOM     86  C   UNL A   1      45.428  36.391  29.035  1.00  0.00     0.091 A 
ATOM     87  F   UNL A   1      44.013  34.967  27.746  1.00  0.00    -0.205 F 
ATOM     88  C   UNL A   1      46.131  36.625  30.229  1.00  0.00     0.022 A 
BRANCH  86  89
ATOM     89  S   UNL A   1      45.557  37.638  27.749  1.00  0.00     0.127 S 
ATOM     90  O   UNL A   1      46.342  38.675  28.417  1.00  0.00    -0.237 OA
ATOM     91  O   UNL A   1      46.269  36.919  26.692  1.00  0.00    -0.237 OA
ATOM     92  O   UNL A   1      44.190  38.013  27.412  1.00  0.00    -0.744 OA
ENDBRANCH  86  89
ENDBRANCH  59  82
ENDBRANCH  33  34
ENDBRANCH  26  28
ENDBRANCH  25  26
ENDBRANCH  24  25
ENDBRANCH   1  24
TORSDOF 17
ENDMDL
