MODEL 1
REMARK VINA RESULT:     -12.8      0.000      0.000
REMARK SMILES O=C(CCN1C(=O)S/C(=C\c2ccc(F)cc2)C1=O)Nc1ccc(O)cc1C(=O)OCCOC(=O)c1ccc(-c2c3nc(c(-c4cccc(S(=O)(=O)[O-])c4F)c4ccc([nH]4)c(-c4cccc(S(=O)(=O)[O-])c4F)c4nc(c(-c5cccc(S(=O)(=O)[O-])c5F)c5ccc2[nH]5)C=C4)C=C3)cc1
REMARK SMILES IDX 31 1 30 2 28 3 29 4 27 5 21 6 22 7 23 8 26 9 24 10 20 11
REMARK SMILES IDX 1 12 2 13 3 15 4 16 5 17 6 18 18 19 7 20 8 21 9 22 19 23
REMARK SMILES IDX 10 24 11 25 12 26 17 27 13 28 16 29 14 30 15 31 25 32 32 34
REMARK SMILES IDX 33 35 34 36 35 37 36 38 37 39 98 40 38 41 97 42 39 43 40 44
REMARK SMILES IDX 41 45 91 46 42 47 96 48 90 49 92 50 43 51 95 52 89 53 88 54
REMARK SMILES IDX 44 56 76 57 56 58 75 59 57 60 60 61 74 62 93 63 58 64 59 65
REMARK SMILES IDX 73 67 94 68 61 69 45 70 46 71 54 72 47 73 49 74 55 75 48 76
REMARK SMILES IDX 50 77 51 78 52 79 53 80 77 81 78 82 86 83 79 84 81 85 87 86
REMARK SMILES IDX 80 87 82 88 83 89 84 90 85 91 62 92 63 93 71 94 64 95 66 96
REMARK SMILES IDX 72 97 65 98 67 99 68 100 69 101 70 102
REMARK H PARENT 20 14 25 33 92 55 60 66
REMARK Flexibility Score: inf
ROOT
ATOM      1  C   UNL A   1      32.064  30.411  25.922  1.00  0.00     0.275 C 
ENDROOT
BRANCH   1   2
ATOM      2  O   UNL A   1      31.917  29.083  25.382  1.00  0.00    -0.458 OA
BRANCH   2   3
ATOM      3  C   UNL A   1      31.673  28.987  24.047  1.00  0.00     0.340 C 
ATOM      4  O   UNL A   1      32.467  29.222  23.153  1.00  0.00    -0.246 OA
BRANCH   3   5
ATOM      5  C   UNL A   1      30.294  28.495  23.807  1.00  0.00     0.087 A 
ATOM      6  C   UNL A   1      29.913  27.151  24.003  1.00  0.00     0.056 A 
ATOM      7  C   UNL A   1      28.588  26.793  23.719  1.00  0.00     0.031 A 
ATOM      8  C   UNL A   1      27.669  27.733  23.228  1.00  0.00     0.048 A 
ATOM      9  C   UNL A   1      29.349  29.445  23.386  1.00  0.00     0.064 A 
ATOM     10  C   UNL A   1      28.062  29.050  23.059  1.00  0.00     0.116 A 
BRANCH   6  11
ATOM     11  N   UNL A   1      30.852  26.238  24.550  1.00  0.00    -0.325 N 
ATOM     12  O   UNL A   1      30.214  26.104  26.770  1.00  0.00    -0.275 OA
ATOM     13  C   UNL A   1      30.998  25.845  25.859  1.00  0.00     0.226 C 
ATOM     14  H   UNL A   1      31.481  25.835  23.909  1.00  0.00     0.169 HD
BRANCH  13  15
ATOM     15  C   UNL A   1      32.284  25.087  26.183  1.00  0.00     0.122 C 
BRANCH  15  16
ATOM     16  C   UNL A   1      33.198  24.672  25.031  1.00  0.00     0.140 C 
BRANCH  16  17
ATOM     17  N   UNL A   1      33.105  23.320  24.467  1.00  0.00    -0.268 N 
ATOM     18  C   UNL A   1      32.078  22.842  23.697  1.00  0.00     0.293 C 
ATOM     19  C   UNL A   1      34.140  22.430  24.705  1.00  0.00     0.268 C 
ATOM     20  O   UNL A   1      31.111  23.456  23.289  1.00  0.00    -0.261 OA
ATOM     21  S   UNL A   1      32.289  21.133  23.385  1.00  0.00    -0.022 SA
ATOM     22  C   UNL A   1      33.735  21.049  24.305  1.00  0.00     0.083 C 
ATOM     23  O   UNL A   1      35.193  22.695  25.268  1.00  0.00    -0.268 OA
ATOM     24  C   UNL A   1      34.326  19.972  24.851  1.00  0.00     0.029 C 
BRANCH  24  25
ATOM     25  C   UNL A   1      33.819  18.586  24.850  1.00  0.00    -0.024 A 
ATOM     26  C   UNL A   1      32.788  18.155  25.692  1.00  0.00     0.011 A 
ATOM     27  C   UNL A   1      34.417  17.652  23.982  1.00  0.00     0.011 A 
ATOM     28  C   UNL A   1      32.409  16.810  25.716  1.00  0.00     0.040 A 
ATOM     29  C   UNL A   1      34.031  16.309  24.001  1.00  0.00     0.040 A 
ATOM     30  C   UNL A   1      33.035  15.900  24.876  1.00  0.00     0.123 A 
ATOM     31  F   UNL A   1      32.666  14.614  24.908  1.00  0.00    -0.207 F 
ENDBRANCH  24  25
ENDBRANCH  16  17
ENDBRANCH  15  16
ENDBRANCH  13  15
ENDBRANCH   6  11
BRANCH  10  32
ATOM     32  O   UNL A   1      27.216  29.999  22.574  1.00  0.00    -0.508 OA
ATOM     33  H   UNL A   1      27.552  30.710  22.064  1.00  0.00     0.293 HD
ENDBRANCH  10  32
ENDBRANCH   3   5
ENDBRANCH   2   3
ENDBRANCH   1   2
BRANCH   1  34
ATOM     34  C   UNL A   1      33.435  30.701  26.521  1.00  0.00     0.275 C 
BRANCH  34  35
ATOM     35  O   UNL A   1      33.288  31.319  27.797  1.00  0.00    -0.458 OA
BRANCH  35  36
ATOM     36  C   UNL A   1      34.073  32.407  27.949  1.00  0.00     0.338 C 
ATOM     37  O   UNL A   1      33.745  33.580  27.918  1.00  0.00    -0.246 OA
BRANCH  36  38
ATOM     38  C   UNL A   1      35.393  31.950  28.354  1.00  0.00     0.060 A 
ATOM     39  C   UNL A   1      35.485  30.659  28.863  1.00  0.00     0.016 A 
ATOM     40  C   UNL A   1      36.488  32.802  28.333  1.00  0.00     0.016 A 
ATOM     41  C   UNL A   1      36.648  30.236  29.477  1.00  0.00     0.010 A 
ATOM     42  C   UNL A   1      37.691  32.338  28.854  1.00  0.00     0.010 A 
ATOM     43  C   UNL A   1      37.768  31.069  29.462  1.00  0.00    -0.014 A 
BRANCH  43  44
ATOM     44  C   UNL A   1      39.033  30.629  30.085  1.00  0.00     0.031 A 
ATOM     45  C   UNL A   1      39.872  29.602  29.387  1.00  0.00     0.074 A 
ATOM     46  C   UNL A   1      39.377  31.111  31.294  1.00  0.00     0.049 A 
ATOM     47  N   UNL A   1      40.850  28.880  29.861  1.00  0.00    -0.248 NA
ATOM     48  C   UNL A   1      39.550  29.328  27.975  1.00  0.00     0.031 C 
ATOM     49  C   UNL A   1      38.648  32.144  32.036  1.00  0.00     0.029 A 
ATOM     50  N   UNL A   1      40.410  30.771  32.128  1.00  0.00    -0.354 N 
ATOM     51  C   UNL A   1      41.208  28.014  28.837  1.00  0.00     0.074 A 
ATOM     52  C   UNL A   1      40.352  28.305  27.709  1.00  0.00     0.031 C 
ATOM     53  C   UNL A   1      39.249  32.348  33.215  1.00  0.00     0.029 A 
ATOM     54  C   UNL A   1      40.342  31.396  33.351  1.00  0.00     0.049 A 
ATOM     55  H   UNL A   1      41.126  30.144  31.878  1.00  0.00     0.167 HD
ATOM     56  C   UNL A   1      42.167  27.060  28.852  1.00  0.00     0.034 A 
ATOM     57  C   UNL A   1      41.039  31.180  34.481  1.00  0.00     0.034 A 
ATOM     58  C   UNL A   1      43.031  26.828  29.979  1.00  0.00     0.049 A 
ATOM     59  C   UNL A   1      42.090  30.111  34.473  1.00  0.00     0.074 A 
ATOM     60  C   UNL A   1      44.061  25.914  30.097  1.00  0.00     0.029 A 
ATOM     61  N   UNL A   1      42.968  27.521  31.179  1.00  0.00    -0.354 N 
ATOM     62  N   UNL A   1      42.436  29.307  33.497  1.00  0.00    -0.248 NA
ATOM     63  C   UNL A   1      42.861  29.930  35.709  1.00  0.00     0.031 C 
ATOM     64  C   UNL A   1      44.599  26.033  31.381  1.00  0.00     0.029 A 
ATOM     65  C   UNL A   1      43.939  27.055  32.046  1.00  0.00     0.049 A 
ATOM     66  H   UNL A   1      42.327  28.240  31.383  1.00  0.00     0.167 HD
ATOM     67  C   UNL A   1      43.489  28.547  33.986  1.00  0.00     0.074 A 
ATOM     68  C   UNL A   1      43.732  29.001  35.342  1.00  0.00     0.031 C 
ATOM     69  C   UNL A   1      44.186  27.557  33.375  1.00  0.00     0.034 A 
BRANCH  56  70
ATOM     70  C   UNL A   1      42.342  26.201  27.626  1.00  0.00     0.023 A 
ATOM     71  C   UNL A   1      43.078  26.682  26.525  1.00  0.00     0.012 A 
ATOM     72  C   UNL A   1      41.850  24.880  27.604  1.00  0.00     0.148 A 
ATOM     73  C   UNL A   1      43.303  25.870  25.413  1.00  0.00     0.002 A 
ATOM     74  C   UNL A   1      42.123  24.060  26.515  1.00  0.00     0.091 A 
ATOM     75  F   UNL A   1      41.129  24.449  28.649  1.00  0.00    -0.205 F 
ATOM     76  C   UNL A   1      42.839  24.557  25.415  1.00  0.00     0.022 A 
BRANCH  74  77
ATOM     77  S   UNL A   1      41.648  22.329  26.459  1.00  0.00     0.127 S 
ATOM     78  O   UNL A   1      42.190  21.834  27.725  1.00  0.00    -0.237 OA
ATOM     79  O   UNL A   1      40.189  22.414  26.413  1.00  0.00    -0.237 OA
ATOM     80  O   UNL A   1      42.267  21.777  25.263  1.00  0.00    -0.744 OA
ENDBRANCH  74  77
ENDBRANCH  56  70
BRANCH  57  81
ATOM     81  C   UNL A   1      40.759  32.011  35.685  1.00  0.00     0.023 A 
ATOM     82  C   UNL A   1      41.628  33.070  36.008  1.00  0.00     0.012 A 
ATOM     83  C   UNL A   1      39.593  31.819  36.455  1.00  0.00     0.148 A 
ATOM     84  C   UNL A   1      41.349  33.914  37.083  1.00  0.00     0.002 A 
ATOM     85  C   UNL A   1      39.290  32.702  37.485  1.00  0.00     0.091 A 
ATOM     86  F   UNL A   1      38.782  30.800  36.136  1.00  0.00    -0.205 F 
ATOM     87  C   UNL A   1      40.175  33.741  37.810  1.00  0.00     0.022 A 
BRANCH  85  88
ATOM     88  S   UNL A   1      37.732  32.648  38.377  1.00  0.00     0.127 S 
ATOM     89  O   UNL A   1      37.800  31.337  39.018  1.00  0.00    -0.237 OA
ATOM     90  O   UNL A   1      37.867  33.786  39.287  1.00  0.00    -0.237 OA
ATOM     91  O   UNL A   1      36.691  32.803  37.369  1.00  0.00    -0.744 OA
ENDBRANCH  85  88
ENDBRANCH  57  81
BRANCH  69  92
ATOM     92  C   UNL A   1      45.317  26.931  34.146  1.00  0.00     0.023 A 
ATOM     93  C   UNL A   1      46.563  27.580  34.227  1.00  0.00     0.012 A 
ATOM     94  C   UNL A   1      45.108  25.735  34.861  1.00  0.00     0.148 A 
ATOM     95  C   UNL A   1      47.598  27.030  34.980  1.00  0.00     0.002 A 
ATOM     96  C   UNL A   1      46.123  25.225  35.658  1.00  0.00     0.091 A 
ATOM     97  F   UNL A   1      43.918  25.124  34.753  1.00  0.00    -0.205 F 
ATOM     98  C   UNL A   1      47.373  25.862  35.706  1.00  0.00     0.022 A 
BRANCH  96  99
ATOM     99  S   UNL A   1      45.885  23.793  36.715  1.00  0.00     0.127 S 
ATOM    100  O   UNL A   1      45.315  22.825  35.779  1.00  0.00    -0.237 OA
ATOM    101  O   UNL A   1      47.251  23.496  37.144  1.00  0.00    -0.237 OA
ATOM    102  O   UNL A   1      44.996  24.225  37.784  1.00  0.00    -0.744 OA
ENDBRANCH  96  99
ENDBRANCH  69  92
ENDBRANCH  43  44
ENDBRANCH  36  38
ENDBRANCH  35  36
ENDBRANCH  34  35
ENDBRANCH   1  34
TORSDOF 20
ENDMDL
MODEL 2
REMARK VINA RESULT:     -12.5      5.285     10.968
REMARK SMILES O=C(CCN1C(=O)S/C(=C\c2ccc(F)cc2)C1=O)Nc1ccc(O)cc1C(=O)OCCOC(=O)c1ccc(-c2c3nc(c(-c4cccc(S(=O)(=O)[O-])c4F)c4ccc([nH]4)c(-c4cccc(S(=O)(=O)[O-])c4F)c4nc(c(-c5cccc(S(=O)(=O)[O-])c5F)c5ccc2[nH]5)C=C4)C=C3)cc1
REMARK SMILES IDX 31 1 30 2 28 3 29 4 27 5 21 6 22 7 23 8 26 9 24 10 20 11
REMARK SMILES IDX 1 12 2 13 3 15 4 16 5 17 6 18 18 19 7 20 8 21 9 22 19 23
REMARK SMILES IDX 10 24 11 25 12 26 17 27 13 28 16 29 14 30 15 31 25 32 32 34
REMARK SMILES IDX 33 35 34 36 35 37 36 38 37 39 98 40 38 41 97 42 39 43 40 44
REMARK SMILES IDX 41 45 91 46 42 47 96 48 90 49 92 50 43 51 95 52 89 53 88 54
REMARK SMILES IDX 44 56 76 57 56 58 75 59 57 60 60 61 74 62 93 63 58 64 59 65
REMARK SMILES IDX 73 67 94 68 61 69 45 70 46 71 54 72 47 73 49 74 55 75 48 76
REMARK SMILES IDX 50 77 51 78 52 79 53 80 77 81 78 82 86 83 79 84 81 85 87 86
REMARK SMILES IDX 80 87 82 88 83 89 84 90 85 91 62 92 63 93 71 94 64 95 66 96
REMARK SMILES IDX 72 97 65 98 67 99 68 100 69 101 70 102
REMARK H PARENT 20 14 25 33 92 55 60 66
REMARK Flexibility Score: inf
ROOT
ATOM      1  C   UNL A   1      36.903  21.425  24.574  1.00  0.00     0.275 C 
ENDROOT
BRANCH   1   2
ATOM      2  O   UNL A   1      36.192  20.235  24.972  1.00  0.00    -0.458 OA
BRANCH   2   3
ATOM      3  C   UNL A   1      34.847  20.352  25.137  1.00  0.00     0.340 C 
ATOM      4  O   UNL A   1      34.265  21.286  25.658  1.00  0.00    -0.246 OA
BRANCH   3   5
ATOM      5  C   UNL A   1      34.150  19.186  24.536  1.00  0.00     0.087 A 
ATOM      6  C   UNL A   1      32.849  19.263  23.999  1.00  0.00     0.056 A 
ATOM      7  C   UNL A   1      32.279  18.091  23.482  1.00  0.00     0.031 A 
ATOM      8  C   UNL A   1      32.967  16.869  23.519  1.00  0.00     0.048 A 
ATOM      9  C   UNL A   1      34.860  17.975  24.503  1.00  0.00     0.064 A 
ATOM     10  C   UNL A   1      34.250  16.822  24.037  1.00  0.00     0.116 A 
BRANCH   6  11
ATOM     11  N   UNL A   1      32.201  20.524  23.929  1.00  0.00    -0.325 N 
ATOM     12  O   UNL A   1      32.073  20.918  21.653  1.00  0.00    -0.275 OA
ATOM     13  C   UNL A   1      31.934  21.287  22.818  1.00  0.00     0.226 C 
ATOM     14  H   UNL A   1      31.906  20.902  24.789  1.00  0.00     0.169 HD
BRANCH  13  15
ATOM     15  C   UNL A   1      31.501  22.726  23.090  1.00  0.00     0.122 C 
BRANCH  15  16
ATOM     16  C   UNL A   1      32.571  23.755  23.453  1.00  0.00     0.140 C 
BRANCH  16  17
ATOM     17  N   UNL A   1      32.185  25.128  23.802  1.00  0.00    -0.268 N 
ATOM     18  C   UNL A   1      31.937  25.594  25.065  1.00  0.00     0.293 C 
ATOM     19  C   UNL A   1      32.068  26.062  22.785  1.00  0.00     0.268 C 
ATOM     20  O   UNL A   1      32.055  24.990  26.114  1.00  0.00    -0.261 OA
ATOM     21  S   UNL A   1      31.342  27.239  25.007  1.00  0.00    -0.022 SA
ATOM     22  C   UNL A   1      31.399  27.297  23.293  1.00  0.00     0.083 C 
ATOM     23  O   UNL A   1      32.357  25.878  21.611  1.00  0.00    -0.268 OA
ATOM     24  C   UNL A   1      30.750  28.123  22.455  1.00  0.00     0.029 C 
BRANCH  24  25
ATOM     25  C   UNL A   1      29.755  29.152  22.817  1.00  0.00    -0.024 A 
ATOM     26  C   UNL A   1      30.095  30.330  23.492  1.00  0.00     0.011 A 
ATOM     27  C   UNL A   1      28.404  28.927  22.490  1.00  0.00     0.011 A 
ATOM     28  C   UNL A   1      29.102  31.228  23.893  1.00  0.00     0.040 A 
ATOM     29  C   UNL A   1      27.413  29.830  22.884  1.00  0.00     0.040 A 
ATOM     30  C   UNL A   1      27.772  30.969  23.591  1.00  0.00     0.123 A 
ATOM     31  F   UNL A   1      26.828  31.834  23.980  1.00  0.00    -0.207 F 
ENDBRANCH  24  25
ENDBRANCH  16  17
ENDBRANCH  15  16
ENDBRANCH  13  15
ENDBRANCH   6  11
BRANCH  10  32
ATOM     32  O   UNL A   1      34.957  15.662  24.110  1.00  0.00    -0.508 OA
ATOM     33  H   UNL A   1      35.660  15.502  23.511  1.00  0.00     0.293 HD
ENDBRANCH  10  32
ENDBRANCH   3   5
ENDBRANCH   2   3
ENDBRANCH   1   2
BRANCH   1  34
ATOM     34  C   UNL A   1      37.634  22.133  25.709  1.00  0.00     0.275 C 
BRANCH  34  35
ATOM     35  O   UNL A   1      39.040  22.091  25.484  1.00  0.00    -0.458 OA
BRANCH  35  36
ATOM     36  C   UNL A   1      39.740  21.753  26.587  1.00  0.00     0.338 C 
ATOM     37  O   UNL A   1      40.062  20.640  26.962  1.00  0.00    -0.246 OA
BRANCH  36  38
ATOM     38  C   UNL A   1      40.235  22.981  27.193  1.00  0.00     0.060 A 
ATOM     39  C   UNL A   1      39.786  24.178  26.648  1.00  0.00     0.016 A 
ATOM     40  C   UNL A   1      41.191  22.953  28.197  1.00  0.00     0.016 A 
ATOM     41  C   UNL A   1      40.378  25.371  27.011  1.00  0.00     0.010 A 
ATOM     42  C   UNL A   1      41.713  24.164  28.641  1.00  0.00     0.010 A 
ATOM     43  C   UNL A   1      41.338  25.375  28.025  1.00  0.00    -0.014 A 
BRANCH  43  44
ATOM     44  C   UNL A   1      41.965  26.642  28.455  1.00  0.00     0.031 A 
ATOM     45  C   UNL A   1      41.130  27.670  29.155  1.00  0.00     0.074 A 
ATOM     46  C   UNL A   1      43.257  26.874  28.154  1.00  0.00     0.049 A 
ATOM     47  N   UNL A   1      41.387  28.931  29.368  1.00  0.00    -0.248 NA
ATOM     48  C   UNL A   1      39.816  27.229  29.659  1.00  0.00     0.031 C 
ATOM     49  C   UNL A   1      44.165  25.919  27.511  1.00  0.00     0.029 A 
ATOM     50  N   UNL A   1      44.022  27.999  28.319  1.00  0.00    -0.354 N 
ATOM     51  C   UNL A   1      40.244  29.454  29.956  1.00  0.00     0.074 A 
ATOM     52  C   UNL A   1      39.292  28.373  30.079  1.00  0.00     0.031 C 
ATOM     53  C   UNL A   1      45.359  26.498  27.330  1.00  0.00     0.029 A 
ATOM     54  C   UNL A   1      45.270  27.889  27.752  1.00  0.00     0.049 A 
ATOM     55  H   UNL A   1      43.710  28.803  28.795  1.00  0.00     0.167 HD
ATOM     56  C   UNL A   1      40.019  30.728  30.349  1.00  0.00     0.034 A 
ATOM     57  C   UNL A   1      46.214  28.821  27.534  1.00  0.00     0.034 A 
ATOM     58  C   UNL A   1      41.008  31.769  30.252  1.00  0.00     0.049 A 
ATOM     59  C   UNL A   1      45.936  30.228  27.972  1.00  0.00     0.074 A 
ATOM     60  C   UNL A   1      40.907  33.089  30.650  1.00  0.00     0.029 A 
ATOM     61  N   UNL A   1      42.280  31.604  29.723  1.00  0.00    -0.354 N 
ATOM     62  N   UNL A   1      44.860  30.714  28.543  1.00  0.00    -0.248 NA
ATOM     63  C   UNL A   1      47.004  31.212  27.758  1.00  0.00     0.031 C 
ATOM     64  C   UNL A   1      42.107  33.730  30.332  1.00  0.00     0.029 A 
ATOM     65  C   UNL A   1      42.975  32.798  29.783  1.00  0.00     0.049 A 
ATOM     66  H   UNL A   1      42.636  30.761  29.360  1.00  0.00     0.167 HD
ATOM     67  C   UNL A   1      45.131  32.052  28.790  1.00  0.00     0.074 A 
ATOM     68  C   UNL A   1      46.482  32.293  28.319  1.00  0.00     0.031 C 
ATOM     69  C   UNL A   1      44.335  32.998  29.346  1.00  0.00     0.034 A 
BRANCH  56  70
ATOM     70  C   UNL A   1      38.669  31.074  30.922  1.00  0.00     0.023 A 
ATOM     71  C   UNL A   1      38.432  30.938  32.304  1.00  0.00     0.012 A 
ATOM     72  C   UNL A   1      37.662  31.618  30.099  1.00  0.00     0.148 A 
ATOM     73  C   UNL A   1      37.208  31.320  32.855  1.00  0.00     0.002 A 
ATOM     74  C   UNL A   1      36.465  32.043  30.663  1.00  0.00     0.091 A 
ATOM     75  F   UNL A   1      37.896  31.714  28.783  1.00  0.00    -0.205 F 
ATOM     76  C   UNL A   1      36.232  31.884  32.038  1.00  0.00     0.022 A 
BRANCH  74  77
ATOM     77  S   UNL A   1      35.182  32.866  29.713  1.00  0.00     0.127 S 
ATOM     78  O   UNL A   1      34.799  31.819  28.765  1.00  0.00    -0.237 OA
ATOM     79  O   UNL A   1      34.180  33.155  30.739  1.00  0.00    -0.237 OA
ATOM     80  O   UNL A   1      35.806  34.040  29.120  1.00  0.00    -0.744 OA
ENDBRANCH  74  77
ENDBRANCH  56  70
BRANCH  57  81
ATOM     81  C   UNL A   1      47.497  28.430  26.887  1.00  0.00     0.023 A 
ATOM     82  C   UNL A   1      48.632  28.207  27.688  1.00  0.00     0.012 A 
ATOM     83  C   UNL A   1      47.575  28.184  25.500  1.00  0.00     0.148 A 
ATOM     84  C   UNL A   1      49.826  27.762  27.120  1.00  0.00     0.002 A 
ATOM     85  C   UNL A   1      48.748  27.682  24.951  1.00  0.00     0.091 A 
ATOM     86  F   UNL A   1      46.484  28.408  24.754  1.00  0.00    -0.205 F 
ATOM     87  C   UNL A   1      49.880  27.484  25.756  1.00  0.00     0.022 A 
BRANCH  85  88
ATOM     88  S   UNL A   1      48.865  27.154  23.237  1.00  0.00     0.127 S 
ATOM     89  O   UNL A   1      50.305  26.958  23.083  1.00  0.00    -0.237 OA
ATOM     90  O   UNL A   1      48.073  25.924  23.247  1.00  0.00    -0.237 OA
ATOM     91  O   UNL A   1      48.290  28.236  22.449  1.00  0.00    -0.744 OA
ENDBRANCH  85  88
ENDBRANCH  57  81
BRANCH  69  92
ATOM     92  C   UNL A   1      44.919  34.373  29.528  1.00  0.00     0.023 A 
ATOM     93  C   UNL A   1      45.609  34.697  30.711  1.00  0.00     0.012 A 
ATOM     94  C   UNL A   1      44.852  35.314  28.482  1.00  0.00     0.148 A 
ATOM     95  C   UNL A   1      46.195  35.952  30.865  1.00  0.00     0.002 A 
ATOM     96  C   UNL A   1      45.490  36.538  28.618  1.00  0.00     0.091 A 
ATOM     97  F   UNL A   1      44.172  34.989  27.372  1.00  0.00    -0.205 F 
ATOM     98  C   UNL A   1      46.148  36.866  29.814  1.00  0.00     0.022 A 
BRANCH  96  99
ATOM     99  S   UNL A   1      45.579  37.728  27.276  1.00  0.00     0.127 S 
ATOM    100  O   UNL A   1      44.164  37.947  26.979  1.00  0.00    -0.237 OA
ATOM    101  O   UNL A   1      46.252  38.860  27.910  1.00  0.00    -0.237 OA
ATOM    102  O   UNL A   1      46.346  37.084  26.217  1.00  0.00    -0.744 OA
ENDBRANCH  96  99
ENDBRANCH  69  92
ENDBRANCH  43  44
ENDBRANCH  36  38
ENDBRANCH  35  36
ENDBRANCH  34  35
ENDBRANCH   1  34
TORSDOF 20
ENDMDL
MODEL 3
REMARK VINA RESULT:     -12.5      1.651      2.359
REMARK SMILES O=C(CCN1C(=O)S/C(=C\c2ccc(F)cc2)C1=O)Nc1ccc(O)cc1C(=O)OCCOC(=O)c1ccc(-c2c3nc(c(-c4cccc(S(=O)(=O)[O-])c4F)c4ccc([nH]4)c(-c4cccc(S(=O)(=O)[O-])c4F)c4nc(c(-c5cccc(S(=O)(=O)[O-])c5F)c5ccc2[nH]5)C=C4)C=C3)cc1
REMARK SMILES IDX 31 1 30 2 28 3 29 4 27 5 21 6 22 7 23 8 26 9 24 10 20 11
REMARK SMILES IDX 1 12 2 13 3 15 4 16 5 17 6 18 18 19 7 20 8 21 9 22 19 23
REMARK SMILES IDX 10 24 11 25 12 26 17 27 13 28 16 29 14 30 15 31 25 32 32 34
REMARK SMILES IDX 33 35 34 36 35 37 36 38 37 39 98 40 38 41 97 42 39 43 40 44
REMARK SMILES IDX 41 45 91 46 42 47 96 48 90 49 92 50 43 51 95 52 89 53 88 54
REMARK SMILES IDX 44 56 76 57 56 58 75 59 57 60 60 61 74 62 93 63 58 64 59 65
REMARK SMILES IDX 73 67 94 68 61 69 45 70 46 71 54 72 47 73 49 74 55 75 48 76
REMARK SMILES IDX 50 77 51 78 52 79 53 80 77 81 78 82 86 83 79 84 81 85 87 86
REMARK SMILES IDX 80 87 82 88 83 89 84 90 85 91 62 92 63 93 71 94 64 95 66 96
REMARK SMILES IDX 72 97 65 98 67 99 68 100 69 101 70 102
REMARK H PARENT 20 14 25 33 92 55 60 66
REMARK Flexibility Score: inf
ROOT
ATOM      1  C   UNL A   1      31.635  27.544  26.162  1.00  0.00     0.275 C 
ENDROOT
BRANCH   1   2
ATOM      2  O   UNL A   1      30.331  26.975  25.928  1.00  0.00    -0.458 OA
BRANCH   2   3
ATOM      3  C   UNL A   1      30.096  26.471  24.687  1.00  0.00     0.340 C 
ATOM      4  O   UNL A   1      30.007  25.292  24.396  1.00  0.00    -0.246 OA
BRANCH   3   5
ATOM      5  C   UNL A   1      29.903  27.572  23.709  1.00  0.00     0.087 A 
ATOM      6  C   UNL A   1      30.938  28.058  22.886  1.00  0.00     0.056 A 
ATOM      7  C   UNL A   1      30.647  29.120  22.018  1.00  0.00     0.031 A 
ATOM      8  C   UNL A   1      29.372  29.705  21.985  1.00  0.00     0.048 A 
ATOM      9  C   UNL A   1      28.610  28.114  23.618  1.00  0.00     0.064 A 
ATOM     10  C   UNL A   1      28.367  29.199  22.792  1.00  0.00     0.116 A 
BRANCH   6  11
ATOM     11  N   UNL A   1      32.201  27.410  22.905  1.00  0.00    -0.325 N 
ATOM     12  O   UNL A   1      31.964  25.758  21.303  1.00  0.00    -0.275 OA
ATOM     13  C   UNL A   1      32.602  26.297  22.207  1.00  0.00     0.226 C 
ATOM     14  H   UNL A   1      32.879  27.811  23.498  1.00  0.00     0.169 HD
BRANCH  13  15
ATOM     15  C   UNL A   1      33.914  25.663  22.665  1.00  0.00     0.122 C 
BRANCH  15  16
ATOM     16  C   UNL A   1      34.233  24.239  22.214  1.00  0.00     0.140 C 
BRANCH  16  17
ATOM     17  N   UNL A   1      34.135  23.125  23.165  1.00  0.00    -0.268 N 
ATOM     18  C   UNL A   1      35.092  22.763  24.076  1.00  0.00     0.293 C 
ATOM     19  C   UNL A   1      32.979  22.362  23.176  1.00  0.00     0.268 C 
ATOM     20  O   UNL A   1      36.145  23.326  24.308  1.00  0.00    -0.261 OA
ATOM     21  S   UNL A   1      34.638  21.279  24.885  1.00  0.00    -0.022 SA
ATOM     22  C   UNL A   1      33.183  21.126  23.990  1.00  0.00     0.083 C 
ATOM     23  O   UNL A   1      31.968  22.591  22.526  1.00  0.00    -0.268 OA
ATOM     24  C   UNL A   1      32.433  20.030  23.777  1.00  0.00     0.029 C 
BRANCH  24  25
ATOM     25  C   UNL A   1      32.732  18.653  24.216  1.00  0.00    -0.024 A 
ATOM     26  C   UNL A   1      32.534  18.217  25.531  1.00  0.00     0.011 A 
ATOM     27  C   UNL A   1      33.261  17.747  23.277  1.00  0.00     0.011 A 
ATOM     28  C   UNL A   1      32.920  16.930  25.916  1.00  0.00     0.040 A 
ATOM     29  C   UNL A   1      33.639  16.458  23.661  1.00  0.00     0.040 A 
ATOM     30  C   UNL A   1      33.472  16.065  24.981  1.00  0.00     0.123 A 
ATOM     31  F   UNL A   1      33.840  14.835  25.360  1.00  0.00    -0.207 F 
ENDBRANCH  24  25
ENDBRANCH  16  17
ENDBRANCH  15  16
ENDBRANCH  13  15
ENDBRANCH   6  11
BRANCH  10  32
ATOM     32  O   UNL A   1      27.117  29.737  22.811  1.00  0.00    -0.508 OA
ATOM     33  H   UNL A   1      26.594  29.734  22.033  1.00  0.00     0.293 HD
ENDBRANCH  10  32
ENDBRANCH   3   5
ENDBRANCH   2   3
ENDBRANCH   1   2
BRANCH   1  34
ATOM     34  C   UNL A   1      31.628  29.039  26.456  1.00  0.00     0.275 C 
BRANCH  34  35
ATOM     35  O   UNL A   1      32.898  29.603  26.143  1.00  0.00    -0.458 OA
BRANCH  35  36
ATOM     36  C   UNL A   1      33.107  30.795  26.742  1.00  0.00     0.338 C 
ATOM     37  O   UNL A   1      32.384  31.775  26.737  1.00  0.00    -0.246 OA
BRANCH  36  38
ATOM     38  C   UNL A   1      34.289  30.670  27.581  1.00  0.00     0.060 A 
ATOM     39  C   UNL A   1      35.065  31.810  27.752  1.00  0.00     0.016 A 
ATOM     40  C   UNL A   1      34.678  29.442  28.099  1.00  0.00     0.016 A 
ATOM     41  C   UNL A   1      36.312  31.720  28.339  1.00  0.00     0.010 A 
ATOM     42  C   UNL A   1      35.886  29.372  28.785  1.00  0.00     0.010 A 
ATOM     43  C   UNL A   1      36.726  30.500  28.876  1.00  0.00    -0.014 A 
BRANCH  43  44
ATOM     44  C   UNL A   1      38.043  30.383  29.536  1.00  0.00     0.031 A 
ATOM     45  C   UNL A   1      39.109  29.547  28.896  1.00  0.00     0.074 A 
ATOM     46  C   UNL A   1      38.239  30.977  30.728  1.00  0.00     0.049 A 
ATOM     47  N   UNL A   1      40.212  29.084  29.415  1.00  0.00    -0.248 NA
ATOM     48  C   UNL A   1      38.891  29.152  27.492  1.00  0.00     0.031 C 
ATOM     49  C   UNL A   1      37.277  31.845  31.413  1.00  0.00     0.029 A 
ATOM     50  N   UNL A   1      39.302  30.913  31.591  1.00  0.00    -0.354 N 
ATOM     51  C   UNL A   1      40.782  28.283  28.435  1.00  0.00     0.074 A 
ATOM     52  C   UNL A   1      39.910  28.329  27.283  1.00  0.00     0.031 C 
ATOM     53  C   UNL A   1      37.788  32.227  32.591  1.00  0.00     0.029 A 
ATOM     54  C   UNL A   1      39.064  31.554  32.784  1.00  0.00     0.049 A 
ATOM     55  H   UNL A   1      40.147  30.456  31.379  1.00  0.00     0.167 HD
ATOM     56  C   UNL A   1      41.931  27.573  28.505  1.00  0.00     0.034 A 
ATOM     57  C   UNL A   1      39.764  31.546  33.933  1.00  0.00     0.034 A 
ATOM     58  C   UNL A   1      42.798  27.588  29.653  1.00  0.00     0.049 A 
ATOM     59  C   UNL A   1      41.030  30.744  33.987  1.00  0.00     0.074 A 
ATOM     60  C   UNL A   1      44.005  26.936  29.827  1.00  0.00     0.029 A 
ATOM     61  N   UNL A   1      42.550  28.295  30.822  1.00  0.00    -0.354 N 
ATOM     62  N   UNL A   1      41.573  30.002  33.052  1.00  0.00    -0.248 NA
ATOM     63  C   UNL A   1      41.791  30.791  35.241  1.00  0.00     0.031 C 
ATOM     64  C   UNL A   1      44.471  27.224  31.112  1.00  0.00     0.029 A 
ATOM     65  C   UNL A   1      43.581  28.095  31.722  1.00  0.00     0.049 A 
ATOM     66  H   UNL A   1      41.758  28.857  30.985  1.00  0.00     0.167 HD
ATOM     67  C   UNL A   1      42.758  29.520  33.589  1.00  0.00     0.074 A 
ATOM     68  C   UNL A   1      42.859  30.070  34.928  1.00  0.00     0.031 C 
ATOM     69  C   UNL A   1      43.675  28.692  33.032  1.00  0.00     0.034 A 
BRANCH  56  70
ATOM     70  C   UNL A   1      42.325  26.729  27.321  1.00  0.00     0.023 A 
ATOM     71  C   UNL A   1      43.104  27.284  26.285  1.00  0.00     0.012 A 
ATOM     72  C   UNL A   1      41.997  25.359  27.279  1.00  0.00     0.148 A 
ATOM     73  C   UNL A   1      43.532  26.494  25.218  1.00  0.00     0.002 A 
ATOM     74  C   UNL A   1      42.471  24.567  26.239  1.00  0.00     0.091 A 
ATOM     75  F   UNL A   1      41.234  24.855  28.259  1.00  0.00    -0.205 F 
ATOM     76  C   UNL A   1      43.228  25.135  25.203  1.00  0.00     0.022 A 
BRANCH  74  77
ATOM     77  S   UNL A   1      42.211  22.791  26.176  1.00  0.00     0.127 S 
ATOM     78  O   UNL A   1      42.854  22.444  24.908  1.00  0.00    -0.237 OA
ATOM     79  O   UNL A   1      42.928  22.335  27.367  1.00  0.00    -0.237 OA
ATOM     80  O   UNL A   1      40.770  22.590  26.214  1.00  0.00    -0.744 OA
ENDBRANCH  74  77
ENDBRANCH  56  70
BRANCH  57  81
ATOM     81  C   UNL A   1      39.275  32.337  35.096  1.00  0.00     0.023 A 
ATOM     82  C   UNL A   1      38.424  31.727  36.035  1.00  0.00     0.012 A 
ATOM     83  C   UNL A   1      39.722  33.655  35.327  1.00  0.00     0.148 A 
ATOM     84  C   UNL A   1      38.014  32.417  37.176  1.00  0.00     0.002 A 
ATOM     85  C   UNL A   1      39.360  34.314  36.496  1.00  0.00     0.091 A 
ATOM     86  F   UNL A   1      40.527  34.221  34.417  1.00  0.00    -0.205 F 
ATOM     87  C   UNL A   1      38.494  33.702  37.415  1.00  0.00     0.022 A 
BRANCH  85  88
ATOM     88  S   UNL A   1      40.046  35.909  36.959  1.00  0.00     0.127 S 
ATOM     89  O   UNL A   1      41.466  35.595  37.093  1.00  0.00    -0.237 OA
ATOM     90  O   UNL A   1      39.704  36.731  35.798  1.00  0.00    -0.237 OA
ATOM     91  O   UNL A   1      39.367  36.291  38.190  1.00  0.00    -0.744 OA
ENDBRANCH  85  88
ENDBRANCH  57  81
BRANCH  69  92
ATOM     92  C   UNL A   1      44.899  28.369  33.846  1.00  0.00     0.023 A 
ATOM     93  C   UNL A   1      46.024  29.213  33.797  1.00  0.00     0.012 A 
ATOM     94  C   UNL A   1      44.894  27.268  34.725  1.00  0.00     0.148 A 
ATOM     95  C   UNL A   1      47.142  28.947  34.586  1.00  0.00     0.002 A 
ATOM     96  C   UNL A   1      45.985  27.045  35.552  1.00  0.00     0.091 A 
ATOM     97  F   UNL A   1      43.818  26.467  34.740  1.00  0.00    -0.205 F 
ATOM     98  C   UNL A   1      47.116  27.872  35.473  1.00  0.00     0.022 A 
BRANCH  96  99
ATOM     99  S   UNL A   1      45.992  25.757  36.804  1.00  0.00     0.127 S 
ATOM    100  O   UNL A   1      45.496  24.607  36.049  1.00  0.00    -0.237 OA
ATOM    101  O   UNL A   1      47.407  25.686  37.167  1.00  0.00    -0.237 OA
ATOM    102  O   UNL A   1      45.117  26.227  37.870  1.00  0.00    -0.744 OA
ENDBRANCH  96  99
ENDBRANCH  69  92
ENDBRANCH  43  44
ENDBRANCH  36  38
ENDBRANCH  35  36
ENDBRANCH  34  35
ENDBRANCH   1  34
TORSDOF 20
ENDMDL
