MODEL 1
REMARK VINA RESULT:     -11.1      0.000      0.000
REMARK SMILES O=C(CCCCCN1C(=O)[C@@H]2CC=CC[C@H]2C1=O)OCCOC(=O)c1ccc(-c2c3nc(c(-c4cccc(S(=O)(=O)[O-])c4F)c4ccc([nH]4)c(-c4cccc(S(=O)(=O)[O-])c4F)c4nc(c(-c5cccc(S(=O)(=O)[O-])c5F)c5ccc2[nH]5)C=C4)C=C3)cc1
REMARK SMILES IDX 20 1 19 2 2 3 1 4 3 5 4 6 5 7 6 8 7 9 8 10 9 11 17 12 10 13
REMARK SMILES IDX 11 14 16 15 18 16 12 17 15 18 13 19 14 20 21 21 22 22 23 23
REMARK SMILES IDX 24 24 25 25 26 26 87 27 27 28 86 29 28 30 29 31 30 32 80 33
REMARK SMILES IDX 31 34 85 35 79 36 81 37 32 38 84 39 78 40 77 41 33 43 65 44
REMARK SMILES IDX 45 45 64 46 46 47 49 48 63 49 82 50 47 51 48 52 62 54 83 55
REMARK SMILES IDX 50 56 34 57 35 58 43 59 36 60 38 61 44 62 37 63 39 64 40 65
REMARK SMILES IDX 41 66 42 67 66 68 67 69 75 70 68 71 70 72 76 73 69 74 71 75
REMARK SMILES IDX 72 76 73 77 74 78 51 79 52 80 60 81 53 82 55 83 61 84 54 85
REMARK SMILES IDX 56 86 57 87 58 88 59 89
REMARK H PARENT 81 42 49 53
REMARK Flexibility Score: inf
ROOT
ATOM      1  C   UNL A   1      31.261  30.072  25.004  1.00  0.00     0.274 C 
ENDROOT
BRANCH   1   2
ATOM      2  O   UNL A   1      30.095  30.273  24.189  1.00  0.00    -0.462 OA
BRANCH   2   3
ATOM      3  C   UNL A   1      30.001  29.504  23.069  1.00  0.00     0.305 C 
ATOM      4  O   UNL A   1      30.234  29.956  21.955  1.00  0.00    -0.252 OA
BRANCH   3   5
ATOM      5  C   UNL A   1      29.439  28.116  23.305  1.00  0.00     0.123 C 
BRANCH   5   6
ATOM      6  C   UNL A   1      30.379  26.981  22.914  1.00  0.00     0.012 C 
BRANCH   6   7
ATOM      7  C   UNL A   1      31.142  26.351  24.081  1.00  0.00     0.002 C 
BRANCH   7   8
ATOM      8  C   UNL A   1      31.304  24.821  24.037  1.00  0.00     0.022 C 
BRANCH   8   9
ATOM      9  C   UNL A   1      31.898  24.165  25.283  1.00  0.00     0.128 C 
BRANCH   9  10
ATOM     10  N   UNL A   1      33.162  23.488  25.079  1.00  0.00    -0.282 N 
ATOM     11  C   UNL A   1      34.356  24.176  25.040  1.00  0.00     0.233 C 
ATOM     12  C   UNL A   1      33.331  22.163  24.748  1.00  0.00     0.233 C 
ATOM     13  O   UNL A   1      34.525  25.375  24.919  1.00  0.00    -0.274 OA
ATOM     14  C   UNL A   1      35.410  23.136  25.237  1.00  0.00     0.095 C 
ATOM     15  C   UNL A   1      34.793  21.955  24.504  1.00  0.00     0.095 C 
ATOM     16  O   UNL A   1      32.475  21.311  24.565  1.00  0.00    -0.274 OA
ATOM     17  C   UNL A   1      36.825  23.346  24.748  1.00  0.00     0.041 C 
ATOM     18  C   UNL A   1      35.429  20.676  25.011  1.00  0.00     0.041 C 
ATOM     19  C   UNL A   1      37.560  22.019  24.836  1.00  0.00    -0.030 C 
ATOM     20  C   UNL A   1      36.936  20.832  24.991  1.00  0.00    -0.030 C 
ENDBRANCH   9  10
ENDBRANCH   8   9
ENDBRANCH   7   8
ENDBRANCH   6   7
ENDBRANCH   5   6
ENDBRANCH   3   5
ENDBRANCH   2   3
ENDBRANCH   1   2
BRANCH   1  21
ATOM     21  C   UNL A   1      31.395  31.114  26.121  1.00  0.00     0.275 C 
BRANCH  21  22
ATOM     22  O   UNL A   1      32.522  30.836  26.967  1.00  0.00    -0.458 OA
BRANCH  22  23
ATOM     23  C   UNL A   1      33.206  31.947  27.353  1.00  0.00     0.338 C 
ATOM     24  O   UNL A   1      32.751  33.070  27.470  1.00  0.00    -0.246 OA
BRANCH  23  25
ATOM     25  C   UNL A   1      34.570  31.577  27.797  1.00  0.00     0.060 A 
ATOM     26  C   UNL A   1      34.832  30.215  27.980  1.00  0.00     0.016 A 
ATOM     27  C   UNL A   1      35.571  32.525  28.034  1.00  0.00     0.016 A 
ATOM     28  C   UNL A   1      36.077  29.799  28.453  1.00  0.00     0.010 A 
ATOM     29  C   UNL A   1      36.820  32.105  28.510  1.00  0.00     0.010 A 
ATOM     30  C   UNL A   1      37.065  30.744  28.759  1.00  0.00    -0.014 A 
BRANCH  30  31
ATOM     31  C   UNL A   1      38.287  30.296  29.472  1.00  0.00     0.031 A 
ATOM     32  C   UNL A   1      38.536  30.787  30.873  1.00  0.00     0.074 A 
ATOM     33  C   UNL A   1      39.145  29.426  28.905  1.00  0.00     0.049 A 
ATOM     34  N   UNL A   1      39.457  30.420  31.725  1.00  0.00    -0.248 NA
ATOM     35  C   UNL A   1      37.622  31.822  31.383  1.00  0.00     0.031 C 
ATOM     36  C   UNL A   1      39.040  28.894  27.548  1.00  0.00     0.029 A 
ATOM     37  N   UNL A   1      40.281  28.843  29.408  1.00  0.00    -0.354 N 
ATOM     38  C   UNL A   1      39.231  31.169  32.873  1.00  0.00     0.074 A 
ATOM     39  C   UNL A   1      38.108  32.039  32.597  1.00  0.00     0.031 C 
ATOM     40  C   UNL A   1      40.083  28.076  27.319  1.00  0.00     0.029 A 
ATOM     41  C   UNL A   1      40.923  28.020  28.515  1.00  0.00     0.049 A 
ATOM     42  H   UNL A   1      40.606  29.001  30.325  1.00  0.00     0.167 HD
ATOM     43  C   UNL A   1      39.874  31.115  34.063  1.00  0.00     0.034 A 
ATOM     44  C   UNL A   1      42.052  27.296  28.651  1.00  0.00     0.034 A 
ATOM     45  C   UNL A   1      40.983  30.248  34.349  1.00  0.00     0.049 A 
ATOM     46  C   UNL A   1      42.760  27.267  29.983  1.00  0.00     0.074 A 
ATOM     47  C   UNL A   1      41.670  30.095  35.540  1.00  0.00     0.029 A 
ATOM     48  N   UNL A   1      41.579  29.399  33.432  1.00  0.00    -0.354 N 
ATOM     49  N   UNL A   1      42.425  27.847  31.112  1.00  0.00    -0.248 NA
ATOM     50  C   UNL A   1      43.977  26.445  30.072  1.00  0.00     0.031 C 
ATOM     51  C   UNL A   1      42.691  29.159  35.340  1.00  0.00     0.029 A 
ATOM     52  C   UNL A   1      42.633  28.724  34.027  1.00  0.00     0.049 A 
ATOM     53  H   UNL A   1      41.295  29.289  32.496  1.00  0.00     0.167 HD
ATOM     54  C   UNL A   1      43.368  27.433  32.048  1.00  0.00     0.074 A 
ATOM     55  C   UNL A   1      44.270  26.531  31.363  1.00  0.00     0.031 C 
ATOM     56  C   UNL A   1      43.488  27.783  33.353  1.00  0.00     0.034 A 
BRANCH  43  57
ATOM     57  C   UNL A   1      39.346  31.979  35.176  1.00  0.00     0.023 A 
ATOM     58  C   UNL A   1      38.386  31.441  36.058  1.00  0.00     0.012 A 
ATOM     59  C   UNL A   1      39.838  33.279  35.392  1.00  0.00     0.148 A 
ATOM     60  C   UNL A   1      37.909  32.193  37.130  1.00  0.00     0.002 A 
ATOM     61  C   UNL A   1      39.382  34.011  36.482  1.00  0.00     0.091 A 
ATOM     62  F   UNL A   1      40.732  33.776  34.526  1.00  0.00    -0.205 F 
ATOM     63  C   UNL A   1      38.414  33.472  37.347  1.00  0.00     0.022 A 
BRANCH  61  64
ATOM     64  S   UNL A   1      40.013  35.643  36.884  1.00  0.00     0.127 S 
ATOM     65  O   UNL A   1      39.289  35.942  38.119  1.00  0.00    -0.237 OA
ATOM     66  O   UNL A   1      41.442  35.387  37.063  1.00  0.00    -0.237 OA
ATOM     67  O   UNL A   1      39.686  36.491  35.747  1.00  0.00    -0.744 OA
ENDBRANCH  61  64
ENDBRANCH  43  57
BRANCH  44  68
ATOM     68  C   UNL A   1      42.560  26.478  27.513  1.00  0.00     0.023 A 
ATOM     69  C   UNL A   1      43.405  27.072  26.554  1.00  0.00     0.012 A 
ATOM     70  C   UNL A   1      42.202  25.125  27.369  1.00  0.00     0.148 A 
ATOM     71  C   UNL A   1      43.851  26.341  25.452  1.00  0.00     0.002 A 
ATOM     72  C   UNL A   1      42.692  24.389  26.295  1.00  0.00     0.091 A 
ATOM     73  F   UNL A   1      41.376  24.583  28.275  1.00  0.00    -0.205 F 
ATOM     74  C   UNL A   1      43.503  24.999  25.327  1.00  0.00     0.022 A 
BRANCH  72  75
ATOM     75  S   UNL A   1      42.384  22.626  26.136  1.00  0.00     0.127 S 
ATOM     76  O   UNL A   1      42.996  22.103  27.355  1.00  0.00    -0.237 OA
ATOM     77  O   UNL A   1      40.922  22.567  26.106  1.00  0.00    -0.237 OA
ATOM     78  O   UNL A   1      43.019  22.242  24.882  1.00  0.00    -0.744 OA
ENDBRANCH  72  75
ENDBRANCH  44  68
BRANCH  56  79
ATOM     79  C   UNL A   1      44.624  27.181  34.139  1.00  0.00     0.023 A 
ATOM     80  C   UNL A   1      45.870  27.838  34.170  1.00  0.00     0.012 A 
ATOM     81  C   UNL A   1      44.442  26.012  34.904  1.00  0.00     0.148 A 
ATOM     82  C   UNL A   1      46.926  27.324  34.922  1.00  0.00     0.002 A 
ATOM     83  C   UNL A   1      45.487  25.529  35.686  1.00  0.00     0.091 A 
ATOM     84  F   UNL A   1      43.258  25.386  34.849  1.00  0.00    -0.205 F 
ATOM     85  C   UNL A   1      46.732  26.178  35.688  1.00  0.00     0.022 A 
BRANCH  83  86
ATOM     86  S   UNL A   1      45.289  24.110  36.772  1.00  0.00     0.127 S 
ATOM     87  O   UNL A   1      44.302  24.602  37.731  1.00  0.00    -0.237 OA
ATOM     88  O   UNL A   1      44.790  23.080  35.860  1.00  0.00    -0.237 OA
ATOM     89  O   UNL A   1      46.615  23.841  37.310  1.00  0.00    -0.744 OA
ENDBRANCH  83  86
ENDBRANCH  56  79
ENDBRANCH  30  31
ENDBRANCH  23  25
ENDBRANCH  22  23
ENDBRANCH  21  22
ENDBRANCH   1  21
TORSDOF 19
ENDMDL
MODEL 2
REMARK VINA RESULT:     -11.1      4.614     10.297
REMARK SMILES O=C(CCCCCN1C(=O)[C@@H]2CC=CC[C@H]2C1=O)OCCOC(=O)c1ccc(-c2c3nc(c(-c4cccc(S(=O)(=O)[O-])c4F)c4ccc([nH]4)c(-c4cccc(S(=O)(=O)[O-])c4F)c4nc(c(-c5cccc(S(=O)(=O)[O-])c5F)c5ccc2[nH]5)C=C4)C=C3)cc1
REMARK SMILES IDX 20 1 19 2 2 3 1 4 3 5 4 6 5 7 6 8 7 9 8 10 9 11 17 12 10 13
REMARK SMILES IDX 11 14 16 15 18 16 12 17 15 18 13 19 14 20 21 21 22 22 23 23
REMARK SMILES IDX 24 24 25 25 26 26 87 27 27 28 86 29 28 30 29 31 30 32 80 33
REMARK SMILES IDX 31 34 85 35 79 36 81 37 32 38 84 39 78 40 77 41 33 43 65 44
REMARK SMILES IDX 45 45 64 46 46 47 49 48 63 49 82 50 47 51 48 52 62 54 83 55
REMARK SMILES IDX 50 56 34 57 35 58 43 59 36 60 38 61 44 62 37 63 39 64 40 65
REMARK SMILES IDX 41 66 42 67 66 68 67 69 75 70 68 71 70 72 76 73 69 74 71 75
REMARK SMILES IDX 72 76 73 77 74 78 51 79 52 80 60 81 53 82 55 83 61 84 54 85
REMARK SMILES IDX 56 86 57 87 58 88 59 89
REMARK H PARENT 81 42 49 53
REMARK Flexibility Score: inf
ROOT
ATOM      1  C   UNL A   1      35.634  21.530  25.355  1.00  0.00     0.274 C 
ENDROOT
BRANCH   1   2
ATOM      2  O   UNL A   1      34.473  21.022  24.678  1.00  0.00    -0.462 OA
BRANCH   2   3
ATOM      3  C   UNL A   1      33.666  21.945  24.088  1.00  0.00     0.305 C 
ATOM      4  O   UNL A   1      34.079  22.697  23.214  1.00  0.00    -0.252 OA
BRANCH   3   5
ATOM      5  C   UNL A   1      32.288  22.064  24.707  1.00  0.00     0.123 C 
BRANCH   5   6
ATOM      6  C   UNL A   1      31.705  23.473  24.679  1.00  0.00     0.012 C 
BRANCH   6   7
ATOM      7  C   UNL A   1      30.660  23.711  23.587  1.00  0.00     0.002 C 
BRANCH   7   8
ATOM      8  C   UNL A   1      30.249  25.176  23.350  1.00  0.00     0.022 C 
BRANCH   8   9
ATOM      9  C   UNL A   1      31.330  26.104  22.798  1.00  0.00     0.128 C 
BRANCH   9  10
ATOM     10  N   UNL A   1      31.878  27.047  23.751  1.00  0.00    -0.282 N 
ATOM     11  C   UNL A   1      31.217  28.211  24.082  1.00  0.00     0.233 C 
ATOM     12  C   UNL A   1      33.137  27.004  24.306  1.00  0.00     0.233 C 
ATOM     13  O   UNL A   1      30.283  28.731  23.502  1.00  0.00    -0.274 OA
ATOM     14  C   UNL A   1      31.859  28.675  25.348  1.00  0.00     0.095 C 
ATOM     15  C   UNL A   1      33.302  28.254  25.114  1.00  0.00     0.095 C 
ATOM     16  O   UNL A   1      34.023  26.187  24.114  1.00  0.00    -0.274 OA
ATOM     17  C   UNL A   1      31.823  30.128  25.764  1.00  0.00     0.041 C 
ATOM     18  C   UNL A   1      34.007  28.153  26.451  1.00  0.00     0.041 C 
ATOM     19  C   UNL A   1      32.794  30.317  26.917  1.00  0.00    -0.030 C 
ATOM     20  C   UNL A   1      33.744  29.417  27.246  1.00  0.00    -0.030 C 
ENDBRANCH   9  10
ENDBRANCH   8   9
ENDBRANCH   7   8
ENDBRANCH   6   7
ENDBRANCH   5   6
ENDBRANCH   3   5
ENDBRANCH   2   3
ENDBRANCH   1   2
BRANCH   1  21
ATOM     21  C   UNL A   1      36.871  20.645  25.165  1.00  0.00     0.275 C 
BRANCH  21  22
ATOM     22  O   UNL A   1      38.061  21.433  24.999  1.00  0.00    -0.458 OA
BRANCH  22  23
ATOM     23  C   UNL A   1      39.055  21.116  25.872  1.00  0.00     0.338 C 
ATOM     24  O   UNL A   1      39.577  20.024  26.007  1.00  0.00    -0.246 OA
BRANCH  23  25
ATOM     25  C   UNL A   1      39.562  22.341  26.533  1.00  0.00     0.060 A 
ATOM     26  C   UNL A   1      38.992  23.558  26.142  1.00  0.00     0.016 A 
ATOM     27  C   UNL A   1      40.567  22.315  27.507  1.00  0.00     0.016 A 
ATOM     28  C   UNL A   1      39.462  24.756  26.681  1.00  0.00     0.010 A 
ATOM     29  C   UNL A   1      41.038  23.519  28.046  1.00  0.00     0.010 A 
ATOM     30  C   UNL A   1      40.514  24.747  27.605  1.00  0.00    -0.014 A 
BRANCH  30  31
ATOM     31  C   UNL A   1      41.144  26.036  27.985  1.00  0.00     0.031 A 
ATOM     32  C   UNL A   1      42.549  26.324  27.529  1.00  0.00     0.074 A 
ATOM     33  C   UNL A   1      40.463  26.964  28.684  1.00  0.00     0.049 A 
ATOM     34  N   UNL A   1      43.239  27.431  27.627  1.00  0.00    -0.248 NA
ATOM     35  C   UNL A   1      43.270  25.222  26.871  1.00  0.00     0.031 C 
ATOM     36  C   UNL A   1      39.110  26.805  29.211  1.00  0.00     0.029 A 
ATOM     37  N   UNL A   1      40.831  28.227  29.076  1.00  0.00    -0.354 N 
ATOM     38  C   UNL A   1      44.468  27.165  27.036  1.00  0.00     0.074 A 
ATOM     39  C   UNL A   1      44.445  25.780  26.616  1.00  0.00     0.031 C 
ATOM     40  C   UNL A   1      38.767  27.924  29.876  1.00  0.00     0.029 A 
ATOM     41  C   UNL A   1      39.872  28.880  29.813  1.00  0.00     0.049 A 
ATOM     42  H   UNL A   1      41.701  28.630  28.850  1.00  0.00     0.167 HD
ATOM     43  C   UNL A   1      45.510  28.003  26.828  1.00  0.00     0.034 A 
ATOM     44  C   UNL A   1      39.881  30.110  30.364  1.00  0.00     0.034 A 
ATOM     45  C   UNL A   1      45.538  29.382  27.234  1.00  0.00     0.049 A 
ATOM     46  C   UNL A   1      41.063  31.019  30.132  1.00  0.00     0.074 A 
ATOM     47  C   UNL A   1      46.534  30.319  27.027  1.00  0.00     0.029 A 
ATOM     48  N   UNL A   1      44.531  30.017  27.941  1.00  0.00    -0.354 N 
ATOM     49  N   UNL A   1      42.143  30.807  29.418  1.00  0.00    -0.248 NA
ATOM     50  C   UNL A   1      41.005  32.355  30.746  1.00  0.00     0.031 C 
ATOM     51  C   UNL A   1      46.135  31.521  27.621  1.00  0.00     0.029 A 
ATOM     52  C   UNL A   1      44.886  31.333  28.189  1.00  0.00     0.049 A 
ATOM     53  H   UNL A   1      43.688  29.597  28.225  1.00  0.00     0.167 HD
ATOM     54  C   UNL A   1      42.873  31.991  29.468  1.00  0.00     0.074 A 
ATOM     55  C   UNL A   1      42.100  32.926  30.259  1.00  0.00     0.031 C 
ATOM     56  C   UNL A   1      44.083  32.274  28.925  1.00  0.00     0.034 A 
BRANCH  43  57
ATOM     57  C   UNL A   1      46.690  27.467  26.065  1.00  0.00     0.023 A 
ATOM     58  C   UNL A   1      46.737  27.650  24.668  1.00  0.00     0.012 A 
ATOM     59  C   UNL A   1      47.769  26.851  26.723  1.00  0.00     0.148 A 
ATOM     60  C   UNL A   1      47.836  27.210  23.933  1.00  0.00     0.002 A 
ATOM     61  C   UNL A   1      48.877  26.444  25.988  1.00  0.00     0.091 A 
ATOM     62  F   UNL A   1      47.690  26.666  28.048  1.00  0.00    -0.205 F 
ATOM     63  C   UNL A   1      48.909  26.618  24.593  1.00  0.00     0.022 A 
BRANCH  61  64
ATOM     64  S   UNL A   1      50.335  25.725  26.750  1.00  0.00     0.127 S 
ATOM     65  O   UNL A   1      49.811  24.454  27.248  1.00  0.00    -0.237 OA
ATOM     66  O   UNL A   1      51.249  25.603  25.613  1.00  0.00    -0.237 OA
ATOM     67  O   UNL A   1      50.761  26.669  27.772  1.00  0.00    -0.744 OA
ENDBRANCH  61  64
ENDBRANCH  43  57
BRANCH  44  68
ATOM     68  C   UNL A   1      38.704  30.592  31.141  1.00  0.00     0.023 A 
ATOM     69  C   UNL A   1      38.640  30.350  32.527  1.00  0.00     0.012 A 
ATOM     70  C   UNL A   1      37.646  31.275  30.514  1.00  0.00     0.148 A 
ATOM     71  C   UNL A   1      37.525  30.746  33.267  1.00  0.00     0.002 A 
ATOM     72  C   UNL A   1      36.561  31.713  31.266  1.00  0.00     0.091 A 
ATOM     73  F   UNL A   1      37.710  31.476  29.190  1.00  0.00    -0.205 F 
ATOM     74  C   UNL A   1      36.490  31.435  32.640  1.00  0.00     0.022 A 
BRANCH  72  75
ATOM     75  S   UNL A   1      35.251  32.711  30.549  1.00  0.00     0.127 S 
ATOM     76  O   UNL A   1      34.326  32.845  31.672  1.00  0.00    -0.237 OA
ATOM     77  O   UNL A   1      35.959  33.938  30.185  1.00  0.00    -0.237 OA
ATOM     78  O   UNL A   1      34.769  31.943  29.408  1.00  0.00    -0.744 OA
ENDBRANCH  72  75
ENDBRANCH  44  68
BRANCH  56  79
ATOM     79  C   UNL A   1      44.647  33.653  29.149  1.00  0.00     0.023 A 
ATOM     80  C   UNL A   1      45.596  33.856  30.171  1.00  0.00     0.012 A 
ATOM     81  C   UNL A   1      44.300  34.728  28.308  1.00  0.00     0.148 A 
ATOM     82  C   UNL A   1      46.165  35.113  30.374  1.00  0.00     0.002 A 
ATOM     83  C   UNL A   1      44.903  35.969  28.489  1.00  0.00     0.091 A 
ATOM     84  F   UNL A   1      43.381  34.526  27.353  1.00  0.00    -0.205 F 
ATOM     85  C   UNL A   1      45.828  36.165  29.527  1.00  0.00     0.022 A 
BRANCH  83  86
ATOM     86  S   UNL A   1      44.591  37.351  27.383  1.00  0.00     0.127 S 
ATOM     87  O   UNL A   1      44.543  38.476  28.314  1.00  0.00    -0.237 OA
ATOM     88  O   UNL A   1      45.767  37.332  26.511  1.00  0.00    -0.237 OA
ATOM     89  O   UNL A   1      43.340  37.037  26.706  1.00  0.00    -0.744 OA
ENDBRANCH  83  86
ENDBRANCH  56  79
ENDBRANCH  30  31
ENDBRANCH  23  25
ENDBRANCH  22  23
ENDBRANCH  21  22
ENDBRANCH   1  21
TORSDOF 19
ENDMDL
MODEL 3
REMARK VINA RESULT:     -11.0      1.676      2.176
REMARK SMILES O=C(CCCCCN1C(=O)[C@@H]2CC=CC[C@H]2C1=O)OCCOC(=O)c1ccc(-c2c3nc(c(-c4cccc(S(=O)(=O)[O-])c4F)c4ccc([nH]4)c(-c4cccc(S(=O)(=O)[O-])c4F)c4nc(c(-c5cccc(S(=O)(=O)[O-])c5F)c5ccc2[nH]5)C=C4)C=C3)cc1
REMARK SMILES IDX 20 1 19 2 2 3 1 4 3 5 4 6 5 7 6 8 7 9 8 10 9 11 17 12 10 13
REMARK SMILES IDX 11 14 16 15 18 16 12 17 15 18 13 19 14 20 21 21 22 22 23 23
REMARK SMILES IDX 24 24 25 25 26 26 87 27 27 28 86 29 28 30 29 31 30 32 80 33
REMARK SMILES IDX 31 34 85 35 79 36 81 37 32 38 84 39 78 40 77 41 33 43 65 44
REMARK SMILES IDX 45 45 64 46 46 47 49 48 63 49 82 50 47 51 48 52 62 54 83 55
REMARK SMILES IDX 50 56 34 57 35 58 43 59 36 60 38 61 44 62 37 63 39 64 40 65
REMARK SMILES IDX 41 66 42 67 66 68 67 69 75 70 68 71 70 72 76 73 69 74 71 75
REMARK SMILES IDX 72 76 73 77 74 78 51 79 52 80 60 81 53 82 55 83 61 84 54 85
REMARK SMILES IDX 56 86 57 87 58 88 59 89
REMARK H PARENT 81 42 49 53
REMARK Flexibility Score: inf
ROOT
ATOM      1  C   UNL A   1      31.320  30.282  25.523  1.00  0.00     0.274 C 
ENDROOT
BRANCH   1   2
ATOM      2  O   UNL A   1      31.092  29.584  24.288  1.00  0.00    -0.462 OA
BRANCH   2   3
ATOM      3  C   UNL A   1      29.987  29.949  23.583  1.00  0.00     0.305 C 
ATOM      4  O   UNL A   1      29.341  30.950  23.870  1.00  0.00    -0.252 OA
BRANCH   3   5
ATOM      5  C   UNL A   1      29.545  28.943  22.540  1.00  0.00     0.123 C 
BRANCH   5   6
ATOM      6  C   UNL A   1      29.916  27.499  22.861  1.00  0.00     0.012 C 
BRANCH   6   7
ATOM      7  C   UNL A   1      28.993  26.810  23.869  1.00  0.00     0.002 C 
BRANCH   7   8
ATOM      8  C   UNL A   1      29.650  25.758  24.781  1.00  0.00     0.022 C 
BRANCH   8   9
ATOM      9  C   UNL A   1      30.662  26.281  25.800  1.00  0.00     0.128 C 
BRANCH   9  10
ATOM     10  N   UNL A   1      31.896  25.528  25.885  1.00  0.00    -0.282 N 
ATOM     11  C   UNL A   1      31.981  24.351  26.597  1.00  0.00     0.233 C 
ATOM     12  C   UNL A   1      33.131  25.937  25.434  1.00  0.00     0.233 C 
ATOM     13  O   UNL A   1      31.193  23.912  27.414  1.00  0.00    -0.274 OA
ATOM     14  C   UNL A   1      33.229  23.691  26.110  1.00  0.00     0.095 C 
ATOM     15  C   UNL A   1      34.120  24.900  25.865  1.00  0.00     0.095 C 
ATOM     16  O   UNL A   1      33.429  26.987  24.887  1.00  0.00    -0.274 OA
ATOM     17  C   UNL A   1      33.972  22.685  26.958  1.00  0.00     0.041 C 
ATOM     18  C   UNL A   1      35.219  24.512  24.897  1.00  0.00     0.041 C 
ATOM     19  C   UNL A   1      35.324  22.427  26.315  1.00  0.00    -0.030 C 
ATOM     20  C   UNL A   1      35.862  23.223  25.369  1.00  0.00    -0.030 C 
ENDBRANCH   9  10
ENDBRANCH   8   9
ENDBRANCH   7   8
ENDBRANCH   6   7
ENDBRANCH   5   6
ENDBRANCH   3   5
ENDBRANCH   2   3
ENDBRANCH   1   2
BRANCH   1  21
ATOM     21  C   UNL A   1      32.793  30.277  25.949  1.00  0.00     0.275 C 
BRANCH  21  22
ATOM     22  O   UNL A   1      32.937  30.561  27.350  1.00  0.00    -0.458 OA
BRANCH  22  23
ATOM     23  C   UNL A   1      33.650  31.690  27.609  1.00  0.00     0.338 C 
ATOM     24  O   UNL A   1      33.228  32.832  27.590  1.00  0.00    -0.246 OA
BRANCH  23  25
ATOM     25  C   UNL A   1      34.999  31.336  28.108  1.00  0.00     0.060 A 
ATOM     26  C   UNL A   1      35.188  30.024  28.556  1.00  0.00     0.016 A 
ATOM     27  C   UNL A   1      36.058  32.251  28.143  1.00  0.00     0.016 A 
ATOM     28  C   UNL A   1      36.417  29.637  29.093  1.00  0.00     0.010 A 
ATOM     29  C   UNL A   1      37.290  31.861  28.683  1.00  0.00     0.010 A 
ATOM     30  C   UNL A   1      37.462  30.564  29.197  1.00  0.00    -0.014 A 
BRANCH  30  31
ATOM     31  C   UNL A   1      38.671  30.195  29.975  1.00  0.00     0.031 A 
ATOM     32  C   UNL A   1      38.865  30.787  31.345  1.00  0.00     0.074 A 
ATOM     33  C   UNL A   1      39.564  29.308  29.496  1.00  0.00     0.049 A 
ATOM     34  N   UNL A   1      39.768  30.502  32.248  1.00  0.00    -0.248 NA
ATOM     35  C   UNL A   1      37.915  31.834  31.755  1.00  0.00     0.031 C 
ATOM     36  C   UNL A   1      39.513  28.682  28.177  1.00  0.00     0.029 A 
ATOM     37  N   UNL A   1      40.696  28.788  30.072  1.00  0.00    -0.354 N 
ATOM     38  C   UNL A   1      39.490  31.323  33.333  1.00  0.00     0.074 A 
ATOM     39  C   UNL A   1      38.358  32.145  32.965  1.00  0.00     0.031 C 
ATOM     40  C   UNL A   1      40.580  27.875  28.036  1.00  0.00     0.029 A 
ATOM     41  C   UNL A   1      41.383  27.920  29.257  1.00  0.00     0.049 A 
ATOM     42  H   UNL A   1      40.989  29.016  30.984  1.00  0.00     0.167 HD
ATOM     43  C   UNL A   1      40.097  31.366  34.543  1.00  0.00     0.034 A 
ATOM     44  C   UNL A   1      42.522  27.234  29.477  1.00  0.00     0.034 A 
ATOM     45  C   UNL A   1      41.215  30.547  34.921  1.00  0.00     0.049 A 
ATOM     46  C   UNL A   1      43.189  27.314  30.828  1.00  0.00     0.074 A 
ATOM     47  C   UNL A   1      41.867  30.492  36.140  1.00  0.00     0.029 A 
ATOM     48  N   UNL A   1      41.856  29.650  34.083  1.00  0.00    -0.354 N 
ATOM     49  N   UNL A   1      42.807  27.962  31.903  1.00  0.00    -0.248 NA
ATOM     50  C   UNL A   1      44.420  26.528  31.010  1.00  0.00     0.031 C 
ATOM     51  C   UNL A   1      42.913  29.569  36.035  1.00  0.00     0.029 A 
ATOM     52  C   UNL A   1      42.905  29.043  34.754  1.00  0.00     0.049 A 
ATOM     53  H   UNL A   1      41.605  29.470  33.149  1.00  0.00     0.167 HD
ATOM     54  C   UNL A   1      43.729  27.636  32.893  1.00  0.00     0.074 A 
ATOM     55  C   UNL A   1      44.671  26.711  32.300  1.00  0.00     0.031 C 
ATOM     56  C   UNL A   1      43.801  28.078  34.173  1.00  0.00     0.034 A 
BRANCH  43  57
ATOM     57  C   UNL A   1      39.516  32.292  35.577  1.00  0.00     0.023 A 
ATOM     58  C   UNL A   1      38.535  31.796  36.460  1.00  0.00     0.012 A 
ATOM     59  C   UNL A   1      39.980  33.612  35.722  1.00  0.00     0.148 A 
ATOM     60  C   UNL A   1      38.008  32.609  37.461  1.00  0.00     0.002 A 
ATOM     61  C   UNL A   1      39.474  34.406  36.744  1.00  0.00     0.091 A 
ATOM     62  F   UNL A   1      40.895  34.067  34.855  1.00  0.00    -0.205 F 
ATOM     63  C   UNL A   1      38.485  33.909  37.610  1.00  0.00     0.022 A 
BRANCH  61  64
ATOM     64  S   UNL A   1      40.064  36.073  37.058  1.00  0.00     0.127 S 
ATOM     65  O   UNL A   1      41.489  35.843  37.286  1.00  0.00    -0.237 OA
ATOM     66  O   UNL A   1      39.750  36.753  35.800  1.00  0.00    -0.237 OA
ATOM     67  O   UNL A   1      39.315  36.553  38.210  1.00  0.00    -0.744 OA
ENDBRANCH  61  64
ENDBRANCH  43  57
BRANCH  44  68
ATOM     68  C   UNL A   1      43.082  26.352  28.414  1.00  0.00     0.023 A 
ATOM     69  C   UNL A   1      42.561  25.054  28.242  1.00  0.00     0.012 A 
ATOM     70  C   UNL A   1      44.134  26.784  27.585  1.00  0.00     0.148 A 
ATOM     71  C   UNL A   1      43.103  24.192  27.288  1.00  0.00     0.002 A 
ATOM     72  C   UNL A   1      44.635  25.938  26.602  1.00  0.00     0.091 A 
ATOM     73  F   UNL A   1      44.636  28.012  27.779  1.00  0.00    -0.205 F 
ATOM     74  C   UNL A   1      44.133  24.635  26.463  1.00  0.00     0.022 A 
BRANCH  72  75
ATOM     75  S   UNL A   1      45.877  26.483  25.424  1.00  0.00     0.127 S 
ATOM     76  O   UNL A   1      47.001  26.805  26.299  1.00  0.00    -0.237 OA
ATOM     77  O   UNL A   1      46.064  25.292  24.595  1.00  0.00    -0.237 OA
ATOM     78  O   UNL A   1      45.268  27.605  24.721  1.00  0.00    -0.744 OA
ENDBRANCH  72  75
ENDBRANCH  44  68
BRANCH  56  79
ATOM     79  C   UNL A   1      44.925  27.558  35.033  1.00  0.00     0.023 A 
ATOM     80  C   UNL A   1      46.113  28.306  35.147  1.00  0.00     0.012 A 
ATOM     81  C   UNL A   1      44.780  26.375  35.784  1.00  0.00     0.148 A 
ATOM     82  C   UNL A   1      47.153  27.869  35.966  1.00  0.00     0.002 A 
ATOM     83  C   UNL A   1      45.805  25.968  36.633  1.00  0.00     0.091 A 
ATOM     84  F   UNL A   1      43.652  25.662  35.651  1.00  0.00    -0.205 F 
ATOM     85  C   UNL A   1      46.995  26.707  36.718  1.00  0.00     0.022 A 
BRANCH  83  86
ATOM     86  S   UNL A   1      45.642  24.532  37.703  1.00  0.00     0.127 S 
ATOM     87  O   UNL A   1      44.559  24.943  38.593  1.00  0.00    -0.237 OA
ATOM     88  O   UNL A   1      45.286  23.472  36.760  1.00  0.00    -0.237 OA
ATOM     89  O   UNL A   1      46.946  24.361  38.330  1.00  0.00    -0.744 OA
ENDBRANCH  83  86
ENDBRANCH  56  79
ENDBRANCH  30  31
ENDBRANCH  23  25
ENDBRANCH  22  23
ENDBRANCH  21  22
ENDBRANCH   1  21
TORSDOF 19
ENDMDL
