MODEL 1
REMARK VINA RESULT:     -12.3      0.000      0.000
REMARK SMILES CCC[C@H]1CCc2c(sc(NC(=O)[C@H]3[C@@H](C(=O)OCCOC(=O)c4ccc(-c5c6nc(c(-c7cccc(S(=O)(=O)[O-])c7F)c7ccc([nH]7)c(-c7cccc(S(=O)(=O)[O-])c7F)c7nc(c(-c8cccc(S(=O)(=O)[O-])c8F)c8ccc5[nH]8)C=C7)C=C6)cc4)[C@H]4CC[C@@H]3O4)c2C(N)=O)C1
REMARK SMILES IDX 19 1 18 2 16 3 17 4 15 5 14 6 90 7 87 8 89 9 91 10 88 11
REMARK SMILES IDX 12 12 11 13 13 15 10 16 4 17 5 18 96 19 6 20 8 21 7 22 9 23
REMARK SMILES IDX 92 24 3 25 2 26 1 27 93 28 94 29 95 30 20 33 21 34 22 35
REMARK SMILES IDX 23 36 24 37 25 38 86 39 26 40 85 41 27 42 28 43 29 44 79 45
REMARK SMILES IDX 30 46 84 47 78 48 80 49 31 50 83 51 77 52 76 53 32 55 64 56
REMARK SMILES IDX 44 57 63 58 45 59 48 60 62 61 81 62 46 63 47 64 61 66 82 67
REMARK SMILES IDX 49 68 33 69 34 70 42 71 35 72 37 73 43 74 36 75 38 76 39 77
REMARK SMILES IDX 40 78 41 79 65 80 66 81 74 82 67 83 69 84 75 85 68 86 70 87
REMARK SMILES IDX 71 88 72 89 73 90 50 91 51 92 59 93 52 94 54 95 60 96 53 97
REMARK SMILES IDX 55 98 56 99 57 100 58 101
REMARK H PARENT 11 14 94 31 94 32 80 54 48 65
REMARK Flexibility Score: inf
ROOT
ATOM      1  C   UNL A   1      35.201  24.310  25.692  1.00  0.00     0.274 C 
ENDROOT
BRANCH   1   2
ATOM      2  O   UNL A   1      34.152  25.067  24.970  1.00  0.00    -0.462 OA
BRANCH   2   3
ATOM      3  C   UNL A   1      33.188  25.892  25.570  1.00  0.00     0.312 C 
ATOM      4  O   UNL A   1      32.712  25.663  26.669  1.00  0.00    -0.252 OA
BRANCH   3   5
ATOM      5  C   UNL A   1      32.742  27.030  24.595  1.00  0.00     0.143 C 
ATOM      6  C   UNL A   1      31.324  27.260  24.957  1.00  0.00     0.124 C 
ATOM      7  C   UNL A   1      30.804  28.305  23.963  1.00  0.00     0.132 C 
ATOM      8  C   UNL A   1      32.498  27.256  23.062  1.00  0.00     0.133 C 
ATOM      9  C   UNL A   1      30.045  27.641  22.847  1.00  0.00     0.035 C 
ATOM     10  O   UNL A   1      32.023  28.652  23.238  1.00  0.00    -0.373 OA
ATOM     11  C   UNL A   1      31.197  26.768  22.294  1.00  0.00     0.036 C 
BRANCH   6  12
ATOM     12  C   UNL A   1      30.572  25.939  24.908  1.00  0.00     0.231 C 
ATOM     13  N   UNL A   1      30.949  24.639  24.629  1.00  0.00    -0.317 N 
ATOM     14  H   UNL A   1      30.239  24.164  25.117  1.00  0.00     0.170 HD
ATOM     15  O   UNL A   1      29.423  26.104  25.362  1.00  0.00    -0.274 OA
BRANCH  13  16
ATOM     16  C   UNL A   1      31.658  23.523  24.122  1.00  0.00     0.108 A 
ATOM     17  C   UNL A   1      32.930  18.761  24.004  1.00  0.00    -0.006 C 
ATOM     18  C   UNL A   1      32.117  18.946  22.706  1.00  0.00     0.009 C 
ATOM     19  C   UNL A   1      32.306  19.661  25.091  1.00  0.00     0.050 C 
ATOM     20  C   UNL A   1      32.379  20.376  22.147  1.00  0.00     0.038 C 
ATOM     21  C   UNL A   1      32.116  21.039  24.531  1.00  0.00     0.011 A 
ATOM     22  C   UNL A   1      32.214  21.425  23.219  1.00  0.00    -0.019 A 
ATOM     23  S   UNL A   1      31.719  22.331  25.480  1.00  0.00    -0.122 S 
ATOM     24  C   UNL A   1      32.398  22.893  23.121  1.00  0.00     0.077 A 
BRANCH  17  25
ATOM     25  C   UNL A   1      33.065  17.307  24.484  1.00  0.00     0.004 C 
BRANCH  25  26
ATOM     26  C   UNL A   1      34.426  16.669  24.143  1.00  0.00    -0.003 C 
ATOM     27  C   UNL A   1      35.062  15.850  25.262  1.00  0.00     0.004 C 
ENDBRANCH  25  26
ENDBRANCH  17  25
BRANCH  24  28
ATOM     28  C   UNL A   1      33.265  23.395  22.070  1.00  0.00     0.251 C 
ATOM     29  N   UNL A   1      32.577  24.150  21.153  1.00  0.00    -0.365 N 
ATOM     30  O   UNL A   1      34.477  23.384  22.107  1.00  0.00    -0.269 OA
ATOM     31  H   UNL A   1      31.592  24.140  21.146  1.00  0.00     0.159 HD
ATOM     32  H   UNL A   1      33.069  24.703  20.503  1.00  0.00     0.159 HD
ENDBRANCH  24  28
ENDBRANCH  13  16
ENDBRANCH   6  12
ENDBRANCH   3   5
ENDBRANCH   2   3
ENDBRANCH   1   2
BRANCH   1  33
ATOM     33  C   UNL A   1      35.285  22.678  25.337  1.00  0.00     0.275 C 
BRANCH  33  34
ATOM     34  O   UNL A   1      36.265  21.800  26.122  1.00  0.00    -0.458 OA
BRANCH  34  35
ATOM     35  C   UNL A   1      37.551  21.392  25.777  1.00  0.00     0.338 C 
ATOM     36  O   UNL A   1      37.757  20.346  25.178  1.00  0.00    -0.246 OA
BRANCH  35  37
ATOM     37  C   UNL A   1      38.715  22.453  26.073  1.00  0.00     0.060 A 
ATOM     38  C   UNL A   1      39.844  22.248  26.884  1.00  0.00     0.016 A 
ATOM     39  C   UNL A   1      38.604  23.778  25.637  1.00  0.00     0.016 A 
ATOM     40  C   UNL A   1      40.660  23.271  27.432  1.00  0.00     0.010 A 
ATOM     41  C   UNL A   1      39.520  24.804  26.063  1.00  0.00     0.010 A 
ATOM     42  C   UNL A   1      40.533  24.588  27.027  1.00  0.00    -0.014 A 
BRANCH  42  43
ATOM     43  C   UNL A   1      41.373  25.710  27.617  1.00  0.00     0.031 A 
ATOM     44  C   UNL A   1      40.707  26.721  28.533  1.00  0.00     0.074 A 
ATOM     45  C   UNL A   1      42.702  25.889  27.396  1.00  0.00     0.049 A 
ATOM     46  N   UNL A   1      41.081  27.931  28.864  1.00  0.00    -0.248 NA
ATOM     47  C   UNL A   1      39.441  26.301  29.154  1.00  0.00     0.031 C 
ATOM     48  C   UNL A   1      43.598  24.981  26.678  1.00  0.00     0.029 A 
ATOM     49  N   UNL A   1      43.537  26.947  27.733  1.00  0.00    -0.354 N 
ATOM     50  C   UNL A   1      40.036  28.463  29.617  1.00  0.00     0.074 A 
ATOM     51  C   UNL A   1      39.039  27.421  29.740  1.00  0.00     0.031 C 
ATOM     52  C   UNL A   1      44.826  25.522  26.603  1.00  0.00     0.029 A 
ATOM     53  C   UNL A   1      44.797  26.866  27.170  1.00  0.00     0.049 A 
ATOM     54  H   UNL A   1      43.257  27.688  28.320  1.00  0.00     0.167 HD
ATOM     55  C   UNL A   1      39.905  29.708  30.138  1.00  0.00     0.034 A 
ATOM     56  C   UNL A   1      45.791  27.776  27.038  1.00  0.00     0.034 A 
ATOM     57  C   UNL A   1      40.932  30.716  30.121  1.00  0.00     0.049 A 
ATOM     58  C   UNL A   1      45.607  29.177  27.573  1.00  0.00     0.074 A 
ATOM     59  C   UNL A   1      40.895  31.987  30.671  1.00  0.00     0.029 A 
ATOM     60  N   UNL A   1      42.180  30.573  29.539  1.00  0.00    -0.354 N 
ATOM     61  N   UNL A   1      44.606  29.677  28.253  1.00  0.00    -0.248 NA
ATOM     62  C   UNL A   1      46.696  30.139  27.326  1.00  0.00     0.031 C 
ATOM     63  C   UNL A   1      42.104  32.628  30.384  1.00  0.00     0.029 A 
ATOM     64  C   UNL A   1      42.912  31.737  29.699  1.00  0.00     0.049 A 
ATOM     65  H   UNL A   1      42.499  29.763  29.079  1.00  0.00     0.167 HD
ATOM     66  C   UNL A   1      44.960  30.992  28.546  1.00  0.00     0.074 A 
ATOM     67  C   UNL A   1      46.276  31.208  27.989  1.00  0.00     0.031 C 
ATOM     68  C   UNL A   1      44.249  31.937  29.207  1.00  0.00     0.034 A 
BRANCH  55  69
ATOM     69  C   UNL A   1      38.583  30.090  30.754  1.00  0.00     0.023 A 
ATOM     70  C   UNL A   1      38.316  29.833  32.111  1.00  0.00     0.012 A 
ATOM     71  C   UNL A   1      37.643  30.814  29.988  1.00  0.00     0.148 A 
ATOM     72  C   UNL A   1      37.125  30.270  32.692  1.00  0.00     0.002 A 
ATOM     73  C   UNL A   1      36.483  31.290  30.585  1.00  0.00     0.091 A 
ATOM     74  F   UNL A   1      37.911  31.036  28.693  1.00  0.00    -0.205 F 
ATOM     75  C   UNL A   1      36.217  31.009  31.935  1.00  0.00     0.022 A 
BRANCH  73  76
ATOM     76  S   UNL A   1      35.303  32.333  29.719  1.00  0.00     0.127 S 
ATOM     77  O   UNL A   1      34.836  31.435  28.664  1.00  0.00    -0.237 OA
ATOM     78  O   UNL A   1      34.317  32.611  30.764  1.00  0.00    -0.237 OA
ATOM     79  O   UNL A   1      36.050  33.495  29.260  1.00  0.00    -0.744 OA
ENDBRANCH  73  76
ENDBRANCH  55  69
BRANCH  56  80
ATOM     80  C   UNL A   1      47.057  27.433  26.308  1.00  0.00     0.023 A 
ATOM     81  C   UNL A   1      48.142  26.869  27.010  1.00  0.00     0.012 A 
ATOM     82  C   UNL A   1      47.207  27.698  24.932  1.00  0.00     0.148 A 
ATOM     83  C   UNL A   1      49.355  26.609  26.367  1.00  0.00     0.002 A 
ATOM     84  C   UNL A   1      48.393  27.372  24.281  1.00  0.00     0.091 A 
ATOM     85  F   UNL A   1      46.187  28.276  24.280  1.00  0.00    -0.205 F 
ATOM     86  C   UNL A   1      49.476  26.847  25.001  1.00  0.00     0.022 A 
BRANCH  84  87
ATOM     87  S   UNL A   1      48.583  27.512  22.500  1.00  0.00     0.127 S 
ATOM     88  O   UNL A   1      49.872  28.189  22.387  1.00  0.00    -0.237 OA
ATOM     89  O   UNL A   1      48.583  26.110  22.085  1.00  0.00    -0.237 OA
ATOM     90  O   UNL A   1      47.426  28.270  22.043  1.00  0.00    -0.744 OA
ENDBRANCH  84  87
ENDBRANCH  56  80
BRANCH  68  91
ATOM     91  C   UNL A   1      44.893  33.280  29.445  1.00  0.00     0.023 A 
ATOM     92  C   UNL A   1      45.646  33.512  30.612  1.00  0.00     0.012 A 
ATOM     93  C   UNL A   1      44.810  34.292  28.467  1.00  0.00     0.148 A 
ATOM     94  C   UNL A   1      46.278  34.739  30.818  1.00  0.00     0.002 A 
ATOM     95  C   UNL A   1      45.483  35.494  28.654  1.00  0.00     0.091 A 
ATOM     96  F   UNL A   1      44.077  34.060  27.368  1.00  0.00    -0.205 F 
ATOM     97  C   UNL A   1      46.205  35.724  29.835  1.00  0.00     0.022 A 
BRANCH  95  98
ATOM     98  S   UNL A   1      45.527  36.783  27.403  1.00  0.00     0.127 S 
ATOM     99  O   UNL A   1      45.955  36.035  26.221  1.00  0.00    -0.237 OA
ATOM    100  O   UNL A   1      44.134  37.230  27.370  1.00  0.00    -0.237 OA
ATOM    101  O   UNL A   1      46.472  37.781  27.883  1.00  0.00    -0.744 OA
ENDBRANCH  95  98
ENDBRANCH  68  91
ENDBRANCH  42  43
ENDBRANCH  35  37
ENDBRANCH  34  35
ENDBRANCH  33  34
ENDBRANCH   1  33
TORSDOF 19
ENDMDL
MODEL 2
REMARK VINA RESULT:     -12.0      5.092      9.236
REMARK SMILES CCC[C@H]1CCc2c(sc(NC(=O)[C@H]3[C@@H](C(=O)OCCOC(=O)c4ccc(-c5c6nc(c(-c7cccc(S(=O)(=O)[O-])c7F)c7ccc([nH]7)c(-c7cccc(S(=O)(=O)[O-])c7F)c7nc(c(-c8cccc(S(=O)(=O)[O-])c8F)c8ccc5[nH]8)C=C7)C=C6)cc4)[C@H]4CC[C@@H]3O4)c2C(N)=O)C1
REMARK SMILES IDX 19 1 18 2 16 3 17 4 15 5 14 6 90 7 87 8 89 9 91 10 88 11
REMARK SMILES IDX 12 12 11 13 13 15 10 16 4 17 5 18 96 19 6 20 8 21 7 22 9 23
REMARK SMILES IDX 92 24 3 25 2 26 1 27 93 28 94 29 95 30 20 33 21 34 22 35
REMARK SMILES IDX 23 36 24 37 25 38 86 39 26 40 85 41 27 42 28 43 29 44 79 45
REMARK SMILES IDX 30 46 84 47 78 48 80 49 31 50 83 51 77 52 76 53 32 55 64 56
REMARK SMILES IDX 44 57 63 58 45 59 48 60 62 61 81 62 46 63 47 64 61 66 82 67
REMARK SMILES IDX 49 68 33 69 34 70 42 71 35 72 37 73 43 74 36 75 38 76 39 77
REMARK SMILES IDX 40 78 41 79 65 80 66 81 74 82 67 83 69 84 75 85 68 86 70 87
REMARK SMILES IDX 71 88 72 89 73 90 50 91 51 92 59 93 52 94 54 95 60 96 53 97
REMARK SMILES IDX 55 98 56 99 57 100 58 101
REMARK H PARENT 11 14 94 31 94 32 80 54 48 65
REMARK Flexibility Score: inf
ROOT
ATOM      1  C   UNL A   1      31.063  27.894  27.329  1.00  0.00     0.274 C 
ENDROOT
BRANCH   1   2
ATOM      2  O   UNL A   1      30.954  26.626  26.571  1.00  0.00    -0.462 OA
BRANCH   2   3
ATOM      3  C   UNL A   1      32.023  25.767  26.269  1.00  0.00     0.312 C 
ATOM      4  O   UNL A   1      32.315  24.804  26.958  1.00  0.00    -0.252 OA
BRANCH   3   5
ATOM      5  C   UNL A   1      32.831  26.293  25.037  1.00  0.00     0.143 C 
ATOM      6  C   UNL A   1      31.882  26.141  23.910  1.00  0.00     0.124 C 
ATOM      7  C   UNL A   1      32.657  26.555  22.654  1.00  0.00     0.132 C 
ATOM      8  C   UNL A   1      34.082  25.898  24.178  1.00  0.00     0.133 C 
ATOM      9  C   UNL A   1      33.169  25.342  21.926  1.00  0.00     0.035 C 
ATOM     10  O   UNL A   1      33.915  27.026  23.227  1.00  0.00    -0.373 OA
ATOM     11  C   UNL A   1      34.062  24.775  23.055  1.00  0.00     0.036 C 
BRANCH   6  12
ATOM     12  C   UNL A   1      31.371  24.709  23.873  1.00  0.00     0.231 C 
ATOM     13  N   UNL A   1      31.855  23.513  24.368  1.00  0.00    -0.317 N 
ATOM     14  H   UNL A   1      31.005  23.019  24.436  1.00  0.00     0.170 HD
ATOM     15  O   UNL A   1      30.211  24.700  23.418  1.00  0.00    -0.274 OA
BRANCH  13  16
ATOM     16  C   UNL A   1      32.734  22.512  24.846  1.00  0.00     0.108 A 
ATOM     17  C   UNL A   1      34.525  17.924  25.069  1.00  0.00    -0.006 C 
ATOM     18  C   UNL A   1      35.658  18.717  24.384  1.00  0.00     0.009 C 
ATOM     19  C   UNL A   1      33.179  18.510  24.597  1.00  0.00     0.050 C 
ATOM     20  C   UNL A   1      35.694  20.157  24.976  1.00  0.00     0.038 C 
ATOM     21  C   UNL A   1      33.222  20.002  24.737  1.00  0.00     0.011 A 
ATOM     22  C   UNL A   1      34.321  20.783  24.985  1.00  0.00    -0.019 A 
ATOM     23  S   UNL A   1      31.874  20.944  24.578  1.00  0.00    -0.122 S 
ATOM     24  C   UNL A   1      33.910  22.117  25.485  1.00  0.00     0.077 A 
BRANCH  17  25
ATOM     25  C   UNL A   1      34.581  16.401  24.863  1.00  0.00     0.004 C 
BRANCH  25  26
ATOM     26  C   UNL A   1      33.197  15.755  24.659  1.00  0.00    -0.003 C 
ATOM     27  C   UNL A   1      32.875  14.591  25.591  1.00  0.00     0.004 C 
ENDBRANCH  25  26
ENDBRANCH  17  25
BRANCH  24  28
ATOM     28  C   UNL A   1      34.744  22.745  26.494  1.00  0.00     0.251 C 
ATOM     29  N   UNL A   1      34.425  22.322  27.760  1.00  0.00    -0.365 N 
ATOM     30  O   UNL A   1      35.760  23.364  26.265  1.00  0.00    -0.269 OA
ATOM     31  H   UNL A   1      33.592  21.820  27.917  1.00  0.00     0.159 HD
ATOM     32  H   UNL A   1      35.030  22.519  28.512  1.00  0.00     0.159 HD
ENDBRANCH  24  28
ENDBRANCH  13  16
ENDBRANCH   6  12
ENDBRANCH   3   5
ENDBRANCH   2   3
ENDBRANCH   1   2
BRANCH   1  33
ATOM     33  C   UNL A   1      32.243  28.952  26.795  1.00  0.00     0.275 C 
BRANCH  33  34
ATOM     34  O   UNL A   1      31.917  30.448  26.725  1.00  0.00    -0.458 OA
BRANCH  34  35
ATOM     35  C   UNL A   1      32.677  31.535  27.149  1.00  0.00     0.338 C 
ATOM     36  O   UNL A   1      32.183  32.640  27.319  1.00  0.00    -0.246 OA
BRANCH  35  37
ATOM     37  C   UNL A   1      34.193  31.203  27.549  1.00  0.00     0.060 A 
ATOM     38  C   UNL A   1      34.699  29.948  27.929  1.00  0.00     0.016 A 
ATOM     39  C   UNL A   1      35.136  32.226  27.696  1.00  0.00     0.016 A 
ATOM     40  C   UNL A   1      35.919  29.728  28.620  1.00  0.00     0.010 A 
ATOM     41  C   UNL A   1      36.440  31.990  28.256  1.00  0.00     0.010 A 
ATOM     42  C   UNL A   1      36.840  30.745  28.795  1.00  0.00    -0.014 A 
BRANCH  42  43
ATOM     43  C   UNL A   1      38.142  30.547  29.557  1.00  0.00     0.031 A 
ATOM     44  C   UNL A   1      39.207  29.643  28.965  1.00  0.00     0.074 A 
ATOM     45  C   UNL A   1      38.445  31.128  30.748  1.00  0.00     0.049 A 
ATOM     46  N   UNL A   1      40.210  29.032  29.545  1.00  0.00    -0.248 NA
ATOM     47  C   UNL A   1      39.118  29.393  27.518  1.00  0.00     0.031 C 
ATOM     48  C   UNL A   1      37.659  32.145  31.449  1.00  0.00     0.029 A 
ATOM     49  N   UNL A   1      39.509  30.906  31.614  1.00  0.00    -0.354 N 
ATOM     50  C   UNL A   1      40.785  28.225  28.567  1.00  0.00     0.074 A 
ATOM     51  C   UNL A   1      40.053  28.468  27.342  1.00  0.00     0.031 C 
ATOM     52  C   UNL A   1      38.238  32.431  32.628  1.00  0.00     0.029 A 
ATOM     53  C   UNL A   1      39.382  31.548  32.831  1.00  0.00     0.049 A 
ATOM     54  H   UNL A   1      40.282  30.341  31.382  1.00  0.00     0.167 HD
ATOM     55  C   UNL A   1      41.811  27.345  28.678  1.00  0.00     0.034 A 
ATOM     56  C   UNL A   1      40.039  31.402  34.006  1.00  0.00     0.034 A 
ATOM     57  C   UNL A   1      42.620  27.175  29.856  1.00  0.00     0.049 A 
ATOM     58  C   UNL A   1      41.141  30.376  34.131  1.00  0.00     0.074 A 
ATOM     59  C   UNL A   1      43.711  26.338  30.034  1.00  0.00     0.029 A 
ATOM     60  N   UNL A   1      42.443  27.852  31.050  1.00  0.00    -0.354 N 
ATOM     61  N   UNL A   1      41.654  29.598  33.212  1.00  0.00    -0.248 NA
ATOM     62  C   UNL A   1      41.760  30.213  35.460  1.00  0.00     0.031 C 
ATOM     63  C   UNL A   1      44.165  26.479  31.348  1.00  0.00     0.029 A 
ATOM     64  C   UNL A   1      43.390  27.439  31.972  1.00  0.00     0.049 A 
ATOM     65  H   UNL A   1      41.747  28.528  31.218  1.00  0.00     0.167 HD
ATOM     66  C   UNL A   1      42.675  28.886  33.837  1.00  0.00     0.074 A 
ATOM     67  C   UNL A   1      42.724  29.337  35.210  1.00  0.00     0.031 C 
ATOM     68  C   UNL A   1      43.488  27.934  33.320  1.00  0.00     0.034 A 
BRANCH  55  69
ATOM     69  C   UNL A   1      42.118  26.451  27.503  1.00  0.00     0.023 A 
ATOM     70  C   UNL A   1      42.967  26.883  26.469  1.00  0.00     0.012 A 
ATOM     71  C   UNL A   1      41.636  25.124  27.496  1.00  0.00     0.148 A 
ATOM     72  C   UNL A   1      43.314  26.016  25.431  1.00  0.00     0.002 A 
ATOM     73  C   UNL A   1      42.026  24.251  26.489  1.00  0.00     0.091 A 
ATOM     74  F   UNL A   1      40.816  24.737  28.485  1.00  0.00    -0.205 F 
ATOM     75  C   UNL A   1      42.856  24.699  25.449  1.00  0.00     0.022 A 
BRANCH  73  76
ATOM     76  S   UNL A   1      41.569  22.513  26.479  1.00  0.00     0.127 S 
ATOM     77  O   UNL A   1      42.267  22.032  25.287  1.00  0.00    -0.237 OA
ATOM     78  O   UNL A   1      42.129  22.043  27.745  1.00  0.00    -0.237 OA
ATOM     79  O   UNL A   1      40.115  22.477  26.403  1.00  0.00    -0.744 OA
ENDBRANCH  73  76
ENDBRANCH  55  69
BRANCH  56  80
ATOM     80  C   UNL A   1      39.644  32.201  35.213  1.00  0.00     0.023 A 
ATOM     81  C   UNL A   1      38.766  31.646  36.167  1.00  0.00     0.012 A 
ATOM     82  C   UNL A   1      40.100  33.522  35.402  1.00  0.00     0.148 A 
ATOM     83  C   UNL A   1      38.327  32.398  37.261  1.00  0.00     0.002 A 
ATOM     84  C   UNL A   1      39.715  34.241  36.530  1.00  0.00     0.091 A 
ATOM     85  F   UNL A   1      40.898  34.059  34.468  1.00  0.00    -0.205 F 
ATOM     86  C   UNL A   1      38.812  33.689  37.450  1.00  0.00     0.022 A 
BRANCH  84  87
ATOM     87  S   UNL A   1      40.404  35.853  36.923  1.00  0.00     0.127 S 
ATOM     88  O   UNL A   1      39.804  36.697  35.893  1.00  0.00    -0.237 OA
ATOM     89  O   UNL A   1      39.895  36.077  38.277  1.00  0.00    -0.237 OA
ATOM     90  O   UNL A   1      41.849  35.689  36.849  1.00  0.00    -0.744 OA
ENDBRANCH  84  87
ENDBRANCH  56  80
BRANCH  68  91
ATOM     91  C   UNL A   1      44.564  27.355  34.205  1.00  0.00     0.023 A 
ATOM     92  C   UNL A   1      45.787  28.033  34.376  1.00  0.00     0.012 A 
ATOM     93  C   UNL A   1      44.328  26.167  34.928  1.00  0.00     0.148 A 
ATOM     94  C   UNL A   1      46.769  27.521  35.225  1.00  0.00     0.002 A 
ATOM     95  C   UNL A   1      45.290  25.690  35.810  1.00  0.00     0.091 A 
ATOM     96  F   UNL A   1      43.164  25.527  34.742  1.00  0.00    -0.205 F 
ATOM     97  C   UNL A   1      46.516  26.358  35.949  1.00  0.00     0.022 A 
BRANCH  95  98
ATOM     98  S   UNL A   1      45.016  24.255  36.857  1.00  0.00     0.127 S 
ATOM     99  O   UNL A   1      46.364  23.989  37.356  1.00  0.00    -0.237 OA
ATOM    100  O   UNL A   1      44.086  24.777  37.859  1.00  0.00    -0.237 OA
ATOM    101  O   UNL A   1      44.458  23.225  35.992  1.00  0.00    -0.744 OA
ENDBRANCH  95  98
ENDBRANCH  68  91
ENDBRANCH  42  43
ENDBRANCH  35  37
ENDBRANCH  34  35
ENDBRANCH  33  34
ENDBRANCH   1  33
TORSDOF 19
ENDMDL
MODEL 3
REMARK VINA RESULT:     -11.7      4.002      6.599
REMARK SMILES CCC[C@H]1CCc2c(sc(NC(=O)[C@H]3[C@@H](C(=O)OCCOC(=O)c4ccc(-c5c6nc(c(-c7cccc(S(=O)(=O)[O-])c7F)c7ccc([nH]7)c(-c7cccc(S(=O)(=O)[O-])c7F)c7nc(c(-c8cccc(S(=O)(=O)[O-])c8F)c8ccc5[nH]8)C=C7)C=C6)cc4)[C@H]4CC[C@@H]3O4)c2C(N)=O)C1
REMARK SMILES IDX 19 1 18 2 16 3 17 4 15 5 14 6 90 7 87 8 89 9 91 10 88 11
REMARK SMILES IDX 12 12 11 13 13 15 10 16 4 17 5 18 96 19 6 20 8 21 7 22 9 23
REMARK SMILES IDX 92 24 3 25 2 26 1 27 93 28 94 29 95 30 20 33 21 34 22 35
REMARK SMILES IDX 23 36 24 37 25 38 86 39 26 40 85 41 27 42 28 43 29 44 79 45
REMARK SMILES IDX 30 46 84 47 78 48 80 49 31 50 83 51 77 52 76 53 32 55 64 56
REMARK SMILES IDX 44 57 63 58 45 59 48 60 62 61 81 62 46 63 47 64 61 66 82 67
REMARK SMILES IDX 49 68 33 69 34 70 42 71 35 72 37 73 43 74 36 75 38 76 39 77
REMARK SMILES IDX 40 78 41 79 65 80 66 81 74 82 67 83 69 84 75 85 68 86 70 87
REMARK SMILES IDX 71 88 72 89 73 90 50 91 51 92 59 93 52 94 54 95 60 96 53 97
REMARK SMILES IDX 55 98 56 99 57 100 58 101
REMARK H PARENT 11 14 94 31 94 32 80 54 48 65
REMARK Flexibility Score: inf
ROOT
ATOM      1  C   UNL A   1      34.240  28.774  26.185  1.00  0.00     0.274 C 
ENDROOT
BRANCH   1   2
ATOM      2  O   UNL A   1      33.532  27.475  26.099  1.00  0.00    -0.462 OA
BRANCH   2   3
ATOM      3  C   UNL A   1      33.498  26.644  24.968  1.00  0.00     0.312 C 
ATOM      4  O   UNL A   1      34.365  25.821  24.724  1.00  0.00    -0.252 OA
BRANCH   3   5
ATOM      5  C   UNL A   1      32.295  27.012  24.040  1.00  0.00     0.143 C 
ATOM      6  C   UNL A   1      31.133  27.004  24.958  1.00  0.00     0.124 C 
ATOM      7  C   UNL A   1      29.905  27.267  24.079  1.00  0.00     0.132 C 
ATOM      8  C   UNL A   1      31.488  26.404  22.840  1.00  0.00     0.133 C 
ATOM      9  C   UNL A   1      29.206  25.977  23.749  1.00  0.00     0.035 C 
ATOM     10  O   UNL A   1      30.523  27.532  22.783  1.00  0.00    -0.373 OA
ATOM     11  C   UNL A   1      30.374  25.285  23.004  1.00  0.00     0.036 C 
BRANCH   6  12
ATOM     12  C   UNL A   1      31.086  25.676  25.697  1.00  0.00     0.231 C 
ATOM     13  N   UNL A   1      31.670  24.443  25.476  1.00  0.00    -0.317 N 
ATOM     14  H   UNL A   1      31.660  24.099  26.399  1.00  0.00     0.170 HD
ATOM     15  O   UNL A   1      30.507  25.834  26.789  1.00  0.00    -0.274 OA
BRANCH  13  16
ATOM     16  C   UNL A   1      32.273  23.335  24.832  1.00  0.00     0.108 A 
ATOM     17  C   UNL A   1      33.434  18.566  24.375  1.00  0.00    -0.006 C 
ATOM     18  C   UNL A   1      32.433  18.802  23.225  1.00  0.00     0.009 C 
ATOM     19  C   UNL A   1      33.000  19.437  25.572  1.00  0.00     0.050 C 
ATOM     20  C   UNL A   1      32.628  20.246  22.675  1.00  0.00     0.038 C 
ATOM     21  C   UNL A   1      32.749  20.835  25.090  1.00  0.00     0.011 A 
ATOM     22  C   UNL A   1      32.649  21.261  23.791  1.00  0.00    -0.019 A 
ATOM     23  S   UNL A   1      32.525  22.100  26.128  1.00  0.00    -0.122 S 
ATOM     24  C   UNL A   1      32.839  22.730  23.710  1.00  0.00     0.077 A 
BRANCH  17  25
ATOM     25  C   UNL A   1      33.618  17.095  24.785  1.00  0.00     0.004 C 
BRANCH  25  26
ATOM     26  C   UNL A   1      32.502  16.569  25.709  1.00  0.00    -0.003 C 
ATOM     27  C   UNL A   1      32.316  15.054  25.712  1.00  0.00     0.004 C 
ENDBRANCH  25  26
ENDBRANCH  17  25
BRANCH  24  28
ATOM     28  C   UNL A   1      33.542  23.255  22.553  1.00  0.00     0.251 C 
ATOM     29  N   UNL A   1      32.696  23.469  21.493  1.00  0.00    -0.365 N 
ATOM     30  O   UNL A   1      34.670  23.698  22.570  1.00  0.00    -0.269 OA
ATOM     31  H   UNL A   1      31.784  23.097  21.506  1.00  0.00     0.159 HD
ATOM     32  H   UNL A   1      33.002  23.996  20.719  1.00  0.00     0.159 HD
ENDBRANCH  24  28
ENDBRANCH  13  16
ENDBRANCH   6  12
ENDBRANCH   3   5
ENDBRANCH   2   3
ENDBRANCH   1   2
BRANCH   1  33
ATOM     33  C   UNL A   1      33.274  30.100  26.510  1.00  0.00     0.275 C 
BRANCH  33  34
ATOM     34  O   UNL A   1      33.643  31.012  27.685  1.00  0.00    -0.458 OA
BRANCH  34  35
ATOM     35  C   UNL A   1      34.876  31.570  28.012  1.00  0.00     0.338 C 
ATOM     36  O   UNL A   1      35.018  32.775  28.164  1.00  0.00    -0.246 OA
BRANCH  35  37
ATOM     37  C   UNL A   1      36.046  30.522  28.328  1.00  0.00     0.060 A 
ATOM     38  C   UNL A   1      36.147  29.703  29.465  1.00  0.00     0.016 A 
ATOM     39  C   UNL A   1      37.185  30.454  27.518  1.00  0.00     0.016 A 
ATOM     40  C   UNL A   1      37.331  29.064  29.916  1.00  0.00     0.010 A 
ATOM     41  C   UNL A   1      38.343  29.682  27.887  1.00  0.00     0.010 A 
ATOM     42  C   UNL A   1      38.469  29.021  29.131  1.00  0.00    -0.014 A 
BRANCH  42  43
ATOM     43  C   UNL A   1      39.762  28.369  29.599  1.00  0.00     0.031 A 
ATOM     44  C   UNL A   1      40.543  29.018  30.727  1.00  0.00     0.074 A 
ATOM     45  C   UNL A   1      40.288  27.225  29.088  1.00  0.00     0.049 A 
ATOM     46  N   UNL A   1      41.803  28.889  31.062  1.00  0.00    -0.248 NA
ATOM     47  C   UNL A   1      39.792  29.943  31.591  1.00  0.00     0.031 C 
ATOM     48  C   UNL A   1      39.662  26.338  28.106  1.00  0.00     0.029 A 
ATOM     49  N   UNL A   1      41.523  26.625  29.307  1.00  0.00    -0.354 N 
ATOM     50  C   UNL A   1      42.026  29.812  32.080  1.00  0.00     0.074 A 
ATOM     51  C   UNL A   1      40.756  30.454  32.347  1.00  0.00     0.031 C 
ATOM     52  C   UNL A   1      40.509  25.343  27.790  1.00  0.00     0.029 A 
ATOM     53  C   UNL A   1      41.787  25.566  28.459  1.00  0.00     0.049 A 
ATOM     54  H   UNL A   1      42.151  26.926  30.003  1.00  0.00     0.167 HD
ATOM     55  C   UNL A   1      43.182  30.117  32.719  1.00  0.00     0.034 A 
ATOM     56  C   UNL A   1      42.928  24.896  28.174  1.00  0.00     0.034 A 
ATOM     57  C   UNL A   1      44.425  29.412  32.547  1.00  0.00     0.049 A 
ATOM     58  C   UNL A   1      44.221  25.286  28.853  1.00  0.00     0.074 A 
ATOM     59  C   UNL A   1      45.631  29.628  33.194  1.00  0.00     0.029 A 
ATOM     60  N   UNL A   1      44.627  28.354  31.678  1.00  0.00    -0.354 N 
ATOM     61  N   UNL A   1      44.427  26.179  29.788  1.00  0.00    -0.248 NA
ATOM     62  C   UNL A   1      45.441  24.569  28.438  1.00  0.00     0.031 C 
ATOM     63  C   UNL A   1      46.572  28.729  32.686  1.00  0.00     0.029 A 
ATOM     64  C   UNL A   1      45.940  27.920  31.759  1.00  0.00     0.049 A 
ATOM     65  H   UNL A   1      43.939  27.966  31.090  1.00  0.00     0.167 HD
ATOM     66  C   UNL A   1      45.782  26.104  30.099  1.00  0.00     0.074 A 
ATOM     67  C   UNL A   1      46.348  25.065  29.268  1.00  0.00     0.031 C 
ATOM     68  C   UNL A   1      46.494  26.841  30.985  1.00  0.00     0.034 A 
BRANCH  55  69
ATOM     69  C   UNL A   1      43.191  31.297  33.659  1.00  0.00     0.023 A 
ATOM     70  C   UNL A   1      43.599  32.568  33.218  1.00  0.00     0.012 A 
ATOM     71  C   UNL A   1      42.679  31.147  34.967  1.00  0.00     0.148 A 
ATOM     72  C   UNL A   1      43.520  33.670  34.071  1.00  0.00     0.002 A 
ATOM     73  C   UNL A   1      42.556  32.257  35.792  1.00  0.00     0.091 A 
ATOM     74  F   UNL A   1      42.309  29.923  35.371  1.00  0.00    -0.205 F 
ATOM     75  C   UNL A   1      42.987  33.518  35.351  1.00  0.00     0.022 A 
BRANCH  73  76
ATOM     76  S   UNL A   1      41.792  32.177  37.417  1.00  0.00     0.127 S 
ATOM     77  O   UNL A   1      40.427  31.775  37.081  1.00  0.00    -0.237 OA
ATOM     78  O   UNL A   1      42.587  31.143  38.078  1.00  0.00    -0.237 OA
ATOM     79  O   UNL A   1      41.922  33.509  37.991  1.00  0.00    -0.744 OA
ENDBRANCH  73  76
ENDBRANCH  55  69
BRANCH  56  80
ATOM     80  C   UNL A   1      42.945  23.807  27.141  1.00  0.00     0.023 A 
ATOM     81  C   UNL A   1      43.553  24.035  25.890  1.00  0.00     0.012 A 
ATOM     82  C   UNL A   1      42.326  22.562  27.375  1.00  0.00     0.148 A 
ATOM     83  C   UNL A   1      43.517  23.063  24.887  1.00  0.00     0.002 A 
ATOM     84  C   UNL A   1      42.355  21.572  26.398  1.00  0.00     0.091 A 
ATOM     85  F   UNL A   1      41.710  22.369  28.550  1.00  0.00    -0.205 F 
ATOM     86  C   UNL A   1      42.931  21.827  25.145  1.00  0.00     0.022 A 
BRANCH  84  87
ATOM     87  S   UNL A   1      41.751  19.906  26.699  1.00  0.00     0.127 S 
ATOM     88  O   UNL A   1      40.347  20.149  27.022  1.00  0.00    -0.237 OA
ATOM     89  O   UNL A   1      41.984  19.262  25.406  1.00  0.00    -0.237 OA
ATOM     90  O   UNL A   1      42.571  19.383  27.782  1.00  0.00    -0.744 OA
ENDBRANCH  84  87
ENDBRANCH  56  80
BRANCH  68  91
ATOM     91  C   UNL A   1      47.954  26.516  31.176  1.00  0.00     0.023 A 
ATOM     92  C   UNL A   1      48.354  25.591  32.160  1.00  0.00     0.012 A 
ATOM     93  C   UNL A   1      48.926  27.077  30.323  1.00  0.00     0.148 A 
ATOM     94  C   UNL A   1      49.700  25.257  32.314  1.00  0.00     0.002 A 
ATOM     95  C   UNL A   1      50.259  26.701  30.448  1.00  0.00     0.091 A 
ATOM     96  F   UNL A   1      48.529  27.967  29.401  1.00  0.00    -0.205 F 
ATOM     97  C   UNL A   1      50.649  25.802  31.452  1.00  0.00     0.022 A 
BRANCH  95  98
ATOM     98  S   UNL A   1      51.536  27.277  29.322  1.00  0.00     0.127 S 
ATOM     99  O   UNL A   1      52.641  26.374  29.639  1.00  0.00    -0.237 OA
ATOM    100  O   UNL A   1      50.919  27.051  28.014  1.00  0.00    -0.237 OA
ATOM    101  O   UNL A   1      51.763  28.677  29.651  1.00  0.00    -0.744 OA
ENDBRANCH  95  98
ENDBRANCH  68  91
ENDBRANCH  42  43
ENDBRANCH  35  37
ENDBRANCH  34  35
ENDBRANCH  33  34
ENDBRANCH   1  33
TORSDOF 19
ENDMDL
