MODEL 1
REMARK VINA RESULT:      -9.3      0.000      0.000
REMARK SMILES CS(=O)(=O)NCCCCCC(=O)OCCOC(=O)c1ccc(-c2c3nc(c(-c4cccc(S(=O)(=O)[O-])c4F)c4ccc([nH]4)c(-c4cccc(S(=O)(=O)[O-])c4F)c4nc(c(-c5cccc(S(=O)(=O)[O-])c5F)c5ccc2[nH]5)C=C4)C=C3)cc1
REMARK SMILES IDX 13 1 11 2 12 3 10 4 9 5 8 6 7 7 6 8 5 9 2 11 1 12 3 13 4 14
REMARK SMILES IDX 14 15 15 16 16 17 17 18 18 19 19 20 20 21 81 22 21 23 80 24
REMARK SMILES IDX 22 25 23 26 24 27 74 28 25 29 79 30 73 31 75 32 26 33 78 34
REMARK SMILES IDX 72 35 71 36 27 38 59 39 39 40 58 41 40 42 43 43 57 44 76 45
REMARK SMILES IDX 41 46 42 47 56 49 77 50 44 51 28 52 29 53 37 54 30 55 32 56
REMARK SMILES IDX 38 57 31 58 33 59 34 60 35 61 36 62 60 63 61 64 69 65 62 66
REMARK SMILES IDX 64 67 70 68 63 69 65 70 66 71 67 72 68 73 45 74 46 75 54 76
REMARK SMILES IDX 47 77 49 78 55 79 48 80 50 81 51 82 52 83 53 84
REMARK H PARENT 5 10 75 37 43 48
REMARK Flexibility Score: inf
ROOT
ATOM      1  O   UNL A   1      35.731  21.807  25.012  1.00  0.00    -0.462 OA
ENDROOT
BRANCH   1   2
ATOM      2  C   UNL A   1      34.600  22.238  24.406  1.00  0.00     0.305 C 
ATOM      3  O   UNL A   1      33.466  21.897  24.712  1.00  0.00    -0.252 OA
BRANCH   2   4
ATOM      4  C   UNL A   1      34.876  23.170  23.242  1.00  0.00     0.123 C 
BRANCH   4   5
ATOM      5  C   UNL A   1      34.127  24.506  23.232  1.00  0.00     0.012 C 
BRANCH   5   6
ATOM      6  C   UNL A   1      32.903  24.591  22.310  1.00  0.00     0.002 C 
BRANCH   6   7
ATOM      7  C   UNL A   1      31.580  24.858  23.027  1.00  0.00     0.016 C 
BRANCH   7   8
ATOM      8  C   UNL A   1      31.120  26.306  22.936  1.00  0.00     0.098 C 
BRANCH   8   9
ATOM      9  N   UNL A   1      31.564  27.142  24.062  1.00  0.00    -0.215 NA
ATOM     10  H   UNL A   1      30.716  27.489  24.511  1.00  0.00     0.140 HD
BRANCH   9  11
ATOM     11  S   UNL A   1      32.556  28.475  23.838  1.00  0.00     0.208 S 
ATOM     12  C   UNL A   1      32.044  29.572  25.142  1.00  0.00     0.176 C 
ATOM     13  O   UNL A   1      32.240  29.085  22.568  1.00  0.00    -0.213 OA
ATOM     14  O   UNL A   1      33.901  28.023  24.121  1.00  0.00    -0.213 OA
ENDBRANCH   9  11
ENDBRANCH   8   9
ENDBRANCH   7   8
ENDBRANCH   6   7
ENDBRANCH   5   6
ENDBRANCH   4   5
ENDBRANCH   2   4
ENDBRANCH   1   2
BRANCH   1  15
ATOM     15  C   UNL A   1      36.008  20.395  24.968  1.00  0.00     0.274 C 
BRANCH  15  16
ATOM     16  C   UNL A   1      37.516  20.154  24.990  1.00  0.00     0.275 C 
BRANCH  16  17
ATOM     17  O   UNL A   1      38.192  21.274  25.588  1.00  0.00    -0.458 OA
BRANCH  17  18
ATOM     18  C   UNL A   1      39.387  21.000  26.158  1.00  0.00     0.338 C 
ATOM     19  O   UNL A   1      39.974  19.932  26.187  1.00  0.00    -0.246 OA
BRANCH  18  20
ATOM     20  C   UNL A   1      39.963  22.251  26.668  1.00  0.00     0.060 A 
ATOM     21  C   UNL A   1      39.535  23.458  26.112  1.00  0.00     0.016 A 
ATOM     22  C   UNL A   1      40.958  22.227  27.640  1.00  0.00     0.016 A 
ATOM     23  C   UNL A   1      40.108  24.658  26.520  1.00  0.00     0.010 A 
ATOM     24  C   UNL A   1      41.517  23.434  28.067  1.00  0.00     0.010 A 
ATOM     25  C   UNL A   1      41.104  24.655  27.503  1.00  0.00    -0.014 A 
BRANCH  25  26
ATOM     26  C   UNL A   1      41.736  25.924  27.932  1.00  0.00     0.031 A 
ATOM     27  C   UNL A   1      40.914  26.955  28.648  1.00  0.00     0.074 A 
ATOM     28  C   UNL A   1      43.027  26.161  27.636  1.00  0.00     0.049 A 
ATOM     29  N   UNL A   1      41.224  28.185  28.960  1.00  0.00    -0.248 NA
ATOM     30  C   UNL A   1      39.559  26.552  29.060  1.00  0.00     0.031 C 
ATOM     31  C   UNL A   1      43.925  25.223  26.960  1.00  0.00     0.029 A 
ATOM     32  N   UNL A   1      43.799  27.278  27.834  1.00  0.00    -0.354 N 
ATOM     33  C   UNL A   1      40.088  28.723  29.552  1.00  0.00     0.074 A 
ATOM     34  C   UNL A   1      39.084  27.682  29.564  1.00  0.00     0.031 C 
ATOM     35  C   UNL A   1      45.117  25.812  26.774  1.00  0.00     0.029 A 
ATOM     36  C   UNL A   1      45.050  27.183  27.270  1.00  0.00     0.049 A 
ATOM     37  H   UNL A   1      43.488  28.070  28.330  1.00  0.00     0.167 HD
ATOM     38  C   UNL A   1      39.904  29.970  30.044  1.00  0.00     0.034 A 
ATOM     39  C   UNL A   1      46.017  28.111  27.130  1.00  0.00     0.034 A 
ATOM     40  C   UNL A   1      40.924  30.984  30.063  1.00  0.00     0.049 A 
ATOM     41  C   UNL A   1      45.781  29.493  27.675  1.00  0.00     0.074 A 
ATOM     42  C   UNL A   1      40.855  32.265  30.580  1.00  0.00     0.029 A 
ATOM     43  N   UNL A   1      42.199  30.832  29.537  1.00  0.00    -0.354 N 
ATOM     44  N   UNL A   1      44.733  29.963  28.308  1.00  0.00    -0.248 NA
ATOM     45  C   UNL A   1      46.869  30.469  27.507  1.00  0.00     0.031 C 
ATOM     46  C   UNL A   1      42.084  32.894  30.352  1.00  0.00     0.029 A 
ATOM     47  C   UNL A   1      42.925  31.997  29.711  1.00  0.00     0.049 A 
ATOM     48  H   UNL A   1      42.537  30.015  29.104  1.00  0.00     0.167 HD
ATOM     49  C   UNL A   1      45.044  31.275  28.641  1.00  0.00     0.074 A 
ATOM     50  C   UNL A   1      46.388  31.521  28.156  1.00  0.00     0.031 C 
ATOM     51  C   UNL A   1      44.283  32.201  29.274  1.00  0.00     0.034 A 
BRANCH  38  52
ATOM     52  C   UNL A   1      38.556  30.304  30.623  1.00  0.00     0.023 A 
ATOM     53  C   UNL A   1      38.247  29.919  31.944  1.00  0.00     0.012 A 
ATOM     54  C   UNL A   1      37.614  31.043  29.880  1.00  0.00     0.148 A 
ATOM     55  C   UNL A   1      37.012  30.240  32.506  1.00  0.00     0.002 A 
ATOM     56  C   UNL A   1      36.401  31.393  30.461  1.00  0.00     0.091 A 
ATOM     57  F   UNL A   1      37.916  31.377  28.617  1.00  0.00    -0.205 F 
ATOM     58  C   UNL A   1      36.094  30.985  31.769  1.00  0.00     0.022 A 
BRANCH  56  59
ATOM     59  S   UNL A   1      35.184  32.412  29.618  1.00  0.00     0.127 S 
ATOM     60  O   UNL A   1      34.708  31.502  28.577  1.00  0.00    -0.237 OA
ATOM     61  O   UNL A   1      34.216  32.680  30.681  1.00  0.00    -0.237 OA
ATOM     62  O   UNL A   1      35.903  33.585  29.144  1.00  0.00    -0.744 OA
ENDBRANCH  56  59
ENDBRANCH  38  52
BRANCH  39  63
ATOM     63  C   UNL A   1      47.301  27.752  26.464  1.00  0.00     0.023 A 
ATOM     64  C   UNL A   1      48.381  27.301  27.245  1.00  0.00     0.012 A 
ATOM     65  C   UNL A   1      47.446  27.819  25.063  1.00  0.00     0.148 A 
ATOM     66  C   UNL A   1      49.591  26.945  26.647  1.00  0.00     0.002 A 
ATOM     67  C   UNL A   1      48.635  27.410  24.469  1.00  0.00     0.091 A 
ATOM     68  F   UNL A   1      46.412  28.270  24.338  1.00  0.00    -0.205 F 
ATOM     69  C   UNL A   1      49.714  26.987  25.260  1.00  0.00     0.022 A 
BRANCH  67  70
ATOM     70  S   UNL A   1      48.831  27.307  22.687  1.00  0.00     0.127 S 
ATOM     71  O   UNL A   1      48.371  25.948  22.413  1.00  0.00    -0.237 OA
ATOM     72  O   UNL A   1      47.935  28.366  22.220  1.00  0.00    -0.237 OA
ATOM     73  O   UNL A   1      50.242  27.563  22.433  1.00  0.00    -0.744 OA
ENDBRANCH  67  70
ENDBRANCH  39  63
BRANCH  51  74
ATOM     74  C   UNL A   1      44.891  33.556  29.519  1.00  0.00     0.023 A 
ATOM     75  C   UNL A   1      45.597  33.798  30.713  1.00  0.00     0.012 A 
ATOM     76  C   UNL A   1      44.837  34.556  28.528  1.00  0.00     0.148 A 
ATOM     77  C   UNL A   1      46.220  35.026  30.928  1.00  0.00     0.002 A 
ATOM     78  C   UNL A   1      45.499  35.761  28.730  1.00  0.00     0.091 A 
ATOM     79  F   UNL A   1      44.143  34.310  27.408  1.00  0.00    -0.205 F 
ATOM     80  C   UNL A   1      46.183  36.002  29.933  1.00  0.00     0.022 A 
BRANCH  78  81
ATOM     81  S   UNL A   1      45.584  37.035  27.467  1.00  0.00     0.127 S 
ATOM     82  O   UNL A   1      44.179  37.423  27.341  1.00  0.00    -0.237 OA
ATOM     83  O   UNL A   1      46.440  38.040  28.097  1.00  0.00    -0.237 OA
ATOM     84  O   UNL A   1      46.164  36.398  26.293  1.00  0.00    -0.744 OA
ENDBRANCH  78  81
ENDBRANCH  51  74
ENDBRANCH  25  26
ENDBRANCH  18  20
ENDBRANCH  17  18
ENDBRANCH  16  17
ENDBRANCH  15  16
ENDBRANCH   1  15
TORSDOF 20
ENDMDL
MODEL 2
REMARK VINA RESULT:      -8.8      5.279      9.879
REMARK SMILES CS(=O)(=O)NCCCCCC(=O)OCCOC(=O)c1ccc(-c2c3nc(c(-c4cccc(S(=O)(=O)[O-])c4F)c4ccc([nH]4)c(-c4cccc(S(=O)(=O)[O-])c4F)c4nc(c(-c5cccc(S(=O)(=O)[O-])c5F)c5ccc2[nH]5)C=C4)C=C3)cc1
REMARK SMILES IDX 13 1 11 2 12 3 10 4 9 5 8 6 7 7 6 8 5 9 2 11 1 12 3 13 4 14
REMARK SMILES IDX 14 15 15 16 16 17 17 18 18 19 19 20 20 21 81 22 21 23 80 24
REMARK SMILES IDX 22 25 23 26 24 27 74 28 25 29 79 30 73 31 75 32 26 33 78 34
REMARK SMILES IDX 72 35 71 36 27 38 59 39 39 40 58 41 40 42 43 43 57 44 76 45
REMARK SMILES IDX 41 46 42 47 56 49 77 50 44 51 28 52 29 53 37 54 30 55 32 56
REMARK SMILES IDX 38 57 31 58 33 59 34 60 35 61 36 62 60 63 61 64 69 65 62 66
REMARK SMILES IDX 64 67 70 68 63 69 65 70 66 71 67 72 68 73 45 74 46 75 54 76
REMARK SMILES IDX 47 77 49 78 55 79 48 80 50 81 51 82 52 83 53 84
REMARK H PARENT 5 10 75 37 43 48
REMARK Flexibility Score: inf
ROOT
ATOM      1  O   UNL A   1      35.309  33.186  30.990  1.00  0.00    -0.462 OA
ENDROOT
BRANCH   1   2
ATOM      2  C   UNL A   1      34.871  32.936  32.246  1.00  0.00     0.305 C 
ATOM      3  O   UNL A   1      33.696  32.829  32.570  1.00  0.00    -0.252 OA
BRANCH   2   4
ATOM      4  C   UNL A   1      35.998  32.851  33.256  1.00  0.00     0.123 C 
BRANCH   4   5
ATOM      5  C   UNL A   1      36.644  34.171  33.686  1.00  0.00     0.012 C 
BRANCH   5   6
ATOM      6  C   UNL A   1      38.145  34.317  33.404  1.00  0.00     0.002 C 
BRANCH   6   7
ATOM      7  C   UNL A   1      38.523  34.278  31.923  1.00  0.00     0.016 C 
BRANCH   7   8
ATOM      8  C   UNL A   1      40.022  34.366  31.675  1.00  0.00     0.098 C 
BRANCH   8   9
ATOM      9  N   UNL A   1      40.390  34.362  30.251  1.00  0.00    -0.215 NA
ATOM     10  H   UNL A   1      39.943  33.540  29.843  1.00  0.00     0.140 HD
BRANCH   9  11
ATOM     11  S   UNL A   1      41.990  34.324  29.750  1.00  0.00     0.208 S 
ATOM     12  C   UNL A   1      42.837  35.161  31.071  1.00  0.00     0.176 C 
ATOM     13  O   UNL A   1      42.121  35.108  28.544  1.00  0.00    -0.213 OA
ATOM     14  O   UNL A   1      42.380  32.930  29.766  1.00  0.00    -0.213 OA
ENDBRANCH   9  11
ENDBRANCH   8   9
ENDBRANCH   7   8
ENDBRANCH   6   7
ENDBRANCH   5   6
ENDBRANCH   4   5
ENDBRANCH   2   4
ENDBRANCH   1   2
BRANCH   1  15
ATOM     15  C   UNL A   1      34.582  34.158  30.216  1.00  0.00     0.274 C 
BRANCH  15  16
ATOM     16  C   UNL A   1      33.946  33.491  28.998  1.00  0.00     0.275 C 
BRANCH  16  17
ATOM     17  O   UNL A   1      34.963  32.939  28.143  1.00  0.00    -0.458 OA
BRANCH  17  18
ATOM     18  C   UNL A   1      34.893  31.605  27.935  1.00  0.00     0.338 C 
ATOM     19  O   UNL A   1      34.071  30.994  27.276  1.00  0.00    -0.246 OA
BRANCH  18  20
ATOM     20  C   UNL A   1      36.065  30.972  28.552  1.00  0.00     0.060 A 
ATOM     21  C   UNL A   1      37.321  31.547  28.347  1.00  0.00     0.016 A 
ATOM     22  C   UNL A   1      35.933  29.789  29.273  1.00  0.00     0.016 A 
ATOM     23  C   UNL A   1      38.461  30.936  28.857  1.00  0.00     0.010 A 
ATOM     24  C   UNL A   1      37.076  29.188  29.805  1.00  0.00     0.010 A 
ATOM     25  C   UNL A   1      38.347  29.751  29.592  1.00  0.00    -0.014 A 
BRANCH  25  26
ATOM     26  C   UNL A   1      39.556  29.080  30.124  1.00  0.00     0.031 A 
ATOM     27  C   UNL A   1      40.206  29.605  31.372  1.00  0.00     0.074 A 
ATOM     28  C   UNL A   1      40.089  28.038  29.461  1.00  0.00     0.049 A 
ATOM     29  N   UNL A   1      41.350  29.273  31.907  1.00  0.00    -0.248 NA
ATOM     30  C   UNL A   1      39.474  30.648  32.109  1.00  0.00     0.031 C 
ATOM     31  C   UNL A   1      39.531  27.434  28.249  1.00  0.00     0.029 A 
ATOM     32  N   UNL A   1      41.237  27.324  29.692  1.00  0.00    -0.354 N 
ATOM     33  C   UNL A   1      41.506  30.103  33.011  1.00  0.00     0.074 A 
ATOM     34  C   UNL A   1      40.333  30.949  33.073  1.00  0.00     0.031 C 
ATOM     35  C   UNL A   1      40.352  26.459  27.827  1.00  0.00     0.029 A 
ATOM     36  C   UNL A   1      41.516  26.405  28.706  1.00  0.00     0.049 A 
ATOM     37  H   UNL A   1      41.807  27.456  30.484  1.00  0.00     0.167 HD
ATOM     38  C   UNL A   1      42.531  30.149  33.892  1.00  0.00     0.034 A 
ATOM     39  C   UNL A   1      42.606  25.638  28.511  1.00  0.00     0.034 A 
ATOM     40  C   UNL A   1      43.672  29.276  33.842  1.00  0.00     0.049 A 
ATOM     41  C   UNL A   1      43.737  25.719  29.499  1.00  0.00     0.074 A 
ATOM     42  C   UNL A   1      44.744  29.209  34.713  1.00  0.00     0.029 A 
ATOM     43  N   UNL A   1      43.890  28.316  32.864  1.00  0.00    -0.354 N 
ATOM     44  N   UNL A   1      43.834  26.448  30.585  1.00  0.00    -0.248 NA
ATOM     45  C   UNL A   1      44.902  24.856  29.249  1.00  0.00     0.031 C 
ATOM     46  C   UNL A   1      45.621  28.221  34.253  1.00  0.00     0.029 A 
ATOM     47  C   UNL A   1      45.083  27.657  33.106  1.00  0.00     0.049 A 
ATOM     48  H   UNL A   1      43.286  28.132  32.110  1.00  0.00     0.167 HD
ATOM     49  C   UNL A   1      45.051  26.112  31.164  1.00  0.00     0.074 A 
ATOM     50  C   UNL A   1      45.649  25.098  30.318  1.00  0.00     0.031 C 
ATOM     51  C   UNL A   1      45.632  26.608  32.283  1.00  0.00     0.034 A 
BRANCH  38  52
ATOM     52  C   UNL A   1      42.459  31.165  35.000  1.00  0.00     0.023 A 
ATOM     53  C   UNL A   1      41.979  30.784  36.269  1.00  0.00     0.012 A 
ATOM     54  C   UNL A   1      42.913  32.484  34.801  1.00  0.00     0.148 A 
ATOM     55  C   UNL A   1      41.926  31.705  37.314  1.00  0.00     0.002 A 
ATOM     56  C   UNL A   1      42.894  33.386  35.857  1.00  0.00     0.091 A 
ATOM     57  F   UNL A   1      43.342  32.835  33.579  1.00  0.00    -0.205 F 
ATOM     58  C   UNL A   1      42.393  33.002  37.112  1.00  0.00     0.022 A 
BRANCH  56  59
ATOM     59  S   UNL A   1      43.541  35.057  35.715  1.00  0.00     0.127 S 
ATOM     60  O   UNL A   1      43.320  35.574  37.065  1.00  0.00    -0.237 OA
ATOM     61  O   UNL A   1      44.944  34.817  35.377  1.00  0.00    -0.237 OA
ATOM     62  O   UNL A   1      42.766  35.698  34.664  1.00  0.00    -0.744 OA
ENDBRANCH  56  59
ENDBRANCH  38  52
BRANCH  39  63
ATOM     63  C   UNL A   1      42.665  24.714  27.343  1.00  0.00     0.023 A 
ATOM     64  C   UNL A   1      43.279  25.146  26.152  1.00  0.00     0.012 A 
ATOM     65  C   UNL A   1      42.153  23.403  27.416  1.00  0.00     0.148 A 
ATOM     66  C   UNL A   1      43.360  24.298  25.046  1.00  0.00     0.002 A 
ATOM     67  C   UNL A   1      42.288  22.545  26.330  1.00  0.00     0.091 A 
ATOM     68  F   UNL A   1      41.555  23.017  28.552  1.00  0.00    -0.205 F 
ATOM     69  C   UNL A   1      42.877  22.996  25.139  1.00  0.00     0.022 A 
BRANCH  67  70
ATOM     70  S   UNL A   1      41.813  20.815  26.410  1.00  0.00     0.127 S 
ATOM     71  O   UNL A   1      42.188  20.464  27.778  1.00  0.00    -0.237 OA
ATOM     72  O   UNL A   1      40.371  20.883  26.166  1.00  0.00    -0.237 OA
ATOM     73  O   UNL A   1      42.567  20.152  25.355  1.00  0.00    -0.744 OA
ENDBRANCH  67  70
ENDBRANCH  39  63
BRANCH  51  74
ATOM     74  C   UNL A   1      46.965  26.039  32.689  1.00  0.00     0.023 A 
ATOM     75  C   UNL A   1      48.151  26.665  32.259  1.00  0.00     0.012 A 
ATOM     76  C   UNL A   1      47.038  24.939  33.567  1.00  0.00     0.148 A 
ATOM     77  C   UNL A   1      49.393  26.188  32.677  1.00  0.00     0.002 A 
ATOM     78  C   UNL A   1      48.277  24.500  34.016  1.00  0.00     0.091 A 
ATOM     79  F   UNL A   1      45.897  24.348  33.948  1.00  0.00    -0.205 F 
ATOM     80  C   UNL A   1      49.456  25.116  33.565  1.00  0.00     0.022 A 
BRANCH  78  81
ATOM     81  S   UNL A   1      48.448  23.188  35.232  1.00  0.00     0.127 S 
ATOM     82  O   UNL A   1      47.546  22.168  34.700  1.00  0.00    -0.237 OA
ATOM     83  O   UNL A   1      49.870  22.856  35.132  1.00  0.00    -0.237 OA
ATOM     84  O   UNL A   1      48.053  23.769  36.507  1.00  0.00    -0.744 OA
ENDBRANCH  78  81
ENDBRANCH  51  74
ENDBRANCH  25  26
ENDBRANCH  18  20
ENDBRANCH  17  18
ENDBRANCH  16  17
ENDBRANCH  15  16
ENDBRANCH   1  15
TORSDOF 20
ENDMDL
MODEL 3
REMARK VINA RESULT:      -8.7      6.173     11.014
REMARK SMILES CS(=O)(=O)NCCCCCC(=O)OCCOC(=O)c1ccc(-c2c3nc(c(-c4cccc(S(=O)(=O)[O-])c4F)c4ccc([nH]4)c(-c4cccc(S(=O)(=O)[O-])c4F)c4nc(c(-c5cccc(S(=O)(=O)[O-])c5F)c5ccc2[nH]5)C=C4)C=C3)cc1
REMARK SMILES IDX 13 1 11 2 12 3 10 4 9 5 8 6 7 7 6 8 5 9 2 11 1 12 3 13 4 14
REMARK SMILES IDX 14 15 15 16 16 17 17 18 18 19 19 20 20 21 81 22 21 23 80 24
REMARK SMILES IDX 22 25 23 26 24 27 74 28 25 29 79 30 73 31 75 32 26 33 78 34
REMARK SMILES IDX 72 35 71 36 27 38 59 39 39 40 58 41 40 42 43 43 57 44 76 45
REMARK SMILES IDX 41 46 42 47 56 49 77 50 44 51 28 52 29 53 37 54 30 55 32 56
REMARK SMILES IDX 38 57 31 58 33 59 34 60 35 61 36 62 60 63 61 64 69 65 62 66
REMARK SMILES IDX 64 67 70 68 63 69 65 70 66 71 67 72 68 73 45 74 46 75 54 76
REMARK SMILES IDX 47 77 49 78 55 79 48 80 50 81 51 82 52 83 53 84
REMARK H PARENT 5 10 75 37 43 48
REMARK Flexibility Score: inf
ROOT
ATOM      1  O   UNL A   1      31.850  31.025  26.850  1.00  0.00    -0.462 OA
ENDROOT
BRANCH   1   2
ATOM      2  C   UNL A   1      31.997  29.696  26.642  1.00  0.00     0.305 C 
ATOM      3  O   UNL A   1      31.866  28.833  27.499  1.00  0.00    -0.252 OA
BRANCH   2   4
ATOM      4  C   UNL A   1      32.404  29.365  25.219  1.00  0.00     0.123 C 
BRANCH   4   5
ATOM      5  C   UNL A   1      32.219  27.913  24.767  1.00  0.00     0.012 C 
BRANCH   5   6
ATOM      6  C   UNL A   1      33.478  27.193  24.266  1.00  0.00     0.002 C 
BRANCH   6   7
ATOM      7  C   UNL A   1      33.314  26.478  22.924  1.00  0.00     0.016 C 
BRANCH   7   8
ATOM      8  C   UNL A   1      33.854  25.055  22.923  1.00  0.00     0.098 C 
BRANCH   8   9
ATOM      9  N   UNL A   1      34.560  24.687  24.159  1.00  0.00    -0.215 NA
ATOM     10  H   UNL A   1      35.033  25.532  24.481  1.00  0.00     0.140 HD
BRANCH   9  11
ATOM     11  S   UNL A   1      35.707  23.464  24.193  1.00  0.00     0.208 S 
ATOM     12  C   UNL A   1      34.777  22.066  24.782  1.00  0.00     0.176 C 
ATOM     13  O   UNL A   1      36.716  23.796  25.171  1.00  0.00    -0.213 OA
ATOM     14  O   UNL A   1      36.073  23.223  22.814  1.00  0.00    -0.213 OA
ENDBRANCH   9  11
ENDBRANCH   8   9
ENDBRANCH   7   8
ENDBRANCH   6   7
ENDBRANCH   5   6
ENDBRANCH   4   5
ENDBRANCH   2   4
ENDBRANCH   1   2
BRANCH   1  15
ATOM     15  C   UNL A   1      32.947  31.724  27.468  1.00  0.00     0.274 C 
BRANCH  15  16
ATOM     16  C   UNL A   1      32.745  33.233  27.344  1.00  0.00     0.275 C 
BRANCH  16  17
ATOM     17  O   UNL A   1      32.483  33.810  28.634  1.00  0.00    -0.458 OA
BRANCH  17  18
ATOM     18  C   UNL A   1      33.330  34.791  29.021  1.00  0.00     0.338 C 
ATOM     19  O   UNL A   1      33.130  35.992  29.023  1.00  0.00    -0.246 OA
BRANCH  18  20
ATOM     20  C   UNL A   1      34.545  34.174  29.567  1.00  0.00     0.060 A 
ATOM     21  C   UNL A   1      34.421  33.288  30.639  1.00  0.00     0.016 A 
ATOM     22  C   UNL A   1      35.798  34.515  29.067  1.00  0.00     0.016 A 
ATOM     23  C   UNL A   1      35.554  32.739  31.228  1.00  0.00     0.010 A 
ATOM     24  C   UNL A   1      36.936  33.945  29.643  1.00  0.00     0.010 A 
ATOM     25  C   UNL A   1      36.822  33.062  30.733  1.00  0.00    -0.014 A 
BRANCH  25  26
ATOM     26  C   UNL A   1      38.039  32.499  31.363  1.00  0.00     0.031 A 
ATOM     27  C   UNL A   1      38.738  31.338  30.718  1.00  0.00     0.074 A 
ATOM     28  C   UNL A   1      38.479  33.001  32.532  1.00  0.00     0.049 A 
ATOM     29  N   UNL A   1      39.709  30.599  31.183  1.00  0.00    -0.248 NA
ATOM     30  C   UNL A   1      38.277  30.953  29.374  1.00  0.00     0.031 C 
ATOM     31  C   UNL A   1      37.888  34.139  33.239  1.00  0.00     0.029 A 
ATOM     32  N   UNL A   1      39.505  32.596  33.348  1.00  0.00    -0.354 N 
ATOM     33  C   UNL A   1      39.938  29.625  30.218  1.00  0.00     0.074 A 
ATOM     34  C   UNL A   1      39.010  29.875  29.136  1.00  0.00     0.031 C 
ATOM     35  C   UNL A   1      38.543  34.324  34.396  1.00  0.00     0.029 A 
ATOM     36  C   UNL A   1      39.563  33.289  34.536  1.00  0.00     0.049 A 
ATOM     37  H   UNL A   1      40.137  31.880  33.109  1.00  0.00     0.167 HD
ATOM     38  C   UNL A   1      40.844  28.620  30.233  1.00  0.00     0.034 A 
ATOM     39  C   UNL A   1      40.322  33.084  35.630  1.00  0.00     0.034 A 
ATOM     40  C   UNL A   1      41.788  28.407  31.297  1.00  0.00     0.049 A 
ATOM     41  C   UNL A   1      41.312  31.952  35.625  1.00  0.00     0.074 A 
ATOM     42  C   UNL A   1      42.779  27.447  31.389  1.00  0.00     0.029 A 
ATOM     43  N   UNL A   1      41.857  29.167  32.456  1.00  0.00    -0.354 N 
ATOM     44  N   UNL A   1      41.576  31.091  34.671  1.00  0.00    -0.248 NA
ATOM     45  C   UNL A   1      42.124  31.773  36.837  1.00  0.00     0.031 C 
ATOM     46  C   UNL A   1      43.436  27.613  32.613  1.00  0.00     0.029 A 
ATOM     47  C   UNL A   1      42.868  28.692  33.273  1.00  0.00     0.049 A 
ATOM     48  H   UNL A   1      41.272  29.930  32.667  1.00  0.00     0.167 HD
ATOM     49  C   UNL A   1      42.604  30.290  35.154  1.00  0.00     0.074 A 
ATOM     50  C   UNL A   1      42.928  30.781  36.479  1.00  0.00     0.031 C 
ATOM     51  C   UNL A   1      43.213  29.233  34.564  1.00  0.00     0.034 A 
BRANCH  38  52
ATOM     52  C   UNL A   1      40.874  27.685  29.055  1.00  0.00     0.023 A 
ATOM     53  C   UNL A   1      39.954  26.619  28.985  1.00  0.00     0.012 A 
ATOM     54  C   UNL A   1      41.777  27.889  27.993  1.00  0.00     0.148 A 
ATOM     55  C   UNL A   1      39.951  25.755  27.890  1.00  0.00     0.002 A 
ATOM     56  C   UNL A   1      41.741  27.049  26.888  1.00  0.00     0.091 A 
ATOM     57  F   UNL A   1      42.661  28.893  28.090  1.00  0.00    -0.205 F 
ATOM     58  C   UNL A   1      40.836  25.976  26.838  1.00  0.00     0.022 A 
BRANCH  56  59
ATOM     59  S   UNL A   1      42.792  27.295  25.451  1.00  0.00     0.127 S 
ATOM     60  O   UNL A   1      42.642  26.019  24.753  1.00  0.00    -0.237 OA
ATOM     61  O   UNL A   1      42.149  28.430  24.789  1.00  0.00    -0.237 OA
ATOM     62  O   UNL A   1      44.123  27.572  25.970  1.00  0.00    -0.744 OA
ENDBRANCH  56  59
ENDBRANCH  38  52
BRANCH  39  63
ATOM     63  C   UNL A   1      40.186  33.986  36.808  1.00  0.00     0.023 A 
ATOM     64  C   UNL A   1      39.028  33.912  37.605  1.00  0.00     0.012 A 
ATOM     65  C   UNL A   1      41.209  34.888  37.165  1.00  0.00     0.148 A 
ATOM     66  C   UNL A   1      38.880  34.736  38.722  1.00  0.00     0.002 A 
ATOM     67  C   UNL A   1      41.079  35.665  38.310  1.00  0.00     0.091 A 
ATOM     68  F   UNL A   1      42.296  34.959  36.382  1.00  0.00    -0.205 F 
ATOM     69  C   UNL A   1      39.909  35.602  39.081  1.00  0.00     0.022 A 
BRANCH  67  70
ATOM     70  S   UNL A   1      42.409  36.709  38.918  1.00  0.00     0.127 S 
ATOM     71  O   UNL A   1      43.455  35.728  39.199  1.00  0.00    -0.237 OA
ATOM     72  O   UNL A   1      42.670  37.572  37.765  1.00  0.00    -0.237 OA
ATOM     73  O   UNL A   1      41.864  37.405  40.075  1.00  0.00    -0.744 OA
ENDBRANCH  67  70
ENDBRANCH  39  63
BRANCH  51  74
ATOM     74  C   UNL A   1      44.322  28.554  35.323  1.00  0.00     0.023 A 
ATOM     75  C   UNL A   1      45.655  28.960  35.124  1.00  0.00     0.012 A 
ATOM     76  C   UNL A   1      44.030  27.577  36.295  1.00  0.00     0.148 A 
ATOM     77  C   UNL A   1      46.687  28.385  35.864  1.00  0.00     0.002 A 
ATOM     78  C   UNL A   1      45.059  27.042  37.062  1.00  0.00     0.091 A 
ATOM     79  F   UNL A   1      42.756  27.192  36.454  1.00  0.00    -0.205 F 
ATOM     80  C   UNL A   1      46.388  27.437  36.841  1.00  0.00     0.022 A 
BRANCH  78  81
ATOM     81  S   UNL A   1      44.756  25.887  38.405  1.00  0.00     0.127 S 
ATOM     82  O   UNL A   1      44.091  24.787  37.708  1.00  0.00    -0.237 OA
ATOM     83  O   UNL A   1      46.111  25.587  38.867  1.00  0.00    -0.237 OA
ATOM     84  O   UNL A   1      43.934  26.603  39.371  1.00  0.00    -0.744 OA
ENDBRANCH  78  81
ENDBRANCH  51  74
ENDBRANCH  25  26
ENDBRANCH  18  20
ENDBRANCH  17  18
ENDBRANCH  16  17
ENDBRANCH  15  16
ENDBRANCH   1  15
TORSDOF 20
ENDMDL
