MODEL 1
REMARK VINA RESULT:     -11.1      0.000      0.000
REMARK SMILES C[C@H](C(=O)NC1(C(=O)OCCOC(=O)c2ccc(-c3c4nc(c(-c5cccc(S(=O)(=O)[O-])c5F)c5ccc([nH]5)c(-c5cccc(S(=O)(=O)[O-])c5F)c5nc(c(-c6cccc(S(=O)(=O)[O-])c6F)c6ccc3[nH]6)C=C5)C=C4)cc2)CCCC1)c1cccs1
REMARK SMILES IDX 10 1 9 2 7 3 8 4 6 5 78 6 81 7 79 8 80 9 5 10 3 11 4 12 2 14
REMARK SMILES IDX 1 15 82 16 83 17 86 18 84 19 85 20 11 21 12 22 13 23 14 24
REMARK SMILES IDX 15 25 16 26 77 27 17 28 76 29 18 30 19 31 20 32 70 33 21 34
REMARK SMILES IDX 75 35 69 36 71 37 22 38 74 39 68 40 67 41 23 43 55 44 35 45
REMARK SMILES IDX 54 46 36 47 39 48 53 49 72 50 37 51 38 52 52 54 73 55 40 56
REMARK SMILES IDX 24 57 25 58 33 59 26 60 28 61 34 62 27 63 29 64 30 65 31 66
REMARK SMILES IDX 32 67 56 68 57 69 65 70 58 71 60 72 66 73 59 74 61 75 62 76
REMARK SMILES IDX 63 77 64 78 41 79 42 80 50 81 43 82 45 83 51 84 44 85 46 86
REMARK SMILES IDX 47 87 48 88 49 89
REMARK H PARENT 5 13 71 42 39 53
REMARK Flexibility Score: inf
ROOT
ATOM      1  C   UNL A   1      31.059  29.647  24.589  1.00  0.00     0.274 C 
ENDROOT
BRANCH   1   2
ATOM      2  O   UNL A   1      31.675  28.346  24.674  1.00  0.00    -0.460 OA
BRANCH   2   3
ATOM      3  C   UNL A   1      31.150  27.372  23.883  1.00  0.00     0.331 C 
ATOM      4  O   UNL A   1      30.119  27.502  23.229  1.00  0.00    -0.249 OA
BRANCH   3   5
ATOM      5  C   UNL A   1      31.953  26.027  23.916  1.00  0.00     0.138 C 
ATOM      6  C   UNL A   1      33.410  26.390  23.631  1.00  0.00     0.040 C 
ATOM      7  C   UNL A   1      31.533  25.076  22.783  1.00  0.00     0.040 C 
ATOM      8  C   UNL A   1      33.500  26.355  22.114  1.00  0.00     0.003 C 
ATOM      9  C   UNL A   1      32.660  25.141  21.745  1.00  0.00     0.003 C 
BRANCH   5  10
ATOM     10  N   UNL A   1      31.705  25.505  25.281  1.00  0.00    -0.340 N 
ATOM     11  C   UNL A   1      31.845  24.404  26.043  1.00  0.00     0.228 C 
ATOM     12  O   UNL A   1      31.357  24.509  27.178  1.00  0.00    -0.274 OA
ATOM     13  H   UNL A   1      31.291  26.216  25.822  1.00  0.00     0.164 HD
BRANCH  11  14
ATOM     14  C   UNL A   1      32.539  23.096  25.671  1.00  0.00     0.115 C 
ATOM     15  C   UNL A   1      31.724  22.217  24.737  1.00  0.00     0.024 C 
BRANCH  14  16
ATOM     16  C   UNL A   1      33.982  23.296  25.256  1.00  0.00     0.017 A 
ATOM     17  C   UNL A   1      34.979  24.020  25.888  1.00  0.00     0.016 A 
ATOM     18  S   UNL A   1      34.560  22.649  23.765  1.00  0.00    -0.148 S 
ATOM     19  C   UNL A   1      36.232  23.937  25.216  1.00  0.00     0.012 A 
ATOM     20  C   UNL A   1      36.150  23.192  24.063  1.00  0.00     0.065 A 
ENDBRANCH  14  16
ENDBRANCH  11  14
ENDBRANCH   5  10
ENDBRANCH   3   5
ENDBRANCH   2   3
ENDBRANCH   1   2
BRANCH   1  21
ATOM     21  C   UNL A   1      31.292  30.445  25.869  1.00  0.00     0.275 C 
BRANCH  21  22
ATOM     22  O   UNL A   1      32.696  30.480  26.178  1.00  0.00    -0.458 OA
BRANCH  22  23
ATOM     23  C   UNL A   1      33.105  31.489  26.977  1.00  0.00     0.338 C 
ATOM     24  O   UNL A   1      32.478  32.500  27.272  1.00  0.00    -0.246 OA
BRANCH  23  25
ATOM     25  C   UNL A   1      34.440  31.189  27.514  1.00  0.00     0.060 A 
ATOM     26  C   UNL A   1      34.756  29.873  27.838  1.00  0.00     0.016 A 
ATOM     27  C   UNL A   1      35.330  32.215  27.820  1.00  0.00     0.016 A 
ATOM     28  C   UNL A   1      35.903  29.585  28.572  1.00  0.00     0.010 A 
ATOM     29  C   UNL A   1      36.542  31.907  28.450  1.00  0.00     0.010 A 
ATOM     30  C   UNL A   1      36.826  30.595  28.874  1.00  0.00    -0.014 A 
BRANCH  30  31
ATOM     31  C   UNL A   1      38.064  30.289  29.650  1.00  0.00     0.031 A 
ATOM     32  C   UNL A   1      39.137  29.413  29.053  1.00  0.00     0.074 A 
ATOM     33  C   UNL A   1      38.232  30.776  30.897  1.00  0.00     0.049 A 
ATOM     34  N   UNL A   1      40.174  28.862  29.631  1.00  0.00    -0.248 NA
ATOM     35  C   UNL A   1      39.014  29.092  27.621  1.00  0.00     0.031 C 
ATOM     36  C   UNL A   1      37.291  31.647  31.601  1.00  0.00     0.029 A 
ATOM     37  N   UNL A   1      39.255  30.601  31.799  1.00  0.00    -0.354 N 
ATOM     38  C   UNL A   1      40.770  28.061  28.665  1.00  0.00     0.074 A 
ATOM     39  C   UNL A   1      39.991  28.211  27.454  1.00  0.00     0.031 C 
ATOM     40  C   UNL A   1      37.792  31.960  32.805  1.00  0.00     0.029 A 
ATOM     41  C   UNL A   1      39.049  31.246  32.998  1.00  0.00     0.049 A 
ATOM     42  H   UNL A   1      40.058  30.065  31.606  1.00  0.00     0.167 HD
ATOM     43  C   UNL A   1      41.870  27.279  28.773  1.00  0.00     0.034 A 
ATOM     44  C   UNL A   1      39.767  31.242  34.139  1.00  0.00     0.034 A 
ATOM     45  C   UNL A   1      42.708  27.218  29.941  1.00  0.00     0.049 A 
ATOM     46  C   UNL A   1      41.019  30.415  34.212  1.00  0.00     0.074 A 
ATOM     47  C   UNL A   1      43.868  26.486  30.130  1.00  0.00     0.029 A 
ATOM     48  N   UNL A   1      42.497  27.940  31.105  1.00  0.00    -0.354 N 
ATOM     49  N   UNL A   1      41.574  29.675  33.283  1.00  0.00    -0.248 NA
ATOM     50  C   UNL A   1      41.747  30.422  35.489  1.00  0.00     0.031 C 
ATOM     51  C   UNL A   1      44.361  26.772  31.408  1.00  0.00     0.029 A 
ATOM     52  C   UNL A   1      43.508  27.680  32.013  1.00  0.00     0.049 A 
ATOM     53  H   UNL A   1      41.738  28.548  31.263  1.00  0.00     0.167 HD
ATOM     54  C   UNL A   1      42.717  29.135  33.859  1.00  0.00     0.074 A 
ATOM     55  C   UNL A   1      42.797  29.661  35.206  1.00  0.00     0.031 C 
ATOM     56  C   UNL A   1      43.602  28.255  33.331  1.00  0.00     0.034 A 
BRANCH  43  57
ATOM     57  C   UNL A   1      42.260  26.447  27.580  1.00  0.00     0.023 A 
ATOM     58  C   UNL A   1      43.046  27.013  26.559  1.00  0.00     0.012 A 
ATOM     59  C   UNL A   1      41.901  25.086  27.504  1.00  0.00     0.148 A 
ATOM     60  C   UNL A   1      43.448  26.245  25.466  1.00  0.00     0.002 A 
ATOM     61  C   UNL A   1      42.337  24.316  26.430  1.00  0.00     0.091 A 
ATOM     62  F   UNL A   1      41.131  24.570  28.473  1.00  0.00    -0.205 F 
ATOM     63  C   UNL A   1      43.105  24.896  25.407  1.00  0.00     0.022 A 
BRANCH  61  64
ATOM     64  S   UNL A   1      42.001  22.555  26.313  1.00  0.00     0.127 S 
ATOM     65  O   UNL A   1      42.687  22.204  25.070  1.00  0.00    -0.237 OA
ATOM     66  O   UNL A   1      42.633  22.033  27.525  1.00  0.00    -0.237 OA
ATOM     67  O   UNL A   1      40.550  22.430  26.291  1.00  0.00    -0.744 OA
ENDBRANCH  61  64
ENDBRANCH  43  57
BRANCH  44  68
ATOM     68  C   UNL A   1      39.319  32.074  35.293  1.00  0.00     0.023 A 
ATOM     69  C   UNL A   1      38.495  31.496  36.278  1.00  0.00     0.012 A 
ATOM     70  C   UNL A   1      39.760  33.401  35.459  1.00  0.00     0.148 A 
ATOM     71  C   UNL A   1      38.113  32.229  37.403  1.00  0.00     0.002 A 
ATOM     72  C   UNL A   1      39.428  34.103  36.612  1.00  0.00     0.091 A 
ATOM     73  F   UNL A   1      40.516  33.949  34.496  1.00  0.00    -0.205 F 
ATOM     74  C   UNL A   1      38.593  33.525  37.579  1.00  0.00     0.022 A 
BRANCH  72  75
ATOM     75  S   UNL A   1      40.146  35.710  36.974  1.00  0.00     0.127 S 
ATOM     76  O   UNL A   1      39.633  36.525  35.878  1.00  0.00    -0.237 OA
ATOM     77  O   UNL A   1      39.579  36.019  38.288  1.00  0.00    -0.237 OA
ATOM     78  O   UNL A   1      41.587  35.486  36.990  1.00  0.00    -0.744 OA
ENDBRANCH  72  75
ENDBRANCH  44  68
BRANCH  56  79
ATOM     79  C   UNL A   1      44.738  27.805  34.208  1.00  0.00     0.023 A 
ATOM     80  C   UNL A   1      45.949  28.525  34.186  1.00  0.00     0.012 A 
ATOM     81  C   UNL A   1      44.590  26.723  35.097  1.00  0.00     0.148 A 
ATOM     82  C   UNL A   1      47.004  28.162  35.022  1.00  0.00     0.002 A 
ATOM     83  C   UNL A   1      45.634  26.389  35.952  1.00  0.00     0.091 A 
ATOM     84  F   UNL A   1      43.439  26.036  35.085  1.00  0.00    -0.205 F 
ATOM     85  C   UNL A   1      46.844  27.102  35.911  1.00  0.00     0.022 A 
BRANCH  83  86
ATOM     86  S   UNL A   1      45.478  25.086  37.180  1.00  0.00     0.127 S 
ATOM     87  O   UNL A   1      46.813  25.074  37.775  1.00  0.00    -0.237 OA
ATOM     88  O   UNL A   1      44.425  25.602  38.056  1.00  0.00    -0.237 OA
ATOM     89  O   UNL A   1      45.105  23.889  36.437  1.00  0.00    -0.744 OA
ENDBRANCH  83  86
ENDBRANCH  56  79
ENDBRANCH  30  31
ENDBRANCH  23  25
ENDBRANCH  22  23
ENDBRANCH  21  22
ENDBRANCH   1  21
TORSDOF 17
ENDMDL
MODEL 2
REMARK VINA RESULT:     -11.1      4.854      9.882
REMARK SMILES C[C@H](C(=O)NC1(C(=O)OCCOC(=O)c2ccc(-c3c4nc(c(-c5cccc(S(=O)(=O)[O-])c5F)c5ccc([nH]5)c(-c5cccc(S(=O)(=O)[O-])c5F)c5nc(c(-c6cccc(S(=O)(=O)[O-])c6F)c6ccc3[nH]6)C=C5)C=C4)cc2)CCCC1)c1cccs1
REMARK SMILES IDX 10 1 9 2 7 3 8 4 6 5 78 6 81 7 79 8 80 9 5 10 3 11 4 12 2 14
REMARK SMILES IDX 1 15 82 16 83 17 86 18 84 19 85 20 11 21 12 22 13 23 14 24
REMARK SMILES IDX 15 25 16 26 77 27 17 28 76 29 18 30 19 31 20 32 70 33 21 34
REMARK SMILES IDX 75 35 69 36 71 37 22 38 74 39 68 40 67 41 23 43 55 44 35 45
REMARK SMILES IDX 54 46 36 47 39 48 53 49 72 50 37 51 38 52 52 54 73 55 40 56
REMARK SMILES IDX 24 57 25 58 33 59 26 60 28 61 34 62 27 63 29 64 30 65 31 66
REMARK SMILES IDX 32 67 56 68 57 69 65 70 58 71 60 72 66 73 59 74 61 75 62 76
REMARK SMILES IDX 63 77 64 78 41 79 42 80 50 81 43 82 45 83 51 84 44 85 46 86
REMARK SMILES IDX 47 87 48 88 49 89
REMARK H PARENT 5 13 71 42 39 53
REMARK Flexibility Score: inf
ROOT
ATOM      1  C   UNL A   1      36.633  22.637  23.446  1.00  0.00     0.274 C 
ENDROOT
BRANCH   1   2
ATOM      2  O   UNL A   1      35.345  22.794  22.816  1.00  0.00    -0.460 OA
BRANCH   2   3
ATOM      3  C   UNL A   1      34.257  22.670  23.621  1.00  0.00     0.331 C 
ATOM      4  O   UNL A   1      33.691  21.605  23.850  1.00  0.00    -0.249 OA
BRANCH   3   5
ATOM      5  C   UNL A   1      33.741  24.030  24.205  1.00  0.00     0.138 C 
ATOM      6  C   UNL A   1      34.747  24.447  25.277  1.00  0.00     0.040 C 
ATOM      7  C   UNL A   1      32.397  23.873  24.934  1.00  0.00     0.040 C 
ATOM      8  C   UNL A   1      34.235  23.765  26.535  1.00  0.00     0.003 C 
ATOM      9  C   UNL A   1      32.727  23.933  26.431  1.00  0.00     0.003 C 
BRANCH   5  10
ATOM     10  N   UNL A   1      33.699  24.923  23.022  1.00  0.00    -0.340 N 
ATOM     11  C   UNL A   1      33.700  26.222  22.666  1.00  0.00     0.228 C 
ATOM     12  O   UNL A   1      33.559  26.412  21.449  1.00  0.00    -0.274 OA
ATOM     13  H   UNL A   1      33.655  24.370  22.209  1.00  0.00     0.164 HD
BRANCH  11  14
ATOM     14  C   UNL A   1      33.873  27.437  23.575  1.00  0.00     0.115 C 
ATOM     15  C   UNL A   1      33.991  28.751  22.820  1.00  0.00     0.024 C 
BRANCH  14  16
ATOM     16  C   UNL A   1      32.888  27.452  24.725  1.00  0.00     0.017 A 
ATOM     17  C   UNL A   1      31.513  27.290  24.698  1.00  0.00     0.016 A 
ATOM     18  S   UNL A   1      33.423  27.792  26.330  1.00  0.00    -0.148 S 
ATOM     19  C   UNL A   1      30.927  27.320  25.996  1.00  0.00     0.012 A 
ATOM     20  C   UNL A   1      31.863  27.552  26.977  1.00  0.00     0.065 A 
ENDBRANCH  14  16
ENDBRANCH  11  14
ENDBRANCH   5  10
ENDBRANCH   3   5
ENDBRANCH   2   3
ENDBRANCH   1   2
BRANCH   1  21
ATOM     21  C   UNL A   1      36.700  21.331  24.233  1.00  0.00     0.275 C 
BRANCH  21  22
ATOM     22  O   UNL A   1      37.127  21.590  25.581  1.00  0.00    -0.458 OA
BRANCH  22  23
ATOM     23  C   UNL A   1      38.415  21.298  25.865  1.00  0.00     0.338 C 
ATOM     24  O   UNL A   1      39.007  20.253  25.621  1.00  0.00    -0.246 OA
BRANCH  23  25
ATOM     25  C   UNL A   1      39.063  22.460  26.489  1.00  0.00     0.060 A 
ATOM     26  C   UNL A   1      38.569  23.733  26.218  1.00  0.00     0.016 A 
ATOM     27  C   UNL A   1      40.230  22.309  27.232  1.00  0.00     0.016 A 
ATOM     28  C   UNL A   1      39.296  24.862  26.584  1.00  0.00     0.010 A 
ATOM     29  C   UNL A   1      40.896  23.447  27.704  1.00  0.00     0.010 A 
ATOM     30  C   UNL A   1      40.462  24.739  27.350  1.00  0.00    -0.014 A 
BRANCH  30  31
ATOM     31  C   UNL A   1      41.238  25.948  27.756  1.00  0.00     0.031 A 
ATOM     32  C   UNL A   1      40.600  27.005  28.622  1.00  0.00     0.074 A 
ATOM     33  C   UNL A   1      42.511  26.119  27.341  1.00  0.00     0.049 A 
ATOM     34  N   UNL A   1      41.024  28.210  28.906  1.00  0.00    -0.248 NA
ATOM     35  C   UNL A   1      39.300  26.673  29.229  1.00  0.00     0.031 C 
ATOM     36  C   UNL A   1      43.267  25.178  26.514  1.00  0.00     0.029 A 
ATOM     37  N   UNL A   1      43.394  27.151  27.554  1.00  0.00    -0.354 N 
ATOM     38  C   UNL A   1      40.008  28.809  29.641  1.00  0.00     0.074 A 
ATOM     39  C   UNL A   1      38.953  27.829  29.778  1.00  0.00     0.031 C 
ATOM     40  C   UNL A   1      44.506  25.655  26.319  1.00  0.00     0.029 A 
ATOM     41  C   UNL A   1      44.610  26.973  26.934  1.00  0.00     0.049 A 
ATOM     42  H   UNL A   1      43.178  27.942  28.099  1.00  0.00     0.167 HD
ATOM     43  C   UNL A   1      39.962  30.058  30.163  1.00  0.00     0.034 A 
ATOM     44  C   UNL A   1      45.681  27.787  26.837  1.00  0.00     0.034 A 
ATOM     45  C   UNL A   1      41.056  30.993  30.123  1.00  0.00     0.049 A 
ATOM     46  C   UNL A   1      45.629  29.144  27.479  1.00  0.00     0.074 A 
ATOM     47  C   UNL A   1      41.118  32.267  30.660  1.00  0.00     0.029 A 
ATOM     48  N   UNL A   1      42.290  30.742  29.543  1.00  0.00    -0.354 N 
ATOM     49  N   UNL A   1      44.665  29.687  28.182  1.00  0.00    -0.248 NA
ATOM     50  C   UNL A   1      46.811  30.002  27.317  1.00  0.00     0.031 C 
ATOM     51  C   UNL A   1      42.394  32.785  30.409  1.00  0.00     0.029 A 
ATOM     52  C   UNL A   1      43.124  31.833  29.717  1.00  0.00     0.049 A 
ATOM     53  H   UNL A   1      42.536  29.911  29.075  1.00  0.00     0.167 HD
ATOM     54  C   UNL A   1      45.124  30.945  28.551  1.00  0.00     0.074 A 
ATOM     55  C   UNL A   1      46.469  31.070  28.026  1.00  0.00     0.031 C 
ATOM     56  C   UNL A   1      44.479  31.921  29.235  1.00  0.00     0.034 A 
BRANCH  43  57
ATOM     57  C   UNL A   1      38.696  30.483  30.858  1.00  0.00     0.023 A 
ATOM     58  C   UNL A   1      38.545  30.252  32.238  1.00  0.00     0.012 A 
ATOM     59  C   UNL A   1      37.684  31.168  30.155  1.00  0.00     0.148 A 
ATOM     60  C   UNL A   1      37.395  30.673  32.906  1.00  0.00     0.002 A 
ATOM     61  C   UNL A   1      36.557  31.618  30.836  1.00  0.00     0.091 A 
ATOM     62  F   UNL A   1      37.833  31.357  28.837  1.00  0.00    -0.205 F 
ATOM     63  C   UNL A   1      36.408  31.366  32.209  1.00  0.00     0.022 A 
BRANCH  61  64
ATOM     64  S   UNL A   1      35.271  32.581  30.029  1.00  0.00     0.127 S 
ATOM     65  O   UNL A   1      36.012  33.767  29.604  1.00  0.00    -0.237 OA
ATOM     66  O   UNL A   1      34.857  31.699  28.937  1.00  0.00    -0.237 OA
ATOM     67  O   UNL A   1      34.249  32.803  31.042  1.00  0.00    -0.744 OA
ENDBRANCH  61  64
ENDBRANCH  43  57
BRANCH  44  68
ATOM     68  C   UNL A   1      46.900  27.316  26.119  1.00  0.00     0.023 A 
ATOM     69  C   UNL A   1      47.068  27.645  24.760  1.00  0.00     0.012 A 
ATOM     70  C   UNL A   1      47.922  26.612  26.786  1.00  0.00     0.148 A 
ATOM     71  C   UNL A   1      48.228  27.275  24.078  1.00  0.00     0.002 A 
ATOM     72  C   UNL A   1      49.101  26.303  26.117  1.00  0.00     0.091 A 
ATOM     73  F   UNL A   1      47.734  26.276  28.071  1.00  0.00    -0.205 F 
ATOM     74  C   UNL A   1      49.252  26.620  24.759  1.00  0.00     0.022 A 
BRANCH  72  75
ATOM     75  S   UNL A   1      50.517  25.610  26.980  1.00  0.00     0.127 S 
ATOM     76  O   UNL A   1      50.831  26.662  27.942  1.00  0.00    -0.237 OA
ATOM     77  O   UNL A   1      49.962  24.388  27.565  1.00  0.00    -0.237 OA
ATOM     78  O   UNL A   1      51.512  25.369  25.942  1.00  0.00    -0.744 OA
ENDBRANCH  72  75
ENDBRANCH  44  68
BRANCH  56  79
ATOM     79  C   UNL A   1      45.215  33.213  29.458  1.00  0.00     0.023 A 
ATOM     80  C   UNL A   1      46.039  33.345  30.594  1.00  0.00     0.012 A 
ATOM     81  C   UNL A   1      45.151  34.262  28.522  1.00  0.00     0.148 A 
ATOM     82  C   UNL A   1      46.772  34.512  30.805  1.00  0.00     0.002 A 
ATOM     83  C   UNL A   1      45.912  35.409  28.721  1.00  0.00     0.091 A 
ATOM     84  F   UNL A   1      44.344  34.126  27.460  1.00  0.00    -0.205 F 
ATOM     85  C   UNL A   1      46.717  35.538  29.865  1.00  0.00     0.022 A 
BRANCH  83  86
ATOM     86  S   UNL A   1      45.956  36.742  27.518  1.00  0.00     0.127 S 
ATOM     87  O   UNL A   1      46.317  36.029  26.294  1.00  0.00    -0.237 OA
ATOM     88  O   UNL A   1      44.580  37.242  27.548  1.00  0.00    -0.237 OA
ATOM     89  O   UNL A   1      46.946  37.687  28.015  1.00  0.00    -0.744 OA
ENDBRANCH  83  86
ENDBRANCH  56  79
ENDBRANCH  30  31
ENDBRANCH  23  25
ENDBRANCH  22  23
ENDBRANCH  21  22
ENDBRANCH   1  21
TORSDOF 17
ENDMDL
MODEL 3
REMARK VINA RESULT:     -11.1      5.309     10.067
REMARK SMILES C[C@H](C(=O)NC1(C(=O)OCCOC(=O)c2ccc(-c3c4nc(c(-c5cccc(S(=O)(=O)[O-])c5F)c5ccc([nH]5)c(-c5cccc(S(=O)(=O)[O-])c5F)c5nc(c(-c6cccc(S(=O)(=O)[O-])c6F)c6ccc3[nH]6)C=C5)C=C4)cc2)CCCC1)c1cccs1
REMARK SMILES IDX 10 1 9 2 7 3 8 4 6 5 78 6 81 7 79 8 80 9 5 10 3 11 4 12 2 14
REMARK SMILES IDX 1 15 82 16 83 17 86 18 84 19 85 20 11 21 12 22 13 23 14 24
REMARK SMILES IDX 15 25 16 26 77 27 17 28 76 29 18 30 19 31 20 32 70 33 21 34
REMARK SMILES IDX 75 35 69 36 71 37 22 38 74 39 68 40 67 41 23 43 55 44 35 45
REMARK SMILES IDX 54 46 36 47 39 48 53 49 72 50 37 51 38 52 52 54 73 55 40 56
REMARK SMILES IDX 24 57 25 58 33 59 26 60 28 61 34 62 27 63 29 64 30 65 31 66
REMARK SMILES IDX 32 67 56 68 57 69 65 70 58 71 60 72 66 73 59 74 61 75 62 76
REMARK SMILES IDX 63 77 64 78 41 79 42 80 50 81 43 82 45 83 51 84 44 85 46 86
REMARK SMILES IDX 47 87 48 88 49 89
REMARK H PARENT 5 13 71 42 39 53
REMARK Flexibility Score: inf
ROOT
ATOM      1  C   UNL A   1      36.457  22.538  23.740  1.00  0.00     0.274 C 
ENDROOT
BRANCH   1   2
ATOM      2  O   UNL A   1      35.037  22.615  23.984  1.00  0.00    -0.460 OA
BRANCH   2   3
ATOM      3  C   UNL A   1      34.605  23.668  24.727  1.00  0.00     0.331 C 
ATOM      4  O   UNL A   1      35.242  24.161  25.654  1.00  0.00    -0.249 OA
BRANCH   3   5
ATOM      5  C   UNL A   1      33.178  24.180  24.332  1.00  0.00     0.138 C 
ATOM      6  C   UNL A   1      32.699  25.054  25.490  1.00  0.00     0.040 C 
ATOM      7  C   UNL A   1      32.160  23.031  24.230  1.00  0.00     0.040 C 
ATOM      8  C   UNL A   1      32.034  24.067  26.436  1.00  0.00     0.003 C 
ATOM      9  C   UNL A   1      31.296  23.128  25.493  1.00  0.00     0.003 C 
BRANCH   5  10
ATOM     10  N   UNL A   1      33.408  24.912  23.064  1.00  0.00    -0.340 N 
ATOM     11  C   UNL A   1      33.289  26.128  22.499  1.00  0.00     0.228 C 
ATOM     12  O   UNL A   1      33.581  26.156  21.294  1.00  0.00    -0.274 OA
ATOM     13  H   UNL A   1      33.781  24.288  22.401  1.00  0.00     0.164 HD
BRANCH  11  14
ATOM     14  C   UNL A   1      32.869  27.432  23.173  1.00  0.00     0.115 C 
ATOM     15  C   UNL A   1      33.683  28.637  22.730  1.00  0.00     0.024 C 
BRANCH  14  16
ATOM     16  C   UNL A   1      31.369  27.640  23.162  1.00  0.00     0.017 A 
ATOM     17  C   UNL A   1      30.362  26.750  23.498  1.00  0.00     0.016 A 
ATOM     18  S   UNL A   1      30.696  29.123  22.591  1.00  0.00    -0.148 S 
ATOM     19  C   UNL A   1      29.063  27.327  23.407  1.00  0.00     0.012 A 
ATOM     20  C   UNL A   1      29.106  28.625  22.956  1.00  0.00     0.065 A 
ENDBRANCH  14  16
ENDBRANCH  11  14
ENDBRANCH   5  10
ENDBRANCH   3   5
ENDBRANCH   2   3
ENDBRANCH   1   2
BRANCH   1  21
ATOM     21  C   UNL A   1      37.040  21.250  24.315  1.00  0.00     0.275 C 
BRANCH  21  22
ATOM     22  O   UNL A   1      37.434  21.455  25.682  1.00  0.00    -0.458 OA
BRANCH  22  23
ATOM     23  C   UNL A   1      38.735  21.233  25.968  1.00  0.00     0.338 C 
ATOM     24  O   UNL A   1      39.380  20.218  25.734  1.00  0.00    -0.246 OA
BRANCH  23  25
ATOM     25  C   UNL A   1      39.323  22.433  26.579  1.00  0.00     0.060 A 
ATOM     26  C   UNL A   1      38.831  23.683  26.217  1.00  0.00     0.016 A 
ATOM     27  C   UNL A   1      40.440  22.336  27.404  1.00  0.00     0.016 A 
ATOM     28  C   UNL A   1      39.516  24.840  26.577  1.00  0.00     0.010 A 
ATOM     29  C   UNL A   1      41.056  23.505  27.867  1.00  0.00     0.010 A 
ATOM     30  C   UNL A   1      40.629  24.772  27.425  1.00  0.00    -0.014 A 
BRANCH  30  31
ATOM     31  C   UNL A   1      41.360  26.011  27.825  1.00  0.00     0.031 A 
ATOM     32  C   UNL A   1      40.675  27.057  28.669  1.00  0.00     0.074 A 
ATOM     33  C   UNL A   1      42.631  26.220  27.424  1.00  0.00     0.049 A 
ATOM     34  N   UNL A   1      41.055  28.279  28.943  1.00  0.00    -0.248 NA
ATOM     35  C   UNL A   1      39.379  26.689  29.264  1.00  0.00     0.031 C 
ATOM     36  C   UNL A   1      43.429  25.295  26.618  1.00  0.00     0.029 A 
ATOM     37  N   UNL A   1      43.477  27.283  27.635  1.00  0.00    -0.354 N 
ATOM     38  C   UNL A   1      40.010  28.852  29.658  1.00  0.00     0.074 A 
ATOM     39  C   UNL A   1      38.986  27.840  29.794  1.00  0.00     0.031 C 
ATOM     40  C   UNL A   1      44.653  25.810  26.434  1.00  0.00     0.029 A 
ATOM     41  C   UNL A   1      44.706  27.138  27.033  1.00  0.00     0.049 A 
ATOM     42  H   UNL A   1      43.227  28.073  28.167  1.00  0.00     0.167 HD
ATOM     43  C   UNL A   1      39.916  30.106  30.163  1.00  0.00     0.034 A 
ATOM     44  C   UNL A   1      45.750  27.986  26.939  1.00  0.00     0.034 A 
ATOM     45  C   UNL A   1      40.979  31.076  30.125  1.00  0.00     0.049 A 
ATOM     46  C   UNL A   1      45.644  29.349  27.563  1.00  0.00     0.074 A 
ATOM     47  C   UNL A   1      40.991  32.358  30.646  1.00  0.00     0.029 A 
ATOM     48  N   UNL A   1      42.227  30.859  29.564  1.00  0.00    -0.354 N 
ATOM     49  N   UNL A   1      44.653  29.868  28.247  1.00  0.00    -0.248 NA
ATOM     50  C   UNL A   1      46.799  30.244  27.405  1.00  0.00     0.031 C 
ATOM     51  C   UNL A   1      42.252  32.915  30.406  1.00  0.00     0.029 A 
ATOM     52  C   UNL A   1      43.023  31.980  29.734  1.00  0.00     0.049 A 
ATOM     53  H   UNL A   1      42.507  30.032  29.110  1.00  0.00     0.167 HD
ATOM     54  C   UNL A   1      45.066  31.145  28.606  1.00  0.00     0.074 A 
ATOM     55  C   UNL A   1      46.412  31.309  28.096  1.00  0.00     0.031 C 
ATOM     56  C   UNL A   1      44.380  32.107  29.269  1.00  0.00     0.034 A 
BRANCH  43  57
ATOM     57  C   UNL A   1      38.627  30.497  30.837  1.00  0.00     0.023 A 
ATOM     58  C   UNL A   1      38.449  30.236  32.209  1.00  0.00     0.012 A 
ATOM     59  C   UNL A   1      37.620  31.179  30.124  1.00  0.00     0.148 A 
ATOM     60  C   UNL A   1      37.277  30.626  32.857  1.00  0.00     0.002 A 
ATOM     61  C   UNL A   1      36.470  31.597  30.786  1.00  0.00     0.091 A 
ATOM     62  F   UNL A   1      37.796  31.395  28.813  1.00  0.00    -0.205 F 
ATOM     63  C   UNL A   1      36.295  31.316  32.151  1.00  0.00     0.022 A 
BRANCH  61  64
ATOM     64  S   UNL A   1      35.188  32.554  29.969  1.00  0.00     0.127 S 
ATOM     65  O   UNL A   1      35.951  33.689  29.450  1.00  0.00    -0.237 OA
ATOM     66  O   UNL A   1      34.707  31.626  28.945  1.00  0.00    -0.237 OA
ATOM     67  O   UNL A   1      34.210  32.869  31.001  1.00  0.00    -0.744 OA
ENDBRANCH  61  64
ENDBRANCH  43  57
BRANCH  44  68
ATOM     68  C   UNL A   1      46.994  27.547  26.243  1.00  0.00     0.023 A 
ATOM     69  C   UNL A   1      47.916  26.735  26.930  1.00  0.00     0.012 A 
ATOM     70  C   UNL A   1      47.233  27.865  24.891  1.00  0.00     0.148 A 
ATOM     71  C   UNL A   1      49.057  26.255  26.286  1.00  0.00     0.002 A 
ATOM     72  C   UNL A   1      48.338  27.331  24.239  1.00  0.00     0.091 A 
ATOM     73  F   UNL A   1      46.363  28.667  24.260  1.00  0.00    -0.205 F 
ATOM     74  C   UNL A   1      49.260  26.537  24.936  1.00  0.00     0.022 A 
BRANCH  72  75
ATOM     75  S   UNL A   1      48.565  27.522  22.466  1.00  0.00     0.127 S 
ATOM     76  O   UNL A   1      49.817  28.269  22.400  1.00  0.00    -0.237 OA
ATOM     77  O   UNL A   1      48.653  26.134  22.009  1.00  0.00    -0.237 OA
ATOM     78  O   UNL A   1      47.373  28.222  22.004  1.00  0.00    -0.744 OA
ENDBRANCH  72  75
ENDBRANCH  44  68
BRANCH  56  79
ATOM     79  C   UNL A   1      45.070  33.425  29.485  1.00  0.00     0.023 A 
ATOM     80  C   UNL A   1      45.847  33.611  30.646  1.00  0.00     0.012 A 
ATOM     81  C   UNL A   1      45.010  34.448  28.520  1.00  0.00     0.148 A 
ATOM     82  C   UNL A   1      46.538  34.804  30.853  1.00  0.00     0.002 A 
ATOM     83  C   UNL A   1      45.729  35.622  28.717  1.00  0.00     0.091 A 
ATOM     84  F   UNL A   1      44.246  34.262  27.434  1.00  0.00    -0.205 F 
ATOM     85  C   UNL A   1      46.487  35.804  29.885  1.00  0.00     0.022 A 
BRANCH  83  86
ATOM     86  S   UNL A   1      45.779  36.926  27.481  1.00  0.00     0.127 S 
ATOM     87  O   UNL A   1      44.367  37.290  27.374  1.00  0.00    -0.237 OA
ATOM     88  O   UNL A   1      46.621  37.937  28.121  1.00  0.00    -0.237 OA
ATOM     89  O   UNL A   1      46.368  36.320  26.295  1.00  0.00    -0.744 OA
ENDBRANCH  83  86
ENDBRANCH  56  79
ENDBRANCH  30  31
ENDBRANCH  23  25
ENDBRANCH  22  23
ENDBRANCH  21  22
ENDBRANCH   1  21
TORSDOF 17
ENDMDL
