MODEL 1
REMARK VINA RESULT:     -11.6      0.000      0.000
REMARK SMILES O=C(CCCc1nc(-c2ccc(Cl)c(Cl)c2)c(-c2ccccc2)o1)OCCOC(=O)c1ccc(-c2c3nc(c(-c4cccc(S(=O)(=O)[O-])c4F)c4ccc([nH]4)c(-c4cccc(S(=O)(=O)[O-])c4F)c4nc(c(-c5cccc(S(=O)(=O)[O-])c5F)c5ccc2[nH]5)C=C4)C=C3)cc1
REMARK SMILES IDX 26 1 25 2 2 3 1 4 3 5 4 6 5 7 6 8 7 9 24 10 8 11 17 12 9 13
REMARK SMILES IDX 10 14 16 15 11 16 14 17 12 18 15 19 13 20 18 21 19 22 23 23
REMARK SMILES IDX 20 24 22 25 21 26 27 27 28 28 29 29 30 30 31 31 32 32 93 33
REMARK SMILES IDX 33 34 92 35 34 36 35 37 36 38 86 39 37 40 91 41 85 42 87 43
REMARK SMILES IDX 38 44 90 45 84 46 83 47 39 49 71 50 51 51 70 52 52 53 55 54
REMARK SMILES IDX 69 55 88 56 53 57 54 58 68 60 89 61 56 62 40 63 41 64 49 65
REMARK SMILES IDX 42 66 44 67 50 68 43 69 45 70 46 71 47 72 48 73 72 74 73 75
REMARK SMILES IDX 81 76 74 77 76 78 82 79 75 80 77 81 78 82 79 83 80 84 57 85
REMARK SMILES IDX 58 86 66 87 59 88 61 89 67 90 60 91 62 92 63 93 64 94 65 95
REMARK H PARENT 87 48 55 59
REMARK Flexibility Score: inf
ROOT
ATOM      1  C   UNL A   1      31.698  30.261  25.566  1.00  0.00     0.274 C 
ENDROOT
BRANCH   1   2
ATOM      2  O   UNL A   1      32.408  29.287  24.783  1.00  0.00    -0.462 OA
BRANCH   2   3
ATOM      3  C   UNL A   1      31.852  28.757  23.664  1.00  0.00     0.305 C 
ATOM      4  O   UNL A   1      32.432  28.849  22.584  1.00  0.00    -0.252 OA
BRANCH   3   5
ATOM      5  C   UNL A   1      30.447  28.196  23.761  1.00  0.00     0.123 C 
BRANCH   5   6
ATOM      6  C   UNL A   1      30.349  26.767  24.296  1.00  0.00     0.021 C 
BRANCH   6   7
ATOM      7  C   UNL A   1      30.380  25.652  23.243  1.00  0.00     0.098 C 
BRANCH   7   8
ATOM      8  C   UNL A   1      31.345  24.547  23.528  1.00  0.00     0.195 A 
ATOM      9  N   UNL A   1      31.078  23.258  23.626  1.00  0.00    -0.213 NA
ATOM     10  O   UNL A   1      32.651  24.877  23.789  1.00  0.00    -0.440 OA
ATOM     11  C   UNL A   1      32.283  22.694  23.941  1.00  0.00     0.117 A 
ATOM     12  C   UNL A   1      33.251  23.668  24.044  1.00  0.00     0.162 A 
BRANCH  11  13
ATOM     13  C   UNL A   1      32.460  21.291  24.229  1.00  0.00     0.006 A 
ATOM     14  C   UNL A   1      32.693  20.860  25.538  1.00  0.00     0.012 A 
ATOM     15  C   UNL A   1      32.399  20.354  23.191  1.00  0.00     0.032 A 
ATOM     16  C   UNL A   1      32.875  19.502  25.808  1.00  0.00     0.023 A 
ATOM     17  C   UNL A   1      32.576  18.993  23.461  1.00  0.00     0.060 A 
ATOM     18  C   UNL A   1      32.819  18.566  24.772  1.00  0.00     0.059 A 
ATOM     19  Cl  UNL A   1      32.490  17.894  22.129  1.00  0.00    -0.083 Cl
ATOM     20  Cl  UNL A   1      33.062  16.903  25.173  1.00  0.00    -0.083 Cl
ENDBRANCH  11  13
BRANCH  12  21
ATOM     21  C   UNL A   1      34.654  23.654  24.401  1.00  0.00     0.020 A 
ATOM     22  C   UNL A   1      35.050  23.885  25.722  1.00  0.00     0.012 A 
ATOM     23  C   UNL A   1      35.617  23.275  23.454  1.00  0.00     0.012 A 
ATOM     24  C   UNL A   1      36.383  23.705  26.099  1.00  0.00     0.001 A 
ATOM     25  C   UNL A   1      36.950  23.105  23.830  1.00  0.00     0.001 A 
ATOM     26  C   UNL A   1      37.330  23.309  25.154  1.00  0.00     0.000 A 
ENDBRANCH  12  21
ENDBRANCH   7   8
ENDBRANCH   6   7
ENDBRANCH   5   6
ENDBRANCH   3   5
ENDBRANCH   2   3
ENDBRANCH   1   2
BRANCH   1  27
ATOM     27  C   UNL A   1      32.390  30.558  26.897  1.00  0.00     0.275 C 
BRANCH  27  28
ATOM     28  O   UNL A   1      33.822  30.475  26.771  1.00  0.00    -0.458 OA
BRANCH  28  29
ATOM     29  C   UNL A   1      34.520  31.178  27.699  1.00  0.00     0.338 C 
ATOM     30  O   UNL A   1      34.147  32.179  28.278  1.00  0.00    -0.246 OA
BRANCH  29  31
ATOM     31  C   UNL A   1      35.761  30.449  28.062  1.00  0.00     0.060 A 
ATOM     32  C   UNL A   1      35.766  29.791  29.297  1.00  0.00     0.016 A 
ATOM     33  C   UNL A   1      36.894  30.406  27.243  1.00  0.00     0.016 A 
ATOM     34  C   UNL A   1      36.912  29.125  29.736  1.00  0.00     0.010 A 
ATOM     35  C   UNL A   1      38.046  29.741  27.690  1.00  0.00     0.010 A 
ATOM     36  C   UNL A   1      38.071  29.119  28.952  1.00  0.00    -0.014 A 
BRANCH  36  37
ATOM     37  C   UNL A   1      39.324  28.538  29.505  1.00  0.00     0.031 A 
ATOM     38  C   UNL A   1      39.948  29.144  30.734  1.00  0.00     0.074 A 
ATOM     39  C   UNL A   1      39.904  27.467  28.931  1.00  0.00     0.049 A 
ATOM     40  N   UNL A   1      41.004  28.754  31.400  1.00  0.00    -0.248 NA
ATOM     41  C   UNL A   1      39.295  30.341  31.288  1.00  0.00     0.031 C 
ATOM     42  C   UNL A   1      39.420  26.783  27.733  1.00  0.00     0.029 A 
ATOM     43  N   UNL A   1      41.046  26.781  29.272  1.00  0.00    -0.354 N 
ATOM     44  C   UNL A   1      41.157  29.664  32.438  1.00  0.00     0.074 A 
ATOM     45  C   UNL A   1      40.089  30.632  32.312  1.00  0.00     0.031 C 
ATOM     46  C   UNL A   1      40.280  25.798  27.418  1.00  0.00     0.029 A 
ATOM     47  C   UNL A   1      41.380  25.786  28.383  1.00  0.00     0.049 A 
ATOM     48  H   UNL A   1      41.574  26.982  30.078  1.00  0.00     0.167 HD
ATOM     49  C   UNL A   1      42.090  29.684  33.419  1.00  0.00     0.034 A 
ATOM     50  C   UNL A   1      42.456  24.973  28.338  1.00  0.00     0.034 A 
ATOM     51  C   UNL A   1      43.137  28.712  33.576  1.00  0.00     0.049 A 
ATOM     52  C   UNL A   1      43.497  25.043  29.428  1.00  0.00     0.074 A 
ATOM     53  C   UNL A   1      44.057  28.602  34.605  1.00  0.00     0.029 A 
ATOM     54  N   UNL A   1      43.427  27.703  32.674  1.00  0.00    -0.354 N 
ATOM     55  N   UNL A   1      43.512  25.779  30.511  1.00  0.00    -0.248 NA
ATOM     56  C   UNL A   1      44.658  24.145  29.302  1.00  0.00     0.031 C 
ATOM     57  C   UNL A   1      44.928  27.550  34.307  1.00  0.00     0.029 A 
ATOM     58  C   UNL A   1      44.537  26.993  33.101  1.00  0.00     0.049 A 
ATOM     59  H   UNL A   1      42.920  27.519  31.850  1.00  0.00     0.167 HD
ATOM     60  C   UNL A   1      44.663  25.415  31.205  1.00  0.00     0.074 A 
ATOM     61  C   UNL A   1      45.306  24.373  30.436  1.00  0.00     0.031 C 
ATOM     62  C   UNL A   1      45.150  25.917  32.367  1.00  0.00     0.034 A 
BRANCH  49  63
ATOM     63  C   UNL A   1      42.015  30.782  34.443  1.00  0.00     0.023 A 
ATOM     64  C   UNL A   1      41.271  30.580  35.623  1.00  0.00     0.012 A 
ATOM     65  C   UNL A   1      42.768  31.962  34.287  1.00  0.00     0.148 A 
ATOM     66  C   UNL A   1      41.272  31.543  36.630  1.00  0.00     0.002 A 
ATOM     67  C   UNL A   1      42.790  32.901  35.310  1.00  0.00     0.091 A 
ATOM     68  F   UNL A   1      43.449  32.137  33.146  1.00  0.00    -0.205 F 
ATOM     69  C   UNL A   1      42.040  32.695  36.480  1.00  0.00     0.022 A 
BRANCH  67  70
ATOM     70  S   UNL A   1      43.802  34.384  35.240  1.00  0.00     0.127 S 
ATOM     71  O   UNL A   1      43.613  34.931  36.584  1.00  0.00    -0.237 OA
ATOM     72  O   UNL A   1      45.134  33.835  34.987  1.00  0.00    -0.237 OA
ATOM     73  O   UNL A   1      43.258  35.191  34.158  1.00  0.00    -0.744 OA
ENDBRANCH  67  70
ENDBRANCH  49  63
BRANCH  50  74
ATOM     74  C   UNL A   1      42.612  24.001  27.218  1.00  0.00     0.023 A 
ATOM     75  C   UNL A   1      43.341  24.365  26.071  1.00  0.00     0.012 A 
ATOM     76  C   UNL A   1      42.018  22.726  27.278  1.00  0.00     0.148 A 
ATOM     77  C   UNL A   1      43.445  23.490  24.989  1.00  0.00     0.002 A 
ATOM     78  C   UNL A   1      42.173  21.838  26.220  1.00  0.00     0.091 A 
ATOM     79  F   UNL A   1      41.300  22.407  28.366  1.00  0.00    -0.205 F 
ATOM     80  C   UNL A   1      42.870  22.223  25.067  1.00  0.00     0.022 A 
BRANCH  78  81
ATOM     81  S   UNL A   1      41.567  20.149  26.304  1.00  0.00     0.127 S 
ATOM     82  O   UNL A   1      42.304  19.511  25.219  1.00  0.00    -0.237 OA
ATOM     83  O   UNL A   1      41.975  19.742  27.650  1.00  0.00    -0.237 OA
ATOM     84  O   UNL A   1      40.124  20.250  26.128  1.00  0.00    -0.744 OA
ENDBRANCH  78  81
ENDBRANCH  50  74
BRANCH  62  85
ATOM     85  C   UNL A   1      46.443  25.353  32.901  1.00  0.00     0.023 A 
ATOM     86  C   UNL A   1      47.664  25.948  32.527  1.00  0.00     0.012 A 
ATOM     87  C   UNL A   1      46.446  24.305  33.843  1.00  0.00     0.148 A 
ATOM     88  C   UNL A   1      48.869  25.495  33.064  1.00  0.00     0.002 A 
ATOM     89  C   UNL A   1      47.647  23.887  34.407  1.00  0.00     0.091 A 
ATOM     90  F   UNL A   1      45.276  23.741  34.177  1.00  0.00    -0.205 F 
ATOM     91  C   UNL A   1      48.860  24.474  34.012  1.00  0.00     0.022 A 
BRANCH  89  92
ATOM     92  S   UNL A   1      47.727  22.644  35.704  1.00  0.00     0.127 S 
ATOM     93  O   UNL A   1      46.857  23.223  36.725  1.00  0.00    -0.237 OA
ATOM     94  O   UNL A   1      47.181  21.463  35.036  1.00  0.00    -0.237 OA
ATOM     95  O   UNL A   1      49.132  22.536  36.071  1.00  0.00    -0.744 OA
ENDBRANCH  89  92
ENDBRANCH  62  85
ENDBRANCH  36  37
ENDBRANCH  29  31
ENDBRANCH  28  29
ENDBRANCH  27  28
ENDBRANCH   1  27
TORSDOF 19
ENDMDL
MODEL 2
REMARK VINA RESULT:     -11.5      1.970      2.343
REMARK SMILES O=C(CCCc1nc(-c2ccc(Cl)c(Cl)c2)c(-c2ccccc2)o1)OCCOC(=O)c1ccc(-c2c3nc(c(-c4cccc(S(=O)(=O)[O-])c4F)c4ccc([nH]4)c(-c4cccc(S(=O)(=O)[O-])c4F)c4nc(c(-c5cccc(S(=O)(=O)[O-])c5F)c5ccc2[nH]5)C=C4)C=C3)cc1
REMARK SMILES IDX 26 1 25 2 2 3 1 4 3 5 4 6 5 7 6 8 7 9 24 10 8 11 17 12 9 13
REMARK SMILES IDX 10 14 16 15 11 16 14 17 12 18 15 19 13 20 18 21 19 22 23 23
REMARK SMILES IDX 20 24 22 25 21 26 27 27 28 28 29 29 30 30 31 31 32 32 93 33
REMARK SMILES IDX 33 34 92 35 34 36 35 37 36 38 86 39 37 40 91 41 85 42 87 43
REMARK SMILES IDX 38 44 90 45 84 46 83 47 39 49 71 50 51 51 70 52 52 53 55 54
REMARK SMILES IDX 69 55 88 56 53 57 54 58 68 60 89 61 56 62 40 63 41 64 49 65
REMARK SMILES IDX 42 66 44 67 50 68 43 69 45 70 46 71 47 72 48 73 72 74 73 75
REMARK SMILES IDX 81 76 74 77 76 78 82 79 75 80 77 81 78 82 79 83 80 84 57 85
REMARK SMILES IDX 58 86 66 87 59 88 61 89 67 90 60 91 62 92 63 93 64 94 65 95
REMARK H PARENT 87 48 55 59
REMARK Flexibility Score: inf
ROOT
ATOM      1  C   UNL A   1      32.031  29.648  25.471  1.00  0.00     0.274 C 
ENDROOT
BRANCH   1   2
ATOM      2  O   UNL A   1      31.661  29.289  24.129  1.00  0.00    -0.462 OA
BRANCH   2   3
ATOM      3  C   UNL A   1      30.372  29.390  23.715  1.00  0.00     0.305 C 
ATOM      4  O   UNL A   1      29.720  30.400  23.971  1.00  0.00    -0.252 OA
BRANCH   3   5
ATOM      5  C   UNL A   1      29.730  28.175  23.074  1.00  0.00     0.123 C 
BRANCH   5   6
ATOM      6  C   UNL A   1      30.619  26.934  22.990  1.00  0.00     0.021 C 
BRANCH   6   7
ATOM      7  C   UNL A   1      30.141  25.711  23.781  1.00  0.00     0.098 C 
BRANCH   7   8
ATOM      8  C   UNL A   1      31.137  24.602  23.883  1.00  0.00     0.195 A 
ATOM      9  N   UNL A   1      30.889  23.306  23.937  1.00  0.00    -0.213 NA
ATOM     10  O   UNL A   1      32.464  24.930  24.002  1.00  0.00    -0.440 OA
ATOM     11  C   UNL A   1      32.125  22.738  24.070  1.00  0.00     0.117 A 
ATOM     12  C   UNL A   1      33.095  23.715  24.111  1.00  0.00     0.162 A 
BRANCH  11  13
ATOM     13  C   UNL A   1      32.341  21.323  24.252  1.00  0.00     0.006 A 
ATOM     14  C   UNL A   1      32.673  20.813  25.511  1.00  0.00     0.012 A 
ATOM     15  C   UNL A   1      32.218  20.453  23.163  1.00  0.00     0.032 A 
ATOM     16  C   UNL A   1      32.893  19.444  25.678  1.00  0.00     0.023 A 
ATOM     17  C   UNL A   1      32.433  19.082  23.330  1.00  0.00     0.060 A 
ATOM     18  C   UNL A   1      32.775  18.576  24.589  1.00  0.00     0.059 A 
ATOM     19  Cl  UNL A   1      32.266  18.069  21.938  1.00  0.00    -0.083 Cl
ATOM     20  Cl  UNL A   1      33.068  16.895  24.863  1.00  0.00    -0.083 Cl
ENDBRANCH  11  13
BRANCH  12  21
ATOM     21  C   UNL A   1      34.531  23.695  24.294  1.00  0.00     0.020 A 
ATOM     22  C   UNL A   1      35.095  24.100  25.508  1.00  0.00     0.012 A 
ATOM     23  C   UNL A   1      35.359  23.144  23.305  1.00  0.00     0.012 A 
ATOM     24  C   UNL A   1      36.460  23.922  25.743  1.00  0.00     0.001 A 
ATOM     25  C   UNL A   1      36.724  22.976  23.537  1.00  0.00     0.001 A 
ATOM     26  C   UNL A   1      37.272  23.354  24.761  1.00  0.00     0.000 A 
ENDBRANCH  12  21
ENDBRANCH   7   8
ENDBRANCH   6   7
ENDBRANCH   5   6
ENDBRANCH   3   5
ENDBRANCH   2   3
ENDBRANCH   1   2
BRANCH   1  27
ATOM     27  C   UNL A   1      33.455  29.210  25.820  1.00  0.00     0.275 C 
BRANCH  27  28
ATOM     28  O   UNL A   1      33.719  29.365  27.228  1.00  0.00    -0.458 OA
BRANCH  28  29
ATOM     29  C   UNL A   1      34.397  30.491  27.563  1.00  0.00     0.338 C 
ATOM     30  O   UNL A   1      33.976  31.630  27.513  1.00  0.00    -0.246 OA
BRANCH  29  31
ATOM     31  C   UNL A   1      35.696  30.136  28.186  1.00  0.00     0.060 A 
ATOM     32  C   UNL A   1      36.846  30.375  27.425  1.00  0.00     0.016 A 
ATOM     33  C   UNL A   1      35.808  29.579  29.464  1.00  0.00     0.016 A 
ATOM     34  C   UNL A   1      38.104  30.022  27.917  1.00  0.00     0.010 A 
ATOM     35  C   UNL A   1      37.073  29.219  29.954  1.00  0.00     0.010 A 
ATOM     36  C   UNL A   1      38.227  29.414  29.172  1.00  0.00    -0.014 A 
BRANCH  36  37
ATOM     37  C   UNL A   1      39.555  28.907  29.610  1.00  0.00     0.031 A 
ATOM     38  C   UNL A   1      40.298  29.614  30.712  1.00  0.00     0.074 A 
ATOM     39  C   UNL A   1      40.099  27.811  29.046  1.00  0.00     0.049 A 
ATOM     40  N   UNL A   1      41.437  29.299  31.273  1.00  0.00    -0.248 NA
ATOM     41  C   UNL A   1      39.676  30.832  31.257  1.00  0.00     0.031 C 
ATOM     42  C   UNL A   1      39.501  27.031  27.965  1.00  0.00     0.029 A 
ATOM     43  N   UNL A   1      41.294  27.180  29.295  1.00  0.00    -0.354 N 
ATOM     44  C   UNL A   1      41.680  30.286  32.220  1.00  0.00     0.074 A 
ATOM     45  C   UNL A   1      40.573  31.215  32.156  1.00  0.00     0.031 C 
ATOM     46  C   UNL A   1      40.350  26.048  27.617  1.00  0.00     0.029 A 
ATOM     47  C   UNL A   1      41.555  26.132  28.443  1.00  0.00     0.049 A 
ATOM     48  H   UNL A   1      41.907  27.452  30.017  1.00  0.00     0.167 HD
ATOM     49  C   UNL A   1      42.721  30.399  33.079  1.00  0.00     0.034 A 
ATOM     50  C   UNL A   1      42.644  25.345  28.325  1.00  0.00     0.034 A 
ATOM     51  C   UNL A   1      43.811  29.467  33.177  1.00  0.00     0.049 A 
ATOM     52  C   UNL A   1      43.803  25.519  29.276  1.00  0.00     0.074 A 
ATOM     53  C   UNL A   1      44.848  29.454  34.094  1.00  0.00     0.029 A 
ATOM     54  N   UNL A   1      44.026  28.403  32.317  1.00  0.00    -0.354 N 
ATOM     55  N   UNL A   1      43.920  26.332  30.297  1.00  0.00    -0.248 NA
ATOM     56  C   UNL A   1      44.971  24.644  29.075  1.00  0.00     0.031 C 
ATOM     57  C   UNL A   1      45.712  28.405  33.767  1.00  0.00     0.029 A 
ATOM     58  C   UNL A   1      45.201  27.753  32.657  1.00  0.00     0.049 A 
ATOM     59  H   UNL A   1      43.432  28.148  31.575  1.00  0.00     0.167 HD
ATOM     60  C   UNL A   1      45.156  26.047  30.873  1.00  0.00     0.074 A 
ATOM     61  C   UNL A   1      45.739  24.969  30.105  1.00  0.00     0.031 C 
ATOM     62  C   UNL A   1      45.759  26.643  31.931  1.00  0.00     0.034 A 
BRANCH  49  63
ATOM     63  C   UNL A   1      42.729  31.566  34.027  1.00  0.00     0.023 A 
ATOM     64  C   UNL A   1      43.220  32.811  33.588  1.00  0.00     0.012 A 
ATOM     65  C   UNL A   1      42.150  31.456  35.306  1.00  0.00     0.148 A 
ATOM     66  C   UNL A   1      43.143  33.931  34.415  1.00  0.00     0.002 A 
ATOM     67  C   UNL A   1      42.046  32.584  36.110  1.00  0.00     0.091 A 
ATOM     68  F   UNL A   1      41.710  30.254  35.706  1.00  0.00    -0.205 F 
ATOM     69  C   UNL A   1      42.546  33.821  35.668  1.00  0.00     0.022 A 
BRANCH  67  70
ATOM     70  S   UNL A   1      41.233  32.558  37.712  1.00  0.00     0.127 S 
ATOM     71  O   UNL A   1      42.067  31.609  38.449  1.00  0.00    -0.237 OA
ATOM     72  O   UNL A   1      41.365  33.949  38.145  1.00  0.00    -0.237 OA
ATOM     73  O   UNL A   1      39.867  32.124  37.463  1.00  0.00    -0.744 OA
ENDBRANCH  67  70
ENDBRANCH  49  63
BRANCH  50  74
ATOM     74  C   UNL A   1      42.700  24.299  27.265  1.00  0.00     0.023 A 
ATOM     75  C   UNL A   1      43.350  24.571  26.047  1.00  0.00     0.012 A 
ATOM     76  C   UNL A   1      42.089  23.045  27.451  1.00  0.00     0.148 A 
ATOM     77  C   UNL A   1      43.360  23.625  25.020  1.00  0.00     0.002 A 
ATOM     78  C   UNL A   1      42.150  22.087  26.446  1.00  0.00     0.091 A 
ATOM     79  F   UNL A   1      41.446  22.813  28.607  1.00  0.00    -0.205 F 
ATOM     80  C   UNL A   1      42.768  22.380  25.223  1.00  0.00     0.022 A 
BRANCH  78  81
ATOM     81  S   UNL A   1      41.520  20.421  26.686  1.00  0.00     0.127 S 
ATOM     82  O   UNL A   1      42.254  19.991  27.872  1.00  0.00    -0.237 OA
ATOM     83  O   UNL A   1      40.092  20.659  26.897  1.00  0.00    -0.237 OA
ATOM     84  O   UNL A   1      41.828  19.714  25.449  1.00  0.00    -0.744 OA
ENDBRANCH  78  81
ENDBRANCH  50  74
BRANCH  62  85
ATOM     85  C   UNL A   1      47.124  26.152  32.344  1.00  0.00     0.023 A 
ATOM     86  C   UNL A   1      47.229  25.139  33.319  1.00  0.00     0.012 A 
ATOM     87  C   UNL A   1      48.290  26.617  31.704  1.00  0.00     0.148 A 
ATOM     88  C   UNL A   1      48.473  24.614  33.667  1.00  0.00     0.002 A 
ATOM     89  C   UNL A   1      49.523  26.057  32.025  1.00  0.00     0.091 A 
ATOM     90  F   UNL A   1      48.174  27.590  30.790  1.00  0.00    -0.205 F 
ATOM     91  C   UNL A   1      49.618  25.063  33.012  1.00  0.00     0.022 A 
BRANCH  89  92
ATOM     92  S   UNL A   1      51.040  26.504  31.170  1.00  0.00     0.127 S 
ATOM     93  O   UNL A   1      50.786  27.900  30.823  1.00  0.00    -0.237 OA
ATOM     94  O   UNL A   1      52.052  26.308  32.210  1.00  0.00    -0.237 OA
ATOM     95  O   UNL A   1      51.150  25.591  30.042  1.00  0.00    -0.744 OA
ENDBRANCH  89  92
ENDBRANCH  62  85
ENDBRANCH  36  37
ENDBRANCH  29  31
ENDBRANCH  28  29
ENDBRANCH  27  28
ENDBRANCH   1  27
TORSDOF 19
ENDMDL
MODEL 3
REMARK VINA RESULT:     -11.5      1.935      2.633
REMARK SMILES O=C(CCCc1nc(-c2ccc(Cl)c(Cl)c2)c(-c2ccccc2)o1)OCCOC(=O)c1ccc(-c2c3nc(c(-c4cccc(S(=O)(=O)[O-])c4F)c4ccc([nH]4)c(-c4cccc(S(=O)(=O)[O-])c4F)c4nc(c(-c5cccc(S(=O)(=O)[O-])c5F)c5ccc2[nH]5)C=C4)C=C3)cc1
REMARK SMILES IDX 26 1 25 2 2 3 1 4 3 5 4 6 5 7 6 8 7 9 24 10 8 11 17 12 9 13
REMARK SMILES IDX 10 14 16 15 11 16 14 17 12 18 15 19 13 20 18 21 19 22 23 23
REMARK SMILES IDX 20 24 22 25 21 26 27 27 28 28 29 29 30 30 31 31 32 32 93 33
REMARK SMILES IDX 33 34 92 35 34 36 35 37 36 38 86 39 37 40 91 41 85 42 87 43
REMARK SMILES IDX 38 44 90 45 84 46 83 47 39 49 71 50 51 51 70 52 52 53 55 54
REMARK SMILES IDX 69 55 88 56 53 57 54 58 68 60 89 61 56 62 40 63 41 64 49 65
REMARK SMILES IDX 42 66 44 67 50 68 43 69 45 70 46 71 47 72 48 73 72 74 73 75
REMARK SMILES IDX 81 76 74 77 76 78 82 79 75 80 77 81 78 82 79 83 80 84 57 85
REMARK SMILES IDX 58 86 66 87 59 88 61 89 67 90 60 91 62 92 63 93 64 94 65 95
REMARK H PARENT 87 48 55 59
REMARK Flexibility Score: inf
ROOT
ATOM      1  C   UNL A   1      31.382  29.835  25.104  1.00  0.00     0.274 C 
ENDROOT
BRANCH   1   2
ATOM      2  O   UNL A   1      31.945  28.536  25.349  1.00  0.00    -0.462 OA
BRANCH   2   3
ATOM      3  C   UNL A   1      31.266  27.612  26.076  1.00  0.00     0.305 C 
ATOM      4  O   UNL A   1      31.485  27.492  27.279  1.00  0.00    -0.252 OA
BRANCH   3   5
ATOM      5  C   UNL A   1      30.359  26.647  25.337  1.00  0.00     0.123 C 
BRANCH   5   6
ATOM      6  C   UNL A   1      30.380  26.767  23.813  1.00  0.00     0.021 C 
BRANCH   6   7
ATOM      7  C   UNL A   1      30.186  25.461  23.033  1.00  0.00     0.098 C 
BRANCH   7   8
ATOM      8  C   UNL A   1      31.182  24.391  23.345  1.00  0.00     0.195 A 
ATOM      9  N   UNL A   1      30.948  23.101  23.501  1.00  0.00    -0.213 NA
ATOM     10  O   UNL A   1      32.484  24.762  23.566  1.00  0.00    -0.440 OA
ATOM     11  C   UNL A   1      32.171  22.579  23.815  1.00  0.00     0.117 A 
ATOM     12  C   UNL A   1      33.118  23.579  23.859  1.00  0.00     0.162 A 
BRANCH  11  13
ATOM     13  C   UNL A   1      32.387  21.193  24.157  1.00  0.00     0.006 A 
ATOM     14  C   UNL A   1      32.666  20.825  25.477  1.00  0.00     0.012 A 
ATOM     15  C   UNL A   1      32.319  20.211  23.162  1.00  0.00     0.032 A 
ATOM     16  C   UNL A   1      32.885  19.483  25.799  1.00  0.00     0.023 A 
ATOM     17  C   UNL A   1      32.534  18.868  23.485  1.00  0.00     0.060 A 
ATOM     18  C   UNL A   1      32.822  18.503  24.805  1.00  0.00     0.059 A 
ATOM     19  Cl  UNL A   1      32.436  17.711  22.203  1.00  0.00    -0.083 Cl
ATOM     20  Cl  UNL A   1      33.112  16.864  25.270  1.00  0.00    -0.083 Cl
ENDBRANCH  11  13
BRANCH  12  21
ATOM     21  C   UNL A   1      34.527  23.612  24.189  1.00  0.00     0.020 A 
ATOM     22  C   UNL A   1      34.948  24.034  25.454  1.00  0.00     0.012 A 
ATOM     23  C   UNL A   1      35.472  23.094  23.290  1.00  0.00     0.012 A 
ATOM     24  C   UNL A   1      36.288  23.906  25.828  1.00  0.00     0.001 A 
ATOM     25  C   UNL A   1      36.812  22.976  23.663  1.00  0.00     0.001 A 
ATOM     26  C   UNL A   1      37.216  23.371  24.936  1.00  0.00     0.000 A 
ENDBRANCH  12  21
ENDBRANCH   7   8
ENDBRANCH   6   7
ENDBRANCH   5   6
ENDBRANCH   3   5
ENDBRANCH   2   3
ENDBRANCH   1   2
BRANCH   1  27
ATOM     27  C   UNL A   1      31.771  30.852  26.179  1.00  0.00     0.275 C 
BRANCH  27  28
ATOM     28  O   UNL A   1      33.140  30.679  26.591  1.00  0.00    -0.458 OA
BRANCH  28  29
ATOM     29  C   UNL A   1      33.646  31.692  27.339  1.00  0.00     0.338 C 
ATOM     30  O   UNL A   1      33.086  32.735  27.615  1.00  0.00    -0.246 OA
BRANCH  29  31
ATOM     31  C   UNL A   1      34.936  31.282  27.946  1.00  0.00     0.060 A 
ATOM     32  C   UNL A   1      34.997  29.992  28.483  1.00  0.00     0.016 A 
ATOM     33  C   UNL A   1      36.056  32.117  28.005  1.00  0.00     0.016 A 
ATOM     34  C   UNL A   1      36.158  29.546  29.118  1.00  0.00     0.010 A 
ATOM     35  C   UNL A   1      37.220  31.669  28.650  1.00  0.00     0.010 A 
ATOM     36  C   UNL A   1      37.269  30.389  29.234  1.00  0.00    -0.014 A 
BRANCH  36  37
ATOM     37  C   UNL A   1      38.436  29.953  30.047  1.00  0.00     0.031 A 
ATOM     38  C   UNL A   1      38.622  30.498  31.437  1.00  0.00     0.074 A 
ATOM     39  C   UNL A   1      39.323  29.063  29.563  1.00  0.00     0.049 A 
ATOM     40  N   UNL A   1      39.539  30.203  32.323  1.00  0.00    -0.248 NA
ATOM     41  C   UNL A   1      37.647  31.502  31.893  1.00  0.00     0.031 C 
ATOM     42  C   UNL A   1      39.276  28.459  28.233  1.00  0.00     0.029 A 
ATOM     43  N   UNL A   1      40.455  28.530  30.134  1.00  0.00    -0.354 N 
ATOM     44  C   UNL A   1      39.268  30.996  33.430  1.00  0.00     0.074 A 
ATOM     45  C   UNL A   1      38.103  31.790  33.106  1.00  0.00     0.031 C 
ATOM     46  C   UNL A   1      40.353  27.667  28.076  1.00  0.00     0.029 A 
ATOM     47  C   UNL A   1      41.170  27.714  29.289  1.00  0.00     0.049 A 
ATOM     48  H   UNL A   1      40.727  28.715  31.062  1.00  0.00     0.167 HD
ATOM     49  C   UNL A   1      39.916  31.045  34.618  1.00  0.00     0.034 A 
ATOM     50  C   UNL A   1      42.355  27.093  29.462  1.00  0.00     0.034 A 
ATOM     51  C   UNL A   1      41.055  30.239  34.966  1.00  0.00     0.049 A 
ATOM     52  C   UNL A   1      43.071  27.196  30.786  1.00  0.00     0.074 A 
ATOM     53  C   UNL A   1      41.703  30.154  36.187  1.00  0.00     0.029 A 
ATOM     54  N   UNL A   1      41.734  29.404  34.096  1.00  0.00    -0.354 N 
ATOM     55  N   UNL A   1      42.689  27.790  31.890  1.00  0.00    -0.248 NA
ATOM     56  C   UNL A   1      44.373  26.515  30.898  1.00  0.00     0.031 C 
ATOM     57  C   UNL A   1      42.798  29.296  36.045  1.00  0.00     0.029 A 
ATOM     58  C   UNL A   1      42.818  28.832  34.740  1.00  0.00     0.049 A 
ATOM     59  H   UNL A   1      41.483  29.242  33.158  1.00  0.00     0.167 HD
ATOM     60  C   UNL A   1      43.685  27.533  32.828  1.00  0.00     0.074 A 
ATOM     61  C   UNL A   1      44.674  26.705  32.175  1.00  0.00     0.031 C 
ATOM     62  C   UNL A   1      43.777  27.963  34.111  1.00  0.00     0.034 A 
BRANCH  49  63
ATOM     63  C   UNL A   1      39.396  31.987  35.668  1.00  0.00     0.023 A 
ATOM     64  C   UNL A   1      38.499  31.510  36.643  1.00  0.00     0.012 A 
ATOM     65  C   UNL A   1      39.882  33.306  35.752  1.00  0.00     0.148 A 
ATOM     66  C   UNL A   1      38.085  32.339  37.686  1.00  0.00     0.002 A 
ATOM     67  C   UNL A   1      39.491  34.114  36.813  1.00  0.00     0.091 A 
ATOM     68  F   UNL A   1      40.719  33.741  34.798  1.00  0.00    -0.205 F 
ATOM     69  C   UNL A   1      38.589  33.633  37.777  1.00  0.00     0.022 A 
BRANCH  67  70
ATOM     70  S   UNL A   1      40.138  35.772  37.056  1.00  0.00     0.127 S 
ATOM     71  O   UNL A   1      39.665  36.451  35.850  1.00  0.00    -0.237 OA
ATOM     72  O   UNL A   1      39.469  36.184  38.290  1.00  0.00    -0.237 OA
ATOM     73  O   UNL A   1      41.582  35.629  37.163  1.00  0.00    -0.744 OA
ENDBRANCH  67  70
ENDBRANCH  49  63
BRANCH  50  74
ATOM     74  C   UNL A   1      42.952  26.299  28.351  1.00  0.00     0.023 A 
ATOM     75  C   UNL A   1      43.939  26.874  27.530  1.00  0.00     0.012 A 
ATOM     76  C   UNL A   1      42.525  24.982  28.091  1.00  0.00     0.148 A 
ATOM     77  C   UNL A   1      44.465  26.166  26.448  1.00  0.00     0.002 A 
ATOM     78  C   UNL A   1      43.093  24.263  27.046  1.00  0.00     0.091 A 
ATOM     79  F   UNL A   1      41.561  24.459  28.864  1.00  0.00    -0.205 F 
ATOM     80  C   UNL A   1      44.049  24.858  26.212  1.00  0.00     0.022 A 
BRANCH  78  81
ATOM     81  S   UNL A   1      42.698  22.533  26.763  1.00  0.00     0.127 S 
ATOM     82  O   UNL A   1      41.489  22.631  25.951  1.00  0.00    -0.237 OA
ATOM     83  O   UNL A   1      43.884  22.059  26.048  1.00  0.00    -0.237 OA
ATOM     84  O   UNL A   1      42.535  21.955  28.090  1.00  0.00    -0.744 OA
ENDBRANCH  78  81
ENDBRANCH  50  74
BRANCH  62  85
ATOM     85  C   UNL A   1      44.983  27.551  34.917  1.00  0.00     0.023 A 
ATOM     86  C   UNL A   1      46.106  28.401  34.967  1.00  0.00     0.012 A 
ATOM     87  C   UNL A   1      44.971  26.378  35.698  1.00  0.00     0.148 A 
ATOM     88  C   UNL A   1      47.205  28.082  35.763  1.00  0.00     0.002 A 
ATOM     89  C   UNL A   1      46.052  26.087  36.524  1.00  0.00     0.091 A 
ATOM     90  F   UNL A   1      43.901  25.573  35.627  1.00  0.00    -0.205 F 
ATOM     91  C   UNL A   1      47.174  26.932  36.551  1.00  0.00     0.022 A 
BRANCH  89  92
ATOM     92  S   UNL A   1      46.065  24.680  37.643  1.00  0.00     0.127 S 
ATOM     93  O   UNL A   1      46.062  23.556  36.708  1.00  0.00    -0.237 OA
ATOM     94  O   UNL A   1      47.324  24.869  38.365  1.00  0.00    -0.237 OA
ATOM     95  O   UNL A   1      44.871  24.810  38.465  1.00  0.00    -0.744 OA
ENDBRANCH  89  92
ENDBRANCH  62  85
ENDBRANCH  36  37
ENDBRANCH  29  31
ENDBRANCH  28  29
ENDBRANCH  27  28
ENDBRANCH   1  27
TORSDOF 19
ENDMDL
