MODEL 1
REMARK VINA RESULT:     -11.7      0.000      0.000
REMARK SMILES CCc1nc2sc(C(=O)NCC(=O)OCCOC(=O)c3ccc(-c4c5nc(c(-c6cccc(S(=O)(=O)[O-])c6F)c6ccc([nH]6)c(-c6cccc(S(=O)(=O)[O-])c6F)c6nc(c(-c7cccc(S(=O)(=O)[O-])c7F)c7ccc4[nH]7)C=C6)C=C5)cc3)c(N)c2c(C(F)(F)F)c1C
REMARK SMILES IDX 15 1 14 2 12 3 13 4 11 5 10 6 8 7 9 8 7 10 3 11 4 12 91 13
REMARK SMILES IDX 5 14 86 15 92 16 6 17 85 18 83 19 2 20 1 21 87 22 88 23
REMARK SMILES IDX 89 24 90 25 84 26 16 29 17 30 18 31 19 32 20 33 21 34 82 35
REMARK SMILES IDX 22 36 81 37 23 38 24 39 25 40 75 41 26 42 80 43 74 44 76 45
REMARK SMILES IDX 27 46 79 47 73 48 72 49 28 51 60 52 40 53 59 54 41 55 44 56
REMARK SMILES IDX 58 57 77 58 42 59 43 60 57 62 78 63 45 64 29 65 30 66 38 67
REMARK SMILES IDX 31 68 33 69 39 70 32 71 34 72 35 73 36 74 37 75 61 76 62 77
REMARK SMILES IDX 70 78 63 79 65 80 71 81 64 82 66 83 67 84 68 85 69 86 46 87
REMARK SMILES IDX 47 88 55 89 48 90 50 91 56 92 49 93 51 94 52 95 53 96 54 97
REMARK H PARENT 10 9 84 27 84 28 76 50 44 61
REMARK Flexibility Score: inf
ROOT
ATOM      1  C   UNL A   1      36.216  20.879  25.366  1.00  0.00     0.274 C 
ENDROOT
BRANCH   1   2
ATOM      2  O   UNL A   1      35.119  21.426  24.606  1.00  0.00    -0.461 OA
BRANCH   2   3
ATOM      3  C   UNL A   1      34.342  22.347  25.247  1.00  0.00     0.325 C 
ATOM      4  O   UNL A   1      34.679  22.954  26.262  1.00  0.00    -0.250 OA
BRANCH   3   5
ATOM      5  C   UNL A   1      33.045  22.661  24.493  1.00  0.00     0.239 C 
BRANCH   5   6
ATOM      6  N   UNL A   1      33.140  22.878  23.075  1.00  0.00    -0.340 N 
ATOM      7  C   UNL A   1      33.152  24.030  22.348  1.00  0.00     0.264 C 
ATOM      8  O   UNL A   1      33.433  23.857  21.157  1.00  0.00    -0.268 OA
ATOM      9  H   UNL A   1      33.209  22.055  22.540  1.00  0.00     0.164 HD
BRANCH   7  10
ATOM     10  C   UNL A   1      32.813  25.344  22.900  1.00  0.00     0.118 A 
ATOM     11  C   UNL A   1      30.568  29.385  23.894  1.00  0.00     0.045 A 
ATOM     12  N   UNL A   1      30.570  28.385  22.992  1.00  0.00    -0.242 NA
ATOM     13  C   UNL A   1      31.485  29.444  24.960  1.00  0.00    -0.017 A 
ATOM     14  C   UNL A   1      31.473  27.418  23.151  1.00  0.00     0.127 A 
ATOM     15  C   UNL A   1      32.392  28.349  25.151  1.00  0.00     0.073 A 
ATOM     16  C   UNL A   1      31.553  30.586  25.936  1.00  0.00     0.047 C 
ATOM     17  S   UNL A   1      31.539  26.150  22.044  1.00  0.00    -0.108 S 
ATOM     18  C   UNL A   1      32.396  27.319  24.165  1.00  0.00     0.048 A 
ATOM     19  C   UNL A   1      33.208  26.145  23.967  1.00  0.00     0.066 A 
BRANCH  11  20
ATOM     20  C   UNL A   1      29.434  30.321  23.550  1.00  0.00     0.053 C 
ATOM     21  C   UNL A   1      28.175  29.903  22.825  1.00  0.00     0.011 C 
ENDBRANCH  11  20
BRANCH  15  22
ATOM     22  C   UNL A   1      33.337  28.249  26.335  1.00  0.00     0.417 C 
ATOM     23  F   UNL A   1      33.398  26.985  26.853  1.00  0.00    -0.166 F 
ATOM     24  F   UNL A   1      34.619  28.578  26.008  1.00  0.00    -0.166 F 
ATOM     25  F   UNL A   1      33.027  29.027  27.409  1.00  0.00    -0.166 F 
ENDBRANCH  15  22
BRANCH  19  26
ATOM     26  N   UNL A   1      34.242  25.920  24.800  1.00  0.00    -0.397 N 
ATOM     27  H   UNL A   1      34.892  25.209  24.597  1.00  0.00     0.156 HD
ATOM     28  H   UNL A   1      34.347  26.466  25.612  1.00  0.00     0.156 HD
ENDBRANCH  19  26
ENDBRANCH   7  10
ENDBRANCH   5   6
ENDBRANCH   3   5
ENDBRANCH   2   3
ENDBRANCH   1   2
BRANCH   1  29
ATOM     29  C   UNL A   1      37.572  21.175  24.719  1.00  0.00     0.275 C 
BRANCH  29  30
ATOM     30  O   UNL A   1      38.575  21.389  25.715  1.00  0.00    -0.458 OA
BRANCH  30  31
ATOM     31  C   UNL A   1      39.472  20.393  25.794  1.00  0.00     0.338 C 
ATOM     32  O   UNL A   1      39.319  19.222  25.428  1.00  0.00    -0.246 OA
BRANCH  31  33
ATOM     33  C   UNL A   1      40.720  20.843  26.392  1.00  0.00     0.060 A 
ATOM     34  C   UNL A   1      40.801  20.828  27.793  1.00  0.00     0.016 A 
ATOM     35  C   UNL A   1      41.507  21.678  25.603  1.00  0.00     0.016 A 
ATOM     36  C   UNL A   1      41.454  21.850  28.427  1.00  0.00     0.010 A 
ATOM     37  C   UNL A   1      42.148  22.712  26.236  1.00  0.00     0.010 A 
ATOM     38  C   UNL A   1      42.012  22.837  27.626  1.00  0.00    -0.014 A 
BRANCH  38  39
ATOM     39  C   UNL A   1      42.333  24.096  28.259  1.00  0.00     0.031 A 
ATOM     40  C   UNL A   1      41.323  25.160  28.094  1.00  0.00     0.074 A 
ATOM     41  C   UNL A   1      43.403  24.154  29.074  1.00  0.00     0.049 A 
ATOM     42  N   UNL A   1      41.498  26.391  27.742  1.00  0.00    -0.248 NA
ATOM     43  C   UNL A   1      39.914  24.764  28.254  1.00  0.00     0.031 C 
ATOM     44  C   UNL A   1      44.243  23.027  29.510  1.00  0.00     0.029 A 
ATOM     45  N   UNL A   1      43.826  25.182  29.857  1.00  0.00    -0.354 N 
ATOM     46  C   UNL A   1      40.234  26.969  27.816  1.00  0.00     0.074 A 
ATOM     47  C   UNL A   1      39.285  25.898  27.969  1.00  0.00     0.031 C 
ATOM     48  C   UNL A   1      44.839  23.359  30.673  1.00  0.00     0.029 A 
ATOM     49  C   UNL A   1      44.507  24.738  30.986  1.00  0.00     0.049 A 
ATOM     50  H   UNL A   1      43.668  26.131  29.649  1.00  0.00     0.167 HD
ATOM     51  C   UNL A   1      40.041  28.302  27.966  1.00  0.00     0.034 A 
ATOM     52  C   UNL A   1      44.638  25.413  32.152  1.00  0.00     0.034 A 
ATOM     53  C   UNL A   1      41.203  29.075  27.648  1.00  0.00     0.049 A 
ATOM     54  C   UNL A   1      44.311  26.835  31.888  1.00  0.00     0.074 A 
ATOM     55  C   UNL A   1      41.946  29.291  26.506  1.00  0.00     0.029 A 
ATOM     56  N   UNL A   1      41.967  29.524  28.695  1.00  0.00    -0.354 N 
ATOM     57  N   UNL A   1      45.026  27.632  31.146  1.00  0.00    -0.248 NA
ATOM     58  C   UNL A   1      42.958  27.291  32.167  1.00  0.00     0.031 C 
ATOM     59  C   UNL A   1      43.283  29.475  26.959  1.00  0.00     0.029 A 
ATOM     60  C   UNL A   1      43.284  29.357  28.350  1.00  0.00     0.049 A 
ATOM     61  H   UNL A   1      41.631  29.898  29.542  1.00  0.00     0.167 HD
ATOM     62  C   UNL A   1      44.103  28.465  30.527  1.00  0.00     0.074 A 
ATOM     63  C   UNL A   1      42.875  28.302  31.300  1.00  0.00     0.031 C 
ATOM     64  C   UNL A   1      44.331  28.977  29.280  1.00  0.00     0.034 A 
BRANCH  51  65
ATOM     65  C   UNL A   1      38.837  28.877  28.653  1.00  0.00     0.023 A 
ATOM     66  C   UNL A   1      37.794  29.395  27.864  1.00  0.00     0.012 A 
ATOM     67  C   UNL A   1      38.763  29.092  30.049  1.00  0.00     0.148 A 
ATOM     68  C   UNL A   1      36.714  30.070  28.445  1.00  0.00     0.002 A 
ATOM     69  C   UNL A   1      37.640  29.663  30.628  1.00  0.00     0.091 A 
ATOM     70  F   UNL A   1      39.831  28.849  30.822  1.00  0.00    -0.205 F 
ATOM     71  C   UNL A   1      36.620  30.177  29.829  1.00  0.00     0.022 A 
BRANCH  69  72
ATOM     72  S   UNL A   1      37.450  29.673  32.414  1.00  0.00     0.127 S 
ATOM     73  O   UNL A   1      38.592  30.474  32.835  1.00  0.00    -0.237 OA
ATOM     74  O   UNL A   1      36.146  30.315  32.587  1.00  0.00    -0.237 OA
ATOM     75  O   UNL A   1      37.465  28.262  32.786  1.00  0.00    -0.744 OA
ENDBRANCH  69  72
ENDBRANCH  51  65
BRANCH  52  76
ATOM     76  C   UNL A   1      44.712  24.864  33.525  1.00  0.00     0.023 A 
ATOM     77  C   UNL A   1      43.519  24.526  34.191  1.00  0.00     0.012 A 
ATOM     78  C   UNL A   1      45.936  24.445  34.095  1.00  0.00     0.148 A 
ATOM     79  C   UNL A   1      43.542  23.780  35.374  1.00  0.00     0.002 A 
ATOM     80  C   UNL A   1      45.954  23.723  35.286  1.00  0.00     0.091 A 
ATOM     81  F   UNL A   1      47.077  24.660  33.427  1.00  0.00    -0.205 F 
ATOM     82  C   UNL A   1      44.758  23.378  35.923  1.00  0.00     0.022 A 
BRANCH  80  83
ATOM     83  S   UNL A   1      47.497  23.185  36.038  1.00  0.00     0.127 S 
ATOM     84  O   UNL A   1      48.007  24.427  36.624  1.00  0.00    -0.237 OA
ATOM     85  O   UNL A   1      47.033  22.197  37.007  1.00  0.00    -0.237 OA
ATOM     86  O   UNL A   1      48.306  22.673  34.938  1.00  0.00    -0.744 OA
ENDBRANCH  80  83
ENDBRANCH  52  76
BRANCH  64  87
ATOM     87  C   UNL A   1      45.716  28.824  28.689  1.00  0.00     0.023 A 
ATOM     88  C   UNL A   1      46.744  29.747  28.977  1.00  0.00     0.012 A 
ATOM     89  C   UNL A   1      46.051  27.639  28.008  1.00  0.00     0.148 A 
ATOM     90  C   UNL A   1      48.061  29.514  28.580  1.00  0.00     0.002 A 
ATOM     91  C   UNL A   1      47.376  27.384  27.660  1.00  0.00     0.091 A 
ATOM     92  F   UNL A   1      45.075  26.758  27.741  1.00  0.00    -0.205 F 
ATOM     93  C   UNL A   1      48.381  28.323  27.934  1.00  0.00     0.022 A 
BRANCH  91  94
ATOM     94  S   UNL A   1      47.873  25.802  26.968  1.00  0.00     0.127 S 
ATOM     95  O   UNL A   1      47.269  25.844  25.639  1.00  0.00    -0.237 OA
ATOM     96  O   UNL A   1      49.334  25.892  26.979  1.00  0.00    -0.237 OA
ATOM     97  O   UNL A   1      47.338  24.794  27.876  1.00  0.00    -0.744 OA
ENDBRANCH  91  94
ENDBRANCH  64  87
ENDBRANCH  38  39
ENDBRANCH  31  33
ENDBRANCH  30  31
ENDBRANCH  29  30
ENDBRANCH   1  29
TORSDOF 19
ENDMDL
MODEL 2
REMARK VINA RESULT:     -11.3      1.603      2.141
REMARK SMILES CCc1nc2sc(C(=O)NCC(=O)OCCOC(=O)c3ccc(-c4c5nc(c(-c6cccc(S(=O)(=O)[O-])c6F)c6ccc([nH]6)c(-c6cccc(S(=O)(=O)[O-])c6F)c6nc(c(-c7cccc(S(=O)(=O)[O-])c7F)c7ccc4[nH]7)C=C6)C=C5)cc3)c(N)c2c(C(F)(F)F)c1C
REMARK SMILES IDX 15 1 14 2 12 3 13 4 11 5 10 6 8 7 9 8 7 10 3 11 4 12 91 13
REMARK SMILES IDX 5 14 86 15 92 16 6 17 85 18 83 19 2 20 1 21 87 22 88 23
REMARK SMILES IDX 89 24 90 25 84 26 16 29 17 30 18 31 19 32 20 33 21 34 82 35
REMARK SMILES IDX 22 36 81 37 23 38 24 39 25 40 75 41 26 42 80 43 74 44 76 45
REMARK SMILES IDX 27 46 79 47 73 48 72 49 28 51 60 52 40 53 59 54 41 55 44 56
REMARK SMILES IDX 58 57 77 58 42 59 43 60 57 62 78 63 45 64 29 65 30 66 38 67
REMARK SMILES IDX 31 68 33 69 39 70 32 71 34 72 35 73 36 74 37 75 61 76 62 77
REMARK SMILES IDX 70 78 63 79 65 80 71 81 64 82 66 83 67 84 68 85 69 86 46 87
REMARK SMILES IDX 47 88 55 89 48 90 50 91 56 92 49 93 51 94 52 95 53 96 54 97
REMARK H PARENT 10 9 84 27 84 28 76 50 44 61
REMARK Flexibility Score: inf
ROOT
ATOM      1  C   UNL A   1      36.902  22.301  24.204  1.00  0.00     0.274 C 
ENDROOT
BRANCH   1   2
ATOM      2  O   UNL A   1      36.210  23.241  25.052  1.00  0.00    -0.461 OA
BRANCH   2   3
ATOM      3  C   UNL A   1      35.086  22.777  25.672  1.00  0.00     0.325 C 
ATOM      4  O   UNL A   1      34.912  22.779  26.889  1.00  0.00    -0.250 OA
BRANCH   3   5
ATOM      5  C   UNL A   1      33.984  22.377  24.684  1.00  0.00     0.239 C 
BRANCH   5   6
ATOM      6  N   UNL A   1      32.753  21.878  25.232  1.00  0.00    -0.340 N 
ATOM      7  C   UNL A   1      31.565  22.502  25.470  1.00  0.00     0.264 C 
ATOM      8  O   UNL A   1      30.654  21.724  25.779  1.00  0.00    -0.268 OA
ATOM      9  H   UNL A   1      32.771  20.925  25.477  1.00  0.00     0.164 HD
BRANCH   7  10
ATOM     10  C   UNL A   1      31.385  23.955  25.421  1.00  0.00     0.118 A 
ATOM     11  C   UNL A   1      31.791  28.589  26.267  1.00  0.00     0.045 A 
ATOM     12  N   UNL A   1      32.081  27.396  26.821  1.00  0.00    -0.242 NA
ATOM     13  C   UNL A   1      31.115  28.708  25.039  1.00  0.00    -0.017 A 
ATOM     14  C   UNL A   1      31.720  26.304  26.148  1.00  0.00     0.127 A 
ATOM     15  C   UNL A   1      30.812  27.516  24.300  1.00  0.00     0.073 A 
ATOM     16  C   UNL A   1      30.714  30.026  24.435  1.00  0.00     0.047 C 
ATOM     17  S   UNL A   1      32.037  24.783  26.798  1.00  0.00    -0.108 S 
ATOM     18  C   UNL A   1      31.099  26.266  24.922  1.00  0.00     0.048 A 
ATOM     19  C   UNL A   1      30.853  24.897  24.547  1.00  0.00     0.066 A 
BRANCH  11  20
ATOM     20  C   UNL A   1      32.342  29.668  27.169  1.00  0.00     0.053 C 
ATOM     21  C   UNL A   1      33.769  30.167  27.125  1.00  0.00     0.011 C 
ENDBRANCH  11  20
BRANCH  15  22
ATOM     22  C   UNL A   1      30.198  27.533  22.911  1.00  0.00     0.417 C 
ATOM     23  F   UNL A   1      30.376  28.729  22.273  1.00  0.00    -0.166 F 
ATOM     24  F   UNL A   1      30.740  26.589  22.090  1.00  0.00    -0.166 F 
ATOM     25  F   UNL A   1      28.852  27.329  22.856  1.00  0.00    -0.166 F 
ENDBRANCH  15  22
BRANCH  19  26
ATOM     26  N   UNL A   1      30.160  24.645  23.420  1.00  0.00    -0.397 N 
ATOM     27  H   UNL A   1      29.625  25.359  23.001  1.00  0.00     0.156 HD
ATOM     28  H   UNL A   1      30.188  23.749  23.015  1.00  0.00     0.156 HD
ENDBRANCH  19  26
ENDBRANCH   7  10
ENDBRANCH   5   6
ENDBRANCH   3   5
ENDBRANCH   2   3
ENDBRANCH   1   2
BRANCH   1  29
ATOM     29  C   UNL A   1      37.470  21.119  24.995  1.00  0.00     0.275 C 
BRANCH  29  30
ATOM     30  O   UNL A   1      38.687  21.482  25.650  1.00  0.00    -0.458 OA
BRANCH  30  31
ATOM     31  C   UNL A   1      39.559  20.467  25.761  1.00  0.00     0.338 C 
ATOM     32  O   UNL A   1      39.391  19.298  25.396  1.00  0.00    -0.246 OA
BRANCH  31  33
ATOM     33  C   UNL A   1      40.797  20.893  26.395  1.00  0.00     0.060 A 
ATOM     34  C   UNL A   1      40.831  20.893  27.799  1.00  0.00     0.016 A 
ATOM     35  C   UNL A   1      41.632  21.696  25.624  1.00  0.00     0.016 A 
ATOM     36  C   UNL A   1      41.490  21.907  28.441  1.00  0.00     0.010 A 
ATOM     37  C   UNL A   1      42.279  22.722  26.265  1.00  0.00     0.010 A 
ATOM     38  C   UNL A   1      42.099  22.868  27.648  1.00  0.00    -0.014 A 
BRANCH  38  39
ATOM     39  C   UNL A   1      42.432  24.126  28.276  1.00  0.00     0.031 A 
ATOM     40  C   UNL A   1      41.457  25.214  28.063  1.00  0.00     0.074 A 
ATOM     41  C   UNL A   1      43.475  24.167  29.127  1.00  0.00     0.049 A 
ATOM     42  N   UNL A   1      41.677  26.435  27.702  1.00  0.00    -0.248 NA
ATOM     43  C   UNL A   1      40.034  24.858  28.179  1.00  0.00     0.031 C 
ATOM     44  C   UNL A   1      44.269  23.025  29.605  1.00  0.00     0.029 A 
ATOM     45  N   UNL A   1      43.898  25.193  29.912  1.00  0.00    -0.354 N 
ATOM     46  C   UNL A   1      40.428  27.047  27.725  1.00  0.00     0.074 A 
ATOM     47  C   UNL A   1      39.446  26.004  27.858  1.00  0.00     0.031 C 
ATOM     48  C   UNL A   1      44.833  23.356  30.785  1.00  0.00     0.029 A 
ATOM     49  C   UNL A   1      44.527  24.747  31.069  1.00  0.00     0.049 A 
ATOM     50  H   UNL A   1      43.772  26.144  29.687  1.00  0.00     0.167 HD
ATOM     51  C   UNL A   1      40.265  28.387  27.852  1.00  0.00     0.034 A 
ATOM     52  C   UNL A   1      44.636  25.434  32.230  1.00  0.00     0.034 A 
ATOM     53  C   UNL A   1      41.457  29.125  27.565  1.00  0.00     0.049 A 
ATOM     54  C   UNL A   1      44.357  26.860  31.937  1.00  0.00     0.074 A 
ATOM     55  C   UNL A   1      42.245  29.306  26.447  1.00  0.00     0.029 A 
ATOM     56  N   UNL A   1      42.197  29.568  28.633  1.00  0.00    -0.354 N 
ATOM     57  N   UNL A   1      45.119  27.628  31.211  1.00  0.00    -0.248 NA
ATOM     58  C   UNL A   1      43.008  27.356  32.164  1.00  0.00     0.031 C 
ATOM     59  C   UNL A   1      43.570  29.461  26.943  1.00  0.00     0.029 A 
ATOM     60  C   UNL A   1      43.520  29.361  28.336  1.00  0.00     0.049 A 
ATOM     61  H   UNL A   1      41.842  29.961  29.462  1.00  0.00     0.167 HD
ATOM     62  C   UNL A   1      44.239  28.477  30.550  1.00  0.00     0.074 A 
ATOM     63  C   UNL A   1      42.982  28.357  31.282  1.00  0.00     0.031 C 
ATOM     64  C   UNL A   1      44.524  28.966  29.306  1.00  0.00     0.034 A 
BRANCH  51  65
ATOM     65  C   UNL A   1      39.054  29.002  28.490  1.00  0.00     0.023 A 
ATOM     66  C   UNL A   1      38.111  29.643  27.666  1.00  0.00     0.012 A 
ATOM     67  C   UNL A   1      38.890  29.133  29.888  1.00  0.00     0.148 A 
ATOM     68  C   UNL A   1      37.038  30.356  28.213  1.00  0.00     0.002 A 
ATOM     69  C   UNL A   1      37.767  29.747  30.424  1.00  0.00     0.091 A 
ATOM     70  F   UNL A   1      39.878  28.766  30.716  1.00  0.00    -0.205 F 
ATOM     71  C   UNL A   1      36.847  30.382  29.591  1.00  0.00     0.022 A 
BRANCH  69  72
ATOM     72  S   UNL A   1      37.444  29.657  32.188  1.00  0.00     0.127 S 
ATOM     73  O   UNL A   1      37.481  28.220  32.430  1.00  0.00    -0.237 OA
ATOM     74  O   UNL A   1      38.567  30.409  32.751  1.00  0.00    -0.237 OA
ATOM     75  O   UNL A   1      36.153  30.317  32.352  1.00  0.00    -0.744 OA
ENDBRANCH  69  72
ENDBRANCH  51  65
BRANCH  52  76
ATOM     76  C   UNL A   1      44.648  24.901  33.612  1.00  0.00     0.023 A 
ATOM     77  C   UNL A   1      43.497  24.262  34.108  1.00  0.00     0.012 A 
ATOM     78  C   UNL A   1      45.843  24.797  34.361  1.00  0.00     0.148 A 
ATOM     79  C   UNL A   1      43.537  23.528  35.298  1.00  0.00     0.002 A 
ATOM     80  C   UNL A   1      45.872  24.087  35.557  1.00  0.00     0.091 A 
ATOM     81  F   UNL A   1      46.977  25.305  33.857  1.00  0.00    -0.205 F 
ATOM     82  C   UNL A   1      44.723  23.440  36.024  1.00  0.00     0.022 A 
BRANCH  80  83
ATOM     83  S   UNL A   1      47.376  23.946  36.534  1.00  0.00     0.127 S 
ATOM     84  O   UNL A   1      47.738  25.348  36.749  1.00  0.00    -0.237 OA
ATOM     85  O   UNL A   1      46.899  23.248  37.724  1.00  0.00    -0.237 OA
ATOM     86  O   UNL A   1      48.316  23.213  35.695  1.00  0.00    -0.744 OA
ENDBRANCH  80  83
ENDBRANCH  52  76
BRANCH  64  87
ATOM     87  C   UNL A   1      45.924  28.769  28.765  1.00  0.00     0.023 A 
ATOM     88  C   UNL A   1      46.968  29.663  29.085  1.00  0.00     0.012 A 
ATOM     89  C   UNL A   1      46.248  27.570  28.102  1.00  0.00     0.148 A 
ATOM     90  C   UNL A   1      48.291  29.388  28.736  1.00  0.00     0.002 A 
ATOM     91  C   UNL A   1      47.576  27.275  27.803  1.00  0.00     0.091 A 
ATOM     92  F   UNL A   1      45.256  26.717  27.805  1.00  0.00    -0.205 F 
ATOM     93  C   UNL A   1      48.598  28.185  28.108  1.00  0.00     0.022 A 
BRANCH  91  94
ATOM     94  S   UNL A   1      48.050  25.675  27.137  1.00  0.00     0.127 S 
ATOM     95  O   UNL A   1      47.419  24.751  28.076  1.00  0.00    -0.237 OA
ATOM     96  O   UNL A   1      47.450  25.693  25.801  1.00  0.00    -0.237 OA
ATOM     97  O   UNL A   1      49.508  25.673  27.127  1.00  0.00    -0.744 OA
ENDBRANCH  91  94
ENDBRANCH  64  87
ENDBRANCH  38  39
ENDBRANCH  31  33
ENDBRANCH  30  31
ENDBRANCH  29  30
ENDBRANCH   1  29
TORSDOF 19
ENDMDL
MODEL 3
REMARK VINA RESULT:     -11.1      5.205      9.035
REMARK SMILES CCc1nc2sc(C(=O)NCC(=O)OCCOC(=O)c3ccc(-c4c5nc(c(-c6cccc(S(=O)(=O)[O-])c6F)c6ccc([nH]6)c(-c6cccc(S(=O)(=O)[O-])c6F)c6nc(c(-c7cccc(S(=O)(=O)[O-])c7F)c7ccc4[nH]7)C=C6)C=C5)cc3)c(N)c2c(C(F)(F)F)c1C
REMARK SMILES IDX 15 1 14 2 12 3 13 4 11 5 10 6 8 7 9 8 7 10 3 11 4 12 91 13
REMARK SMILES IDX 5 14 86 15 92 16 6 17 85 18 83 19 2 20 1 21 87 22 88 23
REMARK SMILES IDX 89 24 90 25 84 26 16 29 17 30 18 31 19 32 20 33 21 34 82 35
REMARK SMILES IDX 22 36 81 37 23 38 24 39 25 40 75 41 26 42 80 43 74 44 76 45
REMARK SMILES IDX 27 46 79 47 73 48 72 49 28 51 60 52 40 53 59 54 41 55 44 56
REMARK SMILES IDX 58 57 77 58 42 59 43 60 57 62 78 63 45 64 29 65 30 66 38 67
REMARK SMILES IDX 31 68 33 69 39 70 32 71 34 72 35 73 36 74 37 75 61 76 62 77
REMARK SMILES IDX 70 78 63 79 65 80 71 81 64 82 66 83 67 84 68 85 69 86 46 87
REMARK SMILES IDX 47 88 55 89 48 90 50 91 56 92 49 93 51 94 52 95 53 96 54 97
REMARK H PARENT 10 9 84 27 84 28 76 50 44 61
REMARK Flexibility Score: inf
ROOT
ATOM      1  C   UNL A   1      39.832  21.415  26.235  1.00  0.00     0.274 C 
ENDROOT
BRANCH   1   2
ATOM      2  O   UNL A   1      41.143  21.070  26.728  1.00  0.00    -0.461 OA
BRANCH   2   3
ATOM      3  C   UNL A   1      41.755  20.011  26.121  1.00  0.00     0.325 C 
ATOM      4  O   UNL A   1      41.168  19.010  25.713  1.00  0.00    -0.250 OA
BRANCH   3   5
ATOM      5  C   UNL A   1      43.247  20.252  25.865  1.00  0.00     0.239 C 
BRANCH   5   6
ATOM      6  N   UNL A   1      43.599  21.134  24.786  1.00  0.00    -0.340 N 
ATOM      7  C   UNL A   1      44.412  22.227  24.756  1.00  0.00     0.264 C 
ATOM      8  O   UNL A   1      44.637  22.641  23.613  1.00  0.00    -0.268 OA
ATOM      9  H   UNL A   1      43.183  20.909  23.922  1.00  0.00     0.164 HD
BRANCH   7  10
ATOM     10  C   UNL A   1      44.931  22.887  25.956  1.00  0.00     0.118 A 
ATOM     11  C   UNL A   1      47.444  25.630  28.875  1.00  0.00     0.045 A 
ATOM     12  N   UNL A   1      47.482  25.119  27.629  1.00  0.00    -0.242 NA
ATOM     13  C   UNL A   1      46.403  25.347  29.777  1.00  0.00    -0.017 A 
ATOM     14  C   UNL A   1      46.471  24.334  27.258  1.00  0.00     0.127 A 
ATOM     15  C   UNL A   1      45.289  24.565  29.322  1.00  0.00     0.073 A 
ATOM     16  C   UNL A   1      46.374  25.844  31.197  1.00  0.00     0.047 C 
ATOM     17  S   UNL A   1      46.471  23.649  25.719  1.00  0.00    -0.108 S 
ATOM     18  C   UNL A   1      45.368  24.009  28.011  1.00  0.00     0.048 A 
ATOM     19  C   UNL A   1      44.519  23.116  27.265  1.00  0.00     0.066 A 
BRANCH  11  20
ATOM     20  C   UNL A   1      48.648  26.525  29.048  1.00  0.00     0.053 C 
ATOM     21  C   UNL A   1      49.705  26.334  30.113  1.00  0.00     0.011 C 
ENDBRANCH  11  20
BRANCH  15  22
ATOM     22  C   UNL A   1      44.056  24.302  30.169  1.00  0.00     0.417 C 
ATOM     23  F   UNL A   1      42.902  24.707  29.555  1.00  0.00    -0.166 F 
ATOM     24  F   UNL A   1      43.886  22.978  30.445  1.00  0.00    -0.166 F 
ATOM     25  F   UNL A   1      44.022  24.930  31.377  1.00  0.00    -0.166 F 
ENDBRANCH  15  22
BRANCH  19  26
ATOM     26  N   UNL A   1      43.431  22.598  27.866  1.00  0.00    -0.397 N 
ATOM     27  H   UNL A   1      42.576  23.086  27.842  1.00  0.00     0.156 HD
ATOM     28  H   UNL A   1      43.490  21.733  28.331  1.00  0.00     0.156 HD
ENDBRANCH  19  26
ENDBRANCH   7  10
ENDBRANCH   5   6
ENDBRANCH   3   5
ENDBRANCH   2   3
ENDBRANCH   1   2
BRANCH   1  29
ATOM     29  C   UNL A   1      39.464  22.870  26.542  1.00  0.00     0.275 C 
BRANCH  29  30
ATOM     30  O   UNL A   1      40.471  23.490  27.344  1.00  0.00    -0.458 OA
BRANCH  30  31
ATOM     31  C   UNL A   1      40.951  24.628  26.815  1.00  0.00     0.338 C 
ATOM     32  O   UNL A   1      41.953  24.752  26.102  1.00  0.00    -0.246 OA
BRANCH  31  33
ATOM     33  C   UNL A   1      40.136  25.775  27.185  1.00  0.00     0.060 A 
ATOM     34  C   UNL A   1      40.419  26.993  26.548  1.00  0.00     0.016 A 
ATOM     35  C   UNL A   1      39.510  25.704  28.426  1.00  0.00     0.016 A 
ATOM     36  C   UNL A   1      40.347  28.150  27.277  1.00  0.00     0.010 A 
ATOM     37  C   UNL A   1      39.452  26.859  29.163  1.00  0.00     0.010 A 
ATOM     38  C   UNL A   1      39.978  28.035  28.610  1.00  0.00    -0.014 A 
BRANCH  38  39
ATOM     39  C   UNL A   1      40.287  29.149  29.477  1.00  0.00     0.031 A 
ATOM     40  C   UNL A   1      39.187  30.113  29.681  1.00  0.00     0.074 A 
ATOM     41  C   UNL A   1      41.450  29.137  30.155  1.00  0.00     0.049 A 
ATOM     42  N   UNL A   1      39.220  31.403  29.606  1.00  0.00    -0.248 NA
ATOM     43  C   UNL A   1      37.847  29.548  29.905  1.00  0.00     0.031 C 
ATOM     44  C   UNL A   1      42.423  28.035  30.218  1.00  0.00     0.029 A 
ATOM     45  N   UNL A   1      41.897  30.005  31.102  1.00  0.00    -0.354 N 
ATOM     46  C   UNL A   1      37.938  31.816  29.956  1.00  0.00     0.074 A 
ATOM     47  C   UNL A   1      37.101  30.645  29.964  1.00  0.00     0.031 C 
ATOM     48  C   UNL A   1      43.145  28.162  31.351  1.00  0.00     0.029 A 
ATOM     49  C   UNL A   1      42.755  29.396  32.011  1.00  0.00     0.049 A 
ATOM     50  H   UNL A   1      41.641  30.955  31.139  1.00  0.00     0.167 HD
ATOM     51  C   UNL A   1      37.668  33.056  30.433  1.00  0.00     0.034 A 
ATOM     52  C   UNL A   1      42.992  29.807  33.278  1.00  0.00     0.034 A 
ATOM     53  C   UNL A   1      38.715  33.996  30.172  1.00  0.00     0.049 A 
ATOM     54  C   UNL A   1      42.527  31.210  33.391  1.00  0.00     0.074 A 
ATOM     55  C   UNL A   1      39.278  34.534  29.034  1.00  0.00     0.029 A 
ATOM     56  N   UNL A   1      39.578  34.280  31.200  1.00  0.00    -0.354 N 
ATOM     57  N   UNL A   1      43.074  32.221  32.777  1.00  0.00    -0.248 NA
ATOM     58  C   UNL A   1      41.194  31.451  33.922  1.00  0.00     0.031 C 
ATOM     59  C   UNL A   1      40.647  34.752  29.360  1.00  0.00     0.029 A 
ATOM     60  C   UNL A   1      40.844  34.330  30.677  1.00  0.00     0.049 A 
ATOM     61  H   UNL A   1      39.332  34.420  32.143  1.00  0.00     0.167 HD
ATOM     62  C   UNL A   1      42.015  33.070  32.478  1.00  0.00     0.074 A 
ATOM     63  C   UNL A   1      40.919  32.614  33.328  1.00  0.00     0.031 C 
ATOM     64  C   UNL A   1      42.033  33.865  31.367  1.00  0.00     0.034 A 
BRANCH  51  65
ATOM     65  C   UNL A   1      36.528  33.336  31.368  1.00  0.00     0.023 A 
ATOM     66  C   UNL A   1      36.518  32.708  32.626  1.00  0.00     0.012 A 
ATOM     67  C   UNL A   1      35.370  34.056  30.992  1.00  0.00     0.148 A 
ATOM     68  C   UNL A   1      35.415  32.818  33.481  1.00  0.00     0.002 A 
ATOM     69  C   UNL A   1      34.327  34.252  31.885  1.00  0.00     0.091 A 
ATOM     70  F   UNL A   1      35.215  34.461  29.724  1.00  0.00    -0.205 F 
ATOM     71  C   UNL A   1      34.332  33.616  33.126  1.00  0.00     0.022 A 
BRANCH  69  72
ATOM     72  S   UNL A   1      32.999  35.394  31.487  1.00  0.00     0.127 S 
ATOM     73  O   UNL A   1      32.038  35.123  32.548  1.00  0.00    -0.237 OA
ATOM     74  O   UNL A   1      33.667  36.694  31.573  1.00  0.00    -0.237 OA
ATOM     75  O   UNL A   1      32.602  35.026  30.132  1.00  0.00    -0.744 OA
ENDBRANCH  69  72
ENDBRANCH  51  65
BRANCH  52  76
ATOM     76  C   UNL A   1      43.292  28.979  34.469  1.00  0.00     0.023 A 
ATOM     77  C   UNL A   1      44.333  29.373  35.330  1.00  0.00     0.012 A 
ATOM     78  C   UNL A   1      42.424  27.949  34.899  1.00  0.00     0.148 A 
ATOM     79  C   UNL A   1      44.493  28.776  36.586  1.00  0.00     0.002 A 
ATOM     80  C   UNL A   1      42.602  27.342  36.139  1.00  0.00     0.091 A 
ATOM     81  F   UNL A   1      41.363  27.631  34.145  1.00  0.00    -0.205 F 
ATOM     82  C   UNL A   1      43.629  27.761  36.991  1.00  0.00     0.022 A 
BRANCH  80  83
ATOM     83  S   UNL A   1      41.517  26.024  36.708  1.00  0.00     0.127 S 
ATOM     84  O   UNL A   1      42.455  25.117  37.373  1.00  0.00    -0.237 OA
ATOM     85  O   UNL A   1      40.618  26.740  37.607  1.00  0.00    -0.237 OA
ATOM     86  O   UNL A   1      40.913  25.473  35.501  1.00  0.00    -0.744 OA
ENDBRANCH  80  83
ENDBRANCH  52  76
BRANCH  64  87
ATOM     87  C   UNL A   1      43.333  33.991  30.601  1.00  0.00     0.023 A 
ATOM     88  C   UNL A   1      43.750  32.994  29.693  1.00  0.00     0.012 A 
ATOM     89  C   UNL A   1      44.041  35.207  30.632  1.00  0.00     0.148 A 
ATOM     90  C   UNL A   1      44.851  33.187  28.858  1.00  0.00     0.002 A 
ATOM     91  C   UNL A   1      45.106  35.417  29.760  1.00  0.00     0.091 A 
ATOM     92  F   UNL A   1      43.639  36.157  31.490  1.00  0.00    -0.205 F 
ATOM     93  C   UNL A   1      45.521  34.407  28.880  1.00  0.00     0.022 A 
BRANCH  91  94
ATOM     94  S   UNL A   1      45.908  37.020  29.633  1.00  0.00     0.127 S 
ATOM     95  O   UNL A   1      46.750  37.039  30.826  1.00  0.00    -0.237 OA
ATOM     96  O   UNL A   1      46.641  36.914  28.370  1.00  0.00    -0.237 OA
ATOM     97  O   UNL A   1      44.825  37.996  29.605  1.00  0.00    -0.744 OA
ENDBRANCH  91  94
ENDBRANCH  64  87
ENDBRANCH  38  39
ENDBRANCH  31  33
ENDBRANCH  30  31
ENDBRANCH  29  30
ENDBRANCH   1  29
TORSDOF 19
ENDMDL
