MODEL 1
REMARK VINA RESULT:     -11.4      0.000      0.000
REMARK SMILES CSc1cccc(N2C[C@@H](C(=O)OCCOC(=O)c3ccc(-c4c5nc(c(-c6cccc(S(=O)(=O)[O-])c6F)c6ccc([nH]6)c(-c6cccc(S(=O)(=O)[O-])c6F)c6nc(c(-c7cccc(S(=O)(=O)[O-])c7F)c7ccc4[nH]7)C=C6)C=C5)cc3)CC2=O)c1
REMARK SMILES IDX 15 1 14 2 13 3 11 4 12 5 10 6 8 7 9 8 83 9 82 10 84 11 7 12
REMARK SMILES IDX 3 13 4 14 85 15 5 16 6 17 2 18 1 19 16 20 17 21 18 22 19 23
REMARK SMILES IDX 20 24 81 25 21 26 80 27 22 28 23 29 24 30 74 31 25 32 79 33
REMARK SMILES IDX 73 34 75 35 26 36 78 37 72 38 71 39 27 41 59 42 39 43 58 44
REMARK SMILES IDX 40 45 43 46 57 47 76 48 41 49 42 50 56 52 77 53 44 54 28 55
REMARK SMILES IDX 29 56 37 57 30 58 32 59 38 60 31 61 33 62 34 63 35 64 36 65
REMARK SMILES IDX 60 66 61 67 69 68 62 69 64 70 70 71 63 72 65 73 66 74 67 75
REMARK SMILES IDX 68 76 45 77 46 78 54 79 47 80 49 81 55 82 48 83 50 84 51 85
REMARK SMILES IDX 52 86 53 87
REMARK H PARENT 75 40 43 51
REMARK Flexibility Score: inf
ROOT
ATOM      1  C   UNL A   1      31.626  29.891  25.643  1.00  0.00     0.275 C 
ENDROOT
BRANCH   1   2
ATOM      2  C   UNL A   1      31.496  28.367  25.559  1.00  0.00     0.274 C 
BRANCH   2   3
ATOM      3  O   UNL A   1      30.824  27.984  24.345  1.00  0.00    -0.462 OA
BRANCH   3   4
ATOM      4  C   UNL A   1      30.354  26.714  24.286  1.00  0.00     0.311 C 
ATOM      5  O   UNL A   1      29.539  26.305  23.469  1.00  0.00    -0.252 OA
BRANCH   4   6
ATOM      6  C   UNL A   1      30.974  25.810  25.317  1.00  0.00     0.128 C 
ATOM      7  N   UNL A   1      31.831  23.658  25.556  1.00  0.00    -0.311 N 
ATOM      8  C   UNL A   1      31.794  24.750  24.618  1.00  0.00     0.141 C 
ATOM      9  C   UNL A   1      30.802  23.763  26.500  1.00  0.00     0.227 C 
ATOM     10  C   UNL A   1      30.039  25.034  26.226  1.00  0.00     0.117 C 
ATOM     11  O   UNL A   1      30.511  22.992  27.403  1.00  0.00    -0.274 OA
BRANCH   7  12
ATOM     12  C   UNL A   1      32.701  22.554  25.393  1.00  0.00     0.045 A 
ATOM     13  C   UNL A   1      33.069  20.261  24.628  1.00  0.00     0.009 A 
ATOM     14  C   UNL A   1      34.419  20.378  24.972  1.00  0.00     0.015 A 
ATOM     15  C   UNL A   1      32.222  21.348  24.863  1.00  0.00     0.041 A 
ATOM     16  C   UNL A   1      34.910  21.561  25.525  1.00  0.00     0.003 A 
ATOM     17  C   UNL A   1      34.058  22.648  25.717  1.00  0.00     0.026 A 
BRANCH  13  18
ATOM     18  S   UNL A   1      32.544  18.727  23.866  1.00  0.00    -0.130 SA
ATOM     19  C   UNL A   1      32.526  17.563  25.260  1.00  0.00     0.091 C 
ENDBRANCH  13  18
ENDBRANCH   7  12
ENDBRANCH   4   6
ENDBRANCH   3   4
ENDBRANCH   2   3
ENDBRANCH   1   2
BRANCH   1  20
ATOM     20  O   UNL A   1      32.997  30.305  25.803  1.00  0.00    -0.458 OA
BRANCH  20  21
ATOM     21  C   UNL A   1      33.215  31.189  26.805  1.00  0.00     0.338 C 
ATOM     22  O   UNL A   1      32.435  32.020  27.239  1.00  0.00    -0.246 OA
BRANCH  21  23
ATOM     23  C   UNL A   1      34.512  30.920  27.439  1.00  0.00     0.060 A 
ATOM     24  C   UNL A   1      34.770  29.616  27.862  1.00  0.00     0.016 A 
ATOM     25  C   UNL A   1      35.417  31.943  27.716  1.00  0.00     0.016 A 
ATOM     26  C   UNL A   1      35.900  29.329  28.613  1.00  0.00     0.010 A 
ATOM     27  C   UNL A   1      36.584  31.644  28.429  1.00  0.00     0.010 A 
ATOM     28  C   UNL A   1      36.824  30.339  28.897  1.00  0.00    -0.014 A 
BRANCH  28  29
ATOM     29  C   UNL A   1      38.039  30.007  29.676  1.00  0.00     0.031 A 
ATOM     30  C   UNL A   1      39.079  29.088  29.106  1.00  0.00     0.074 A 
ATOM     31  C   UNL A   1      38.202  30.545  30.899  1.00  0.00     0.049 A 
ATOM     32  N   UNL A   1      40.162  28.622  29.670  1.00  0.00    -0.248 NA
ATOM     33  C   UNL A   1      38.872  28.624  27.725  1.00  0.00     0.031 C 
ATOM     34  C   UNL A   1      37.262  31.460  31.549  1.00  0.00     0.029 A 
ATOM     35  N   UNL A   1      39.207  30.390  31.821  1.00  0.00    -0.354 N 
ATOM     36  C   UNL A   1      40.738  27.768  28.738  1.00  0.00     0.074 A 
ATOM     37  C   UNL A   1      39.888  27.786  27.566  1.00  0.00     0.031 C 
ATOM     38  C   UNL A   1      37.728  31.779  32.765  1.00  0.00     0.029 A 
ATOM     39  C   UNL A   1      38.970  31.050  33.003  1.00  0.00     0.049 A 
ATOM     40  H   UNL A   1      40.017  29.858  31.652  1.00  0.00     0.167 HD
ATOM     41  C   UNL A   1      41.877  27.044  28.848  1.00  0.00     0.034 A 
ATOM     42  C   UNL A   1      39.654  31.041  34.163  1.00  0.00     0.034 A 
ATOM     43  C   UNL A   1      42.744  27.075  29.995  1.00  0.00     0.049 A 
ATOM     44  C   UNL A   1      40.914  30.229  34.256  1.00  0.00     0.074 A 
ATOM     45  C   UNL A   1      43.955  26.431  30.175  1.00  0.00     0.029 A 
ATOM     46  N   UNL A   1      42.492  27.785  31.159  1.00  0.00    -0.354 N 
ATOM     47  N   UNL A   1      41.498  29.506  33.332  1.00  0.00    -0.248 NA
ATOM     48  C   UNL A   1      41.621  30.244  35.545  1.00  0.00     0.031 C 
ATOM     49  C   UNL A   1      44.427  26.737  31.456  1.00  0.00     0.029 A 
ATOM     50  C   UNL A   1      43.516  27.582  32.069  1.00  0.00     0.049 A 
ATOM     51  H   UNL A   1      41.702  28.350  31.316  1.00  0.00     0.167 HD
ATOM     52  C   UNL A   1      42.645  28.988  33.920  1.00  0.00     0.074 A 
ATOM     53  C   UNL A   1      42.691  29.509  35.272  1.00  0.00     0.031 C 
ATOM     54  C   UNL A   1      43.565  28.142  33.397  1.00  0.00     0.034 A 
BRANCH  41  55
ATOM     55  C   UNL A   1      42.264  26.172  27.685  1.00  0.00     0.023 A 
ATOM     56  C   UNL A   1      43.102  26.684  26.675  1.00  0.00     0.012 A 
ATOM     57  C   UNL A   1      41.838  24.831  27.616  1.00  0.00     0.148 A 
ATOM     58  C   UNL A   1      43.489  25.883  25.600  1.00  0.00     0.002 A 
ATOM     59  C   UNL A   1      42.257  24.028  26.562  1.00  0.00     0.091 A 
ATOM     60  F   UNL A   1      41.016  24.372  28.572  1.00  0.00    -0.205 F 
ATOM     61  C   UNL A   1      43.075  24.554  25.550  1.00  0.00     0.022 A 
BRANCH  59  62
ATOM     62  S   UNL A   1      41.825  22.288  26.451  1.00  0.00     0.127 S 
ATOM     63  O   UNL A   1      40.370  22.353  26.320  1.00  0.00    -0.237 OA
ATOM     64  O   UNL A   1      42.527  21.869  25.237  1.00  0.00    -0.237 OA
ATOM     65  O   UNL A   1      42.322  21.677  27.675  1.00  0.00    -0.744 OA
ENDBRANCH  59  62
ENDBRANCH  41  55
BRANCH  42  66
ATOM     66  C   UNL A   1      39.157  31.846  35.314  1.00  0.00     0.023 A 
ATOM     67  C   UNL A   1      38.277  31.258  36.241  1.00  0.00     0.012 A 
ATOM     68  C   UNL A   1      39.605  33.164  35.530  1.00  0.00     0.148 A 
ATOM     69  C   UNL A   1      37.840  31.976  37.356  1.00  0.00     0.002 A 
ATOM     70  C   UNL A   1      39.213  33.851  36.671  1.00  0.00     0.091 A 
ATOM     71  F   UNL A   1      40.427  33.713  34.622  1.00  0.00    -0.205 F 
ATOM     72  C   UNL A   1      38.319  33.264  37.579  1.00  0.00     0.022 A 
BRANCH  70  73
ATOM     73  S   UNL A   1      39.902  35.453  37.107  1.00  0.00     0.127 S 
ATOM     74  O   UNL A   1      39.200  35.752  38.352  1.00  0.00    -0.237 OA
ATOM     75  O   UNL A   1      41.324  35.143  37.259  1.00  0.00    -0.237 OA
ATOM     76  O   UNL A   1      39.599  36.326  35.980  1.00  0.00    -0.744 OA
ENDBRANCH  70  73
ENDBRANCH  42  66
BRANCH  54  77
ATOM     77  C   UNL A   1      44.702  27.720  34.289  1.00  0.00     0.023 A 
ATOM     78  C   UNL A   1      45.826  28.558  34.418  1.00  0.00     0.012 A 
ATOM     79  C   UNL A   1      44.628  26.537  35.049  1.00  0.00     0.148 A 
ATOM     80  C   UNL A   1      46.872  28.215  35.272  1.00  0.00     0.002 A 
ATOM     81  C   UNL A   1      45.656  26.221  35.930  1.00  0.00     0.091 A 
ATOM     82  F   UNL A   1      43.560  25.742  34.894  1.00  0.00    -0.205 F 
ATOM     83  C   UNL A   1      46.783  27.053  36.036  1.00  0.00     0.022 A 
BRANCH  81  84
ATOM     84  S   UNL A   1      45.581  24.792  37.016  1.00  0.00     0.127 S 
ATOM     85  O   UNL A   1      46.834  24.916  37.759  1.00  0.00    -0.237 OA
ATOM     86  O   UNL A   1      44.376  25.059  37.802  1.00  0.00    -0.237 OA
ATOM     87  O   UNL A   1      45.483  23.632  36.140  1.00  0.00    -0.744 OA
ENDBRANCH  81  84
ENDBRANCH  54  77
ENDBRANCH  28  29
ENDBRANCH  21  23
ENDBRANCH  20  21
ENDBRANCH   1  20
TORSDOF 16
ENDMDL
MODEL 2
REMARK VINA RESULT:     -11.3      5.377     10.177
REMARK SMILES CSc1cccc(N2C[C@@H](C(=O)OCCOC(=O)c3ccc(-c4c5nc(c(-c6cccc(S(=O)(=O)[O-])c6F)c6ccc([nH]6)c(-c6cccc(S(=O)(=O)[O-])c6F)c6nc(c(-c7cccc(S(=O)(=O)[O-])c7F)c7ccc4[nH]7)C=C6)C=C5)cc3)CC2=O)c1
REMARK SMILES IDX 15 1 14 2 13 3 11 4 12 5 10 6 8 7 9 8 83 9 82 10 84 11 7 12
REMARK SMILES IDX 3 13 4 14 85 15 5 16 6 17 2 18 1 19 16 20 17 21 18 22 19 23
REMARK SMILES IDX 20 24 81 25 21 26 80 27 22 28 23 29 24 30 74 31 25 32 79 33
REMARK SMILES IDX 73 34 75 35 26 36 78 37 72 38 71 39 27 41 59 42 39 43 58 44
REMARK SMILES IDX 40 45 43 46 57 47 76 48 41 49 42 50 56 52 77 53 44 54 28 55
REMARK SMILES IDX 29 56 37 57 30 58 32 59 38 60 31 61 33 62 34 63 35 64 36 65
REMARK SMILES IDX 60 66 61 67 69 68 62 69 64 70 70 71 63 72 65 73 66 74 67 75
REMARK SMILES IDX 68 76 45 77 46 78 54 79 47 80 49 81 55 82 48 83 50 84 51 85
REMARK SMILES IDX 52 86 53 87
REMARK H PARENT 75 40 43 51
REMARK Flexibility Score: inf
ROOT
ATOM      1  C   UNL A   1      36.553  20.737  24.736  1.00  0.00     0.275 C 
ENDROOT
BRANCH   1   2
ATOM      2  C   UNL A   1      35.104  20.415  25.114  1.00  0.00     0.274 C 
BRANCH   2   3
ATOM      3  O   UNL A   1      34.192  21.250  24.375  1.00  0.00    -0.462 OA
BRANCH   3   4
ATOM      4  C   UNL A   1      32.876  20.942  24.469  1.00  0.00     0.311 C 
ATOM      5  O   UNL A   1      32.419  19.806  24.478  1.00  0.00    -0.252 OA
BRANCH   4   6
ATOM      6  C   UNL A   1      31.998  22.157  24.610  1.00  0.00     0.128 C 
ATOM      7  N   UNL A   1      32.093  24.396  25.240  1.00  0.00    -0.311 N 
ATOM      8  C   UNL A   1      32.854  23.399  24.532  1.00  0.00     0.141 C 
ATOM      9  C   UNL A   1      31.138  23.807  26.079  1.00  0.00     0.227 C 
ATOM     10  C   UNL A   1      31.212  22.312  25.899  1.00  0.00     0.117 C 
ATOM     11  O   UNL A   1      30.363  24.349  26.852  1.00  0.00    -0.274 OA
BRANCH   7  12
ATOM     12  C   UNL A   1      32.427  25.770  25.196  1.00  0.00     0.045 A 
ATOM     13  C   UNL A   1      31.816  28.066  24.616  1.00  0.00     0.009 A 
ATOM     14  C   UNL A   1      33.019  28.511  25.173  1.00  0.00     0.015 A 
ATOM     15  C   UNL A   1      31.546  26.694  24.618  1.00  0.00     0.041 A 
ATOM     16  C   UNL A   1      33.921  27.605  25.730  1.00  0.00     0.003 A 
ATOM     17  C   UNL A   1      33.618  26.244  25.756  1.00  0.00     0.026 A 
BRANCH  13  18
ATOM     18  S   UNL A   1      30.692  29.309  23.983  1.00  0.00    -0.130 SA
ATOM     19  C   UNL A   1      29.682  28.378  22.795  1.00  0.00     0.091 C 
ENDBRANCH  13  18
ENDBRANCH   7  12
ENDBRANCH   4   6
ENDBRANCH   3   4
ENDBRANCH   2   3
ENDBRANCH   1   2
BRANCH   1  20
ATOM     20  O   UNL A   1      37.219  21.498  25.761  1.00  0.00    -0.458 OA
BRANCH  20  21
ATOM     21  C   UNL A   1      38.539  21.234  25.906  1.00  0.00     0.338 C 
ATOM     22  O   UNL A   1      39.136  20.238  25.535  1.00  0.00    -0.246 OA
BRANCH  21  23
ATOM     23  C   UNL A   1      39.229  22.406  26.459  1.00  0.00     0.060 A 
ATOM     24  C   UNL A   1      38.751  23.668  26.106  1.00  0.00     0.016 A 
ATOM     25  C   UNL A   1      40.390  22.280  27.220  1.00  0.00     0.016 A 
ATOM     26  C   UNL A   1      39.451  24.811  26.457  1.00  0.00     0.010 A 
ATOM     27  C   UNL A   1      41.070  23.436  27.619  1.00  0.00     0.010 A 
ATOM     28  C   UNL A   1      40.615  24.708  27.225  1.00  0.00    -0.014 A 
BRANCH  28  29
ATOM     29  C   UNL A   1      41.335  25.943  27.614  1.00  0.00     0.031 A 
ATOM     30  C   UNL A   1      40.639  27.009  28.408  1.00  0.00     0.074 A 
ATOM     31  C   UNL A   1      42.623  26.094  27.252  1.00  0.00     0.049 A 
ATOM     32  N   UNL A   1      41.081  28.185  28.769  1.00  0.00    -0.248 NA
ATOM     33  C   UNL A   1      39.265  26.721  28.849  1.00  0.00     0.031 C 
ATOM     34  C   UNL A   1      43.403  25.118  26.488  1.00  0.00     0.029 A 
ATOM     35  N   UNL A   1      43.498  27.129  27.462  1.00  0.00    -0.354 N 
ATOM     36  C   UNL A   1      40.025  28.801  29.429  1.00  0.00     0.074 A 
ATOM     37  C   UNL A   1      38.922  27.864  29.427  1.00  0.00     0.031 C 
ATOM     38  C   UNL A   1      44.637  25.602  26.287  1.00  0.00     0.029 A 
ATOM     39  C   UNL A   1      44.719  26.943  26.858  1.00  0.00     0.049 A 
ATOM     40  H   UNL A   1      43.274  27.927  27.993  1.00  0.00     0.167 HD
ATOM     41  C   UNL A   1      39.986  30.031  29.993  1.00  0.00     0.034 A 
ATOM     42  C   UNL A   1      45.774  27.772  26.743  1.00  0.00     0.034 A 
ATOM     43  C   UNL A   1      41.105  30.934  30.037  1.00  0.00     0.049 A 
ATOM     44  C   UNL A   1      45.702  29.131  27.377  1.00  0.00     0.074 A 
ATOM     45  C   UNL A   1      41.185  32.174  30.645  1.00  0.00     0.029 A 
ATOM     46  N   UNL A   1      42.338  30.696  29.449  1.00  0.00    -0.354 N 
ATOM     47  N   UNL A   1      44.732  29.659  28.084  1.00  0.00    -0.248 NA
ATOM     48  C   UNL A   1      46.874  30.003  27.217  1.00  0.00     0.031 C 
ATOM     49  C   UNL A   1      42.463  32.695  30.408  1.00  0.00     0.029 A 
ATOM     50  C   UNL A   1      43.181  31.773  29.663  1.00  0.00     0.049 A 
ATOM     51  H   UNL A   1      42.578  29.882  28.951  1.00  0.00     0.167 HD
ATOM     52  C   UNL A   1      45.178  30.919  28.463  1.00  0.00     0.074 A 
ATOM     53  C   UNL A   1      46.521  31.061  27.934  1.00  0.00     0.031 C 
ATOM     54  C   UNL A   1      44.529  31.880  29.164  1.00  0.00     0.034 A 
BRANCH  41  55
ATOM     55  C   UNL A   1      38.693  30.465  30.628  1.00  0.00     0.023 A 
ATOM     56  C   UNL A   1      38.472  30.221  31.998  1.00  0.00     0.012 A 
ATOM     57  C   UNL A   1      37.721  31.159  29.882  1.00  0.00     0.148 A 
ATOM     58  C   UNL A   1      37.289  30.637  32.610  1.00  0.00     0.002 A 
ATOM     59  C   UNL A   1      36.560  31.602  30.507  1.00  0.00     0.091 A 
ATOM     60  F   UNL A   1      37.938  31.355  28.574  1.00  0.00    -0.205 F 
ATOM     61  C   UNL A   1      36.339  31.335  31.867  1.00  0.00     0.022 A 
BRANCH  59  62
ATOM     62  S   UNL A   1      35.314  32.564  29.643  1.00  0.00     0.127 S 
ATOM     63  O   UNL A   1      34.355  32.836  30.714  1.00  0.00    -0.237 OA
ATOM     64  O   UNL A   1      36.075  33.733  29.197  1.00  0.00    -0.237 OA
ATOM     65  O   UNL A   1      34.831  31.713  28.565  1.00  0.00    -0.744 OA
ENDBRANCH  59  62
ENDBRANCH  41  55
BRANCH  42  66
ATOM     66  C   UNL A   1      46.987  27.318  26.006  1.00  0.00     0.023 A 
ATOM     67  C   UNL A   1      47.883  26.431  26.627  1.00  0.00     0.012 A 
ATOM     68  C   UNL A   1      47.218  27.710  24.672  1.00  0.00     0.148 A 
ATOM     69  C   UNL A   1      48.998  25.951  25.937  1.00  0.00     0.002 A 
ATOM     70  C   UNL A   1      48.296  27.184  23.972  1.00  0.00     0.091 A 
ATOM     71  F   UNL A   1      46.363  28.575  24.105  1.00  0.00    -0.205 F 
ATOM     72  C   UNL A   1      49.196  26.315  24.608  1.00  0.00     0.022 A 
BRANCH  70  73
ATOM     73  S   UNL A   1      48.535  27.483  22.217  1.00  0.00     0.127 S 
ATOM     74  O   UNL A   1      49.775  28.256  22.211  1.00  0.00    -0.237 OA
ATOM     75  O   UNL A   1      48.653  26.124  21.688  1.00  0.00    -0.237 OA
ATOM     76  O   UNL A   1      47.341  28.192  21.777  1.00  0.00    -0.744 OA
ENDBRANCH  70  73
ENDBRANCH  42  66
BRANCH  54  77
ATOM     77  C   UNL A   1      45.259  33.176  29.401  1.00  0.00     0.023 A 
ATOM     78  C   UNL A   1      46.103  33.297  30.521  1.00  0.00     0.012 A 
ATOM     79  C   UNL A   1      45.166  34.239  28.484  1.00  0.00     0.148 A 
ATOM     80  C   UNL A   1      46.826  34.469  30.740  1.00  0.00     0.002 A 
ATOM     81  C   UNL A   1      45.921  35.388  28.685  1.00  0.00     0.091 A 
ATOM     82  F   UNL A   1      44.339  34.112  27.436  1.00  0.00    -0.205 F 
ATOM     83  C   UNL A   1      46.744  35.509  29.817  1.00  0.00     0.022 A 
BRANCH  81  84
ATOM     84  S   UNL A   1      45.944  36.740  27.501  1.00  0.00     0.127 S 
ATOM     85  O   UNL A   1      46.682  37.766  28.234  1.00  0.00    -0.237 OA
ATOM     86  O   UNL A   1      46.669  36.155  26.372  1.00  0.00    -0.237 OA
ATOM     87  O   UNL A   1      44.547  37.048  27.223  1.00  0.00    -0.744 OA
ENDBRANCH  81  84
ENDBRANCH  54  77
ENDBRANCH  28  29
ENDBRANCH  21  23
ENDBRANCH  20  21
ENDBRANCH   1  20
TORSDOF 16
ENDMDL
MODEL 3
REMARK VINA RESULT:     -11.3      4.980     10.050
REMARK SMILES CSc1cccc(N2C[C@@H](C(=O)OCCOC(=O)c3ccc(-c4c5nc(c(-c6cccc(S(=O)(=O)[O-])c6F)c6ccc([nH]6)c(-c6cccc(S(=O)(=O)[O-])c6F)c6nc(c(-c7cccc(S(=O)(=O)[O-])c7F)c7ccc4[nH]7)C=C6)C=C5)cc3)CC2=O)c1
REMARK SMILES IDX 15 1 14 2 13 3 11 4 12 5 10 6 8 7 9 8 83 9 82 10 84 11 7 12
REMARK SMILES IDX 3 13 4 14 85 15 5 16 6 17 2 18 1 19 16 20 17 21 18 22 19 23
REMARK SMILES IDX 20 24 81 25 21 26 80 27 22 28 23 29 24 30 74 31 25 32 79 33
REMARK SMILES IDX 73 34 75 35 26 36 78 37 72 38 71 39 27 41 59 42 39 43 58 44
REMARK SMILES IDX 40 45 43 46 57 47 76 48 41 49 42 50 56 52 77 53 44 54 28 55
REMARK SMILES IDX 29 56 37 57 30 58 32 59 38 60 31 61 33 62 34 63 35 64 36 65
REMARK SMILES IDX 60 66 61 67 69 68 62 69 64 70 70 71 63 72 65 73 66 74 67 75
REMARK SMILES IDX 68 76 45 77 46 78 54 79 47 80 49 81 55 82 48 83 50 84 51 85
REMARK SMILES IDX 52 86 53 87
REMARK H PARENT 75 40 43 51
REMARK Flexibility Score: inf
ROOT
ATOM      1  C   UNL A   1      36.216  20.930  24.619  1.00  0.00     0.275 C 
ENDROOT
BRANCH   1   2
ATOM      2  C   UNL A   1      34.874  20.302  25.007  1.00  0.00     0.274 C 
BRANCH   2   3
ATOM      3  O   UNL A   1      33.922  21.323  25.363  1.00  0.00    -0.462 OA
BRANCH   3   4
ATOM      4  C   UNL A   1      32.613  21.017  25.196  1.00  0.00     0.311 C 
ATOM      5  O   UNL A   1      32.152  19.882  25.195  1.00  0.00    -0.252 OA
BRANCH   4   6
ATOM      6  C   UNL A   1      31.739  22.233  25.051  1.00  0.00     0.128 C 
ATOM      7  N   UNL A   1      31.793  24.544  25.332  1.00  0.00    -0.311 N 
ATOM      8  C   UNL A   1      32.613  23.453  24.872  1.00  0.00     0.141 C 
ATOM      9  C   UNL A   1      30.748  24.088  26.144  1.00  0.00     0.227 C 
ATOM     10  C   UNL A   1      30.822  22.585  26.208  1.00  0.00     0.117 C 
ATOM     11  O   UNL A   1      29.900  24.740  26.736  1.00  0.00    -0.274 OA
BRANCH   7  12
ATOM     12  C   UNL A   1      32.146  25.896  25.110  1.00  0.00     0.045 A 
ATOM     13  C   UNL A   1      31.652  28.057  24.077  1.00  0.00     0.009 A 
ATOM     14  C   UNL A   1      32.767  28.603  24.721  1.00  0.00     0.015 A 
ATOM     15  C   UNL A   1      31.368  26.701  24.267  1.00  0.00     0.041 A 
ATOM     16  C   UNL A   1      33.569  27.813  25.543  1.00  0.00     0.003 A 
ATOM     17  C   UNL A   1      33.249  26.471  25.750  1.00  0.00     0.026 A 
BRANCH  13  18
ATOM     18  S   UNL A   1      30.646  29.165  23.093  1.00  0.00    -0.130 SA
ATOM     19  C   UNL A   1      29.014  28.369  23.123  1.00  0.00     0.091 C 
ENDBRANCH  13  18
ENDBRANCH   7  12
ENDBRANCH   4   6
ENDBRANCH   3   4
ENDBRANCH   2   3
ENDBRANCH   1   2
BRANCH   1  20
ATOM     20  O   UNL A   1      36.884  21.515  25.754  1.00  0.00    -0.458 OA
BRANCH  20  21
ATOM     21  C   UNL A   1      38.212  21.264  25.828  1.00  0.00     0.338 C 
ATOM     22  O   UNL A   1      38.804  20.288  25.400  1.00  0.00    -0.246 OA
BRANCH  21  23
ATOM     23  C   UNL A   1      38.914  22.429  26.383  1.00  0.00     0.060 A 
ATOM     24  C   UNL A   1      38.444  23.696  26.034  1.00  0.00     0.016 A 
ATOM     25  C   UNL A   1      40.075  22.292  27.140  1.00  0.00     0.016 A 
ATOM     26  C   UNL A   1      39.155  24.833  26.386  1.00  0.00     0.010 A 
ATOM     27  C   UNL A   1      40.765  23.442  27.540  1.00  0.00     0.010 A 
ATOM     28  C   UNL A   1      40.320  24.719  27.150  1.00  0.00    -0.014 A 
BRANCH  28  29
ATOM     29  C   UNL A   1      41.050  25.947  27.540  1.00  0.00     0.031 A 
ATOM     30  C   UNL A   1      40.370  27.009  28.352  1.00  0.00     0.074 A 
ATOM     31  C   UNL A   1      42.334  26.094  27.164  1.00  0.00     0.049 A 
ATOM     32  N   UNL A   1      40.822  28.180  28.717  1.00  0.00    -0.248 NA
ATOM     33  C   UNL A   1      39.000  26.724  28.807  1.00  0.00     0.031 C 
ATOM     34  C   UNL A   1      43.100  25.121  26.382  1.00  0.00     0.029 A 
ATOM     35  N   UNL A   1      43.218  27.124  27.371  1.00  0.00    -0.354 N 
ATOM     36  C   UNL A   1      39.778  28.796  29.395  1.00  0.00     0.074 A 
ATOM     37  C   UNL A   1      38.670  27.864  29.400  1.00  0.00     0.031 C 
ATOM     38  C   UNL A   1      44.334  25.601  26.169  1.00  0.00     0.029 A 
ATOM     39  C   UNL A   1      44.429  26.937  26.750  1.00  0.00     0.049 A 
ATOM     40  H   UNL A   1      43.004  27.918  27.912  1.00  0.00     0.167 HD
ATOM     41  C   UNL A   1      39.752  30.021  29.970  1.00  0.00     0.034 A 
ATOM     42  C   UNL A   1      45.487  27.762  26.629  1.00  0.00     0.034 A 
ATOM     43  C   UNL A   1      40.876  30.918  30.008  1.00  0.00     0.049 A 
ATOM     44  C   UNL A   1      45.430  29.115  27.276  1.00  0.00     0.074 A 
ATOM     45  C   UNL A   1      40.970  32.153  30.625  1.00  0.00     0.029 A 
ATOM     46  N   UNL A   1      42.100  30.679  29.402  1.00  0.00    -0.354 N 
ATOM     47  N   UNL A   1      44.472  29.642  27.999  1.00  0.00    -0.248 NA
ATOM     48  C   UNL A   1      46.605  29.983  27.108  1.00  0.00     0.031 C 
ATOM     49  C   UNL A   1      42.247  32.669  30.376  1.00  0.00     0.029 A 
ATOM     50  C   UNL A   1      42.951  31.750  29.615  1.00  0.00     0.049 A 
ATOM     51  H   UNL A   1      42.330  29.868  28.894  1.00  0.00     0.167 HD
ATOM     52  C   UNL A   1      44.929  30.897  28.382  1.00  0.00     0.074 A 
ATOM     53  C   UNL A   1      46.265  31.037  27.839  1.00  0.00     0.031 C 
ATOM     54  C   UNL A   1      44.293  31.855  29.100  1.00  0.00     0.034 A 
BRANCH  41  55
ATOM     55  C   UNL A   1      38.469  30.456  30.625  1.00  0.00     0.023 A 
ATOM     56  C   UNL A   1      38.235  30.143  31.979  1.00  0.00     0.012 A 
ATOM     57  C   UNL A   1      37.520  31.218  29.917  1.00  0.00     0.148 A 
ATOM     58  C   UNL A   1      37.062  30.557  32.610  1.00  0.00     0.002 A 
ATOM     59  C   UNL A   1      36.370  31.658  30.562  1.00  0.00     0.091 A 
ATOM     60  F   UNL A   1      37.749  31.481  28.621  1.00  0.00    -0.205 F 
ATOM     61  C   UNL A   1      36.135  31.323  31.904  1.00  0.00     0.022 A 
BRANCH  59  62
ATOM     62  S   UNL A   1      35.155  32.703  29.749  1.00  0.00     0.127 S 
ATOM     63  O   UNL A   1      35.982  33.822  29.298  1.00  0.00    -0.237 OA
ATOM     64  O   UNL A   1      34.666  31.836  28.676  1.00  0.00    -0.237 OA
ATOM     65  O   UNL A   1      34.162  33.021  30.766  1.00  0.00    -0.744 OA
ENDBRANCH  59  62
ENDBRANCH  41  55
BRANCH  42  66
ATOM     66  C   UNL A   1      46.688  27.308  25.873  1.00  0.00     0.023 A 
ATOM     67  C   UNL A   1      46.788  27.587  24.498  1.00  0.00     0.012 A 
ATOM     68  C   UNL A   1      47.758  26.663  26.524  1.00  0.00     0.148 A 
ATOM     69  C   UNL A   1      47.928  27.219  23.781  1.00  0.00     0.002 A 
ATOM     70  C   UNL A   1      48.913  26.351  25.818  1.00  0.00     0.091 A 
ATOM     71  F   UNL A   1      47.634  26.385  27.831  1.00  0.00    -0.205 F 
ATOM     72  C   UNL A   1      48.994  26.615  24.442  1.00  0.00     0.022 A 
BRANCH  70  73
ATOM     73  S   UNL A   1      50.385  25.712  26.626  1.00  0.00     0.127 S 
ATOM     74  O   UNL A   1      51.312  25.587  25.504  1.00  0.00    -0.237 OA
ATOM     75  O   UNL A   1      50.703  26.781  27.573  1.00  0.00    -0.237 OA
ATOM     76  O   UNL A   1      49.973  24.463  27.254  1.00  0.00    -0.744 OA
ENDBRANCH  70  73
ENDBRANCH  42  66
BRANCH  54  77
ATOM     77  C   UNL A   1      45.033  33.145  29.338  1.00  0.00     0.023 A 
ATOM     78  C   UNL A   1      45.871  33.262  30.463  1.00  0.00     0.012 A 
ATOM     79  C   UNL A   1      44.953  34.207  28.418  1.00  0.00     0.148 A 
ATOM     80  C   UNL A   1      46.602  34.428  30.683  1.00  0.00     0.002 A 
ATOM     81  C   UNL A   1      45.717  35.351  28.622  1.00  0.00     0.091 A 
ATOM     82  F   UNL A   1      44.132  34.084  27.366  1.00  0.00    -0.205 F 
ATOM     83  C   UNL A   1      46.535  35.467  29.758  1.00  0.00     0.022 A 
BRANCH  81  84
ATOM     84  S   UNL A   1      45.758  36.699  27.435  1.00  0.00     0.127 S 
ATOM     85  O   UNL A   1      46.224  36.021  26.228  1.00  0.00    -0.237 OA
ATOM     86  O   UNL A   1      44.358  37.123  27.395  1.00  0.00    -0.237 OA
ATOM     87  O   UNL A   1      46.670  37.690  27.991  1.00  0.00    -0.744 OA
ENDBRANCH  81  84
ENDBRANCH  54  77
ENDBRANCH  28  29
ENDBRANCH  21  23
ENDBRANCH  20  21
ENDBRANCH   1  20
TORSDOF 16
ENDMDL
