MODEL 1
REMARK VINA RESULT:     -11.3      0.000      0.000
REMARK SMILES O=C(OCCOC(=O)c1cc(=O)[nH]c2c(Br)cccc12)c1ccc(-c2c3nc(c(-c4cccc(S(=O)(=O)[O-])c4F)c4ccc([nH]4)c(-c4cccc(S(=O)(=O)[O-])c4F)c4nc(c(-c5cccc(S(=O)(=O)[O-])c5F)c5ccc2[nH]5)C=C4)C=C3)cc1
REMARK SMILES IDX 3 1 2 2 1 3 21 4 22 5 83 6 23 7 82 8 24 9 25 10 26 11 76 12
REMARK SMILES IDX 27 13 81 14 75 15 77 16 28 17 80 18 74 19 73 20 29 22 61 23
REMARK SMILES IDX 41 24 60 25 42 26 45 27 59 28 78 29 43 30 44 31 58 33 79 34
REMARK SMILES IDX 46 35 30 36 31 37 39 38 32 39 34 40 40 41 33 42 35 43 36 44
REMARK SMILES IDX 37 45 38 46 62 47 63 48 71 49 64 50 66 51 72 52 65 53 67 54
REMARK SMILES IDX 68 55 69 56 70 57 47 58 48 59 56 60 49 61 51 62 57 63 50 64
REMARK SMILES IDX 52 65 53 66 54 67 55 68 4 69 5 70 6 71 7 72 8 73 9 74 10 75
REMARK SMILES IDX 20 76 11 77 14 78 19 79 12 80 13 81 15 82 18 83 16 85 17 86
REMARK H PARENT 77 21 45 32 13 84
REMARK Flexibility Score: inf
ROOT
ATOM      1  O   UNL A   1      34.297  31.943  27.871  1.00  0.00    -0.458 OA
ENDROOT
BRANCH   1   2
ATOM      2  C   UNL A   1      34.620  30.634  27.694  1.00  0.00     0.338 C 
ATOM      3  O   UNL A   1      33.764  29.818  27.372  1.00  0.00    -0.246 OA
BRANCH   2   4
ATOM      4  C   UNL A   1      35.930  30.154  28.210  1.00  0.00     0.060 A 
ATOM      5  C   UNL A   1      37.021  30.274  27.343  1.00  0.00     0.016 A 
ATOM      6  C   UNL A   1      36.138  29.617  29.483  1.00  0.00     0.016 A 
ATOM      7  C   UNL A   1      38.259  29.724  27.677  1.00  0.00     0.010 A 
ATOM      8  C   UNL A   1      37.382  29.080  29.831  1.00  0.00     0.010 A 
ATOM      9  C   UNL A   1      38.445  29.109  28.923  1.00  0.00    -0.014 A 
BRANCH   9  10
ATOM     10  C   UNL A   1      39.805  28.729  29.362  1.00  0.00     0.031 A 
ATOM     11  C   UNL A   1      40.590  29.522  30.363  1.00  0.00     0.074 A 
ATOM     12  C   UNL A   1      40.348  27.648  28.773  1.00  0.00     0.049 A 
ATOM     13  N   UNL A   1      41.728  29.211  30.929  1.00  0.00    -0.248 NA
ATOM     14  C   UNL A   1      40.040  30.814  30.795  1.00  0.00     0.031 C 
ATOM     15  C   UNL A   1      39.705  26.864  27.714  1.00  0.00     0.029 A 
ATOM     16  N   UNL A   1      41.563  27.044  28.947  1.00  0.00    -0.354 N 
ATOM     17  C   UNL A   1      41.999  30.234  31.829  1.00  0.00     0.074 A 
ATOM     18  C   UNL A   1      40.931  31.201  31.704  1.00  0.00     0.031 C 
ATOM     19  C   UNL A   1      40.540  25.895  27.319  1.00  0.00     0.029 A 
ATOM     20  C   UNL A   1      41.778  26.000  28.081  1.00  0.00     0.049 A 
ATOM     21  H   UNL A   1      42.217  27.329  29.625  1.00  0.00     0.167 HD
ATOM     22  C   UNL A   1      43.036  30.335  32.693  1.00  0.00     0.034 A 
ATOM     23  C   UNL A   1      42.859  25.221  27.904  1.00  0.00     0.034 A 
ATOM     24  C   UNL A   1      44.134  29.406  32.739  1.00  0.00     0.049 A 
ATOM     25  C   UNL A   1      44.039  25.405  28.803  1.00  0.00     0.074 A 
ATOM     26  C   UNL A   1      45.218  29.401  33.597  1.00  0.00     0.029 A 
ATOM     27  N   UNL A   1      44.311  28.350  31.858  1.00  0.00    -0.354 N 
ATOM     28  N   UNL A   1      44.185  26.256  29.789  1.00  0.00    -0.248 NA
ATOM     29  C   UNL A   1      45.187  24.514  28.596  1.00  0.00     0.031 C 
ATOM     30  C   UNL A   1      46.075  28.368  33.207  1.00  0.00     0.029 A 
ATOM     31  C   UNL A   1      45.510  27.714  32.123  1.00  0.00     0.049 A 
ATOM     32  H   UNL A   1      43.678  28.091  31.151  1.00  0.00     0.167 HD
ATOM     33  C   UNL A   1      45.432  25.992  30.336  1.00  0.00     0.074 A 
ATOM     34  C   UNL A   1      46.000  24.897  29.575  1.00  0.00     0.031 C 
ATOM     35  C   UNL A   1      46.047  26.608  31.373  1.00  0.00     0.034 A 
BRANCH  22  36
ATOM     36  C   UNL A   1      43.029  31.436  33.719  1.00  0.00     0.023 A 
ATOM     37  C   UNL A   1      43.518  32.702  33.339  1.00  0.00     0.012 A 
ATOM     38  C   UNL A   1      42.385  31.287  34.962  1.00  0.00     0.148 A 
ATOM     39  C   UNL A   1      43.349  33.809  34.170  1.00  0.00     0.002 A 
ATOM     40  C   UNL A   1      42.211  32.398  35.783  1.00  0.00     0.091 A 
ATOM     41  F   UNL A   1      41.929  30.073  35.301  1.00  0.00    -0.205 F 
ATOM     42  C   UNL A   1      42.687  33.659  35.385  1.00  0.00     0.022 A 
BRANCH  40  43
ATOM     43  S   UNL A   1      41.349  32.326  37.358  1.00  0.00     0.127 S 
ATOM     44  O   UNL A   1      41.393  33.725  37.785  1.00  0.00    -0.237 OA
ATOM     45  O   UNL A   1      40.023  31.851  36.963  1.00  0.00    -0.237 OA
ATOM     46  O   UNL A   1      42.109  31.409  38.195  1.00  0.00    -0.744 OA
ENDBRANCH  40  43
ENDBRANCH  22  36
BRANCH  23  47
ATOM     47  C   UNL A   1      42.804  24.179  26.848  1.00  0.00     0.023 A 
ATOM     48  C   UNL A   1      43.540  24.355  25.664  1.00  0.00     0.012 A 
ATOM     49  C   UNL A   1      42.160  22.948  27.093  1.00  0.00     0.148 A 
ATOM     50  C   UNL A   1      43.644  23.315  24.740  1.00  0.00     0.002 A 
ATOM     51  C   UNL A   1      42.308  21.903  26.191  1.00  0.00     0.091 A 
ATOM     52  F   UNL A   1      41.469  22.811  28.233  1.00  0.00    -0.205 F 
ATOM     53  C   UNL A   1      43.042  22.087  25.010  1.00  0.00     0.022 A 
BRANCH  51  54
ATOM     54  S   UNL A   1      41.689  20.250  26.528  1.00  0.00     0.127 S 
ATOM     55  O   UNL A   1      40.245  20.473  26.555  1.00  0.00    -0.237 OA
ATOM     56  O   UNL A   1      42.176  19.504  25.367  1.00  0.00    -0.237 OA
ATOM     57  O   UNL A   1      42.291  19.852  27.793  1.00  0.00    -0.744 OA
ENDBRANCH  51  54
ENDBRANCH  23  47
BRANCH  35  58
ATOM     58  C   UNL A   1      47.416  26.135  31.765  1.00  0.00     0.023 A 
ATOM     59  C   UNL A   1      48.542  26.712  31.150  1.00  0.00     0.012 A 
ATOM     60  C   UNL A   1      47.582  25.251  32.848  1.00  0.00     0.148 A 
ATOM     61  C   UNL A   1      49.823  26.420  31.614  1.00  0.00     0.002 A 
ATOM     62  C   UNL A   1      48.859  24.992  33.328  1.00  0.00     0.091 A 
ATOM     63  F   UNL A   1      46.487  24.719  33.410  1.00  0.00    -0.205 F 
ATOM     64  C   UNL A   1      49.980  25.572  32.709  1.00  0.00     0.022 A 
BRANCH  62  65
ATOM     65  S   UNL A   1      49.161  23.980  34.779  1.00  0.00     0.127 S 
ATOM     66  O   UNL A   1      50.623  23.943  34.817  1.00  0.00    -0.237 OA
ATOM     67  O   UNL A   1      48.543  24.775  35.840  1.00  0.00    -0.237 OA
ATOM     68  O   UNL A   1      48.523  22.697  34.521  1.00  0.00    -0.744 OA
ENDBRANCH  62  65
ENDBRANCH  35  58
ENDBRANCH   9  10
ENDBRANCH   2   4
ENDBRANCH   1   2
BRANCH   1  69
ATOM     69  C   UNL A   1      35.249  33.016  27.957  1.00  0.00     0.275 C 
BRANCH  69  70
ATOM     70  C   UNL A   1      34.647  34.417  27.814  1.00  0.00     0.275 C 
BRANCH  70  71
ATOM     71  O   UNL A   1      34.626  35.177  29.029  1.00  0.00    -0.458 OA
BRANCH  71  72
ATOM     72  C   UNL A   1      33.556  34.943  29.842  1.00  0.00     0.339 C 
ATOM     73  O   UNL A   1      32.437  34.637  29.480  1.00  0.00    -0.246 OA
BRANCH  72  74
ATOM     74  C   UNL A   1      33.961  35.061  31.265  1.00  0.00     0.074 A 
ATOM     75  C   UNL A   1      33.621  36.196  31.896  1.00  0.00     0.088 A 
ATOM     76  C   UNL A   1      34.689  34.001  31.991  1.00  0.00     0.014 A 
ATOM     77  C   UNL A   1      33.977  36.422  33.310  1.00  0.00     0.249 A 
ATOM     78  C   UNL A   1      35.128  34.267  33.301  1.00  0.00     0.063 A 
ATOM     79  C   UNL A   1      35.042  32.779  31.399  1.00  0.00     0.011 A 
ATOM     80  O   UNL A   1      33.579  37.420  33.898  1.00  0.00    -0.270 OA
ATOM     81  N   UNL A   1      34.758  35.478  33.907  1.00  0.00    -0.321 N 
ATOM     82  C   UNL A   1      35.927  33.341  33.985  1.00  0.00     0.042 A 
ATOM     83  C   UNL A   1      35.844  31.861  32.082  1.00  0.00     0.002 A 
ATOM     84  H   UNL A   1      35.083  35.656  34.818  1.00  0.00     0.170 HD
ATOM     85  Br  UNL A   1      36.558  33.677  35.742  1.00  0.00    -0.049 Br
ATOM     86  C   UNL A   1      36.292  32.143  33.371  1.00  0.00     0.018 A 
ENDBRANCH  72  74
ENDBRANCH  71  72
ENDBRANCH  70  71
ENDBRANCH  69  70
ENDBRANCH   1  69
TORSDOF 14
ENDMDL
MODEL 2
REMARK VINA RESULT:     -11.1      5.939     10.293
REMARK SMILES O=C(OCCOC(=O)c1cc(=O)[nH]c2c(Br)cccc12)c1ccc(-c2c3nc(c(-c4cccc(S(=O)(=O)[O-])c4F)c4ccc([nH]4)c(-c4cccc(S(=O)(=O)[O-])c4F)c4nc(c(-c5cccc(S(=O)(=O)[O-])c5F)c5ccc2[nH]5)C=C4)C=C3)cc1
REMARK SMILES IDX 3 1 2 2 1 3 21 4 22 5 83 6 23 7 82 8 24 9 25 10 26 11 76 12
REMARK SMILES IDX 27 13 81 14 75 15 77 16 28 17 80 18 74 19 73 20 29 22 61 23
REMARK SMILES IDX 41 24 60 25 42 26 45 27 59 28 78 29 43 30 44 31 58 33 79 34
REMARK SMILES IDX 46 35 30 36 31 37 39 38 32 39 34 40 40 41 33 42 35 43 36 44
REMARK SMILES IDX 37 45 38 46 62 47 63 48 71 49 64 50 66 51 72 52 65 53 67 54
REMARK SMILES IDX 68 55 69 56 70 57 47 58 48 59 56 60 49 61 51 62 57 63 50 64
REMARK SMILES IDX 52 65 53 66 54 67 55 68 4 69 5 70 6 71 7 72 8 73 9 74 10 75
REMARK SMILES IDX 20 76 11 77 14 78 19 79 12 80 13 81 15 82 18 83 16 85 17 86
REMARK H PARENT 77 21 45 32 13 84
REMARK Flexibility Score: inf
ROOT
ATOM      1  O   UNL A   1      40.584  19.599  25.710  1.00  0.00    -0.458 OA
ENDROOT
BRANCH   1   2
ATOM      2  C   UNL A   1      41.397  19.990  26.729  1.00  0.00     0.338 C 
ATOM      3  O   UNL A   1      41.680  19.213  27.633  1.00  0.00    -0.246 OA
BRANCH   2   4
ATOM      4  C   UNL A   1      41.660  21.443  26.903  1.00  0.00     0.060 A 
ATOM      5  C   UNL A   1      41.942  21.871  28.204  1.00  0.00     0.016 A 
ATOM      6  C   UNL A   1      41.658  22.384  25.870  1.00  0.00     0.016 A 
ATOM      7  C   UNL A   1      42.061  23.232  28.495  1.00  0.00     0.010 A 
ATOM      8  C   UNL A   1      41.796  23.747  26.153  1.00  0.00     0.010 A 
ATOM      9  C   UNL A   1      41.975  24.183  27.469  1.00  0.00    -0.014 A 
BRANCH   9  10
ATOM     10  C   UNL A   1      42.322  25.594  27.742  1.00  0.00     0.031 A 
ATOM     11  C   UNL A   1      41.326  26.596  28.245  1.00  0.00     0.074 A 
ATOM     12  C   UNL A   1      43.584  25.970  27.464  1.00  0.00     0.049 A 
ATOM     13  N   UNL A   1      41.544  27.819  28.654  1.00  0.00    -0.248 NA
ATOM     14  C   UNL A   1      39.917  26.186  28.309  1.00  0.00     0.031 C 
ATOM     15  C   UNL A   1      44.604  25.094  26.878  1.00  0.00     0.029 A 
ATOM     16  N   UNL A   1      44.213  27.176  27.598  1.00  0.00    -0.354 N 
ATOM     17  C   UNL A   1      40.315  28.303  29.083  1.00  0.00     0.074 A 
ATOM     18  C   UNL A   1      39.343  27.261  28.843  1.00  0.00     0.031 C 
ATOM     19  C   UNL A   1      45.725  25.799  26.684  1.00  0.00     0.029 A 
ATOM     20  C   UNL A   1      45.498  27.174  27.114  1.00  0.00     0.049 A 
ATOM     21  H   UNL A   1      43.788  27.967  28.000  1.00  0.00     0.167 HD
ATOM     22  C   UNL A   1      40.039  29.502  29.647  1.00  0.00     0.034 A 
ATOM     23  C   UNL A   1      46.395  28.170  27.009  1.00  0.00     0.034 A 
ATOM     24  C   UNL A   1      41.005  30.559  29.795  1.00  0.00     0.049 A 
ATOM     25  C   UNL A   1      46.043  29.519  27.548  1.00  0.00     0.074 A 
ATOM     26  C   UNL A   1      40.835  31.801  30.379  1.00  0.00     0.029 A 
ATOM     27  N   UNL A   1      42.302  30.516  29.309  1.00  0.00    -0.354 N 
ATOM     28  N   UNL A   1      44.935  29.895  28.139  1.00  0.00    -0.248 NA
ATOM     29  C   UNL A   1      47.060  30.572  27.442  1.00  0.00     0.031 C 
ATOM     30  C   UNL A   1      42.017  32.526  30.207  1.00  0.00     0.029 A 
ATOM     31  C   UNL A   1      42.931  31.726  29.540  1.00  0.00     0.049 A 
ATOM     32  H   UNL A   1      42.715  29.740  28.867  1.00  0.00     0.167 HD
ATOM     33  C   UNL A   1      45.126  31.222  28.495  1.00  0.00     0.074 A 
ATOM     34  C   UNL A   1      46.459  31.585  28.057  1.00  0.00     0.031 C 
ATOM     35  C   UNL A   1      44.268  32.060  29.123  1.00  0.00     0.034 A 
BRANCH  22  36
ATOM     36  C   UNL A   1      38.668  29.744  30.218  1.00  0.00     0.023 A 
ATOM     37  C   UNL A   1      38.385  29.241  31.503  1.00  0.00     0.012 A 
ATOM     38  C   UNL A   1      37.746  30.604  29.591  1.00  0.00     0.148 A 
ATOM     39  C   UNL A   1      37.214  29.605  32.167  1.00  0.00     0.002 A 
ATOM     40  C   UNL A   1      36.584  30.971  30.264  1.00  0.00     0.091 A 
ATOM     41  F   UNL A   1      38.038  31.069  28.369  1.00  0.00    -0.205 F 
ATOM     42  C   UNL A   1      36.320  30.478  31.553  1.00  0.00     0.022 A 
BRANCH  40  43
ATOM     43  S   UNL A   1      35.374  32.111  29.579  1.00  0.00     0.127 S 
ATOM     44  O   UNL A   1      34.780  31.307  28.511  1.00  0.00    -0.237 OA
ATOM     45  O   UNL A   1      34.495  32.351  30.723  1.00  0.00    -0.237 OA
ATOM     46  O   UNL A   1      36.125  33.272  29.122  1.00  0.00    -0.744 OA
ENDBRANCH  40  43
ENDBRANCH  22  36
BRANCH  23  47
ATOM     47  C   UNL A   1      47.714  27.863  26.401  1.00  0.00     0.023 A 
ATOM     48  C   UNL A   1      48.758  27.391  27.217  1.00  0.00     0.012 A 
ATOM     49  C   UNL A   1      47.876  27.878  25.001  1.00  0.00     0.148 A 
ATOM     50  C   UNL A   1      49.943  26.930  26.644  1.00  0.00     0.002 A 
ATOM     51  C   UNL A   1      49.039  27.374  24.437  1.00  0.00     0.091 A 
ATOM     52  F   UNL A   1      46.860  28.331  24.251  1.00  0.00    -0.205 F 
ATOM     53  C   UNL A   1      50.078  26.907  25.257  1.00  0.00     0.022 A 
BRANCH  51  54
ATOM     54  S   UNL A   1      49.238  27.174  22.663  1.00  0.00     0.127 S 
ATOM     55  O   UNL A   1      48.357  26.040  22.390  1.00  0.00    -0.237 OA
ATOM     56  O   UNL A   1      48.760  28.461  22.158  1.00  0.00    -0.237 OA
ATOM     57  O   UNL A   1      50.659  26.935  22.448  1.00  0.00    -0.744 OA
ENDBRANCH  51  54
ENDBRANCH  23  47
BRANCH  35  58
ATOM     58  C   UNL A   1      44.719  33.468  29.382  1.00  0.00     0.023 A 
ATOM     59  C   UNL A   1      45.410  33.757  30.572  1.00  0.00     0.012 A 
ATOM     60  C   UNL A   1      44.604  34.449  28.379  1.00  0.00     0.148 A 
ATOM     61  C   UNL A   1      45.991  35.010  30.762  1.00  0.00     0.002 A 
ATOM     62  C   UNL A   1      45.214  35.683  28.560  1.00  0.00     0.091 A 
ATOM     63  F   UNL A   1      43.937  34.140  27.258  1.00  0.00    -0.205 F 
ATOM     64  C   UNL A   1      45.904  35.967  29.751  1.00  0.00     0.022 A 
BRANCH  62  65
ATOM     65  S   UNL A   1      45.229  36.951  27.289  1.00  0.00     0.127 S 
ATOM     66  O   UNL A   1      45.895  38.057  27.978  1.00  0.00    -0.237 OA
ATOM     67  O   UNL A   1      46.024  36.320  26.237  1.00  0.00    -0.237 OA
ATOM     68  O   UNL A   1      43.836  37.197  26.943  1.00  0.00    -0.744 OA
ENDBRANCH  62  65
ENDBRANCH  35  58
ENDBRANCH   9  10
ENDBRANCH   2   4
ENDBRANCH   1   2
BRANCH   1  69
ATOM     69  C   UNL A   1      39.148  19.602  25.762  1.00  0.00     0.275 C 
BRANCH  69  70
ATOM     70  C   UNL A   1      38.491  20.855  25.173  1.00  0.00     0.275 C 
BRANCH  70  71
ATOM     71  O   UNL A   1      37.149  21.083  25.622  1.00  0.00    -0.458 OA
BRANCH  71  72
ATOM     72  C   UNL A   1      36.305  21.605  24.687  1.00  0.00     0.339 C 
ATOM     73  O   UNL A   1      36.630  22.086  23.619  1.00  0.00    -0.246 OA
BRANCH  72  74
ATOM     74  C   UNL A   1      34.896  21.457  25.131  1.00  0.00     0.074 A 
ATOM     75  C   UNL A   1      34.371  20.224  25.068  1.00  0.00     0.088 A 
ATOM     76  C   UNL A   1      34.084  22.582  25.635  1.00  0.00     0.014 A 
ATOM     77  C   UNL A   1      32.978  19.963  25.480  1.00  0.00     0.249 A 
ATOM     78  C   UNL A   1      32.724  22.354  25.916  1.00  0.00     0.063 A 
ATOM     79  C   UNL A   1      34.586  23.887  25.758  1.00  0.00     0.011 A 
ATOM     80  O   UNL A   1      32.544  18.819  25.507  1.00  0.00    -0.270 OA
ATOM     81  N   UNL A   1      32.223  21.045  25.818  1.00  0.00    -0.321 N 
ATOM     82  C   UNL A   1      31.885  23.415  26.280  1.00  0.00     0.042 A 
ATOM     83  C   UNL A   1      33.744  24.944  26.115  1.00  0.00     0.002 A 
ATOM     84  H   UNL A   1      31.268  20.903  26.005  1.00  0.00     0.170 HD
ATOM     85  Br  UNL A   1      30.042  23.148  26.640  1.00  0.00    -0.049 Br
ATOM     86  C   UNL A   1      32.394  24.711  26.369  1.00  0.00     0.018 A 
ENDBRANCH  72  74
ENDBRANCH  71  72
ENDBRANCH  70  71
ENDBRANCH  69  70
ENDBRANCH   1  69
TORSDOF 14
ENDMDL
MODEL 3
REMARK VINA RESULT:     -11.0      4.654     11.500
REMARK SMILES O=C(OCCOC(=O)c1cc(=O)[nH]c2c(Br)cccc12)c1ccc(-c2c3nc(c(-c4cccc(S(=O)(=O)[O-])c4F)c4ccc([nH]4)c(-c4cccc(S(=O)(=O)[O-])c4F)c4nc(c(-c5cccc(S(=O)(=O)[O-])c5F)c5ccc2[nH]5)C=C4)C=C3)cc1
REMARK SMILES IDX 3 1 2 2 1 3 21 4 22 5 83 6 23 7 82 8 24 9 25 10 26 11 76 12
REMARK SMILES IDX 27 13 81 14 75 15 77 16 28 17 80 18 74 19 73 20 29 22 61 23
REMARK SMILES IDX 41 24 60 25 42 26 45 27 59 28 78 29 43 30 44 31 58 33 79 34
REMARK SMILES IDX 46 35 30 36 31 37 39 38 32 39 34 40 40 41 33 42 35 43 36 44
REMARK SMILES IDX 37 45 38 46 62 47 63 48 71 49 64 50 66 51 72 52 65 53 67 54
REMARK SMILES IDX 68 55 69 56 70 57 47 58 48 59 56 60 49 61 51 62 57 63 50 64
REMARK SMILES IDX 52 65 53 66 54 67 55 68 4 69 5 70 6 71 7 72 8 73 9 74 10 75
REMARK SMILES IDX 20 76 11 77 14 78 19 79 12 80 13 81 15 82 18 83 16 85 17 86
REMARK H PARENT 77 21 45 32 13 84
REMARK Flexibility Score: inf
ROOT
ATOM      1  O   UNL A   1      39.930  21.610  26.505  1.00  0.00    -0.458 OA
ENDROOT
BRANCH   1   2
ATOM      2  C   UNL A   1      38.990  22.594  26.496  1.00  0.00     0.338 C 
ATOM      3  O   UNL A   1      37.912  22.423  25.937  1.00  0.00    -0.246 OA
BRANCH   2   4
ATOM      4  C   UNL A   1      39.406  23.970  26.875  1.00  0.00     0.060 A 
ATOM      5  C   UNL A   1      39.211  24.332  28.212  1.00  0.00     0.016 A 
ATOM      6  C   UNL A   1      39.980  24.900  26.004  1.00  0.00     0.016 A 
ATOM      7  C   UNL A   1      39.435  25.643  28.635  1.00  0.00     0.010 A 
ATOM      8  C   UNL A   1      40.223  26.211  26.427  1.00  0.00     0.010 A 
ATOM      9  C   UNL A   1      39.932  26.599  27.737  1.00  0.00    -0.014 A 
BRANCH   9  10
ATOM     10  C   UNL A   1      40.376  27.918  28.237  1.00  0.00     0.031 A 
ATOM     11  C   UNL A   1      39.422  29.002  28.637  1.00  0.00     0.074 A 
ATOM     12  C   UNL A   1      41.704  28.134  28.268  1.00  0.00     0.049 A 
ATOM     13  N   UNL A   1      39.689  30.142  29.220  1.00  0.00    -0.248 NA
ATOM     14  C   UNL A   1      37.994  28.791  28.362  1.00  0.00     0.031 C 
ATOM     15  C   UNL A   1      42.715  27.178  27.808  1.00  0.00     0.029 A 
ATOM     16  N   UNL A   1      42.428  29.224  28.667  1.00  0.00    -0.354 N 
ATOM     17  C   UNL A   1      38.462  30.755  29.441  1.00  0.00     0.074 A 
ATOM     18  C   UNL A   1      37.449  29.885  28.888  1.00  0.00     0.031 C 
ATOM     19  C   UNL A   1      43.928  27.732  27.931  1.00  0.00     0.029 A 
ATOM     20  C   UNL A   1      43.778  29.082  28.460  1.00  0.00     0.049 A 
ATOM     21  H   UNL A   1      42.022  30.029  29.062  1.00  0.00     0.167 HD
ATOM     22  C   UNL A   1      38.215  31.928  30.070  1.00  0.00     0.034 A 
ATOM     23  C   UNL A   1      44.788  29.948  28.657  1.00  0.00     0.034 A 
ATOM     24  C   UNL A   1      39.244  32.820  30.534  1.00  0.00     0.049 A 
ATOM     25  C   UNL A   1      44.490  31.280  29.265  1.00  0.00     0.074 A 
ATOM     26  C   UNL A   1      39.100  34.018  31.211  1.00  0.00     0.029 A 
ATOM     27  N   UNL A   1      40.601  32.637  30.323  1.00  0.00    -0.354 N 
ATOM     28  N   UNL A   1      43.333  31.755  29.656  1.00  0.00    -0.248 NA
ATOM     29  C   UNL A   1      45.624  32.184  29.492  1.00  0.00     0.031 C 
ATOM     30  C   UNL A   1      40.368  34.581  31.370  1.00  0.00     0.029 A 
ATOM     31  C   UNL A   1      41.304  33.722  30.816  1.00  0.00     0.049 A 
ATOM     32  H   UNL A   1      41.005  31.852  29.889  1.00  0.00     0.167 HD
ATOM     33  C   UNL A   1      43.598  33.006  30.194  1.00  0.00     0.074 A 
ATOM     34  C   UNL A   1      45.029  33.214  30.084  1.00  0.00     0.031 C 
ATOM     35  C   UNL A   1      42.730  33.899  30.724  1.00  0.00     0.034 A 
BRANCH  22  36
ATOM     36  C   UNL A   1      36.791  32.310  30.372  1.00  0.00     0.023 A 
ATOM     37  C   UNL A   1      36.305  32.088  31.676  1.00  0.00     0.012 A 
ATOM     38  C   UNL A   1      36.010  33.040  29.456  1.00  0.00     0.148 A 
ATOM     39  C   UNL A   1      35.071  32.604  32.072  1.00  0.00     0.002 A 
ATOM     40  C   UNL A   1      34.785  33.562  29.862  1.00  0.00     0.091 A 
ATOM     41  F   UNL A   1      36.494  33.237  28.222  1.00  0.00    -0.205 F 
ATOM     42  C   UNL A   1      34.318  33.350  31.170  1.00  0.00     0.022 A 
BRANCH  40  43
ATOM     43  S   UNL A   1      33.743  34.560  28.790  1.00  0.00     0.127 S 
ATOM     44  O   UNL A   1      33.339  33.585  27.777  1.00  0.00    -0.237 OA
ATOM     45  O   UNL A   1      32.673  34.973  29.699  1.00  0.00    -0.237 OA
ATOM     46  O   UNL A   1      34.585  35.640  28.296  1.00  0.00    -0.744 OA
ENDBRANCH  40  43
ENDBRANCH  22  36
BRANCH  23  47
ATOM     47  C   UNL A   1      46.162  29.511  28.302  1.00  0.00     0.023 A 
ATOM     48  C   UNL A   1      46.692  29.850  27.045  1.00  0.00     0.012 A 
ATOM     49  C   UNL A   1      46.993  28.913  29.271  1.00  0.00     0.148 A 
ATOM     50  C   UNL A   1      48.035  29.606  26.760  1.00  0.00     0.002 A 
ATOM     51  C   UNL A   1      48.340  28.717  28.996  1.00  0.00     0.091 A 
ATOM     52  F   UNL A   1      46.458  28.605  30.461  1.00  0.00    -0.205 F 
ATOM     53  C   UNL A   1      48.861  29.055  27.738  1.00  0.00     0.022 A 
BRANCH  51  54
ATOM     54  S   UNL A   1      49.501  28.148  30.243  1.00  0.00     0.127 S 
ATOM     55  O   UNL A   1      49.001  26.804  30.525  1.00  0.00    -0.237 OA
ATOM     56  O   UNL A   1      50.771  28.193  29.516  1.00  0.00    -0.237 OA
ATOM     57  O   UNL A   1      49.403  29.101  31.340  1.00  0.00    -0.744 OA
ENDBRANCH  51  54
ENDBRANCH  23  47
BRANCH  35  58
ATOM     58  C   UNL A   1      43.277  35.201  31.232  1.00  0.00     0.023 A 
ATOM     59  C   UNL A   1      43.836  35.253  32.521  1.00  0.00     0.012 A 
ATOM     60  C   UNL A   1      43.386  36.311  30.373  1.00  0.00     0.148 A 
ATOM     61  C   UNL A   1      44.506  36.396  32.952  1.00  0.00     0.002 A 
ATOM     62  C   UNL A   1      44.085  37.434  30.795  1.00  0.00     0.091 A 
ATOM     63  F   UNL A   1      42.841  36.228  29.151  1.00  0.00    -0.205 F 
ATOM     64  C   UNL A   1      44.641  37.480  32.085  1.00  0.00     0.022 A 
BRANCH  62  65
ATOM     65  S   UNL A   1      44.383  38.847  29.729  1.00  0.00     0.127 S 
ATOM     66  O   UNL A   1      45.114  39.746  30.622  1.00  0.00    -0.237 OA
ATOM     67  O   UNL A   1      45.190  38.259  28.661  1.00  0.00    -0.237 OA
ATOM     68  O   UNL A   1      43.073  39.328  29.315  1.00  0.00    -0.744 OA
ENDBRANCH  62  65
ENDBRANCH  35  58
ENDBRANCH   9  10
ENDBRANCH   2   4
ENDBRANCH   1   2
BRANCH   1  69
ATOM     69  C   UNL A   1      40.774  21.297  27.624  1.00  0.00     0.275 C 
BRANCH  69  70
ATOM     70  C   UNL A   1      41.344  19.875  27.615  1.00  0.00     0.275 C 
BRANCH  70  71
ATOM     71  O   UNL A   1      42.689  19.783  27.125  1.00  0.00    -0.458 OA
BRANCH  71  72
ATOM     72  C   UNL A   1      42.810  19.734  25.768  1.00  0.00     0.339 C 
ATOM     73  O   UNL A   1      42.024  19.217  24.998  1.00  0.00    -0.246 OA
BRANCH  72  74
ATOM     74  C   UNL A   1      44.032  20.459  25.338  1.00  0.00     0.074 A 
ATOM     75  C   UNL A   1      45.115  19.712  25.077  1.00  0.00     0.088 A 
ATOM     76  C   UNL A   1      44.089  21.926  25.180  1.00  0.00     0.014 A 
ATOM     77  C   UNL A   1      46.386  20.329  24.648  1.00  0.00     0.249 A 
ATOM     78  C   UNL A   1      45.330  22.520  24.884  1.00  0.00     0.063 A 
ATOM     79  C   UNL A   1      42.982  22.758  25.403  1.00  0.00     0.011 A 
ATOM     80  O   UNL A   1      47.336  19.629  24.323  1.00  0.00    -0.270 OA
ATOM     81  N   UNL A   1      46.436  21.690  24.637  1.00  0.00    -0.321 N 
ATOM     82  C   UNL A   1      45.459  23.915  24.845  1.00  0.00     0.042 A 
ATOM     83  C   UNL A   1      43.116  24.149  25.369  1.00  0.00     0.002 A 
ATOM     84  H   UNL A   1      47.299  22.120  24.444  1.00  0.00     0.170 HD
ATOM     85  Br  UNL A   1      47.122  24.750  24.476  1.00  0.00    -0.049 Br
ATOM     86  C   UNL A   1      44.355  24.728  25.097  1.00  0.00     0.018 A 
ENDBRANCH  72  74
ENDBRANCH  71  72
ENDBRANCH  70  71
ENDBRANCH  69  70
ENDBRANCH   1  69
TORSDOF 14
ENDMDL
