MODEL 1
REMARK VINA RESULT:     -12.2      0.000      0.000
REMARK SMILES COc1cccc([C@H](CC(=O)OCCOC(=O)c2ccc(-c3c4nc(c(-c5cccc(S(=O)(=O)[O-])c5F)c5ccc([nH]5)c(-c5cccc(S(=O)(=O)[O-])c5F)c5nc(c(-c6cccc(S(=O)(=O)[O-])c6F)c6ccc3[nH]6)C=C5)C=C4)cc2)NS(=O)(=O)c2ccc3c(c2)C[C@@H](C)N3C(C)=O)c1
REMARK SMILES IDX 13 1 12 2 10 3 11 4 9 5 8 6 7 7 3 8 4 9 98 10 5 11 6 12 2 13
REMARK SMILES IDX 1 14 81 15 82 17 83 18 84 19 85 20 86 21 90 22 87 23 89 24
REMARK SMILES IDX 88 25 91 26 94 27 92 28 93 29 95 30 96 31 97 32 14 33 15 34
REMARK SMILES IDX 16 35 17 36 18 37 19 38 80 39 20 40 79 41 21 42 22 43 23 44
REMARK SMILES IDX 73 45 24 46 78 47 72 48 74 49 25 50 77 51 71 52 70 53 26 55
REMARK SMILES IDX 58 56 38 57 57 58 39 59 42 60 56 61 75 62 40 63 41 64 55 66
REMARK SMILES IDX 76 67 43 68 27 69 28 70 36 71 29 72 31 73 37 74 30 75 32 76
REMARK SMILES IDX 33 77 34 78 35 79 59 80 60 81 68 82 61 83 63 84 69 85 62 86
REMARK SMILES IDX 64 87 65 88 66 89 67 90 44 91 45 92 53 93 46 94 48 95 54 96
REMARK SMILES IDX 47 97 49 98 50 99 51 100 52 101
REMARK H PARENT 81 16 74 54 42 65
REMARK Flexibility Score: inf
ROOT
ATOM      1  C   UNL A   1      36.586  22.113  23.580  1.00  0.00     0.274 C 
ENDROOT
BRANCH   1   2
ATOM      2  O   UNL A   1      36.334  23.419  24.163  1.00  0.00    -0.462 OA
BRANCH   2   3
ATOM      3  C   UNL A   1      35.023  23.751  24.204  1.00  0.00     0.307 C 
ATOM      4  O   UNL A   1      34.591  24.710  24.840  1.00  0.00    -0.252 OA
BRANCH   3   5
ATOM      5  C   UNL A   1      34.059  22.835  23.499  1.00  0.00     0.147 C 
BRANCH   5   6
ATOM      6  C   UNL A   1      32.757  22.279  24.115  1.00  0.00     0.111 C 
BRANCH   6   7
ATOM      7  C   UNL A   1      32.727  20.787  23.754  1.00  0.00    -0.026 A 
ATOM      8  C   UNL A   1      33.318  18.468  24.282  1.00  0.00     0.119 A 
ATOM      9  C   UNL A   1      32.755  18.064  23.074  1.00  0.00     0.046 A 
ATOM     10  C   UNL A   1      33.272  19.817  24.630  1.00  0.00     0.051 A 
ATOM     11  C   UNL A   1      32.155  18.995  22.224  1.00  0.00     0.004 A 
ATOM     12  C   UNL A   1      32.153  20.352  22.553  1.00  0.00     0.005 A 
BRANCH   8  13
ATOM     13  O   UNL A   1      33.897  17.468  25.016  1.00  0.00    -0.497 OA
ATOM     14  C   UNL A   1      33.026  16.614  25.750  1.00  0.00     0.278 C 
ENDBRANCH   8  13
ENDBRANCH   6   7
BRANCH   6  15
ATOM     15  N   UNL A   1      32.686  22.458  25.587  1.00  0.00    -0.203 NA
ATOM     16  H   UNL A   1      33.407  23.133  25.838  1.00  0.00     0.142 HD
BRANCH  15  17
ATOM     17  S   UNL A   1      31.224  22.997  26.305  1.00  0.00     0.241 S 
ATOM     18  O   UNL A   1      30.149  22.081  25.976  1.00  0.00    -0.207 OA
ATOM     19  O   UNL A   1      31.521  23.359  27.666  1.00  0.00    -0.207 OA
BRANCH  17  20
ATOM     20  C   UNL A   1      30.912  24.514  25.424  1.00  0.00     0.082 A 
ATOM     21  C   UNL A   1      30.764  24.550  24.022  1.00  0.00     0.024 A 
ATOM     22  C   UNL A   1      31.009  25.682  26.173  1.00  0.00     0.027 A 
ATOM     23  C   UNL A   1      30.795  25.780  23.345  1.00  0.00     0.028 A 
ATOM     24  C   UNL A   1      31.201  26.851  25.487  1.00  0.00    -0.021 A 
ATOM     25  C   UNL A   1      31.090  26.902  24.094  1.00  0.00     0.047 A 
ATOM     26  C   UNL A   1      31.597  28.182  26.041  1.00  0.00     0.063 C 
ATOM     27  N   UNL A   1      31.391  28.218  23.680  1.00  0.00    -0.309 N 
ATOM     28  C   UNL A   1      32.211  28.794  24.775  1.00  0.00     0.092 C 
ATOM     29  C   UNL A   1      33.685  28.365  24.593  1.00  0.00     0.032 C 
BRANCH  27  30
ATOM     30  C   UNL A   1      30.460  28.903  22.918  1.00  0.00     0.224 C 
ATOM     31  C   UNL A   1      29.705  29.981  23.672  1.00  0.00     0.115 C 
ATOM     32  O   UNL A   1      30.140  28.585  21.774  1.00  0.00    -0.275 OA
ENDBRANCH  27  30
ENDBRANCH  17  20
ENDBRANCH  15  17
ENDBRANCH   6  15
ENDBRANCH   5   6
ENDBRANCH   3   5
ENDBRANCH   2   3
ENDBRANCH   1   2
BRANCH   1  33
ATOM     33  C   UNL A   1      37.079  21.057  24.585  1.00  0.00     0.275 C 
BRANCH  33  34
ATOM     34  O   UNL A   1      37.490  21.605  25.843  1.00  0.00    -0.458 OA
BRANCH  34  35
ATOM     35  C   UNL A   1      38.778  21.357  26.155  1.00  0.00     0.338 C 
ATOM     36  O   UNL A   1      39.414  20.339  25.942  1.00  0.00    -0.246 OA
BRANCH  35  37
ATOM     37  C   UNL A   1      39.435  22.547  26.663  1.00  0.00     0.060 A 
ATOM     38  C   UNL A   1      39.028  23.772  26.134  1.00  0.00     0.016 A 
ATOM     39  C   UNL A   1      40.530  22.439  27.515  1.00  0.00     0.016 A 
ATOM     40  C   UNL A   1      39.728  24.918  26.452  1.00  0.00     0.010 A 
ATOM     41  C   UNL A   1      41.208  23.599  27.867  1.00  0.00     0.010 A 
ATOM     42  C   UNL A   1      40.811  24.838  27.335  1.00  0.00    -0.014 A 
BRANCH  42  43
ATOM     43  C   UNL A   1      41.507  26.073  27.732  1.00  0.00     0.031 A 
ATOM     44  C   UNL A   1      40.789  27.107  28.539  1.00  0.00     0.074 A 
ATOM     45  C   UNL A   1      42.772  26.251  27.312  1.00  0.00     0.049 A 
ATOM     46  N   UNL A   1      41.183  28.307  28.864  1.00  0.00    -0.248 NA
ATOM     47  C   UNL A   1      39.448  26.754  29.031  1.00  0.00     0.031 C 
ATOM     48  C   UNL A   1      43.539  25.289  26.514  1.00  0.00     0.029 A 
ATOM     49  N   UNL A   1      43.624  27.309  27.469  1.00  0.00    -0.354 N 
ATOM     50  C   UNL A   1      40.125  28.874  29.560  1.00  0.00     0.074 A 
ATOM     51  C   UNL A   1      39.068  27.887  29.608  1.00  0.00     0.031 C 
ATOM     52  C   UNL A   1      44.740  25.813  26.232  1.00  0.00     0.029 A 
ATOM     53  C   UNL A   1      44.805  27.161  26.783  1.00  0.00     0.049 A 
ATOM     54  H   UNL A   1      43.412  28.099  28.019  1.00  0.00     0.167 HD
ATOM     55  C   UNL A   1      40.055  30.106  30.117  1.00  0.00     0.034 A 
ATOM     56  C   UNL A   1      45.808  28.033  26.585  1.00  0.00     0.034 A 
ATOM     57  C   UNL A   1      41.135  31.056  30.079  1.00  0.00     0.049 A 
ATOM     58  C   UNL A   1      45.704  29.391  27.220  1.00  0.00     0.074 A 
ATOM     59  C   UNL A   1      41.191  32.319  30.641  1.00  0.00     0.029 A 
ATOM     60  N   UNL A   1      42.350  30.845  29.442  1.00  0.00    -0.354 N 
ATOM     61  N   UNL A   1      44.734  29.884  27.951  1.00  0.00    -0.248 NA
ATOM     62  C   UNL A   1      46.841  30.299  27.030  1.00  0.00     0.031 C 
ATOM     63  C   UNL A   1      42.436  32.877  30.329  1.00  0.00     0.029 A 
ATOM     64  C   UNL A   1      43.164  31.954  29.594  1.00  0.00     0.049 A 
ATOM     65  H   UNL A   1      42.596  30.026  28.954  1.00  0.00     0.167 HD
ATOM     66  C   UNL A   1      45.152  31.152  28.332  1.00  0.00     0.074 A 
ATOM     67  C   UNL A   1      46.476  31.336  27.771  1.00  0.00     0.031 C 
ATOM     68  C   UNL A   1      44.497  32.087  29.064  1.00  0.00     0.034 A 
BRANCH  55  69
ATOM     69  C   UNL A   1      38.785  30.480  30.832  1.00  0.00     0.023 A 
ATOM     70  C   UNL A   1      38.637  30.174  32.199  1.00  0.00     0.012 A 
ATOM     71  C   UNL A   1      37.757  31.176  30.165  1.00  0.00     0.148 A 
ATOM     72  C   UNL A   1      37.475  30.527  32.885  1.00  0.00     0.002 A 
ATOM     73  C   UNL A   1      36.620  31.562  30.865  1.00  0.00     0.091 A 
ATOM     74  F   UNL A   1      37.904  31.437  28.858  1.00  0.00    -0.205 F 
ATOM     75  C   UNL A   1      36.473  31.230  32.223  1.00  0.00     0.022 A 
BRANCH  73  76
ATOM     76  S   UNL A   1      35.305  32.533  30.120  1.00  0.00     0.127 S 
ATOM     77  O   UNL A   1      36.026  33.733  29.697  1.00  0.00    -0.237 OA
ATOM     78  O   UNL A   1      34.866  31.668  29.025  1.00  0.00    -0.237 OA
ATOM     79  O   UNL A   1      34.313  32.737  31.166  1.00  0.00    -0.744 OA
ENDBRANCH  73  76
ENDBRANCH  55  69
BRANCH  56  80
ATOM     80  C   UNL A   1      46.988  27.633  25.774  1.00  0.00     0.023 A 
ATOM     81  C   UNL A   1      47.006  27.906  24.394  1.00  0.00     0.012 A 
ATOM     82  C   UNL A   1      48.116  27.033  26.370  1.00  0.00     0.148 A 
ATOM     83  C   UNL A   1      48.113  27.563  23.616  1.00  0.00     0.002 A 
ATOM     84  C   UNL A   1      49.237  26.747  25.602  1.00  0.00     0.091 A 
ATOM     85  F   UNL A   1      48.076  26.771  27.685  1.00  0.00    -0.205 F 
ATOM     86  C   UNL A   1      49.232  26.994  24.221  1.00  0.00     0.022 A 
BRANCH  84  87
ATOM     87  S   UNL A   1      50.768  26.150  26.327  1.00  0.00     0.127 S 
ATOM     88  O   UNL A   1      51.638  26.057  25.157  1.00  0.00    -0.237 OA
ATOM     89  O   UNL A   1      51.104  27.224  27.261  1.00  0.00    -0.237 OA
ATOM     90  O   UNL A   1      50.429  24.886  26.970  1.00  0.00    -0.744 OA
ENDBRANCH  84  87
ENDBRANCH  56  80
BRANCH  68  91
ATOM     91  C   UNL A   1      45.218  33.381  29.324  1.00  0.00     0.023 A 
ATOM     92  C   UNL A   1      46.028  33.513  30.469  1.00  0.00     0.012 A 
ATOM     93  C   UNL A   1      45.144  34.440  28.398  1.00  0.00     0.148 A 
ATOM     94  C   UNL A   1      46.731  34.693  30.704  1.00  0.00     0.002 A 
ATOM     95  C   UNL A   1      45.886  35.594  28.615  1.00  0.00     0.091 A 
ATOM     96  F   UNL A   1      44.350  34.300  27.327  1.00  0.00    -0.205 F 
ATOM     97  C   UNL A   1      46.669  35.727  29.773  1.00  0.00     0.022 A 
BRANCH  95  98
ATOM     98  S   UNL A   1      45.943  36.936  27.423  1.00  0.00     0.127 S 
ATOM     99  O   UNL A   1      44.528  37.280  27.295  1.00  0.00    -0.237 OA
ATOM    100  O   UNL A   1      46.753  37.935  28.120  1.00  0.00    -0.237 OA
ATOM    101  O   UNL A   1      46.563  36.383  26.226  1.00  0.00    -0.744 OA
ENDBRANCH  95  98
ENDBRANCH  68  91
ENDBRANCH  42  43
ENDBRANCH  35  37
ENDBRANCH  34  35
ENDBRANCH  33  34
ENDBRANCH   1  33
TORSDOF 21
ENDMDL
MODEL 2
REMARK VINA RESULT:     -12.1      4.745     10.062
REMARK SMILES COc1cccc([C@H](CC(=O)OCCOC(=O)c2ccc(-c3c4nc(c(-c5cccc(S(=O)(=O)[O-])c5F)c5ccc([nH]5)c(-c5cccc(S(=O)(=O)[O-])c5F)c5nc(c(-c6cccc(S(=O)(=O)[O-])c6F)c6ccc3[nH]6)C=C5)C=C4)cc2)NS(=O)(=O)c2ccc3c(c2)C[C@@H](C)N3C(C)=O)c1
REMARK SMILES IDX 13 1 12 2 10 3 11 4 9 5 8 6 7 7 3 8 4 9 98 10 5 11 6 12 2 13
REMARK SMILES IDX 1 14 81 15 82 17 83 18 84 19 85 20 86 21 90 22 87 23 89 24
REMARK SMILES IDX 88 25 91 26 94 27 92 28 93 29 95 30 96 31 97 32 14 33 15 34
REMARK SMILES IDX 16 35 17 36 18 37 19 38 80 39 20 40 79 41 21 42 22 43 23 44
REMARK SMILES IDX 73 45 24 46 78 47 72 48 74 49 25 50 77 51 71 52 70 53 26 55
REMARK SMILES IDX 58 56 38 57 57 58 39 59 42 60 56 61 75 62 40 63 41 64 55 66
REMARK SMILES IDX 76 67 43 68 27 69 28 70 36 71 29 72 31 73 37 74 30 75 32 76
REMARK SMILES IDX 33 77 34 78 35 79 59 80 60 81 68 82 61 83 63 84 69 85 62 86
REMARK SMILES IDX 64 87 65 88 66 89 67 90 44 91 45 92 53 93 46 94 48 95 54 96
REMARK SMILES IDX 47 97 49 98 50 99 51 100 52 101
REMARK H PARENT 81 16 74 54 42 65
REMARK Flexibility Score: inf
ROOT
ATOM      1  C   UNL A   1      33.285  28.937  24.528  1.00  0.00     0.274 C 
ENDROOT
BRANCH   1   2
ATOM      2  O   UNL A   1      33.250  29.056  23.081  1.00  0.00    -0.462 OA
BRANCH   2   3
ATOM      3  C   UNL A   1      33.126  27.870  22.442  1.00  0.00     0.307 C 
ATOM      4  O   UNL A   1      34.011  27.391  21.735  1.00  0.00    -0.252 OA
BRANCH   3   5
ATOM      5  C   UNL A   1      31.800  27.166  22.548  1.00  0.00     0.147 C 
BRANCH   5   6
ATOM      6  C   UNL A   1      31.005  26.974  23.858  1.00  0.00     0.111 C 
BRANCH   6   7
ATOM      7  C   UNL A   1      29.598  27.520  23.576  1.00  0.00    -0.026 A 
ATOM      8  C   UNL A   1      28.150  29.309  22.733  1.00  0.00     0.119 A 
ATOM      9  C   UNL A   1      27.035  28.573  23.127  1.00  0.00     0.046 A 
ATOM     10  C   UNL A   1      29.419  28.766  22.929  1.00  0.00     0.051 A 
ATOM     11  C   UNL A   1      27.186  27.312  23.709  1.00  0.00     0.004 A 
ATOM     12  C   UNL A   1      28.460  26.793  23.948  1.00  0.00     0.005 A 
BRANCH   8  13
ATOM     13  O   UNL A   1      27.875  30.538  22.199  1.00  0.00    -0.497 OA
ATOM     14  C   UNL A   1      28.980  31.406  21.967  1.00  0.00     0.278 C 
ENDBRANCH   8  13
ENDBRANCH   6   7
BRANCH   6  15
ATOM     15  N   UNL A   1      30.934  25.558  24.294  1.00  0.00    -0.203 NA
ATOM     16  H   UNL A   1      31.531  25.023  23.664  1.00  0.00     0.142 HD
BRANCH  15  17
ATOM     17  S   UNL A   1      31.397  25.140  25.893  1.00  0.00     0.241 S 
ATOM     18  O   UNL A   1      32.135  26.235  26.492  1.00  0.00    -0.207 OA
ATOM     19  O   UNL A   1      30.248  24.560  26.537  1.00  0.00    -0.207 OA
BRANCH  17  20
ATOM     20  C   UNL A   1      32.555  23.815  25.613  1.00  0.00     0.082 A 
ATOM     21  C   UNL A   1      32.698  22.741  26.515  1.00  0.00     0.024 A 
ATOM     22  C   UNL A   1      33.440  23.996  24.555  1.00  0.00     0.027 A 
ATOM     23  C   UNL A   1      33.798  21.874  26.406  1.00  0.00     0.028 A 
ATOM     24  C   UNL A   1      34.586  23.247  24.563  1.00  0.00    -0.021 A 
ATOM     25  C   UNL A   1      34.760  22.197  25.469  1.00  0.00     0.047 A 
ATOM     26  C   UNL A   1      35.802  23.428  23.713  1.00  0.00     0.063 C 
ATOM     27  N   UNL A   1      36.049  21.654  25.266  1.00  0.00    -0.309 N 
ATOM     28  C   UNL A   1      36.830  22.737  24.618  1.00  0.00     0.092 C 
ATOM     29  C   UNL A   1      37.371  23.698  25.702  1.00  0.00     0.032 C 
BRANCH  27  30
ATOM     30  C   UNL A   1      36.164  20.301  25.000  1.00  0.00     0.224 C 
ATOM     31  C   UNL A   1      37.589  19.782  25.001  1.00  0.00     0.115 C 
ATOM     32  O   UNL A   1      35.229  19.589  24.638  1.00  0.00    -0.275 OA
ENDBRANCH  27  30
ENDBRANCH  17  20
ENDBRANCH  15  17
ENDBRANCH   6  15
ENDBRANCH   5   6
ENDBRANCH   3   5
ENDBRANCH   2   3
ENDBRANCH   1   2
BRANCH   1  33
ATOM     33  C   UNL A   1      32.337  29.899  25.266  1.00  0.00     0.275 C 
BRANCH  33  34
ATOM     34  O   UNL A   1      32.590  29.992  26.672  1.00  0.00    -0.458 OA
BRANCH  34  35
ATOM     35  C   UNL A   1      33.183  31.143  27.048  1.00  0.00     0.338 C 
ATOM     36  O   UNL A   1      32.702  32.263  27.051  1.00  0.00    -0.246 OA
BRANCH  35  37
ATOM     37  C   UNL A   1      34.487  30.896  27.637  1.00  0.00     0.060 A 
ATOM     38  C   UNL A   1      34.744  29.602  28.090  1.00  0.00     0.016 A 
ATOM     39  C   UNL A   1      35.363  31.951  27.879  1.00  0.00     0.016 A 
ATOM     40  C   UNL A   1      35.895  29.348  28.808  1.00  0.00     0.010 A 
ATOM     41  C   UNL A   1      36.541  31.684  28.565  1.00  0.00     0.010 A 
ATOM     42  C   UNL A   1      36.807  30.385  29.032  1.00  0.00    -0.014 A 
BRANCH  42  43
ATOM     43  C   UNL A   1      38.069  30.093  29.731  1.00  0.00     0.031 A 
ATOM     44  C   UNL A   1      39.058  29.151  29.123  1.00  0.00     0.074 A 
ATOM     45  C   UNL A   1      38.275  30.660  30.933  1.00  0.00     0.049 A 
ATOM     46  N   UNL A   1      40.151  28.665  29.643  1.00  0.00    -0.248 NA
ATOM     47  C   UNL A   1      38.774  28.679  27.757  1.00  0.00     0.031 C 
ATOM     48  C   UNL A   1      37.353  31.586  31.597  1.00  0.00     0.029 A 
ATOM     49  N   UNL A   1      39.305  30.520  31.822  1.00  0.00    -0.354 N 
ATOM     50  C   UNL A   1      40.666  27.796  28.693  1.00  0.00     0.074 A 
ATOM     51  C   UNL A   1      39.763  27.815  27.562  1.00  0.00     0.031 C 
ATOM     52  C   UNL A   1      37.849  31.912  32.800  1.00  0.00     0.029 A 
ATOM     53  C   UNL A   1      39.091  31.179  33.007  1.00  0.00     0.049 A 
ATOM     54  H   UNL A   1      40.118  29.997  31.631  1.00  0.00     0.167 HD
ATOM     55  C   UNL A   1      41.799  27.058  28.761  1.00  0.00     0.034 A 
ATOM     56  C   UNL A   1      39.798  31.158  34.151  1.00  0.00     0.034 A 
ATOM     57  C   UNL A   1      42.694  27.081  29.887  1.00  0.00     0.049 A 
ATOM     58  C   UNL A   1      41.054  30.335  34.194  1.00  0.00     0.074 A 
ATOM     59  C   UNL A   1      43.890  26.406  30.052  1.00  0.00     0.029 A 
ATOM     60  N   UNL A   1      42.489  27.822  31.043  1.00  0.00    -0.354 N 
ATOM     61  N   UNL A   1      41.577  29.584  33.256  1.00  0.00    -0.248 NA
ATOM     62  C   UNL A   1      41.831  30.379  35.438  1.00  0.00     0.031 C 
ATOM     63  C   UNL A   1      44.399  26.727  31.315  1.00  0.00     0.029 A 
ATOM     64  C   UNL A   1      43.534  27.620  31.928  1.00  0.00     0.049 A 
ATOM     65  H   UNL A   1      41.713  28.406  31.209  1.00  0.00     0.167 HD
ATOM     66  C   UNL A   1      42.760  29.084  33.784  1.00  0.00     0.074 A 
ATOM     67  C   UNL A   1      42.886  29.642  35.116  1.00  0.00     0.031 C 
ATOM     68  C   UNL A   1      43.653  28.230  33.228  1.00  0.00     0.034 A 
BRANCH  55  69
ATOM     69  C   UNL A   1      42.143  26.192  27.580  1.00  0.00     0.023 A 
ATOM     70  C   UNL A   1      42.830  26.747  26.483  1.00  0.00     0.012 A 
ATOM     71  C   UNL A   1      41.829  24.818  27.574  1.00  0.00     0.148 A 
ATOM     72  C   UNL A   1      43.174  25.959  25.385  1.00  0.00     0.002 A 
ATOM     73  C   UNL A   1      42.212  24.029  26.496  1.00  0.00     0.091 A 
ATOM     74  F   UNL A   1      41.153  24.312  28.616  1.00  0.00    -0.205 F 
ATOM     75  C   UNL A   1      42.875  24.599  25.396  1.00  0.00     0.022 A 
BRANCH  73  76
ATOM     76  S   UNL A   1      41.937  22.254  26.447  1.00  0.00     0.127 S 
ATOM     77  O   UNL A   1      40.480  22.183  26.349  1.00  0.00    -0.237 OA
ATOM     78  O   UNL A   1      42.650  21.865  25.230  1.00  0.00    -0.237 OA
ATOM     79  O   UNL A   1      42.507  21.725  27.678  1.00  0.00    -0.744 OA
ENDBRANCH  73  76
ENDBRANCH  55  69
BRANCH  56  80
ATOM     80  C   UNL A   1      39.340  31.957  35.319  1.00  0.00     0.023 A 
ATOM     81  C   UNL A   1      38.522  31.353  36.293  1.00  0.00     0.012 A 
ATOM     82  C   UNL A   1      39.753  33.292  35.501  1.00  0.00     0.148 A 
ATOM     83  C   UNL A   1      38.101  32.073  37.411  1.00  0.00     0.002 A 
ATOM     84  C   UNL A   1      39.378  33.985  36.644  1.00  0.00     0.091 A 
ATOM     85  F   UNL A   1      40.524  33.852  34.557  1.00  0.00    -0.205 F 
ATOM     86  C   UNL A   1      38.537  33.384  37.593  1.00  0.00     0.022 A 
BRANCH  84  87
ATOM     87  S   UNL A   1      40.013  35.622  37.024  1.00  0.00     0.127 S 
ATOM     88  O   UNL A   1      39.326  35.927  38.276  1.00  0.00    -0.237 OA
ATOM     89  O   UNL A   1      41.448  35.370  37.153  1.00  0.00    -0.237 OA
ATOM     90  O   UNL A   1      39.655  36.454  35.882  1.00  0.00    -0.744 OA
ENDBRANCH  84  87
ENDBRANCH  56  80
BRANCH  68  91
ATOM     91  C   UNL A   1      44.860  27.870  34.051  1.00  0.00     0.023 A 
ATOM     92  C   UNL A   1      46.028  28.654  33.959  1.00  0.00     0.012 A 
ATOM     93  C   UNL A   1      44.812  26.797  34.962  1.00  0.00     0.148 A 
ATOM     94  C   UNL A   1      47.141  28.356  34.742  1.00  0.00     0.002 A 
ATOM     95  C   UNL A   1      45.908  26.537  35.774  1.00  0.00     0.091 A 
ATOM     96  F   UNL A   1      43.698  26.053  35.016  1.00  0.00    -0.205 F 
ATOM     97  C   UNL A   1      47.077  27.306  35.656  1.00  0.00     0.022 A 
BRANCH  95  98
ATOM     98  S   UNL A   1      45.881  25.268  37.044  1.00  0.00     0.127 S 
ATOM     99  O   UNL A   1      47.211  25.409  37.634  1.00  0.00    -0.237 OA
ATOM    100  O   UNL A   1      44.784  25.713  37.903  1.00  0.00    -0.237 OA
ATOM    101  O   UNL A   1      45.634  24.012  36.350  1.00  0.00    -0.744 OA
ENDBRANCH  95  98
ENDBRANCH  68  91
ENDBRANCH  42  43
ENDBRANCH  35  37
ENDBRANCH  34  35
ENDBRANCH  33  34
ENDBRANCH   1  33
TORSDOF 21
ENDMDL
MODEL 3
REMARK VINA RESULT:     -11.9      4.286      9.786
REMARK SMILES COc1cccc([C@H](CC(=O)OCCOC(=O)c2ccc(-c3c4nc(c(-c5cccc(S(=O)(=O)[O-])c5F)c5ccc([nH]5)c(-c5cccc(S(=O)(=O)[O-])c5F)c5nc(c(-c6cccc(S(=O)(=O)[O-])c6F)c6ccc3[nH]6)C=C5)C=C4)cc2)NS(=O)(=O)c2ccc3c(c2)C[C@@H](C)N3C(C)=O)c1
REMARK SMILES IDX 13 1 12 2 10 3 11 4 9 5 8 6 7 7 3 8 4 9 98 10 5 11 6 12 2 13
REMARK SMILES IDX 1 14 81 15 82 17 83 18 84 19 85 20 86 21 90 22 87 23 89 24
REMARK SMILES IDX 88 25 91 26 94 27 92 28 93 29 95 30 96 31 97 32 14 33 15 34
REMARK SMILES IDX 16 35 17 36 18 37 19 38 80 39 20 40 79 41 21 42 22 43 23 44
REMARK SMILES IDX 73 45 24 46 78 47 72 48 74 49 25 50 77 51 71 52 70 53 26 55
REMARK SMILES IDX 58 56 38 57 57 58 39 59 42 60 56 61 75 62 40 63 41 64 55 66
REMARK SMILES IDX 76 67 43 68 27 69 28 70 36 71 29 72 31 73 37 74 30 75 32 76
REMARK SMILES IDX 33 77 34 78 35 79 59 80 60 81 68 82 61 83 63 84 69 85 62 86
REMARK SMILES IDX 64 87 65 88 66 89 67 90 44 91 45 92 53 93 46 94 48 95 54 96
REMARK SMILES IDX 47 97 49 98 50 99 51 100 52 101
REMARK H PARENT 81 16 74 54 42 65
REMARK Flexibility Score: inf
ROOT
ATOM      1  C   UNL A   1      33.605  28.574  24.327  1.00  0.00     0.274 C 
ENDROOT
BRANCH   1   2
ATOM      2  O   UNL A   1      33.489  28.592  22.879  1.00  0.00    -0.462 OA
BRANCH   2   3
ATOM      3  C   UNL A   1      33.094  27.409  22.352  1.00  0.00     0.307 C 
ATOM      4  O   UNL A   1      33.856  26.650  21.755  1.00  0.00    -0.252 OA
BRANCH   3   5
ATOM      5  C   UNL A   1      31.630  27.071  22.439  1.00  0.00     0.147 C 
BRANCH   5   6
ATOM      6  C   UNL A   1      30.748  27.285  23.688  1.00  0.00     0.111 C 
BRANCH   6   7
ATOM      7  C   UNL A   1      29.636  28.251  23.254  1.00  0.00    -0.026 A 
ATOM      8  C   UNL A   1      28.954  30.385  22.259  1.00  0.00     0.119 A 
ATOM      9  C   UNL A   1      27.624  30.069  22.527  1.00  0.00     0.046 A 
ATOM     10  C   UNL A   1      29.946  29.464  22.593  1.00  0.00     0.051 A 
ATOM     11  C   UNL A   1      27.290  28.850  23.121  1.00  0.00     0.004 A 
ATOM     12  C   UNL A   1      28.290  27.951  23.498  1.00  0.00     0.005 A 
BRANCH   8  13
ATOM     13  O   UNL A   1      29.156  31.617  21.699  1.00  0.00    -0.497 OA
ATOM     14  C   UNL A   1      28.024  32.262  21.124  1.00  0.00     0.278 C 
ENDBRANCH   8  13
ENDBRANCH   6   7
BRANCH   6  15
ATOM     15  N   UNL A   1      30.164  26.025  24.212  1.00  0.00    -0.203 NA
ATOM     16  H   UNL A   1      30.354  25.301  23.521  1.00  0.00     0.142 HD
BRANCH  15  17
ATOM     17  S   UNL A   1      30.687  25.417  25.730  1.00  0.00     0.241 S 
ATOM     18  O   UNL A   1      31.792  26.216  26.224  1.00  0.00    -0.207 OA
ATOM     19  O   UNL A   1      29.512  25.175  26.525  1.00  0.00    -0.207 OA
BRANCH  17  20
ATOM     20  C   UNL A   1      31.346  23.823  25.286  1.00  0.00     0.082 A 
ATOM     21  C   UNL A   1      30.880  22.628  25.873  1.00  0.00     0.024 A 
ATOM     22  C   UNL A   1      32.472  23.837  24.469  1.00  0.00     0.027 A 
ATOM     23  C   UNL A   1      31.603  21.435  25.706  1.00  0.00     0.028 A 
ATOM     24  C   UNL A   1      33.248  22.709  24.453  1.00  0.00    -0.021 A 
ATOM     25  C   UNL A   1      32.818  21.523  25.055  1.00  0.00     0.047 A 
ATOM     26  C   UNL A   1      34.622  22.553  23.886  1.00  0.00     0.063 C 
ATOM     27  N   UNL A   1      33.846  20.565  24.917  1.00  0.00    -0.309 N 
ATOM     28  C   UNL A   1      35.089  21.352  24.719  1.00  0.00     0.092 C 
ATOM     29  C   UNL A   1      35.641  21.794  26.093  1.00  0.00     0.032 C 
BRANCH  27  30
ATOM     30  C   UNL A   1      33.548  19.355  24.315  1.00  0.00     0.224 C 
ATOM     31  C   UNL A   1      34.650  18.318  24.416  1.00  0.00     0.115 C 
ATOM     32  O   UNL A   1      32.555  19.160  23.618  1.00  0.00    -0.275 OA
ENDBRANCH  27  30
ENDBRANCH  17  20
ENDBRANCH  15  17
ENDBRANCH   6  15
ENDBRANCH   5   6
ENDBRANCH   3   5
ENDBRANCH   2   3
ENDBRANCH   1   2
BRANCH   1  33
ATOM     33  C   UNL A   1      32.875  29.729  25.035  1.00  0.00     0.275 C 
BRANCH  33  34
ATOM     34  O   UNL A   1      32.952  29.670  26.464  1.00  0.00    -0.458 OA
BRANCH  34  35
ATOM     35  C   UNL A   1      33.372  30.816  27.037  1.00  0.00     0.338 C 
ATOM     36  O   UNL A   1      32.732  31.839  27.215  1.00  0.00    -0.246 OA
BRANCH  35  37
ATOM     37  C   UNL A   1      34.699  30.666  27.606  1.00  0.00     0.060 A 
ATOM     38  C   UNL A   1      35.039  29.406  28.098  1.00  0.00     0.016 A 
ATOM     39  C   UNL A   1      35.516  31.777  27.793  1.00  0.00     0.016 A 
ATOM     40  C   UNL A   1      36.217  29.244  28.800  1.00  0.00     0.010 A 
ATOM     41  C   UNL A   1      36.721  31.603  28.463  1.00  0.00     0.010 A 
ATOM     42  C   UNL A   1      37.071  30.339  28.969  1.00  0.00    -0.014 A 
BRANCH  42  43
ATOM     43  C   UNL A   1      38.361  30.145  29.650  1.00  0.00     0.031 A 
ATOM     44  C   UNL A   1      39.393  29.242  29.052  1.00  0.00     0.074 A 
ATOM     45  C   UNL A   1      38.556  30.763  30.828  1.00  0.00     0.049 A 
ATOM     46  N   UNL A   1      40.522  28.839  29.565  1.00  0.00    -0.248 NA
ATOM     47  C   UNL A   1      39.111  28.708  27.709  1.00  0.00     0.031 C 
ATOM     48  C   UNL A   1      37.594  31.656  31.481  1.00  0.00     0.029 A 
ATOM     49  N   UNL A   1      39.609  30.713  31.700  1.00  0.00    -0.354 N 
ATOM     50  C   UNL A   1      41.069  27.970  28.633  1.00  0.00     0.074 A 
ATOM     51  C   UNL A   1      40.145  27.898  27.521  1.00  0.00     0.031 C 
ATOM     52  C   UNL A   1      38.092  32.050  32.662  1.00  0.00     0.029 A 
ATOM     53  C   UNL A   1      39.379  31.399  32.867  1.00  0.00     0.049 A 
ATOM     54  H   UNL A   1      40.448  30.233  31.509  1.00  0.00     0.167 HD
ATOM     55  C   UNL A   1      42.245  27.302  28.701  1.00  0.00     0.034 A 
ATOM     56  C   UNL A   1      40.108  31.458  33.996  1.00  0.00     0.034 A 
ATOM     57  C   UNL A   1      43.158  27.416  29.807  1.00  0.00     0.049 A 
ATOM     58  C   UNL A   1      41.411  30.712  34.039  1.00  0.00     0.074 A 
ATOM     59  C   UNL A   1      44.394  26.817  29.969  1.00  0.00     0.029 A 
ATOM     60  N   UNL A   1      42.932  28.182  30.943  1.00  0.00    -0.354 N 
ATOM     61  N   UNL A   1      41.960  29.961  33.115  1.00  0.00    -0.248 NA
ATOM     62  C   UNL A   1      42.207  30.842  35.265  1.00  0.00     0.031 C 
ATOM     63  C   UNL A   1      44.908  27.210  31.210  1.00  0.00     0.029 A 
ATOM     64  C   UNL A   1      44.003  28.071  31.811  1.00  0.00     0.049 A 
ATOM     65  H   UNL A   1      42.126  28.724  31.106  1.00  0.00     0.167 HD
ATOM     66  C   UNL A   1      43.180  29.549  33.634  1.00  0.00     0.074 A 
ATOM     67  C   UNL A   1      43.297  30.158  34.945  1.00  0.00     0.031 C 
ATOM     68  C   UNL A   1      44.111  28.730  33.088  1.00  0.00     0.034 A 
BRANCH  55  69
ATOM     69  C   UNL A   1      42.617  26.418  27.542  1.00  0.00     0.023 A 
ATOM     70  C   UNL A   1      43.455  26.916  26.525  1.00  0.00     0.012 A 
ATOM     71  C   UNL A   1      42.177  25.080  27.482  1.00  0.00     0.148 A 
ATOM     72  C   UNL A   1      43.826  26.108  25.450  1.00  0.00     0.002 A 
ATOM     73  C   UNL A   1      42.585  24.268  26.430  1.00  0.00     0.091 A 
ATOM     74  F   UNL A   1      41.360  24.632  28.446  1.00  0.00    -0.205 F 
ATOM     75  C   UNL A   1      43.402  24.783  25.409  1.00  0.00     0.022 A 
BRANCH  73  76
ATOM     76  S   UNL A   1      42.151  22.529  26.323  1.00  0.00     0.127 S 
ATOM     77  O   UNL A   1      40.691  22.591  26.263  1.00  0.00    -0.237 OA
ATOM     78  O   UNL A   1      42.796  22.126  25.073  1.00  0.00    -0.237 OA
ATOM     79  O   UNL A   1      42.700  21.903  27.518  1.00  0.00    -0.744 OA
ENDBRANCH  73  76
ENDBRANCH  55  69
BRANCH  56  80
ATOM     80  C   UNL A   1      39.626  32.267  35.147  1.00  0.00     0.023 A 
ATOM     81  C   UNL A   1      39.831  33.659  35.149  1.00  0.00     0.012 A 
ATOM     82  C   UNL A   1      38.917  31.675  36.211  1.00  0.00     0.148 A 
ATOM     83  C   UNL A   1      39.365  34.443  36.205  1.00  0.00     0.002 A 
ATOM     84  C   UNL A   1      38.405  32.468  37.230  1.00  0.00     0.091 A 
ATOM     85  F   UNL A   1      38.740  30.345  36.195  1.00  0.00    -0.205 F 
ATOM     86  C   UNL A   1      38.643  33.850  37.239  1.00  0.00     0.022 A 
BRANCH  84  87
ATOM     87  S   UNL A   1      37.344  31.805  38.519  1.00  0.00     0.127 S 
ATOM     88  O   UNL A   1      38.185  31.950  39.704  1.00  0.00    -0.237 OA
ATOM     89  O   UNL A   1      36.195  32.709  38.464  1.00  0.00    -0.237 OA
ATOM     90  O   UNL A   1      37.045  30.437  38.114  1.00  0.00    -0.744 OA
ENDBRANCH  84  87
ENDBRANCH  56  80
BRANCH  68  91
ATOM     91  C   UNL A   1      45.353  28.470  33.897  1.00  0.00     0.023 A 
ATOM     92  C   UNL A   1      45.401  27.364  34.768  1.00  0.00     0.012 A 
ATOM     93  C   UNL A   1      46.493  29.283  33.740  1.00  0.00     0.148 A 
ATOM     94  C   UNL A   1      46.556  27.088  35.496  1.00  0.00     0.002 A 
ATOM     95  C   UNL A   1      47.656  28.972  34.432  1.00  0.00     0.091 A 
ATOM     96  F   UNL A   1      46.416  30.342  32.922  1.00  0.00    -0.205 F 
ATOM     97  C   UNL A   1      47.686  27.884  35.319  1.00  0.00     0.022 A 
BRANCH  95  98
ATOM     98  S   UNL A   1      49.185  29.884  34.194  1.00  0.00     0.127 S 
ATOM     99  O   UNL A   1      48.819  31.211  34.685  1.00  0.00    -0.237 OA
ATOM    100  O   UNL A   1      50.119  29.153  35.050  1.00  0.00    -0.237 OA
ATOM    101  O   UNL A   1      49.482  29.803  32.770  1.00  0.00    -0.744 OA
ENDBRANCH  95  98
ENDBRANCH  68  91
ENDBRANCH  42  43
ENDBRANCH  35  37
ENDBRANCH  34  35
ENDBRANCH  33  34
ENDBRANCH   1  33
TORSDOF 21
ENDMDL
