MODEL 1
REMARK VINA RESULT:     -12.7      0.000      0.000
REMARK SMILES O=C(OCCOC(=O)c1ccc(-c2c3nc(c(-c4cccc(S(=O)(=O)[O-])c4F)c4ccc([nH]4)c(-c4cccc(S(=O)(=O)[O-])c4F)c4nc(c(-c5cccc(S(=O)(=O)[O-])c5F)c5ccc2[nH]5)C=C4)C=C3)cc1)C1=Cc2cc(S(F)(F)(F)(F)F)ccc2O[C@@H]1C(F)(F)F
REMARK SMILES IDX 5 1 4 2 3 3 2 4 1 5 72 6 73 7 87 8 74 9 86 10 75 11 85 12
REMARK SMILES IDX 76 13 84 14 83 15 88 16 89 17 90 18 91 19 77 20 78 21 79 22
REMARK SMILES IDX 80 23 81 24 82 25 6 26 7 27 8 28 9 29 10 30 71 31 11 32
REMARK SMILES IDX 70 33 12 34 13 35 14 36 64 37 15 38 69 39 63 40 65 41 16 42
REMARK SMILES IDX 68 43 62 44 61 45 17 47 49 48 29 49 48 50 30 51 33 52 47 53
REMARK SMILES IDX 66 54 31 55 32 56 46 58 67 59 34 60 18 61 19 62 27 63 20 64
REMARK SMILES IDX 22 65 28 66 21 67 23 68 24 69 25 70 26 71 50 72 51 73 59 74
REMARK SMILES IDX 52 75 54 76 60 77 53 78 55 79 56 80 57 81 58 82 35 83 36 84
REMARK SMILES IDX 44 85 37 86 39 87 45 88 38 89 40 90 41 91 42 92 43 93
REMARK H PARENT 65 46 33 57
REMARK Flexibility Score: inf
ROOT
ATOM      1  C   UNL A   1      31.656  29.395  25.505  1.00  0.00     0.275 C 
ENDROOT
BRANCH   1   2
ATOM      2  C   UNL A   1      31.622  28.293  26.551  1.00  0.00     0.275 C 
BRANCH   2   3
ATOM      3  O   UNL A   1      31.841  27.038  25.925  1.00  0.00    -0.459 OA
BRANCH   3   4
ATOM      4  C   UNL A   1      33.120  26.723  25.394  1.00  0.00     0.338 C 
ATOM      5  O   UNL A   1      34.160  26.878  26.108  1.00  0.00    -0.246 OA
BRANCH   4   6
ATOM      6  C   UNL A   1      33.245  26.200  23.973  1.00  0.00     0.087 C 
ATOM      7  C   UNL A   1      33.757  24.960  23.746  1.00  0.00     0.027 C 
ATOM      8  C   UNL A   1      32.797  27.063  22.804  1.00  0.00     0.316 C 
ATOM      9  C   UNL A   1      34.204  24.097  24.915  1.00  0.00     0.019 A 
ATOM     10  O   UNL A   1      32.384  24.854  26.243  1.00  0.00    -0.475 OA
ATOM     11  C   UNL A   1      35.358  23.353  24.731  1.00  0.00     0.036 A 
ATOM     12  C   UNL A   1      33.467  23.966  26.012  1.00  0.00     0.128 A 
ATOM     13  C   UNL A   1      35.497  22.277  25.639  1.00  0.00     0.107 A 
ATOM     14  C   UNL A   1      33.743  22.977  26.925  1.00  0.00     0.048 A 
ATOM     15  C   UNL A   1      34.833  22.166  26.776  1.00  0.00     0.028 A 
BRANCH   8  16
ATOM     16  C   UNL A   1      31.697  26.346  22.037  1.00  0.00     0.430 C 
ATOM     17  F   UNL A   1      31.161  25.405  22.807  1.00  0.00    -0.167 F 
ATOM     18  F   UNL A   1      30.760  27.221  21.686  1.00  0.00    -0.167 F 
ATOM     19  F   UNL A   1      32.212  25.786  20.945  1.00  0.00    -0.167 F 
ENDBRANCH   8  16
BRANCH  13  20
ATOM     20  S   UNL A   1      36.665  20.962  25.214  1.00  0.00     0.310 S 
ATOM     21  F   UNL A   1      36.971  21.612  23.800  1.00  0.00    -0.094 F 
ATOM     22  F   UNL A   1      35.483  20.182  24.523  1.00  0.00    -0.094 F 
ATOM     23  F   UNL A   1      37.666  19.832  24.842  1.00  0.00    -0.094 F 
ATOM     24  F   UNL A   1      37.860  21.821  25.786  1.00  0.00    -0.094 F 
ATOM     25  F   UNL A   1      35.683  22.167  25.497  1.00  0.00    -0.094 F 
ENDBRANCH  13  20
ENDBRANCH   4   6
ENDBRANCH   3   4
ENDBRANCH   2   3
ENDBRANCH   1   2
BRANCH   1  26
ATOM     26  O   UNL A   1      32.881  30.106  25.606  1.00  0.00    -0.458 OA
BRANCH  26  27
ATOM     27  C   UNL A   1      33.095  31.002  26.688  1.00  0.00     0.338 C 
ATOM     28  O   UNL A   1      32.223  31.884  26.963  1.00  0.00    -0.246 OA
BRANCH  27  29
ATOM     29  C   UNL A   1      34.367  30.904  27.514  1.00  0.00     0.060 A 
ATOM     30  C   UNL A   1      34.691  29.616  27.909  1.00  0.00     0.016 A 
ATOM     31  C   UNL A   1      35.185  31.923  27.748  1.00  0.00     0.016 A 
ATOM     32  C   UNL A   1      35.782  29.550  28.807  1.00  0.00     0.010 A 
ATOM     33  C   UNL A   1      36.307  31.755  28.524  1.00  0.00     0.010 A 
ATOM     34  C   UNL A   1      36.657  30.520  28.996  1.00  0.00    -0.014 A 
BRANCH  34  35
ATOM     35  C   UNL A   1      37.981  30.280  29.702  1.00  0.00     0.031 A 
ATOM     36  C   UNL A   1      38.960  29.451  29.151  1.00  0.00     0.074 A 
ATOM     37  C   UNL A   1      38.058  30.830  30.971  1.00  0.00     0.049 A 
ATOM     38  N   UNL A   1      40.114  29.077  29.703  1.00  0.00    -0.248 NA
ATOM     39  C   UNL A   1      38.865  28.838  27.817  1.00  0.00     0.031 C 
ATOM     40  C   UNL A   1      37.079  31.674  31.531  1.00  0.00     0.029 A 
ATOM     41  N   UNL A   1      39.059  30.670  31.902  1.00  0.00    -0.354 N 
ATOM     42  C   UNL A   1      40.796  28.295  28.863  1.00  0.00     0.074 A 
ATOM     43  C   UNL A   1      39.999  28.125  27.640  1.00  0.00     0.031 C 
ATOM     44  C   UNL A   1      37.480  32.009  32.786  1.00  0.00     0.029 A 
ATOM     45  C   UNL A   1      38.715  31.381  33.031  1.00  0.00     0.049 A 
ATOM     46  H   UNL A   1      39.880  30.140  31.782  1.00  0.00     0.167 HD
ATOM     47  C   UNL A   1      42.051  27.719  29.067  1.00  0.00     0.034 A 
ATOM     48  C   UNL A   1      39.424  31.486  34.217  1.00  0.00     0.034 A 
ATOM     49  C   UNL A   1      42.780  27.859  30.237  1.00  0.00     0.049 A 
ATOM     50  C   UNL A   1      40.653  30.861  34.443  1.00  0.00     0.074 A 
ATOM     51  C   UNL A   1      44.049  27.292  30.457  1.00  0.00     0.029 A 
ATOM     52  N   UNL A   1      42.424  28.550  31.375  1.00  0.00    -0.354 N 
ATOM     53  N   UNL A   1      41.352  30.112  33.589  1.00  0.00    -0.248 NA
ATOM     54  C   UNL A   1      41.397  30.939  35.707  1.00  0.00     0.031 C 
ATOM     55  C   UNL A   1      44.450  27.627  31.712  1.00  0.00     0.029 A 
ATOM     56  C   UNL A   1      43.436  28.409  32.297  1.00  0.00     0.049 A 
ATOM     57  H   UNL A   1      41.590  29.057  31.506  1.00  0.00     0.167 HD
ATOM     58  C   UNL A   1      42.488  29.704  34.157  1.00  0.00     0.074 A 
ATOM     59  C   UNL A   1      42.530  30.224  35.530  1.00  0.00     0.031 C 
ATOM     60  C   UNL A   1      43.493  28.923  33.584  1.00  0.00     0.034 A 
BRANCH  47  61
ATOM     61  C   UNL A   1      42.651  26.891  27.943  1.00  0.00     0.023 A 
ATOM     62  C   UNL A   1      43.662  27.372  27.126  1.00  0.00     0.012 A 
ATOM     63  C   UNL A   1      42.251  25.627  27.871  1.00  0.00     0.148 A 
ATOM     64  C   UNL A   1      43.994  26.507  26.057  1.00  0.00     0.002 A 
ATOM     65  C   UNL A   1      42.720  24.799  26.880  1.00  0.00     0.091 A 
ATOM     66  F   UNL A   1      41.387  25.159  28.767  1.00  0.00    -0.205 F 
ATOM     67  C   UNL A   1      43.676  25.227  26.001  1.00  0.00     0.022 A 
BRANCH  65  68
ATOM     68  S   UNL A   1      42.063  23.120  26.736  1.00  0.00     0.127 S 
ATOM     69  O   UNL A   1      42.592  22.263  27.888  1.00  0.00    -0.237 OA
ATOM     70  O   UNL A   1      40.534  23.163  26.793  1.00  0.00    -0.237 OA
ATOM     71  O   UNL A   1      42.557  22.440  25.246  1.00  0.00    -0.744 OA
ENDBRANCH  65  68
ENDBRANCH  47  61
BRANCH  48  72
ATOM     72  C   UNL A   1      38.830  32.327  35.335  1.00  0.00     0.023 A 
ATOM     73  C   UNL A   1      39.101  33.682  35.423  1.00  0.00     0.012 A 
ATOM     74  C   UNL A   1      38.174  31.692  36.298  1.00  0.00     0.148 A 
ATOM     75  C   UNL A   1      38.889  34.226  36.712  1.00  0.00     0.002 A 
ATOM     76  C   UNL A   1      37.879  32.326  37.480  1.00  0.00     0.091 A 
ATOM     77  F   UNL A   1      37.797  30.429  36.117  1.00  0.00    -0.205 F 
ATOM     78  C   UNL A   1      38.172  33.650  37.660  1.00  0.00     0.022 A 
BRANCH  76  79
ATOM     79  S   UNL A   1      37.092  31.397  38.819  1.00  0.00     0.127 S 
ATOM     80  O   UNL A   1      35.710  31.988  39.106  1.00  0.00    -0.237 OA
ATOM     81  O   UNL A   1      36.943  29.931  38.405  1.00  0.00    -0.237 OA
ATOM     82  O   UNL A   1      38.059  31.496  40.226  1.00  0.00    -0.744 OA
ENDBRANCH  76  79
ENDBRANCH  48  72
BRANCH  60  83
ATOM     83  C   UNL A   1      44.724  28.619  34.421  1.00  0.00     0.023 A 
ATOM     84  C   UNL A   1      45.737  29.559  34.328  1.00  0.00     0.012 A 
ATOM     85  C   UNL A   1      44.812  27.591  35.257  1.00  0.00     0.148 A 
ATOM     86  C   UNL A   1      46.943  29.165  34.956  1.00  0.00     0.002 A 
ATOM     87  C   UNL A   1      45.978  27.344  35.943  1.00  0.00     0.091 A 
ATOM     88  F   UNL A   1      43.763  26.792  35.434  1.00  0.00    -0.205 F 
ATOM     89  C   UNL A   1      47.041  28.199  35.852  1.00  0.00     0.022 A 
BRANCH  87  90
ATOM     90  S   UNL A   1      46.107  25.868  36.980  1.00  0.00     0.127 S 
ATOM     91  O   UNL A   1      45.919  24.618  36.115  1.00  0.00    -0.237 OA
ATOM     92  O   UNL A   1      47.487  25.827  37.641  1.00  0.00    -0.237 OA
ATOM     93  O   UNL A   1      44.897  25.912  38.188  1.00  0.00    -0.744 OA
ENDBRANCH  87  90
ENDBRANCH  60  83
ENDBRANCH  34  35
ENDBRANCH  27  29
ENDBRANCH  26  27
ENDBRANCH   1  26
TORSDOF 16
ENDMDL
MODEL 2
REMARK VINA RESULT:     -12.5      5.276      9.520
REMARK SMILES O=C(OCCOC(=O)c1ccc(-c2c3nc(c(-c4cccc(S(=O)(=O)[O-])c4F)c4ccc([nH]4)c(-c4cccc(S(=O)(=O)[O-])c4F)c4nc(c(-c5cccc(S(=O)(=O)[O-])c5F)c5ccc2[nH]5)C=C4)C=C3)cc1)C1=Cc2cc(S(F)(F)(F)(F)F)ccc2O[C@@H]1C(F)(F)F
REMARK SMILES IDX 5 1 4 2 3 3 2 4 1 5 72 6 73 7 87 8 74 9 86 10 75 11 85 12
REMARK SMILES IDX 76 13 84 14 83 15 88 16 89 17 90 18 91 19 77 20 78 21 79 22
REMARK SMILES IDX 80 23 81 24 82 25 6 26 7 27 8 28 9 29 10 30 71 31 11 32
REMARK SMILES IDX 70 33 12 34 13 35 14 36 64 37 15 38 69 39 63 40 65 41 16 42
REMARK SMILES IDX 68 43 62 44 61 45 17 47 49 48 29 49 48 50 30 51 33 52 47 53
REMARK SMILES IDX 66 54 31 55 32 56 46 58 67 59 34 60 18 61 19 62 27 63 20 64
REMARK SMILES IDX 22 65 28 66 21 67 23 68 24 69 25 70 26 71 50 72 51 73 59 74
REMARK SMILES IDX 52 75 54 76 60 77 53 78 55 79 56 80 57 81 58 82 35 83 36 84
REMARK SMILES IDX 44 85 37 86 39 87 45 88 38 89 40 90 41 91 42 92 43 93
REMARK H PARENT 65 46 33 57
REMARK Flexibility Score: inf
ROOT
ATOM      1  C   UNL A   1      37.874  22.000  25.161  1.00  0.00     0.275 C 
ENDROOT
BRANCH   1   2
ATOM      2  C   UNL A   1      36.850  23.084  25.457  1.00  0.00     0.275 C 
BRANCH   2   3
ATOM      3  O   UNL A   1      36.398  23.655  24.238  1.00  0.00    -0.459 OA
BRANCH   3   4
ATOM      4  C   UNL A   1      35.190  23.200  23.646  1.00  0.00     0.338 C 
ATOM      5  O   UNL A   1      35.098  23.107  22.382  1.00  0.00    -0.246 OA
BRANCH   4   6
ATOM      6  C   UNL A   1      34.008  22.825  24.524  1.00  0.00     0.087 C 
ATOM      7  C   UNL A   1      33.235  23.800  25.078  1.00  0.00     0.027 C 
ATOM      8  C   UNL A   1      33.688  21.362  24.785  1.00  0.00     0.316 C 
ATOM      9  C   UNL A   1      33.555  25.263  24.817  1.00  0.00     0.019 A 
ATOM     10  O   UNL A   1      34.158  24.789  22.568  1.00  0.00    -0.475 OA
ATOM     11  C   UNL A   1      33.401  26.130  25.886  1.00  0.00     0.036 A 
ATOM     12  C   UNL A   1      33.848  25.711  23.602  1.00  0.00     0.128 A 
ATOM     13  C   UNL A   1      33.291  27.490  25.508  1.00  0.00     0.107 A 
ATOM     14  C   UNL A   1      33.856  27.059  23.337  1.00  0.00     0.048 A 
ATOM     15  C   UNL A   1      33.653  27.973  24.333  1.00  0.00     0.028 A 
BRANCH   8  16
ATOM     16  C   UNL A   1      32.288  21.052  24.279  1.00  0.00     0.430 C 
ATOM     17  F   UNL A   1      32.196  19.756  23.998  1.00  0.00    -0.167 F 
ATOM     18  F   UNL A   1      31.399  21.367  25.215  1.00  0.00    -0.167 F 
ATOM     19  F   UNL A   1      32.047  21.762  23.180  1.00  0.00    -0.167 F 
ENDBRANCH   8  16
BRANCH  13  20
ATOM     20  S   UNL A   1      32.608  28.647  26.720  1.00  0.00     0.310 S 
ATOM     21  F   UNL A   1      32.251  27.474  27.726  1.00  0.00    -0.094 F 
ATOM     22  F   UNL A   1      31.187  28.432  26.074  1.00  0.00    -0.094 F 
ATOM     23  F   UNL A   1      32.015  29.638  27.762  1.00  0.00    -0.094 F 
ATOM     24  F   UNL A   1      34.010  28.741  27.441  1.00  0.00    -0.094 F 
ATOM     25  F   UNL A   1      33.200  27.558  25.741  1.00  0.00    -0.094 F 
ENDBRANCH  13  20
ENDBRANCH   4   6
ENDBRANCH   3   4
ENDBRANCH   2   3
ENDBRANCH   1   2
BRANCH   1  26
ATOM     26  O   UNL A   1      38.684  21.789  26.307  1.00  0.00    -0.458 OA
BRANCH  26  27
ATOM     27  C   UNL A   1      39.984  22.360  26.373  1.00  0.00     0.338 C 
ATOM     28  O   UNL A   1      40.995  21.677  26.019  1.00  0.00    -0.246 OA
BRANCH  27  29
ATOM     29  C   UNL A   1      40.163  23.786  26.866  1.00  0.00     0.060 A 
ATOM     30  C   UNL A   1      40.676  23.884  28.149  1.00  0.00     0.016 A 
ATOM     31  C   UNL A   1      39.975  24.864  26.116  1.00  0.00     0.016 A 
ATOM     32  C   UNL A   1      40.691  25.203  28.661  1.00  0.00     0.010 A 
ATOM     33  C   UNL A   1      40.140  26.122  26.644  1.00  0.00     0.010 A 
ATOM     34  C   UNL A   1      40.589  26.293  27.925  1.00  0.00    -0.014 A 
BRANCH  34  35
ATOM     35  C   UNL A   1      40.947  27.666  28.470  1.00  0.00     0.031 A 
ATOM     36  C   UNL A   1      39.965  28.553  28.913  1.00  0.00     0.074 A 
ATOM     37  C   UNL A   1      42.288  27.993  28.351  1.00  0.00     0.049 A 
ATOM     38  N   UNL A   1      40.129  29.812  29.318  1.00  0.00    -0.248 NA
ATOM     39  C   UNL A   1      38.535  28.219  29.008  1.00  0.00     0.031 C 
ATOM     40  C   UNL A   1      43.287  27.101  27.913  1.00  0.00     0.029 A 
ATOM     41  N   UNL A   1      42.890  29.201  28.622  1.00  0.00    -0.354 N 
ATOM     42  C   UNL A   1      38.957  30.335  29.686  1.00  0.00     0.074 A 
ATOM     43  C   UNL A   1      37.914  29.319  29.485  1.00  0.00     0.031 C 
ATOM     44  C   UNL A   1      44.472  27.766  27.910  1.00  0.00     0.029 A 
ATOM     45  C   UNL A   1      44.235  29.083  28.346  1.00  0.00     0.049 A 
ATOM     46  H   UNL A   1      42.439  30.009  28.956  1.00  0.00     0.167 HD
ATOM     47  C   UNL A   1      38.717  31.618  30.181  1.00  0.00     0.034 A 
ATOM     48  C   UNL A   1      45.214  30.057  28.459  1.00  0.00     0.034 A 
ATOM     49  C   UNL A   1      39.702  32.579  30.336  1.00  0.00     0.049 A 
ATOM     50  C   UNL A   1      44.963  31.360  28.900  1.00  0.00     0.074 A 
ATOM     51  C   UNL A   1      39.480  33.874  30.841  1.00  0.00     0.029 A 
ATOM     52  N   UNL A   1      41.043  32.469  30.036  1.00  0.00    -0.354 N 
ATOM     53  N   UNL A   1      43.799  31.869  29.304  1.00  0.00    -0.248 NA
ATOM     54  C   UNL A   1      45.986  32.409  28.994  1.00  0.00     0.031 C 
ATOM     55  C   UNL A   1      40.665  34.539  30.838  1.00  0.00     0.029 A 
ATOM     56  C   UNL A   1      41.649  33.670  30.329  1.00  0.00     0.049 A 
ATOM     57  H   UNL A   1      41.490  31.669  29.675  1.00  0.00     0.167 HD
ATOM     58  C   UNL A   1      43.956  33.142  29.670  1.00  0.00     0.074 A 
ATOM     59  C   UNL A   1      45.365  33.510  29.468  1.00  0.00     0.031 C 
ATOM     60  C   UNL A   1      42.984  34.011  30.168  1.00  0.00     0.034 A 
BRANCH  47  61
ATOM     61  C   UNL A   1      37.294  31.981  30.573  1.00  0.00     0.023 A 
ATOM     62  C   UNL A   1      36.855  31.945  31.887  1.00  0.00     0.012 A 
ATOM     63  C   UNL A   1      36.528  32.468  29.604  1.00  0.00     0.148 A 
ATOM     64  C   UNL A   1      35.468  32.186  32.034  1.00  0.00     0.002 A 
ATOM     65  C   UNL A   1      35.220  32.809  29.851  1.00  0.00     0.091 A 
ATOM     66  F   UNL A   1      37.032  32.626  28.383  1.00  0.00    -0.205 F 
ATOM     67  C   UNL A   1      34.702  32.743  31.115  1.00  0.00     0.022 A 
BRANCH  65  68
ATOM     68  S   UNL A   1      34.168  33.354  28.483  1.00  0.00     0.127 S 
ATOM     69  O   UNL A   1      34.978  34.243  27.538  1.00  0.00    -0.237 OA
ATOM     70  O   UNL A   1      33.653  32.133  27.717  1.00  0.00    -0.237 OA
ATOM     71  O   UNL A   1      32.841  34.239  29.101  1.00  0.00    -0.744 OA
ENDBRANCH  65  68
ENDBRANCH  47  61
BRANCH  48  72
ATOM     72  C   UNL A   1      46.639  29.689  28.082  1.00  0.00     0.023 A 
ATOM     73  C   UNL A   1      47.064  29.756  26.765  1.00  0.00     0.012 A 
ATOM     74  C   UNL A   1      47.407  29.163  29.028  1.00  0.00     0.148 A 
ATOM     75  C   UNL A   1      48.210  28.972  26.493  1.00  0.00     0.002 A 
ATOM     76  C   UNL A   1      48.582  28.530  28.703  1.00  0.00     0.091 A 
ATOM     77  F   UNL A   1      47.037  29.250  30.302  1.00  0.00    -0.205 F 
ATOM     78  C   UNL A   1      49.034  28.505  27.413  1.00  0.00     0.022 A 
BRANCH  76  79
ATOM     79  S   UNL A   1      49.546  27.715  30.001  1.00  0.00     0.127 S 
ATOM     80  O   UNL A   1      50.596  26.805  29.361  1.00  0.00    -0.237 OA
ATOM     81  O   UNL A   1      50.243  28.774  30.859  1.00  0.00    -0.237 OA
ATOM     82  O   UNL A   1      48.503  26.782  30.984  1.00  0.00    -0.744 OA
ENDBRANCH  76  79
ENDBRANCH  48  72
BRANCH  60  83
ATOM     83  C   UNL A   1      43.414  35.415  30.558  1.00  0.00     0.023 A 
ATOM     84  C   UNL A   1      43.938  35.529  31.835  1.00  0.00     0.012 A 
ATOM     85  C   UNL A   1      43.389  36.451  29.728  1.00  0.00     0.148 A 
ATOM     86  C   UNL A   1      44.150  36.865  32.250  1.00  0.00     0.002 A 
ATOM     87  C   UNL A   1      43.741  37.707  30.165  1.00  0.00     0.091 A 
ATOM     88  F   UNL A   1      43.021  36.275  28.462  1.00  0.00    -0.205 F 
ATOM     89  C   UNL A   1      44.211  37.902  31.434  1.00  0.00     0.022 A 
BRANCH  87  90
ATOM     90  S   UNL A   1      43.581  39.119  29.046  1.00  0.00     0.127 S 
ATOM     91  O   UNL A   1      43.855  40.414  29.815  1.00  0.00    -0.237 OA
ATOM     92  O   UNL A   1      44.589  38.982  27.903  1.00  0.00    -0.237 OA
ATOM     93  O   UNL A   1      41.995  39.161  28.406  1.00  0.00    -0.744 OA
ENDBRANCH  87  90
ENDBRANCH  60  83
ENDBRANCH  34  35
ENDBRANCH  27  29
ENDBRANCH  26  27
ENDBRANCH   1  26
TORSDOF 16
ENDMDL
MODEL 3
REMARK VINA RESULT:     -12.4      1.601      1.970
REMARK SMILES O=C(OCCOC(=O)c1ccc(-c2c3nc(c(-c4cccc(S(=O)(=O)[O-])c4F)c4ccc([nH]4)c(-c4cccc(S(=O)(=O)[O-])c4F)c4nc(c(-c5cccc(S(=O)(=O)[O-])c5F)c5ccc2[nH]5)C=C4)C=C3)cc1)C1=Cc2cc(S(F)(F)(F)(F)F)ccc2O[C@@H]1C(F)(F)F
REMARK SMILES IDX 5 1 4 2 3 3 2 4 1 5 72 6 73 7 87 8 74 9 86 10 75 11 85 12
REMARK SMILES IDX 76 13 84 14 83 15 88 16 89 17 90 18 91 19 77 20 78 21 79 22
REMARK SMILES IDX 80 23 81 24 82 25 6 26 7 27 8 28 9 29 10 30 71 31 11 32
REMARK SMILES IDX 70 33 12 34 13 35 14 36 64 37 15 38 69 39 63 40 65 41 16 42
REMARK SMILES IDX 68 43 62 44 61 45 17 47 49 48 29 49 48 50 30 51 33 52 47 53
REMARK SMILES IDX 66 54 31 55 32 56 46 58 67 59 34 60 18 61 19 62 27 63 20 64
REMARK SMILES IDX 22 65 28 66 21 67 23 68 24 69 25 70 26 71 50 72 51 73 59 74
REMARK SMILES IDX 52 75 54 76 60 77 53 78 55 79 56 80 57 81 58 82 35 83 36 84
REMARK SMILES IDX 44 85 37 86 39 87 45 88 38 89 40 90 41 91 42 92 43 93
REMARK H PARENT 65 46 33 57
REMARK Flexibility Score: inf
ROOT
ATOM      1  C   UNL A   1      31.795  30.232  26.306  1.00  0.00     0.275 C 
ENDROOT
BRANCH   1   2
ATOM      2  C   UNL A   1      31.724  29.018  27.218  1.00  0.00     0.275 C 
BRANCH   2   3
ATOM      3  O   UNL A   1      31.557  27.846  26.435  1.00  0.00    -0.459 OA
BRANCH   3   4
ATOM      4  C   UNL A   1      32.683  27.240  25.816  1.00  0.00     0.338 C 
ATOM      5  O   UNL A   1      33.761  27.085  26.470  1.00  0.00    -0.246 OA
BRANCH   4   6
ATOM      6  C   UNL A   1      32.597  26.777  24.371  1.00  0.00     0.087 C 
ATOM      7  C   UNL A   1      32.780  25.464  24.065  1.00  0.00     0.027 C 
ATOM      8  C   UNL A   1      32.307  27.781  23.267  1.00  0.00     0.316 C 
ATOM      9  C   UNL A   1      33.071  24.460  25.168  1.00  0.00     0.019 A 
ATOM     10  O   UNL A   1      31.566  25.560  26.643  1.00  0.00    -0.475 OA
ATOM     11  C   UNL A   1      33.998  23.472  24.880  1.00  0.00     0.036 A 
ATOM     12  C   UNL A   1      32.386  24.451  26.307  1.00  0.00     0.128 A 
ATOM     13  C   UNL A   1      33.923  22.348  25.736  1.00  0.00     0.107 A 
ATOM     14  C   UNL A   1      32.466  23.379  27.162  1.00  0.00     0.048 A 
ATOM     15  C   UNL A   1      33.317  22.340  26.910  1.00  0.00     0.028 A 
BRANCH   8  16
ATOM     16  C   UNL A   1      31.025  27.389  22.550  1.00  0.00     0.430 C 
ATOM     17  F   UNL A   1      30.171  26.865  23.423  1.00  0.00    -0.167 F 
ATOM     18  F   UNL A   1      30.482  28.467  21.991  1.00  0.00    -0.167 F 
ATOM     19  F   UNL A   1      31.302  26.493  21.607  1.00  0.00    -0.167 F 
ENDBRANCH   8  16
BRANCH  13  20
ATOM     20  S   UNL A   1      34.712  20.816  25.185  1.00  0.00     0.310 S 
ATOM     21  F   UNL A   1      35.442  21.554  23.986  1.00  0.00    -0.094 F 
ATOM     22  F   UNL A   1      33.497  20.580  24.210  1.00  0.00    -0.094 F 
ATOM     23  F   UNL A   1      35.388  19.500  24.705  1.00  0.00    -0.094 F 
ATOM     24  F   UNL A   1      35.984  21.140  26.063  1.00  0.00    -0.094 F 
ATOM     25  F   UNL A   1      34.091  22.209  25.597  1.00  0.00    -0.094 F 
ENDBRANCH  13  20
ENDBRANCH   4   6
ENDBRANCH   3   4
ENDBRANCH   2   3
ENDBRANCH   1   2
BRANCH   1  26
ATOM     26  O   UNL A   1      33.145  30.654  26.185  1.00  0.00    -0.458 OA
BRANCH  26  27
ATOM     27  C   UNL A   1      33.737  31.441  27.209  1.00  0.00     0.338 C 
ATOM     28  O   UNL A   1      33.202  32.541  27.554  1.00  0.00    -0.246 OA
BRANCH  27  29
ATOM     29  C   UNL A   1      35.010  30.967  27.890  1.00  0.00     0.060 A 
ATOM     30  C   UNL A   1      35.939  31.968  28.121  1.00  0.00     0.016 A 
ATOM     31  C   UNL A   1      35.196  29.736  28.350  1.00  0.00     0.016 A 
ATOM     32  C   UNL A   1      37.180  31.497  28.608  1.00  0.00     0.010 A 
ATOM     33  C   UNL A   1      36.386  29.381  28.939  1.00  0.00     0.010 A 
ATOM     34  C   UNL A   1      37.371  30.306  29.146  1.00  0.00    -0.014 A 
BRANCH  34  35
ATOM     35  C   UNL A   1      38.619  29.980  29.951  1.00  0.00     0.031 A 
ATOM     36  C   UNL A   1      39.556  29.051  29.495  1.00  0.00     0.074 A 
ATOM     37  C   UNL A   1      38.657  30.567  31.204  1.00  0.00     0.049 A 
ATOM     38  N   UNL A   1      40.634  28.601  30.139  1.00  0.00    -0.248 NA
ATOM     39  C   UNL A   1      39.499  28.401  28.178  1.00  0.00     0.031 C 
ATOM     40  C   UNL A   1      37.720  31.512  31.667  1.00  0.00     0.029 A 
ATOM     41  N   UNL A   1      39.575  30.357  32.208  1.00  0.00    -0.354 N 
ATOM     42  C   UNL A   1      41.300  27.734  29.373  1.00  0.00     0.074 A 
ATOM     43  C   UNL A   1      40.575  27.588  28.103  1.00  0.00     0.031 C 
ATOM     44  C   UNL A   1      38.062  31.857  32.937  1.00  0.00     0.029 A 
ATOM     45  C   UNL A   1      39.219  31.136  33.288  1.00  0.00     0.049 A 
ATOM     46  H   UNL A   1      40.352  29.755  32.163  1.00  0.00     0.167 HD
ATOM     47  C   UNL A   1      42.482  27.060  29.684  1.00  0.00     0.034 A 
ATOM     48  C   UNL A   1      39.852  31.223  34.517  1.00  0.00     0.034 A 
ATOM     49  C   UNL A   1      43.140  27.181  30.897  1.00  0.00     0.049 A 
ATOM     50  C   UNL A   1      41.004  30.505  34.849  1.00  0.00     0.074 A 
ATOM     51  C   UNL A   1      44.337  26.516  31.224  1.00  0.00     0.029 A 
ATOM     52  N   UNL A   1      42.769  27.941  31.985  1.00  0.00    -0.354 N 
ATOM     53  N   UNL A   1      41.690  29.668  34.069  1.00  0.00    -0.248 NA
ATOM     54  C   UNL A   1      41.664  30.565  36.159  1.00  0.00     0.031 C 
ATOM     55  C   UNL A   1      44.679  26.861  32.493  1.00  0.00     0.029 A 
ATOM     56  C   UNL A   1      43.701  27.748  32.981  1.00  0.00     0.049 A 
ATOM     57  H   UNL A   1      41.976  28.521  32.041  1.00  0.00     0.167 HD
ATOM     58  C   UNL A   1      42.745  29.186  34.728  1.00  0.00     0.074 A 
ATOM     59  C   UNL A   1      42.739  29.751  36.085  1.00  0.00     0.031 C 
ATOM     60  C   UNL A   1      43.714  28.302  34.252  1.00  0.00     0.034 A 
BRANCH  47  61
ATOM     61  C   UNL A   1      43.083  26.144  28.630  1.00  0.00     0.023 A 
ATOM     62  C   UNL A   1      42.672  24.831  28.468  1.00  0.00     0.012 A 
ATOM     63  C   UNL A   1      43.929  26.711  27.779  1.00  0.00     0.148 A 
ATOM     64  C   UNL A   1      43.441  24.103  27.530  1.00  0.00     0.002 A 
ATOM     65  C   UNL A   1      44.541  25.967  26.800  1.00  0.00     0.091 A 
ATOM     66  F   UNL A   1      44.186  28.013  27.875  1.00  0.00    -0.205 F 
ATOM     67  C   UNL A   1      44.228  24.648  26.620  1.00  0.00     0.022 A 
BRANCH  65  68
ATOM     68  S   UNL A   1      45.781  26.742  25.734  1.00  0.00     0.127 S 
ATOM     69  O   UNL A   1      46.986  27.164  26.576  1.00  0.00    -0.237 OA
ATOM     70  O   UNL A   1      46.231  25.744  24.665  1.00  0.00    -0.237 OA
ATOM     71  O   UNL A   1      45.103  28.119  24.978  1.00  0.00    -0.744 OA
ENDBRANCH  65  68
ENDBRANCH  47  61
BRANCH  48  72
ATOM     72  C   UNL A   1      39.259  32.152  35.564  1.00  0.00     0.023 A 
ATOM     73  C   UNL A   1      39.673  33.470  35.658  1.00  0.00     0.012 A 
ATOM     74  C   UNL A   1      38.452  31.617  36.472  1.00  0.00     0.148 A 
ATOM     75  C   UNL A   1      39.409  34.066  36.914  1.00  0.00     0.002 A 
ATOM     76  C   UNL A   1      38.126  32.309  37.613  1.00  0.00     0.091 A 
ATOM     77  F   UNL A   1      37.953  30.400  36.275  1.00  0.00    -0.205 F 
ATOM     78  C   UNL A   1      38.549  33.596  37.800  1.00  0.00     0.022 A 
BRANCH  76  79
ATOM     79  S   UNL A   1      37.122  31.506  38.888  1.00  0.00     0.127 S 
ATOM     80  O   UNL A   1      36.823  30.065  38.468  1.00  0.00    -0.237 OA
ATOM     81  O   UNL A   1      37.888  31.503  40.213  1.00  0.00    -0.237 OA
ATOM     82  O   UNL A   1      35.654  32.362  39.080  1.00  0.00    -0.744 OA
ENDBRANCH  76  79
ENDBRANCH  48  72
BRANCH  60  83
ATOM     83  C   UNL A   1      44.854  27.924  35.184  1.00  0.00     0.023 A 
ATOM     84  C   UNL A   1      45.927  28.801  35.174  1.00  0.00     0.012 A 
ATOM     85  C   UNL A   1      44.813  26.895  36.021  1.00  0.00     0.148 A 
ATOM     86  C   UNL A   1      47.053  28.336  35.894  1.00  0.00     0.002 A 
ATOM     87  C   UNL A   1      45.904  26.579  36.796  1.00  0.00     0.091 A 
ATOM     88  F   UNL A   1      43.707  26.162  36.111  1.00  0.00    -0.205 F 
ATOM     89  C   UNL A   1      47.021  27.367  36.792  1.00  0.00     0.022 A 
BRANCH  87  90
ATOM     90  S   UNL A   1      45.861  25.099  37.836  1.00  0.00     0.127 S 
ATOM     91  O   UNL A   1      44.746  25.239  38.877  1.00  0.00    -0.237 OA
ATOM     92  O   UNL A   1      45.592  23.870  36.964  1.00  0.00    -0.237 OA
ATOM     93  O   UNL A   1      47.364  24.918  38.631  1.00  0.00    -0.744 OA
ENDBRANCH  87  90
ENDBRANCH  60  83
ENDBRANCH  34  35
ENDBRANCH  27  29
ENDBRANCH  26  27
ENDBRANCH   1  26
TORSDOF 16
ENDMDL
