MODEL 1
REMARK VINA RESULT:     -10.4      0.000      0.000
REMARK SMILES C[C@]([NH3+])(C(=O)OCCOC(=O)c1ccc(-c2c3nc(c(-c4cccc(S(=O)(=O)[O-])c4F)c4ccc([nH]4)c(-c4cccc(S(=O)(=O)[O-])c4F)c4nc(c(-c5cccc(S(=O)(=O)[O-])c5F)c5ccc2[nH]5)C=C4)C=C3)cc1)c1ccc(F)c(Br)c1
REMARK SMILES IDX 8 1 7 2 6 3 4 4 5 5 2 6 1 7 75 8 76 9 82 10 77 11 80 12
REMARK SMILES IDX 78 13 81 14 79 15 3 16 9 20 10 21 11 22 12 23 13 24 74 25
REMARK SMILES IDX 14 26 73 27 15 28 16 29 17 30 67 31 18 32 72 33 66 34 68 35
REMARK SMILES IDX 19 36 71 37 65 38 64 39 20 41 52 42 32 43 51 44 33 45 36 46
REMARK SMILES IDX 50 47 69 48 34 49 35 50 49 52 70 53 37 54 21 55 22 56 30 57
REMARK SMILES IDX 23 58 25 59 31 60 24 61 26 62 27 63 28 64 29 65 53 66 54 67
REMARK SMILES IDX 62 68 55 69 57 70 63 71 56 72 58 73 59 74 60 75 61 76 38 77
REMARK SMILES IDX 39 78 47 79 40 80 42 81 48 82 41 83 43 84 44 85 45 86 46 87
REMARK H PARENT 3 17 3 18 3 19 68 40 36 51
REMARK Flexibility Score: inf
ROOT
ATOM      1  C   UNL A   1      41.055  19.572  26.156  1.00  0.00     0.275 C 
ENDROOT
BRANCH   1   2
ATOM      2  C   UNL A   1      42.580  19.665  26.119  1.00  0.00     0.274 C 
BRANCH   2   3
ATOM      3  O   UNL A   1      43.011  20.772  25.302  1.00  0.00    -0.457 OA
BRANCH   3   4
ATOM      4  C   UNL A   1      44.361  20.970  25.188  1.00  0.00     0.372 C 
ATOM      5  O   UNL A   1      45.201  20.097  25.375  1.00  0.00    -0.244 OA
BRANCH   4   6
ATOM      6  C   UNL A   1      44.705  22.461  24.861  1.00  0.00     0.215 C 
ATOM      7  C   UNL A   1      43.378  23.138  24.457  1.00  0.00     0.098 C 
BRANCH   6   8
ATOM      8  C   UNL A   1      45.350  23.160  26.075  1.00  0.00     0.025 A 
ATOM      9  C   UNL A   1      46.559  23.876  25.949  1.00  0.00     0.014 A 
ATOM     10  C   UNL A   1      44.738  23.145  27.348  1.00  0.00     0.029 A 
ATOM     11  C   UNL A   1      47.152  24.507  27.049  1.00  0.00     0.041 A 
ATOM     12  C   UNL A   1      45.329  23.783  28.445  1.00  0.00     0.054 A 
ATOM     13  C   UNL A   1      46.538  24.451  28.293  1.00  0.00     0.137 A 
ATOM     14  Br  UNL A   1      44.457  23.750  30.122  1.00  0.00    -0.048 Br
ATOM     15  F   UNL A   1      47.122  25.070  29.328  1.00  0.00    -0.206 F 
ENDBRANCH   6   8
BRANCH   6  16
ATOM     16  N   UNL A   1      45.586  22.553  23.658  1.00  0.00    -0.340 N 
ATOM     17  H   UNL A   1      45.403  21.761  23.042  1.00  0.00     0.345 HD
ATOM     18  H   UNL A   1      46.563  22.538  23.950  1.00  0.00     0.345 HD
ATOM     19  H   UNL A   1      45.392  23.422  23.161  1.00  0.00     0.345 HD
ENDBRANCH   6  16
ENDBRANCH   4   6
ENDBRANCH   3   4
ENDBRANCH   2   3
ENDBRANCH   1   2
BRANCH   1  20
ATOM     20  O   UNL A   1      40.514  20.564  27.041  1.00  0.00    -0.458 OA
BRANCH  20  21
ATOM     21  C   UNL A   1      39.626  21.417  26.481  1.00  0.00     0.338 C 
ATOM     22  O   UNL A   1      38.662  21.136  25.791  1.00  0.00    -0.246 OA
BRANCH  21  23
ATOM     23  C   UNL A   1      39.940  22.782  26.918  1.00  0.00     0.060 A 
ATOM     24  C   UNL A   1      39.323  23.842  26.259  1.00  0.00     0.016 A 
ATOM     25  C   UNL A   1      40.911  23.017  27.888  1.00  0.00     0.016 A 
ATOM     26  C   UNL A   1      39.746  25.145  26.498  1.00  0.00     0.010 A 
ATOM     27  C   UNL A   1      41.269  24.337  28.188  1.00  0.00     0.010 A 
ATOM     28  C   UNL A   1      40.719  25.414  27.468  1.00  0.00    -0.014 A 
BRANCH  28  29
ATOM     29  C   UNL A   1      41.176  26.810  27.715  1.00  0.00     0.031 A 
ATOM     30  C   UNL A   1      42.589  27.215  27.391  1.00  0.00     0.074 A 
ATOM     31  C   UNL A   1      40.336  27.715  28.257  1.00  0.00     0.049 A 
ATOM     32  N   UNL A   1      43.230  28.307  27.715  1.00  0.00    -0.248 NA
ATOM     33  C   UNL A   1      43.391  26.257  26.613  1.00  0.00     0.031 C 
ATOM     34  C   UNL A   1      38.936  27.468  28.604  1.00  0.00     0.029 A 
ATOM     35  N   UNL A   1      40.546  29.018  28.638  1.00  0.00    -0.354 N 
ATOM     36  C   UNL A   1      44.528  28.138  27.246  1.00  0.00     0.074 A 
ATOM     37  C   UNL A   1      44.580  26.843  26.604  1.00  0.00     0.031 C 
ATOM     38  C   UNL A   1      38.414  28.575  29.146  1.00  0.00     0.029 A 
ATOM     39  C   UNL A   1      39.463  29.583  29.269  1.00  0.00     0.049 A 
ATOM     40  H   UNL A   1      41.390  29.500  28.475  1.00  0.00     0.167 HD
ATOM     41  C   UNL A   1      45.580  28.987  27.338  1.00  0.00     0.034 A 
ATOM     42  C   UNL A   1      39.332  30.752  29.927  1.00  0.00     0.034 A 
ATOM     43  C   UNL A   1      45.509  30.305  27.909  1.00  0.00     0.049 A 
ATOM     44  C   UNL A   1      40.510  31.678  30.020  1.00  0.00     0.074 A 
ATOM     45  C   UNL A   1      46.505  31.261  27.991  1.00  0.00     0.029 A 
ATOM     46  N   UNL A   1      44.376  30.855  28.490  1.00  0.00    -0.354 N 
ATOM     47  N   UNL A   1      41.713  31.530  29.522  1.00  0.00    -0.248 NA
ATOM     48  C   UNL A   1      40.315  32.935  30.756  1.00  0.00     0.031 C 
ATOM     49  C   UNL A   1      45.978  32.386  28.635  1.00  0.00     0.029 A 
ATOM     50  C   UNL A   1      44.651  32.132  28.945  1.00  0.00     0.049 A 
ATOM     51  H   UNL A   1      43.505  30.403  28.567  1.00  0.00     0.167 HD
ATOM     52  C   UNL A   1      42.417  32.676  29.873  1.00  0.00     0.074 A 
ATOM     53  C   UNL A   1      41.496  33.522  30.606  1.00  0.00     0.031 C 
ATOM     54  C   UNL A   1      43.713  32.985  29.629  1.00  0.00     0.034 A 
BRANCH  41  55
ATOM     55  C   UNL A   1      46.900  28.520  26.788  1.00  0.00     0.023 A 
ATOM     56  C   UNL A   1      47.971  28.261  27.666  1.00  0.00     0.012 A 
ATOM     57  C   UNL A   1      47.068  28.302  25.408  1.00  0.00     0.148 A 
ATOM     58  C   UNL A   1      49.199  27.817  27.173  1.00  0.00     0.002 A 
ATOM     59  C   UNL A   1      48.284  27.826  24.927  1.00  0.00     0.091 A 
ATOM     60  F   UNL A   1      46.048  28.583  24.584  1.00  0.00    -0.205 F 
ATOM     61  C   UNL A   1      49.352  27.591  25.807  1.00  0.00     0.022 A 
BRANCH  59  62
ATOM     62  S   UNL A   1      48.536  27.449  23.189  1.00  0.00     0.127 S 
ATOM     63  O   UNL A   1      49.954  27.761  23.019  1.00  0.00    -0.237 OA
ATOM     64  O   UNL A   1      48.215  26.022  23.124  1.00  0.00    -0.237 OA
ATOM     65  O   UNL A   1      47.605  28.305  22.465  1.00  0.00    -0.744 OA
ENDBRANCH  59  62
ENDBRANCH  41  55
BRANCH  42  66
ATOM     66  C   UNL A   1      38.021  31.082  30.554  1.00  0.00     0.023 A 
ATOM     67  C   UNL A   1      37.807  30.794  31.914  1.00  0.00     0.012 A 
ATOM     68  C   UNL A   1      37.030  31.781  29.834  1.00  0.00     0.148 A 
ATOM     69  C   UNL A   1      36.631  31.198  32.548  1.00  0.00     0.002 A 
ATOM     70  C   UNL A   1      35.893  32.240  30.487  1.00  0.00     0.091 A 
ATOM     71  F   UNL A   1      37.239  32.020  28.532  1.00  0.00    -0.205 F 
ATOM     72  C   UNL A   1      35.685  31.939  31.841  1.00  0.00     0.022 A 
BRANCH  70  73
ATOM     73  S   UNL A   1      34.722  33.349  29.693  1.00  0.00     0.127 S 
ATOM     74  O   UNL A   1      34.026  32.447  28.781  1.00  0.00    -0.237 OA
ATOM     75  O   UNL A   1      33.923  33.814  30.828  1.00  0.00    -0.237 OA
ATOM     76  O   UNL A   1      35.532  34.388  29.071  1.00  0.00    -0.744 OA
ENDBRANCH  70  73
ENDBRANCH  42  66
BRANCH  54  77
ATOM     77  C   UNL A   1      44.227  34.300  30.150  1.00  0.00     0.023 A 
ATOM     78  C   UNL A   1      44.893  34.338  31.391  1.00  0.00     0.012 A 
ATOM     79  C   UNL A   1      44.140  35.471  29.373  1.00  0.00     0.148 A 
ATOM     80  C   UNL A   1      45.452  35.527  31.857  1.00  0.00     0.002 A 
ATOM     81  C   UNL A   1      44.734  36.644  29.827  1.00  0.00     0.091 A 
ATOM     82  F   UNL A   1      43.485  35.417  28.205  1.00  0.00    -0.205 F 
ATOM     83  C   UNL A   1      45.384  36.675  31.071  1.00  0.00     0.022 A 
BRANCH  81  84
ATOM     84  S   UNL A   1      44.769  38.146  28.843  1.00  0.00     0.127 S 
ATOM     85  O   UNL A   1      45.549  37.724  27.680  1.00  0.00    -0.237 OA
ATOM     86  O   UNL A   1      43.349  38.379  28.573  1.00  0.00    -0.237 OA
ATOM     87  O   UNL A   1      45.395  39.159  29.683  1.00  0.00    -0.744 OA
ENDBRANCH  81  84
ENDBRANCH  54  77
ENDBRANCH  28  29
ENDBRANCH  21  23
ENDBRANCH  20  21
ENDBRANCH   1  20
TORSDOF 16
ENDMDL
MODEL 2
REMARK VINA RESULT:     -10.2      4.117      9.931
REMARK SMILES C[C@]([NH3+])(C(=O)OCCOC(=O)c1ccc(-c2c3nc(c(-c4cccc(S(=O)(=O)[O-])c4F)c4ccc([nH]4)c(-c4cccc(S(=O)(=O)[O-])c4F)c4nc(c(-c5cccc(S(=O)(=O)[O-])c5F)c5ccc2[nH]5)C=C4)C=C3)cc1)c1ccc(F)c(Br)c1
REMARK SMILES IDX 8 1 7 2 6 3 4 4 5 5 2 6 1 7 75 8 76 9 82 10 77 11 80 12
REMARK SMILES IDX 78 13 81 14 79 15 3 16 9 20 10 21 11 22 12 23 13 24 74 25
REMARK SMILES IDX 14 26 73 27 15 28 16 29 17 30 67 31 18 32 72 33 66 34 68 35
REMARK SMILES IDX 19 36 71 37 65 38 64 39 20 41 52 42 32 43 51 44 33 45 36 46
REMARK SMILES IDX 50 47 69 48 34 49 35 50 49 52 70 53 37 54 21 55 22 56 30 57
REMARK SMILES IDX 23 58 25 59 31 60 24 61 26 62 27 63 28 64 29 65 53 66 54 67
REMARK SMILES IDX 62 68 55 69 57 70 63 71 56 72 58 73 59 74 60 75 61 76 38 77
REMARK SMILES IDX 39 78 47 79 40 80 42 81 48 82 41 83 43 84 44 85 45 86 46 87
REMARK H PARENT 3 17 3 18 3 19 68 40 36 51
REMARK Flexibility Score: inf
ROOT
ATOM      1  C   UNL A   1      36.220  21.326  24.650  1.00  0.00     0.275 C 
ENDROOT
BRANCH   1   2
ATOM      2  C   UNL A   1      35.464  22.601  24.280  1.00  0.00     0.274 C 
BRANCH   2   3
ATOM      3  O   UNL A   1      34.626  23.040  25.368  1.00  0.00    -0.457 OA
BRANCH   3   4
ATOM      4  C   UNL A   1      33.285  23.150  25.111  1.00  0.00     0.372 C 
ATOM      5  O   UNL A   1      32.779  24.075  24.487  1.00  0.00    -0.244 OA
BRANCH   4   6
ATOM      6  C   UNL A   1      32.469  21.990  25.774  1.00  0.00     0.215 C 
ATOM      7  C   UNL A   1      31.027  22.513  25.947  1.00  0.00     0.098 C 
BRANCH   6   8
ATOM      8  C   UNL A   1      32.510  20.718  24.904  1.00  0.00     0.025 A 
ATOM      9  C   UNL A   1      32.260  20.772  23.516  1.00  0.00     0.014 A 
ATOM     10  C   UNL A   1      32.838  19.457  25.451  1.00  0.00     0.029 A 
ATOM     11  C   UNL A   1      32.290  19.620  22.723  1.00  0.00     0.041 A 
ATOM     12  C   UNL A   1      32.874  18.307  24.654  1.00  0.00     0.054 A 
ATOM     13  C   UNL A   1      32.589  18.392  23.297  1.00  0.00     0.137 A 
ATOM     14  Br  UNL A   1      33.340  16.649  25.434  1.00  0.00    -0.048 Br
ATOM     15  F   UNL A   1      32.620  17.305  22.514  1.00  0.00    -0.206 F 
ENDBRANCH   6   8
BRANCH   6  16
ATOM     16  N   UNL A   1      32.965  21.712  27.156  1.00  0.00    -0.340 N 
ATOM     17  H   UNL A   1      33.782  22.293  27.347  1.00  0.00     0.345 HD
ATOM     18  H   UNL A   1      33.222  20.728  27.234  1.00  0.00     0.345 HD
ATOM     19  H   UNL A   1      32.230  21.927  27.829  1.00  0.00     0.345 HD
ENDBRANCH   6  16
ENDBRANCH   4   6
ENDBRANCH   3   4
ENDBRANCH   2   3
ENDBRANCH   1   2
BRANCH   1  20
ATOM     20  O   UNL A   1      36.931  21.505  25.884  1.00  0.00    -0.458 OA
BRANCH  20  21
ATOM     21  C   UNL A   1      38.269  21.321  25.813  1.00  0.00     0.338 C 
ATOM     22  O   UNL A   1      38.865  20.416  25.255  1.00  0.00    -0.246 OA
BRANCH  21  23
ATOM     23  C   UNL A   1      38.939  22.464  26.444  1.00  0.00     0.060 A 
ATOM     24  C   UNL A   1      38.498  23.745  26.121  1.00  0.00     0.016 A 
ATOM     25  C   UNL A   1      40.056  22.280  27.255  1.00  0.00     0.016 A 
ATOM     26  C   UNL A   1      39.234  24.852  26.530  1.00  0.00     0.010 A 
ATOM     27  C   UNL A   1      40.740  23.402  27.737  1.00  0.00     0.010 A 
ATOM     28  C   UNL A   1      40.360  24.700  27.347  1.00  0.00    -0.014 A 
BRANCH  28  29
ATOM     29  C   UNL A   1      41.150  25.888  27.776  1.00  0.00     0.031 A 
ATOM     30  C   UNL A   1      40.508  26.969  28.603  1.00  0.00     0.074 A 
ATOM     31  C   UNL A   1      42.439  26.017  27.403  1.00  0.00     0.049 A 
ATOM     32  N   UNL A   1      40.959  28.159  28.900  1.00  0.00    -0.248 NA
ATOM     33  C   UNL A   1      39.175  26.678  29.154  1.00  0.00     0.031 C 
ATOM     34  C   UNL A   1      43.195  25.040  26.619  1.00  0.00     0.029 A 
ATOM     35  N   UNL A   1      43.335  27.038  27.611  1.00  0.00    -0.354 N 
ATOM     36  C   UNL A   1      39.940  28.786  29.609  1.00  0.00     0.074 A 
ATOM     37  C   UNL A   1      38.851  27.839  29.708  1.00  0.00     0.031 C 
ATOM     38  C   UNL A   1      44.433  25.505  26.409  1.00  0.00     0.029 A 
ATOM     39  C   UNL A   1      44.535  26.851  26.966  1.00  0.00     0.049 A 
ATOM     40  H   UNL A   1      43.137  27.827  28.167  1.00  0.00     0.167 HD
ATOM     41  C   UNL A   1      39.916  30.034  30.134  1.00  0.00     0.034 A 
ATOM     42  C   UNL A   1      45.581  27.681  26.783  1.00  0.00     0.034 A 
ATOM     43  C   UNL A   1      41.027  30.948  30.101  1.00  0.00     0.049 A 
ATOM     44  C   UNL A   1      45.534  29.062  27.371  1.00  0.00     0.074 A 
ATOM     45  C   UNL A   1      41.118  32.210  30.659  1.00  0.00     0.029 A 
ATOM     46  N   UNL A   1      42.241  30.694  29.481  1.00  0.00    -0.354 N 
ATOM     47  N   UNL A   1      44.588  29.618  28.087  1.00  0.00    -0.248 NA
ATOM     48  C   UNL A   1      46.698  29.928  27.135  1.00  0.00     0.031 C 
ATOM     49  C   UNL A   1      42.385  32.726  30.365  1.00  0.00     0.029 A 
ATOM     50  C   UNL A   1      43.084  31.782  29.631  1.00  0.00     0.049 A 
ATOM     51  H   UNL A   1      42.469  29.864  29.005  1.00  0.00     0.167 HD
ATOM     52  C   UNL A   1      45.043  30.894  28.398  1.00  0.00     0.074 A 
ATOM     53  C   UNL A   1      46.363  31.019  27.812  1.00  0.00     0.031 C 
ATOM     54  C   UNL A   1      44.414  31.877  29.086  1.00  0.00     0.034 A 
BRANCH  41  55
ATOM     55  C   UNL A   1      38.648  30.480  30.809  1.00  0.00     0.023 A 
ATOM     56  C   UNL A   1      38.470  30.250  32.187  1.00  0.00     0.012 A 
ATOM     57  C   UNL A   1      37.651  31.163  30.087  1.00  0.00     0.148 A 
ATOM     58  C   UNL A   1      37.305  30.668  32.830  1.00  0.00     0.002 A 
ATOM     59  C   UNL A   1      36.506  31.608  30.741  1.00  0.00     0.091 A 
ATOM     60  F   UNL A   1      37.823  31.347  28.769  1.00  0.00    -0.205 F 
ATOM     61  C   UNL A   1      36.329  31.354  32.111  1.00  0.00     0.022 A 
BRANCH  59  62
ATOM     62  S   UNL A   1      35.236  32.555  29.897  1.00  0.00     0.127 S 
ATOM     63  O   UNL A   1      34.285  32.808  30.978  1.00  0.00    -0.237 OA
ATOM     64  O   UNL A   1      35.970  33.737  29.443  1.00  0.00    -0.237 OA
ATOM     65  O   UNL A   1      34.760  31.697  28.819  1.00  0.00    -0.744 OA
ENDBRANCH  59  62
ENDBRANCH  41  55
BRANCH  42  66
ATOM     66  C   UNL A   1      46.750  27.203  25.992  1.00  0.00     0.023 A 
ATOM     67  C   UNL A   1      46.824  27.491  24.616  1.00  0.00     0.012 A 
ATOM     68  C   UNL A   1      47.837  26.562  26.620  1.00  0.00     0.148 A 
ATOM     69  C   UNL A   1      47.961  27.153  23.882  1.00  0.00     0.002 A 
ATOM     70  C   UNL A   1      48.993  26.290  25.899  1.00  0.00     0.091 A 
ATOM     71  F   UNL A   1      47.736  26.269  27.924  1.00  0.00    -0.205 F 
ATOM     72  C   UNL A   1      49.052  26.572  24.527  1.00  0.00     0.022 A 
BRANCH  70  73
ATOM     73  S   UNL A   1      50.497  25.712  26.695  1.00  0.00     0.127 S 
ATOM     74  O   UNL A   1      50.052  24.466  27.311  1.00  0.00    -0.237 OA
ATOM     75  O   UNL A   1      51.402  25.547  25.557  1.00  0.00    -0.237 OA
ATOM     76  O   UNL A   1      50.885  26.776  27.612  1.00  0.00    -0.744 OA
ENDBRANCH  70  73
ENDBRANCH  42  66
BRANCH  54  77
ATOM     77  C   UNL A   1      45.139  33.184  29.257  1.00  0.00     0.023 A 
ATOM     78  C   UNL A   1      45.960  33.375  30.386  1.00  0.00     0.012 A 
ATOM     79  C   UNL A   1      45.088  34.177  28.260  1.00  0.00     0.148 A 
ATOM     80  C   UNL A   1      46.708  34.543  30.527  1.00  0.00     0.002 A 
ATOM     81  C   UNL A   1      45.867  35.322  28.388  1.00  0.00     0.091 A 
ATOM     82  F   UNL A   1      44.286  33.983  27.204  1.00  0.00    -0.205 F 
ATOM     83  C   UNL A   1      46.672  35.509  29.524  1.00  0.00     0.022 A 
BRANCH  81  84
ATOM     84  S   UNL A   1      45.948  36.578  27.107  1.00  0.00     0.127 S 
ATOM     85  O   UNL A   1      44.574  37.077  27.090  1.00  0.00    -0.237 OA
ATOM     86  O   UNL A   1      46.932  37.517  27.648  1.00  0.00    -0.237 OA
ATOM     87  O   UNL A   1      46.378  35.888  25.897  1.00  0.00    -0.744 OA
ENDBRANCH  81  84
ENDBRANCH  54  77
ENDBRANCH  28  29
ENDBRANCH  21  23
ENDBRANCH  20  21
ENDBRANCH   1  20
TORSDOF 16
ENDMDL
MODEL 3
REMARK VINA RESULT:     -10.1      5.058     11.908
REMARK SMILES C[C@]([NH3+])(C(=O)OCCOC(=O)c1ccc(-c2c3nc(c(-c4cccc(S(=O)(=O)[O-])c4F)c4ccc([nH]4)c(-c4cccc(S(=O)(=O)[O-])c4F)c4nc(c(-c5cccc(S(=O)(=O)[O-])c5F)c5ccc2[nH]5)C=C4)C=C3)cc1)c1ccc(F)c(Br)c1
REMARK SMILES IDX 8 1 7 2 6 3 4 4 5 5 2 6 1 7 75 8 76 9 82 10 77 11 80 12
REMARK SMILES IDX 78 13 81 14 79 15 3 16 9 20 10 21 11 22 12 23 13 24 74 25
REMARK SMILES IDX 14 26 73 27 15 28 16 29 17 30 67 31 18 32 72 33 66 34 68 35
REMARK SMILES IDX 19 36 71 37 65 38 64 39 20 41 52 42 32 43 51 44 33 45 36 46
REMARK SMILES IDX 50 47 69 48 34 49 35 50 49 52 70 53 37 54 21 55 22 56 30 57
REMARK SMILES IDX 23 58 25 59 31 60 24 61 26 62 27 63 28 64 29 65 53 66 54 67
REMARK SMILES IDX 62 68 55 69 57 70 63 71 56 72 58 73 59 74 60 75 61 76 38 77
REMARK SMILES IDX 39 78 47 79 40 80 42 81 48 82 41 83 43 84 44 85 45 86 46 87
REMARK H PARENT 3 17 3 18 3 19 68 40 36 51
REMARK Flexibility Score: inf
ROOT
ATOM      1  C   UNL A   1      33.156  34.031  28.210  1.00  0.00     0.275 C 
ENDROOT
BRANCH   1   2
ATOM      2  C   UNL A   1      33.781  34.852  29.337  1.00  0.00     0.274 C 
BRANCH   2   3
ATOM      3  O   UNL A   1      33.637  34.182  30.606  1.00  0.00    -0.457 OA
BRANCH   3   4
ATOM      4  C   UNL A   1      34.178  34.804  31.699  1.00  0.00     0.372 C 
ATOM      5  O   UNL A   1      34.136  36.014  31.893  1.00  0.00    -0.244 OA
BRANCH   4   6
ATOM      6  C   UNL A   1      34.920  33.793  32.635  1.00  0.00     0.215 C 
ATOM      7  C   UNL A   1      34.669  32.387  32.048  1.00  0.00     0.098 C 
BRANCH   6   8
ATOM      8  C   UNL A   1      36.426  34.113  32.713  1.00  0.00     0.025 A 
ATOM      9  C   UNL A   1      37.074  34.286  33.956  1.00  0.00     0.014 A 
ATOM     10  C   UNL A   1      37.224  34.206  31.552  1.00  0.00     0.029 A 
ATOM     11  C   UNL A   1      38.439  34.581  34.032  1.00  0.00     0.041 A 
ATOM     12  C   UNL A   1      38.592  34.496  31.631  1.00  0.00     0.054 A 
ATOM     13  C   UNL A   1      39.189  34.693  32.870  1.00  0.00     0.137 A 
ATOM     14  Br  UNL A   1      39.617  34.588  30.046  1.00  0.00    -0.048 Br
ATOM     15  F   UNL A   1      40.497  34.969  32.971  1.00  0.00    -0.206 F 
ENDBRANCH   6   8
BRANCH   6  16
ATOM     16  N   UNL A   1      34.303  33.776  33.996  1.00  0.00    -0.340 N 
ATOM     17  H   UNL A   1      33.761  32.920  34.113  1.00  0.00     0.345 HD
ATOM     18  H   UNL A   1      33.689  34.584  34.101  1.00  0.00     0.345 HD
ATOM     19  H   UNL A   1      35.038  33.812  34.702  1.00  0.00     0.345 HD
ENDBRANCH   6  16
ENDBRANCH   4   6
ENDBRANCH   3   4
ENDBRANCH   2   3
ENDBRANCH   1   2
BRANCH   1  20
ATOM     20  O   UNL A   1      34.164  33.278  27.518  1.00  0.00    -0.458 OA
BRANCH  20  21
ATOM     21  C   UNL A   1      34.008  31.935  27.551  1.00  0.00     0.338 C 
ATOM     22  O   UNL A   1      33.038  31.292  27.191  1.00  0.00    -0.246 OA
BRANCH  21  23
ATOM     23  C   UNL A   1      35.261  31.324  28.009  1.00  0.00     0.060 A 
ATOM     24  C   UNL A   1      35.268  29.958  28.278  1.00  0.00     0.016 A 
ATOM     25  C   UNL A   1      36.383  32.106  28.276  1.00  0.00     0.016 A 
ATOM     26  C   UNL A   1      36.366  29.382  28.908  1.00  0.00     0.010 A 
ATOM     27  C   UNL A   1      37.519  31.502  28.828  1.00  0.00     0.010 A 
ATOM     28  C   UNL A   1      37.509  30.141  29.187  1.00  0.00    -0.014 A 
BRANCH  28  29
ATOM     29  C   UNL A   1      38.679  29.524  29.870  1.00  0.00     0.031 A 
ATOM     30  C   UNL A   1      39.095  29.994  31.238  1.00  0.00     0.074 A 
ATOM     31  C   UNL A   1      39.392  28.557  29.258  1.00  0.00     0.049 A 
ATOM     32  N   UNL A   1      40.189  29.731  31.905  1.00  0.00    -0.248 NA
ATOM     33  C   UNL A   1      38.165  30.892  31.942  1.00  0.00     0.031 C 
ATOM     34  C   UNL A   1      39.093  27.991  27.942  1.00  0.00     0.029 A 
ATOM     35  N   UNL A   1      40.533  27.899  29.649  1.00  0.00    -0.354 N 
ATOM     36  C   UNL A   1      40.113  30.486  33.070  1.00  0.00     0.074 A 
ATOM     37  C   UNL A   1      38.861  31.207  33.026  1.00  0.00     0.031 C 
ATOM     38  C   UNL A   1      40.022  27.077  27.633  1.00  0.00     0.029 A 
ATOM     39  C   UNL A   1      41.033  27.054  28.687  1.00  0.00     0.049 A 
ATOM     40  H   UNL A   1      40.952  28.021  30.532  1.00  0.00     0.167 HD
ATOM     41  C   UNL A   1      41.004  30.566  34.087  1.00  0.00     0.034 A 
ATOM     42  C   UNL A   1      42.197  26.379  28.619  1.00  0.00     0.034 A 
ATOM     43  C   UNL A   1      42.213  29.791  34.167  1.00  0.00     0.049 A 
ATOM     44  C   UNL A   1      43.173  26.482  29.755  1.00  0.00     0.074 A 
ATOM     45  C   UNL A   1      43.147  29.757  35.187  1.00  0.00     0.029 A 
ATOM     46  N   UNL A   1      42.653  28.908  33.192  1.00  0.00    -0.354 N 
ATOM     47  N   UNL A   1      43.062  27.154  30.875  1.00  0.00    -0.248 NA
ATOM     48  C   UNL A   1      44.430  25.732  29.627  1.00  0.00     0.031 C 
ATOM     49  C   UNL A   1      44.160  28.864  34.822  1.00  0.00     0.029 A 
ATOM     50  C   UNL A   1      43.851  28.335  33.579  1.00  0.00     0.049 A 
ATOM     51  H   UNL A   1      42.181  28.718  32.349  1.00  0.00     0.167 HD
ATOM     52  C   UNL A   1      44.225  26.900  31.591  1.00  0.00     0.074 A 
ATOM     53  C   UNL A   1      45.019  25.992  30.787  1.00  0.00     0.031 C 
ATOM     54  C   UNL A   1      44.609  27.394  32.793  1.00  0.00     0.034 A 
BRANCH  41  55
ATOM     55  C   UNL A   1      40.693  31.516  35.211  1.00  0.00     0.023 A 
ATOM     56  C   UNL A   1      41.510  32.644  35.420  1.00  0.00     0.012 A 
ATOM     57  C   UNL A   1      39.570  31.312  36.036  1.00  0.00     0.148 A 
ATOM     58  C   UNL A   1      41.228  33.541  36.451  1.00  0.00     0.002 A 
ATOM     59  C   UNL A   1      39.276  32.228  37.040  1.00  0.00     0.091 A 
ATOM     60  F   UNL A   1      38.822  30.216  35.843  1.00  0.00    -0.205 F 
ATOM     61  C   UNL A   1      40.107  33.338  37.254  1.00  0.00     0.022 A 
BRANCH  59  62
ATOM     62  S   UNL A   1      37.814  32.070  38.072  1.00  0.00     0.127 S 
ATOM     63  O   UNL A   1      37.439  30.675  37.845  1.00  0.00    -0.237 OA
ATOM     64  O   UNL A   1      38.338  32.350  39.410  1.00  0.00    -0.237 OA
ATOM     65  O   UNL A   1      36.876  33.069  37.576  1.00  0.00    -0.744 OA
ENDBRANCH  59  62
ENDBRANCH  41  55
BRANCH  42  66
ATOM     66  C   UNL A   1      42.484  25.558  27.409  1.00  0.00     0.023 A 
ATOM     67  C   UNL A   1      43.308  26.077  26.394  1.00  0.00     0.012 A 
ATOM     68  C   UNL A   1      42.034  24.225  27.315  1.00  0.00     0.148 A 
ATOM     69  C   UNL A   1      43.682  25.283  25.309  1.00  0.00     0.002 A 
ATOM     70  C   UNL A   1      42.465  23.420  26.268  1.00  0.00     0.091 A 
ATOM     71  F   UNL A   1      41.225  23.757  28.276  1.00  0.00    -0.205 F 
ATOM     72  C   UNL A   1      43.278  23.950  25.257  1.00  0.00     0.022 A 
BRANCH  70  73
ATOM     73  S   UNL A   1      42.136  21.653  26.229  1.00  0.00     0.127 S 
ATOM     74  O   UNL A   1      40.721  21.618  25.871  1.00  0.00    -0.237 OA
ATOM     75  O   UNL A   1      43.048  21.195  25.180  1.00  0.00    -0.237 OA
ATOM     76  O   UNL A   1      42.470  21.166  27.561  1.00  0.00    -0.744 OA
ENDBRANCH  70  73
ENDBRANCH  42  66
BRANCH  54  77
ATOM     77  C   UNL A   1      45.947  26.965  33.330  1.00  0.00     0.023 A 
ATOM     78  C   UNL A   1      46.026  25.824  34.153  1.00  0.00     0.012 A 
ATOM     79  C   UNL A   1      47.129  27.625  32.943  1.00  0.00     0.148 A 
ATOM     80  C   UNL A   1      47.263  25.356  34.595  1.00  0.00     0.002 A 
ATOM     81  C   UNL A   1      48.361  27.130  33.356  1.00  0.00     0.091 A 
ATOM     82  F   UNL A   1      47.029  28.720  32.176  1.00  0.00    -0.205 F 
ATOM     83  C   UNL A   1      48.429  26.000  34.187  1.00  0.00     0.022 A 
BRANCH  81  84
ATOM     84  S   UNL A   1      49.916  27.844  32.810  1.00  0.00     0.127 S 
ATOM     85  O   UNL A   1      50.127  28.897  33.802  1.00  0.00    -0.237 OA
ATOM     86  O   UNL A   1      50.837  26.711  32.918  1.00  0.00    -0.237 OA
ATOM     87  O   UNL A   1      49.688  28.304  31.446  1.00  0.00    -0.744 OA
ENDBRANCH  81  84
ENDBRANCH  54  77
ENDBRANCH  28  29
ENDBRANCH  21  23
ENDBRANCH  20  21
ENDBRANCH   1  20
TORSDOF 16
ENDMDL
