MODEL 1
REMARK VINA RESULT:     -11.2      0.000      0.000
REMARK SMILES COc1ccc(NC(=O)C[C@@H](C[NH+]2CCOCC2)C(=O)OCCOC(=O)c2ccc(-c3c4nc(c(-c5cccc(S(=O)(=O)[O-])c5F)c5ccc([nH]5)c(-c5cccc(S(=O)(=O)[O-])c5F)c5nc(c(-c6cccc(S(=O)(=O)[O-])c6F)c6ccc3[nH]6)C=C5)C=C4)cc2)cc1
REMARK SMILES IDX 22 1 21 2 19 3 20 4 11 5 10 6 8 7 7 8 9 10 6 11 3 12 4 13
REMARK SMILES IDX 91 14 5 15 90 16 2 17 1 18 12 19 13 20 14 21 18 22 15 24
REMARK SMILES IDX 17 25 16 26 23 27 24 28 25 29 26 30 27 31 28 32 89 33 29 34
REMARK SMILES IDX 88 35 30 36 31 37 32 38 82 39 33 40 87 41 81 42 83 43 34 44
REMARK SMILES IDX 86 45 80 46 79 47 35 49 67 50 47 51 66 52 48 53 51 54 65 55
REMARK SMILES IDX 84 56 49 57 50 58 64 60 85 61 52 62 36 63 37 64 45 65 38 66
REMARK SMILES IDX 40 67 46 68 39 69 41 70 42 71 43 72 44 73 68 74 69 75 77 76
REMARK SMILES IDX 70 77 72 78 78 79 71 80 73 81 74 82 75 83 76 84 53 85 54 86
REMARK SMILES IDX 62 87 55 88 57 89 63 90 56 91 58 92 59 93 60 94 61 95
REMARK H PARENT 7 9 13 23 83 48 51 59
REMARK Flexibility Score: inf
ROOT
ATOM      1  C   UNL A   1      31.648  28.921  24.929  1.00  0.00     0.274 C 
ENDROOT
BRANCH   1   2
ATOM      2  O   UNL A   1      31.225  27.777  25.718  1.00  0.00    -0.462 OA
BRANCH   2   3
ATOM      3  C   UNL A   1      30.912  26.756  24.903  1.00  0.00     0.315 C 
ATOM      4  O   UNL A   1      30.408  26.968  23.790  1.00  0.00    -0.252 OA
BRANCH   3   5
ATOM      5  C   UNL A   1      31.041  25.317  25.363  1.00  0.00     0.163 C 
BRANCH   5   6
ATOM      6  C   UNL A   1      30.081  24.152  25.531  1.00  0.00     0.121 C 
BRANCH   6   7
ATOM      7  C   UNL A   1      30.575  23.072  26.594  1.00  0.00     0.225 C 
ATOM      8  N   UNL A   1      31.587  22.111  26.507  1.00  0.00    -0.326 N 
ATOM      9  H   UNL A   1      31.840  21.741  27.384  1.00  0.00     0.169 HD
ATOM     10  O   UNL A   1      29.968  23.052  27.681  1.00  0.00    -0.275 OA
BRANCH   8  11
ATOM     11  C   UNL A   1      32.343  21.540  25.421  1.00  0.00     0.041 A 
ATOM     12  C   UNL A   1      33.016  18.570  23.422  1.00  0.00     0.119 A 
ATOM     13  C   UNL A   1      32.085  19.848  22.701  1.00  0.00     0.048 A 
ATOM     14  C   UNL A   1      33.601  18.806  24.989  1.00  0.00     0.048 A 
ATOM     15  C   UNL A   1      31.799  21.504  23.726  1.00  0.00     0.030 A 
ATOM     16  C   UNL A   1      33.308  20.214  25.932  1.00  0.00     0.030 A 
BRANCH  12  17
ATOM     17  O   UNL A   1      33.224  17.460  22.673  1.00  0.00    -0.497 OA
ATOM     18  C   UNL A   1      33.927  16.454  23.388  1.00  0.00     0.278 C 
ENDBRANCH  12  17
ENDBRANCH   8  11
ENDBRANCH   6   7
ENDBRANCH   5   6
BRANCH   5  19
ATOM     19  C   UNL A   1      31.949  24.891  24.267  1.00  0.00     0.278 C 
BRANCH  19  20
ATOM     20  N   UNL A   1      33.265  25.694  24.299  1.00  0.00    -0.330 N 
ATOM     21  C   UNL A   1      34.507  25.173  23.002  1.00  0.00     0.291 C 
ATOM     22  C   UNL A   1      33.783  25.369  25.838  1.00  0.00     0.291 C 
ATOM     23  H   UNL A   1      33.142  26.684  24.086  1.00  0.00     0.348 HD
ATOM     24  C   UNL A   1      35.722  23.362  23.389  1.00  0.00     0.221 C 
ATOM     25  C   UNL A   1      34.619  23.801  26.321  1.00  0.00     0.221 C 
ATOM     26  O   UNL A   1      35.659  22.897  25.208  1.00  0.00    -0.370 OA
ENDBRANCH  19  20
ENDBRANCH   5  19
ENDBRANCH   3   5
ENDBRANCH   2   3
ENDBRANCH   1   2
BRANCH   1  27
ATOM     27  C   UNL A   1      31.697  30.241  25.734  1.00  0.00     0.275 C 
BRANCH  27  28
ATOM     28  O   UNL A   1      32.465  30.191  26.964  1.00  0.00    -0.458 OA
BRANCH  28  29
ATOM     29  C   UNL A   1      33.176  31.312  27.247  1.00  0.00     0.338 C 
ATOM     30  O   UNL A   1      32.728  32.447  27.325  1.00  0.00    -0.246 OA
BRANCH  29  31
ATOM     31  C   UNL A   1      34.587  31.032  27.586  1.00  0.00     0.060 A 
ATOM     32  C   UNL A   1      34.968  29.730  27.928  1.00  0.00     0.016 A 
ATOM     33  C   UNL A   1      35.464  32.082  27.826  1.00  0.00     0.016 A 
ATOM     34  C   UNL A   1      36.152  29.474  28.597  1.00  0.00     0.010 A 
ATOM     35  C   UNL A   1      36.705  31.814  28.420  1.00  0.00     0.010 A 
ATOM     36  C   UNL A   1      37.040  30.514  28.844  1.00  0.00    -0.014 A 
BRANCH  36  37
ATOM     37  C   UNL A   1      38.293  30.232  29.580  1.00  0.00     0.031 A 
ATOM     38  C   UNL A   1      39.330  29.338  28.963  1.00  0.00     0.074 A 
ATOM     39  C   UNL A   1      38.493  30.784  30.793  1.00  0.00     0.049 A 
ATOM     40  N   UNL A   1      40.406  28.835  29.504  1.00  0.00    -0.248 NA
ATOM     41  C   UNL A   1      39.123  28.944  27.558  1.00  0.00     0.031 C 
ATOM     42  C   UNL A   1      37.577  31.710  31.467  1.00  0.00     0.029 A 
ATOM     43  N   UNL A   1      39.519  30.628  31.691  1.00  0.00    -0.354 N 
ATOM     44  C   UNL A   1      40.961  28.006  28.538  1.00  0.00     0.074 A 
ATOM     45  C   UNL A   1      40.115  28.085  27.369  1.00  0.00     0.031 C 
ATOM     46  C   UNL A   1      38.070  32.025  32.673  1.00  0.00     0.029 A 
ATOM     47  C   UNL A   1      39.288  31.258  32.893  1.00  0.00     0.049 A 
ATOM     48  H   UNL A   1      40.337  30.116  31.496  1.00  0.00     0.167 HD
ATOM     49  C   UNL A   1      42.073  27.240  28.632  1.00  0.00     0.034 A 
ATOM     50  C   UNL A   1      39.946  31.173  34.064  1.00  0.00     0.034 A 
ATOM     51  C   UNL A   1      42.920  27.203  29.793  1.00  0.00     0.049 A 
ATOM     52  C   UNL A   1      41.157  30.286  34.140  1.00  0.00     0.074 A 
ATOM     53  C   UNL A   1      44.098  26.501  29.971  1.00  0.00     0.029 A 
ATOM     54  N   UNL A   1      42.672  27.879  30.977  1.00  0.00    -0.354 N 
ATOM     55  N   UNL A   1      41.710  29.560  33.199  1.00  0.00    -0.248 NA
ATOM     56  C   UNL A   1      41.851  30.225  35.433  1.00  0.00     0.031 C 
ATOM     57  C   UNL A   1      44.531  26.704  31.284  1.00  0.00     0.029 A 
ATOM     58  C   UNL A   1      43.662  27.589  31.900  1.00  0.00     0.049 A 
ATOM     59  H   UNL A   1      41.906  28.476  31.137  1.00  0.00     0.167 HD
ATOM     60  C   UNL A   1      42.836  28.988  33.774  1.00  0.00     0.074 A 
ATOM     61  C   UNL A   1      42.904  29.479  35.135  1.00  0.00     0.031 C 
ATOM     62  C   UNL A   1      43.731  28.123  33.235  1.00  0.00     0.034 A 
BRANCH  49  63
ATOM     63  C   UNL A   1      42.432  26.358  27.468  1.00  0.00     0.023 A 
ATOM     64  C   UNL A   1      43.305  26.817  26.463  1.00  0.00     0.012 A 
ATOM     65  C   UNL A   1      41.970  25.027  27.432  1.00  0.00     0.148 A 
ATOM     66  C   UNL A   1      43.700  25.966  25.429  1.00  0.00     0.002 A 
ATOM     67  C   UNL A   1      42.409  24.172  26.430  1.00  0.00     0.091 A 
ATOM     68  F   UNL A   1      41.121  24.621  28.386  1.00  0.00    -0.205 F 
ATOM     69  C   UNL A   1      43.266  24.642  25.423  1.00  0.00     0.022 A 
BRANCH  67  70
ATOM     70  S   UNL A   1      41.975  22.430  26.385  1.00  0.00     0.127 S 
ATOM     71  O   UNL A   1      42.648  21.991  25.163  1.00  0.00    -0.237 OA
ATOM     72  O   UNL A   1      42.576  21.936  27.623  1.00  0.00    -0.237 OA
ATOM     73  O   UNL A   1      40.521  22.373  26.343  1.00  0.00    -0.744 OA
ENDBRANCH  67  70
ENDBRANCH  49  63
BRANCH  50  74
ATOM     74  C   UNL A   1      39.460  31.905  35.268  1.00  0.00     0.023 A 
ATOM     75  C   UNL A   1      38.549  31.286  36.145  1.00  0.00     0.012 A 
ATOM     76  C   UNL A   1      39.869  33.229  35.530  1.00  0.00     0.148 A 
ATOM     77  C   UNL A   1      38.008  31.988  37.222  1.00  0.00     0.002 A 
ATOM     78  C   UNL A   1      39.378  33.900  36.642  1.00  0.00     0.091 A 
ATOM     79  F   UNL A   1      40.730  33.809  34.682  1.00  0.00    -0.205 F 
ATOM     80  C   UNL A   1      38.428  33.292  37.475  1.00  0.00     0.022 A 
BRANCH  78  81
ATOM     81  S   UNL A   1      39.961  35.531  37.116  1.00  0.00     0.127 S 
ATOM     82  O   UNL A   1      41.394  35.300  37.276  1.00  0.00    -0.237 OA
ATOM     83  O   UNL A   1      39.592  36.332  35.948  1.00  0.00    -0.237 OA
ATOM     84  O   UNL A   1      39.234  35.873  38.331  1.00  0.00    -0.744 OA
ENDBRANCH  78  81
ENDBRANCH  50  74
BRANCH  62  85
ATOM     85  C   UNL A   1      44.892  27.707  34.099  1.00  0.00     0.023 A 
ATOM     86  C   UNL A   1      46.074  28.472  34.120  1.00  0.00     0.012 A 
ATOM     87  C   UNL A   1      44.789  26.567  34.918  1.00  0.00     0.148 A 
ATOM     88  C   UNL A   1      47.158  28.076  34.901  1.00  0.00     0.002 A 
ATOM     89  C   UNL A   1      45.849  26.213  35.742  1.00  0.00     0.091 A 
ATOM     90  F   UNL A   1      43.660  25.845  34.874  1.00  0.00    -0.205 F 
ATOM     91  C   UNL A   1      47.043  26.954  35.718  1.00  0.00     0.022 A 
BRANCH  89  92
ATOM     92  S   UNL A   1      45.753  24.847  36.902  1.00  0.00     0.127 S 
ATOM     93  O   UNL A   1      45.636  23.701  36.003  1.00  0.00    -0.237 OA
ATOM     94  O   UNL A   1      47.035  24.948  37.601  1.00  0.00    -0.237 OA
ATOM     95  O   UNL A   1      44.586  25.106  37.736  1.00  0.00    -0.744 OA
ENDBRANCH  89  92
ENDBRANCH  62  85
ENDBRANCH  36  37
ENDBRANCH  29  31
ENDBRANCH  28  29
ENDBRANCH  27  28
ENDBRANCH   1  27
TORSDOF 20
ENDMDL
MODEL 2
REMARK VINA RESULT:     -10.7      4.631      9.982
REMARK SMILES COc1ccc(NC(=O)C[C@@H](C[NH+]2CCOCC2)C(=O)OCCOC(=O)c2ccc(-c3c4nc(c(-c5cccc(S(=O)(=O)[O-])c5F)c5ccc([nH]5)c(-c5cccc(S(=O)(=O)[O-])c5F)c5nc(c(-c6cccc(S(=O)(=O)[O-])c6F)c6ccc3[nH]6)C=C5)C=C4)cc2)cc1
REMARK SMILES IDX 22 1 21 2 19 3 20 4 11 5 10 6 8 7 7 8 9 10 6 11 3 12 4 13
REMARK SMILES IDX 91 14 5 15 90 16 2 17 1 18 12 19 13 20 14 21 18 22 15 24
REMARK SMILES IDX 17 25 16 26 23 27 24 28 25 29 26 30 27 31 28 32 89 33 29 34
REMARK SMILES IDX 88 35 30 36 31 37 32 38 82 39 33 40 87 41 81 42 83 43 34 44
REMARK SMILES IDX 86 45 80 46 79 47 35 49 67 50 47 51 66 52 48 53 51 54 65 55
REMARK SMILES IDX 84 56 49 57 50 58 64 60 85 61 52 62 36 63 37 64 45 65 38 66
REMARK SMILES IDX 40 67 46 68 39 69 41 70 42 71 43 72 44 73 68 74 69 75 77 76
REMARK SMILES IDX 70 77 72 78 78 79 71 80 73 81 74 82 75 83 76 84 53 85 54 86
REMARK SMILES IDX 62 87 55 88 57 89 63 90 56 91 58 92 59 93 60 94 61 95
REMARK H PARENT 7 9 13 23 83 48 51 59
REMARK Flexibility Score: inf
ROOT
ATOM      1  C   UNL A   1      35.553  20.853  25.237  1.00  0.00     0.274 C 
ENDROOT
BRANCH   1   2
ATOM      2  O   UNL A   1      34.544  20.923  26.280  1.00  0.00    -0.462 OA
BRANCH   2   3
ATOM      3  C   UNL A   1      33.323  20.985  25.725  1.00  0.00     0.315 C 
ATOM      4  O   UNL A   1      32.927  20.088  24.966  1.00  0.00    -0.252 OA
BRANCH   3   5
ATOM      5  C   UNL A   1      32.443  22.208  25.899  1.00  0.00     0.163 C 
BRANCH   5   6
ATOM      6  C   UNL A   1      32.182  23.194  27.024  1.00  0.00     0.121 C 
BRANCH   6   7
ATOM      7  C   UNL A   1      30.866  24.068  26.808  1.00  0.00     0.225 C 
ATOM      8  N   UNL A   1      30.705  25.340  26.249  1.00  0.00    -0.326 N 
ATOM      9  H   UNL A   1      29.768  25.541  26.020  1.00  0.00     0.169 HD
ATOM     10  O   UNL A   1      29.799  23.564  27.205  1.00  0.00    -0.275 OA
BRANCH   8  11
ATOM     11  C   UNL A   1      31.602  26.423  25.934  1.00  0.00     0.041 A 
ATOM     12  C   UNL A   1      32.197  30.013  26.086  1.00  0.00     0.119 A 
ATOM     13  C   UNL A   1      33.090  28.989  27.169  1.00  0.00     0.048 A 
ATOM     14  C   UNL A   1      31.146  29.276  24.987  1.00  0.00     0.048 A 
ATOM     15  C   UNL A   1      32.861  27.039  27.032  1.00  0.00     0.030 A 
ATOM     16  C   UNL A   1      30.876  27.581  24.893  1.00  0.00     0.030 A 
BRANCH  12  17
ATOM     17  O   UNL A   1      32.408  31.348  26.184  1.00  0.00    -0.497 OA
ATOM     18  C   UNL A   1      31.222  32.057  26.511  1.00  0.00     0.278 C 
ENDBRANCH  12  17
ENDBRANCH   8  11
ENDBRANCH   6   7
ENDBRANCH   5   6
BRANCH   5  19
ATOM     19  C   UNL A   1      33.105  23.020  24.845  1.00  0.00     0.278 C 
BRANCH  19  20
ATOM     20  N   UNL A   1      32.754  22.489  23.440  1.00  0.00    -0.330 N 
ATOM     21  C   UNL A   1      33.671  23.344  22.052  1.00  0.00     0.291 C 
ATOM     22  C   UNL A   1      31.126  22.787  23.400  1.00  0.00     0.291 C 
ATOM     23  H   UNL A   1      33.017  21.515  23.296  1.00  0.00     0.348 HD
ATOM     24  C   UNL A   1      32.935  25.322  21.379  1.00  0.00     0.221 C 
ATOM     25  C   UNL A   1      30.402  24.446  23.058  1.00  0.00     0.221 C 
ATOM     26  O   UNL A   1      31.183  25.621  21.988  1.00  0.00    -0.370 OA
ENDBRANCH  19  20
ENDBRANCH   5  19
ENDBRANCH   3   5
ENDBRANCH   2   3
ENDBRANCH   1   2
BRANCH   1  27
ATOM     27  C   UNL A   1      36.612  21.976  25.326  1.00  0.00     0.275 C 
BRANCH  27  28
ATOM     28  O   UNL A   1      37.925  21.634  24.811  1.00  0.00    -0.458 OA
BRANCH  28  29
ATOM     29  C   UNL A   1      38.852  21.323  25.753  1.00  0.00     0.338 C 
ATOM     30  O   UNL A   1      39.368  20.226  25.919  1.00  0.00    -0.246 OA
BRANCH  29  31
ATOM     31  C   UNL A   1      39.302  22.496  26.532  1.00  0.00     0.060 A 
ATOM     32  C   UNL A   1      38.915  23.779  26.130  1.00  0.00     0.016 A 
ATOM     33  C   UNL A   1      40.307  22.354  27.479  1.00  0.00     0.016 A 
ATOM     34  C   UNL A   1      39.581  24.908  26.573  1.00  0.00     0.010 A 
ATOM     35  C   UNL A   1      40.922  23.501  28.001  1.00  0.00     0.010 A 
ATOM     36  C   UNL A   1      40.589  24.783  27.522  1.00  0.00    -0.014 A 
BRANCH  36  37
ATOM     37  C   UNL A   1      41.310  25.996  27.972  1.00  0.00     0.031 A 
ATOM     38  C   UNL A   1      40.577  27.044  28.758  1.00  0.00     0.074 A 
ATOM     39  C   UNL A   1      42.616  26.144  27.676  1.00  0.00     0.049 A 
ATOM     40  N   UNL A   1      40.972  28.240  29.097  1.00  0.00    -0.248 NA
ATOM     41  C   UNL A   1      39.214  26.710  29.211  1.00  0.00     0.031 C 
ATOM     42  C   UNL A   1      43.443  25.164  26.962  1.00  0.00     0.029 A 
ATOM     43  N   UNL A   1      43.477  27.186  27.913  1.00  0.00    -0.354 N 
ATOM     44  C   UNL A   1      39.887  28.831  29.730  1.00  0.00     0.074 A 
ATOM     45  C   UNL A   1      38.818  27.857  29.746  1.00  0.00     0.031 C 
ATOM     46  C   UNL A   1      44.679  25.656  26.805  1.00  0.00     0.029 A 
ATOM     47  C   UNL A   1      44.710  27.016  27.326  1.00  0.00     0.049 A 
ATOM     48  H   UNL A   1      43.236  27.976  28.448  1.00  0.00     0.167 HD
ATOM     49  C   UNL A   1      39.794  30.081  30.239  1.00  0.00     0.034 A 
ATOM     50  C   UNL A   1      45.727  27.881  27.164  1.00  0.00     0.034 A 
ATOM     51  C   UNL A   1      40.880  31.023  30.244  1.00  0.00     0.049 A 
ATOM     52  C   UNL A   1      45.575  29.272  27.713  1.00  0.00     0.074 A 
ATOM     53  C   UNL A   1      40.906  32.298  30.781  1.00  0.00     0.029 A 
ATOM     54  N   UNL A   1      42.122  30.803  29.670  1.00  0.00    -0.354 N 
ATOM     55  N   UNL A   1      44.568  29.796  28.369  1.00  0.00    -0.248 NA
ATOM     56  C   UNL A   1      46.708  30.186  27.522  1.00  0.00     0.031 C 
ATOM     57  C   UNL A   1      42.144  32.871  30.479  1.00  0.00     0.029 A 
ATOM     58  C   UNL A   1      42.914  31.929  29.817  1.00  0.00     0.049 A 
ATOM     59  H   UNL A   1      42.399  29.971  29.224  1.00  0.00     0.167 HD
ATOM     60  C   UNL A   1      44.962  31.085  28.702  1.00  0.00     0.074 A 
ATOM     61  C   UNL A   1      46.312  31.249  28.204  1.00  0.00     0.031 C 
ATOM     62  C   UNL A   1      44.269  32.055  29.349  1.00  0.00     0.034 A 
BRANCH  49  63
ATOM     63  C   UNL A   1      38.474  30.524  30.810  1.00  0.00     0.023 A 
ATOM     64  C   UNL A   1      38.194  30.357  32.180  1.00  0.00     0.012 A 
ATOM     65  C   UNL A   1      37.549  31.198  29.988  1.00  0.00     0.148 A 
ATOM     66  C   UNL A   1      37.003  30.844  32.720  1.00  0.00     0.002 A 
ATOM     67  C   UNL A   1      36.391  31.725  30.544  1.00  0.00     0.091 A 
ATOM     68  F   UNL A   1      37.827  31.321  28.683  1.00  0.00    -0.205 F 
ATOM     69  C   UNL A   1      36.111  31.540  31.907  1.00  0.00     0.022 A 
BRANCH  67  70
ATOM     70  S   UNL A   1      35.224  32.710  29.598  1.00  0.00     0.127 S 
ATOM     71  O   UNL A   1      34.692  31.719  28.663  1.00  0.00    -0.237 OA
ATOM     72  O   UNL A   1      34.285  33.142  30.631  1.00  0.00    -0.237 OA
ATOM     73  O   UNL A   1      35.999  33.781  28.985  1.00  0.00    -0.744 OA
ENDBRANCH  67  70
ENDBRANCH  49  63
BRANCH  50  74
ATOM     74  C   UNL A   1      46.956  27.485  26.420  1.00  0.00     0.023 A 
ATOM     75  C   UNL A   1      47.095  27.830  25.062  1.00  0.00     0.012 A 
ATOM     76  C   UNL A   1      47.975  26.736  27.043  1.00  0.00     0.148 A 
ATOM     77  C   UNL A   1      48.192  27.386  24.324  1.00  0.00     0.002 A 
ATOM     78  C   UNL A   1      49.097  26.353  26.320  1.00  0.00     0.091 A 
ATOM     79  F   UNL A   1      47.825  26.407  28.335  1.00  0.00    -0.205 F 
ATOM     80  C   UNL A   1      49.196  26.654  24.954  1.00  0.00     0.022 A 
BRANCH  78  81
ATOM     81  S   UNL A   1      50.495  25.522  27.081  1.00  0.00     0.127 S 
ATOM     82  O   UNL A   1      51.413  25.389  25.952  1.00  0.00    -0.237 OA
ATOM     83  O   UNL A   1      50.904  26.492  28.098  1.00  0.00    -0.237 OA
ATOM     84  O   UNL A   1      49.968  24.275  27.619  1.00  0.00    -0.744 OA
ENDBRANCH  78  81
ENDBRANCH  50  74
BRANCH  62  85
ATOM     85  C   UNL A   1      44.985  33.353  29.612  1.00  0.00     0.023 A 
ATOM     86  C   UNL A   1      45.836  33.485  30.726  1.00  0.00     0.012 A 
ATOM     87  C   UNL A   1      44.836  34.434  28.722  1.00  0.00     0.148 A 
ATOM     88  C   UNL A   1      46.481  34.693  30.984  1.00  0.00     0.002 A 
ATOM     89  C   UNL A   1      45.531  35.614  28.949  1.00  0.00     0.091 A 
ATOM     90  F   UNL A   1      44.012  34.292  27.673  1.00  0.00    -0.205 F 
ATOM     91  C   UNL A   1      46.337  35.753  30.091  1.00  0.00     0.022 A 
BRANCH  89  92
ATOM     92  S   UNL A   1      45.488  36.992  27.801  1.00  0.00     0.127 S 
ATOM     93  O   UNL A   1      46.619  37.798  28.261  1.00  0.00    -0.237 OA
ATOM     94  O   UNL A   1      45.696  36.326  26.515  1.00  0.00    -0.237 OA
ATOM     95  O   UNL A   1      44.179  37.610  27.958  1.00  0.00    -0.744 OA
ENDBRANCH  89  92
ENDBRANCH  62  85
ENDBRANCH  36  37
ENDBRANCH  29  31
ENDBRANCH  28  29
ENDBRANCH  27  28
ENDBRANCH   1  27
TORSDOF 20
ENDMDL
MODEL 3
REMARK VINA RESULT:     -10.7      1.573      2.427
REMARK SMILES COc1ccc(NC(=O)C[C@@H](C[NH+]2CCOCC2)C(=O)OCCOC(=O)c2ccc(-c3c4nc(c(-c5cccc(S(=O)(=O)[O-])c5F)c5ccc([nH]5)c(-c5cccc(S(=O)(=O)[O-])c5F)c5nc(c(-c6cccc(S(=O)(=O)[O-])c6F)c6ccc3[nH]6)C=C5)C=C4)cc2)cc1
REMARK SMILES IDX 22 1 21 2 19 3 20 4 11 5 10 6 8 7 7 8 9 10 6 11 3 12 4 13
REMARK SMILES IDX 91 14 5 15 90 16 2 17 1 18 12 19 13 20 14 21 18 22 15 24
REMARK SMILES IDX 17 25 16 26 23 27 24 28 25 29 26 30 27 31 28 32 89 33 29 34
REMARK SMILES IDX 88 35 30 36 31 37 32 38 82 39 33 40 87 41 81 42 83 43 34 44
REMARK SMILES IDX 86 45 80 46 79 47 35 49 67 50 47 51 66 52 48 53 51 54 65 55
REMARK SMILES IDX 84 56 49 57 50 58 64 60 85 61 52 62 36 63 37 64 45 65 38 66
REMARK SMILES IDX 40 67 46 68 39 69 41 70 42 71 43 72 44 73 68 74 69 75 77 76
REMARK SMILES IDX 70 77 72 78 78 79 71 80 73 81 74 82 75 83 76 84 53 85 54 86
REMARK SMILES IDX 62 87 55 88 57 89 63 90 56 91 58 92 59 93 60 94 61 95
REMARK H PARENT 7 9 13 23 83 48 51 59
REMARK Flexibility Score: inf
ROOT
ATOM      1  C   UNL A   1      31.349  29.990  25.015  1.00  0.00     0.274 C 
ENDROOT
BRANCH   1   2
ATOM      2  O   UNL A   1      32.049  29.222  24.000  1.00  0.00    -0.462 OA
BRANCH   2   3
ATOM      3  C   UNL A   1      31.183  28.411  23.369  1.00  0.00     0.315 C 
ATOM      4  O   UNL A   1      29.961  28.559  23.511  1.00  0.00    -0.252 OA
BRANCH   3   5
ATOM      5  C   UNL A   1      31.667  27.214  22.573  1.00  0.00     0.163 C 
BRANCH   5   6
ATOM      6  C   UNL A   1      33.017  26.728  22.075  1.00  0.00     0.121 C 
BRANCH   6   7
ATOM      7  C   UNL A   1      32.929  25.390  21.213  1.00  0.00     0.225 C 
ATOM      8  N   UNL A   1      32.895  24.051  21.618  1.00  0.00    -0.326 N 
ATOM      9  H   UNL A   1      32.600  23.443  20.902  1.00  0.00     0.169 HD
ATOM     10  O   UNL A   1      32.899  25.532  19.977  1.00  0.00    -0.275 OA
BRANCH   8  11
ATOM     11  C   UNL A   1      33.196  23.363  22.848  1.00  0.00     0.041 A 
ATOM     12  C   UNL A   1      34.082  20.197  24.416  1.00  0.00     0.119 A 
ATOM     13  C   UNL A   1      35.318  21.409  24.264  1.00  0.00     0.048 A 
ATOM     14  C   UNL A   1      32.528  20.581  23.877  1.00  0.00     0.048 A 
ATOM     15  C   UNL A   1      34.835  23.164  23.514  1.00  0.00     0.030 A 
ATOM     16  C   UNL A   1      32.095  22.082  23.157  1.00  0.00     0.030 A 
BRANCH  12  17
ATOM     17  O   UNL A   1      34.443  19.014  24.970  1.00  0.00    -0.497 OA
ATOM     18  C   UNL A   1      33.579  17.955  24.584  1.00  0.00     0.278 C 
ENDBRANCH  12  17
ENDBRANCH   8  11
ENDBRANCH   6   7
ENDBRANCH   5   6
BRANCH   5  19
ATOM     19  C   UNL A   1      31.254  26.194  23.572  1.00  0.00     0.278 C 
BRANCH  19  20
ATOM     20  N   UNL A   1      31.532  26.686  25.007  1.00  0.00    -0.330 N 
ATOM     21  C   UNL A   1      33.215  26.202  25.665  1.00  0.00     0.291 C 
ATOM     22  C   UNL A   1      30.297  25.948  25.827  1.00  0.00     0.291 C 
ATOM     23  H   UNL A   1      31.558  27.702  25.091  1.00  0.00     0.348 HD
ATOM     24  C   UNL A   1      33.483  24.140  26.429  1.00  0.00     0.221 C 
ATOM     25  C   UNL A   1      30.322  24.177  26.328  1.00  0.00     0.221 C 
ATOM     26  O   UNL A   1      31.819  23.330  26.750  1.00  0.00    -0.370 OA
ENDBRANCH  19  20
ENDBRANCH   5  19
ENDBRANCH   3   5
ENDBRANCH   2   3
ENDBRANCH   1   2
BRANCH   1  27
ATOM     27  C   UNL A   1      32.046  29.968  26.396  1.00  0.00     0.275 C 
BRANCH  27  28
ATOM     28  O   UNL A   1      33.404  30.477  26.414  1.00  0.00    -0.458 OA
BRANCH  28  29
ATOM     29  C   UNL A   1      33.617  31.525  27.250  1.00  0.00     0.338 C 
ATOM     30  O   UNL A   1      32.926  32.531  27.333  1.00  0.00    -0.246 OA
BRANCH  29  31
ATOM     31  C   UNL A   1      34.739  31.300  28.186  1.00  0.00     0.060 A 
ATOM     32  C   UNL A   1      35.775  32.238  28.258  1.00  0.00     0.016 A 
ATOM     33  C   UNL A   1      34.906  30.056  28.782  1.00  0.00     0.016 A 
ATOM     34  C   UNL A   1      37.000  31.922  28.816  1.00  0.00     0.010 A 
ATOM     35  C   UNL A   1      36.114  29.765  29.431  1.00  0.00     0.010 A 
ATOM     36  C   UNL A   1      37.182  30.682  29.418  1.00  0.00    -0.014 A 
BRANCH  36  37
ATOM     37  C   UNL A   1      38.506  30.347  29.991  1.00  0.00     0.031 A 
ATOM     38  C   UNL A   1      39.401  29.380  29.272  1.00  0.00     0.074 A 
ATOM     39  C   UNL A   1      38.895  30.917  31.149  1.00  0.00     0.049 A 
ATOM     40  N   UNL A   1      40.511  28.830  29.682  1.00  0.00    -0.248 NA
ATOM     41  C   UNL A   1      38.987  28.963  27.919  1.00  0.00     0.031 C 
ATOM     42  C   UNL A   1      38.128  31.911  31.907  1.00  0.00     0.029 A 
ATOM     43  N   UNL A   1      40.022  30.725  31.908  1.00  0.00    -0.354 N 
ATOM     44  C   UNL A   1      40.887  27.946  28.679  1.00  0.00     0.074 A 
ATOM     45  C   UNL A   1      39.897  28.044  27.629  1.00  0.00     0.031 C 
ATOM     46  C   UNL A   1      38.794  32.227  33.026  1.00  0.00     0.029 A 
ATOM     47  C   UNL A   1      39.989  31.397  33.108  1.00  0.00     0.049 A 
ATOM     48  H   UNL A   1      40.778  30.162  31.623  1.00  0.00     0.167 HD
ATOM     49  C   UNL A   1      41.958  27.121  28.649  1.00  0.00     0.034 A 
ATOM     50  C   UNL A   1      40.791  31.304  34.184  1.00  0.00     0.034 A 
ATOM     51  C   UNL A   1      42.951  27.064  29.689  1.00  0.00     0.049 A 
ATOM     52  C   UNL A   1      41.953  30.352  34.128  1.00  0.00     0.074 A 
ATOM     53  C   UNL A   1      44.103  26.300  29.732  1.00  0.00     0.029 A 
ATOM     54  N   UNL A   1      42.900  27.783  30.872  1.00  0.00    -0.354 N 
ATOM     55  N   UNL A   1      42.335  29.572  33.146  1.00  0.00    -0.248 NA
ATOM     56  C   UNL A   1      42.809  30.283  35.319  1.00  0.00     0.031 C 
ATOM     57  C   UNL A   1      44.718  26.511  30.969  1.00  0.00     0.029 A 
ATOM     58  C   UNL A   1      43.987  27.460  31.666  1.00  0.00     0.049 A 
ATOM     59  H   UNL A   1      42.195  28.426  31.113  1.00  0.00     0.167 HD
ATOM     60  C   UNL A   1      43.496  28.950  33.585  1.00  0.00     0.074 A 
ATOM     61  C   UNL A   1      43.771  29.471  34.909  1.00  0.00     0.031 C 
ATOM     62  C   UNL A   1      44.262  28.022  32.962  1.00  0.00     0.034 A 
BRANCH  49  63
ATOM     63  C   UNL A   1      42.112  26.190  27.477  1.00  0.00     0.023 A 
ATOM     64  C   UNL A   1      42.829  26.589  26.334  1.00  0.00     0.012 A 
ATOM     65  C   UNL A   1      41.615  24.873  27.562  1.00  0.00     0.148 A 
ATOM     66  C   UNL A   1      43.039  25.693  25.284  1.00  0.00     0.002 A 
ATOM     67  C   UNL A   1      41.872  23.974  26.537  1.00  0.00     0.091 A 
ATOM     68  F   UNL A   1      40.913  24.526  28.649  1.00  0.00    -0.205 F 
ATOM     69  C   UNL A   1      42.575  24.384  25.393  1.00  0.00     0.022 A 
BRANCH  67  70
ATOM     70  S   UNL A   1      41.393  22.245  26.623  1.00  0.00     0.127 S 
ATOM     71  O   UNL A   1      42.032  21.702  25.424  1.00  0.00    -0.237 OA
ATOM     72  O   UNL A   1      42.003  21.824  27.883  1.00  0.00    -0.237 OA
ATOM     73  O   UNL A   1      39.937  22.225  26.608  1.00  0.00    -0.744 OA
ENDBRANCH  67  70
ENDBRANCH  49  63
BRANCH  50  74
ATOM     74  C   UNL A   1      40.510  32.093  35.417  1.00  0.00     0.023 A 
ATOM     75  C   UNL A   1      41.438  33.055  35.859  1.00  0.00     0.012 A 
ATOM     76  C   UNL A   1      39.343  31.871  36.175  1.00  0.00     0.148 A 
ATOM     77  C   UNL A   1      41.241  33.736  37.061  1.00  0.00     0.002 A 
ATOM     78  C   UNL A   1      39.119  32.599  37.336  1.00  0.00     0.091 A 
ATOM     79  F   UNL A   1      38.472  30.945  35.746  1.00  0.00    -0.205 F 
ATOM     80  C   UNL A   1      40.079  33.512  37.795  1.00  0.00     0.022 A 
BRANCH  78  81
ATOM     81  S   UNL A   1      37.593  32.470  38.273  1.00  0.00     0.127 S 
ATOM     82  O   UNL A   1      37.877  33.326  39.423  1.00  0.00    -0.237 OA
ATOM     83  O   UNL A   1      36.614  33.010  37.329  1.00  0.00    -0.237 OA
ATOM     84  O   UNL A   1      37.427  31.053  38.565  1.00  0.00    -0.744 OA
ENDBRANCH  78  81
ENDBRANCH  50  74
BRANCH  62  85
ATOM     85  C   UNL A   1      45.505  27.562  33.677  1.00  0.00     0.023 A 
ATOM     86  C   UNL A   1      46.691  28.317  33.602  1.00  0.00     0.012 A 
ATOM     87  C   UNL A   1      45.478  26.389  34.456  1.00  0.00     0.148 A 
ATOM     88  C   UNL A   1      47.849  27.880  34.244  1.00  0.00     0.002 A 
ATOM     89  C   UNL A   1      46.616  25.994  35.145  1.00  0.00     0.091 A 
ATOM     90  F   UNL A   1      44.342  25.678  34.505  1.00  0.00    -0.205 F 
ATOM     91  C   UNL A   1      47.808  26.726  35.023  1.00  0.00     0.022 A 
BRANCH  89  92
ATOM     92  S   UNL A   1      46.629  24.582  36.252  1.00  0.00     0.127 S 
ATOM     93  O   UNL A   1      46.372  23.477  35.328  1.00  0.00    -0.237 OA
ATOM     94  O   UNL A   1      47.989  24.625  36.789  1.00  0.00    -0.237 OA
ATOM     95  O   UNL A   1      45.581  24.827  37.235  1.00  0.00    -0.744 OA
ENDBRANCH  89  92
ENDBRANCH  62  85
ENDBRANCH  36  37
ENDBRANCH  29  31
ENDBRANCH  28  29
ENDBRANCH  27  28
ENDBRANCH   1  27
TORSDOF 20
ENDMDL
