MODEL 1
REMARK VINA RESULT:     -11.6      0.000      0.000
REMARK SMILES C[C@@H](C(=O)OCCOC(=O)c1ccc(-c2c3nc(c(-c4cccc(S(=O)(=O)[O-])c4F)c4ccc([nH]4)c(-c4cccc(S(=O)(=O)[O-])c4F)c4nc(c(-c5cccc(S(=O)(=O)[O-])c5F)c5ccc2[nH]5)C=C4)C=C3)cc1)c1ccc(C[C@H]2CCCC2=O)cc1
REMARK SMILES IDX 6 1 5 2 3 3 4 4 2 5 1 6 74 7 75 8 86 9 76 10 85 11 77 12
REMARK SMILES IDX 78 13 79 14 80 15 83 16 81 17 82 18 84 19 7 20 8 21 9 22
REMARK SMILES IDX 10 23 11 24 12 25 73 26 13 27 72 28 14 29 15 30 16 31 66 32
REMARK SMILES IDX 17 33 71 34 65 35 67 36 18 37 70 38 64 39 63 40 19 42 51 43
REMARK SMILES IDX 31 44 50 45 32 46 35 47 49 48 68 49 33 50 34 51 48 53 69 54
REMARK SMILES IDX 36 55 20 56 21 57 29 58 22 59 24 60 30 61 23 62 25 63 26 64
REMARK SMILES IDX 27 65 28 66 52 67 53 68 61 69 54 70 56 71 62 72 55 73 57 74
REMARK SMILES IDX 58 75 59 76 60 77 37 78 38 79 46 80 39 81 41 82 47 83 40 84
REMARK SMILES IDX 42 85 43 86 44 87 45 88
REMARK H PARENT 67 41 35 52
REMARK Flexibility Score: inf
ROOT
ATOM      1  C   UNL A   1      36.575  19.691  24.933  1.00  0.00     0.274 C 
ENDROOT
BRANCH   1   2
ATOM      2  O   UNL A   1      36.124  21.021  25.265  1.00  0.00    -0.462 OA
BRANCH   2   3
ATOM      3  C   UNL A   1      35.114  21.513  24.489  1.00  0.00     0.313 C 
ATOM      4  O   UNL A   1      34.027  20.955  24.410  1.00  0.00    -0.252 OA
BRANCH   3   5
ATOM      5  C   UNL A   1      35.538  22.751  23.650  1.00  0.00     0.126 C 
ATOM      6  C   UNL A   1      37.035  23.053  23.843  1.00  0.00     0.025 C 
BRANCH   5   7
ATOM      7  C   UNL A   1      34.630  23.978  23.873  1.00  0.00    -0.034 A 
ATOM      8  C   UNL A   1      34.656  24.653  25.103  1.00  0.00     0.005 A 
ATOM      9  C   UNL A   1      33.782  24.508  22.884  1.00  0.00     0.005 A 
ATOM     10  C   UNL A   1      34.015  25.881  25.281  1.00  0.00     0.004 A 
ATOM     11  C   UNL A   1      33.075  25.705  23.088  1.00  0.00     0.004 A 
ATOM     12  C   UNL A   1      33.206  26.424  24.283  1.00  0.00    -0.047 A 
BRANCH  12  13
ATOM     13  C   UNL A   1      32.595  27.802  24.434  1.00  0.00     0.047 C 
BRANCH  13  14
ATOM     14  C   UNL A   1      31.134  27.912  24.884  1.00  0.00     0.060 C 
ATOM     15  C   UNL A   1      30.086  27.617  23.810  1.00  0.00     0.012 C 
ATOM     16  C   UNL A   1      30.754  26.924  25.959  1.00  0.00     0.136 C 
ATOM     17  C   UNL A   1      29.710  26.149  23.980  1.00  0.00     0.009 C 
ATOM     18  C   UNL A   1      29.779  25.883  25.476  1.00  0.00     0.076 C 
ATOM     19  O   UNL A   1      31.182  26.951  27.106  1.00  0.00    -0.299 OA
ENDBRANCH  13  14
ENDBRANCH  12  13
ENDBRANCH   5   7
ENDBRANCH   3   5
ENDBRANCH   2   3
ENDBRANCH   1   2
BRANCH   1  20
ATOM     20  C   UNL A   1      38.086  19.533  25.115  1.00  0.00     0.275 C 
BRANCH  20  21
ATOM     21  O   UNL A   1      38.697  20.733  25.624  1.00  0.00    -0.458 OA
BRANCH  21  22
ATOM     22  C   UNL A   1      39.842  20.545  26.323  1.00  0.00     0.338 C 
ATOM     23  O   UNL A   1      40.495  19.519  26.398  1.00  0.00    -0.246 OA
BRANCH  22  24
ATOM     24  C   UNL A   1      40.313  21.831  26.867  1.00  0.00     0.060 A 
ATOM     25  C   UNL A   1      39.897  22.976  26.196  1.00  0.00     0.016 A 
ATOM     26  C   UNL A   1      41.205  21.933  27.937  1.00  0.00     0.016 A 
ATOM     27  C   UNL A   1      40.350  24.227  26.596  1.00  0.00     0.010 A 
ATOM     28  C   UNL A   1      41.668  23.200  28.335  1.00  0.00     0.010 A 
ATOM     29  C   UNL A   1      41.239  24.357  27.664  1.00  0.00    -0.014 A 
BRANCH  29  30
ATOM     30  C   UNL A   1      41.743  25.717  27.982  1.00  0.00     0.031 A 
ATOM     31  C   UNL A   1      43.069  26.165  27.440  1.00  0.00     0.074 A 
ATOM     32  C   UNL A   1      40.966  26.598  28.640  1.00  0.00     0.049 A 
ATOM     33  N   UNL A   1      43.663  27.324  27.561  1.00  0.00    -0.248 NA
ATOM     34  C   UNL A   1      43.815  25.185  26.636  1.00  0.00     0.031 C 
ATOM     35  C   UNL A   1      39.611  26.327  29.117  1.00  0.00     0.029 A 
ATOM     36  N   UNL A   1      41.188  27.909  28.985  1.00  0.00    -0.354 N 
ATOM     37  C   UNL A   1      44.879  27.196  26.906  1.00  0.00     0.074 A 
ATOM     38  C   UNL A   1      44.919  25.861  26.346  1.00  0.00     0.031 C 
ATOM     39  C   UNL A   1      39.112  27.446  29.668  1.00  0.00     0.029 A 
ATOM     40  C   UNL A   1      40.121  28.502  29.622  1.00  0.00     0.049 A 
ATOM     41  H   UNL A   1      42.031  28.381  28.795  1.00  0.00     0.167 HD
ATOM     42  C   UNL A   1      45.881  28.100  26.796  1.00  0.00     0.034 A 
ATOM     43  C   UNL A   1      39.975  29.749  30.113  1.00  0.00     0.034 A 
ATOM     44  C   UNL A   1      45.842  29.434  27.331  1.00  0.00     0.049 A 
ATOM     45  C   UNL A   1      41.119  30.726  29.995  1.00  0.00     0.074 A 
ATOM     46  C   UNL A   1      46.831  30.402  27.296  1.00  0.00     0.029 A 
ATOM     47  N   UNL A   1      44.765  29.991  28.001  1.00  0.00    -0.354 N 
ATOM     48  N   UNL A   1      42.253  30.603  29.348  1.00  0.00    -0.248 NA
ATOM     49  C   UNL A   1      40.960  32.021  30.677  1.00  0.00     0.031 C 
ATOM     50  C   UNL A   1      46.360  31.536  27.966  1.00  0.00     0.029 A 
ATOM     51  C   UNL A   1      45.067  31.283  28.396  1.00  0.00     0.049 A 
ATOM     52  H   UNL A   1      43.908  29.534  28.171  1.00  0.00     0.167 HD
ATOM     53  C   UNL A   1      42.935  31.802  29.539  1.00  0.00     0.074 A 
ATOM     54  C   UNL A   1      42.068  32.657  30.322  1.00  0.00     0.031 C 
ATOM     55  C   UNL A   1      44.182  32.149  29.131  1.00  0.00     0.034 A 
BRANCH  42  56
ATOM     56  C   UNL A   1      47.136  27.653  26.102  1.00  0.00     0.023 A 
ATOM     57  C   UNL A   1      48.145  26.984  26.821  1.00  0.00     0.012 A 
ATOM     58  C   UNL A   1      47.292  27.868  24.718  1.00  0.00     0.148 A 
ATOM     59  C   UNL A   1      49.304  26.557  26.174  1.00  0.00     0.002 A 
ATOM     60  C   UNL A   1      48.432  27.407  24.075  1.00  0.00     0.091 A 
ATOM     61  F   UNL A   1      46.330  28.533  24.062  1.00  0.00    -0.205 F 
ATOM     62  C   UNL A   1      49.443  26.758  24.802  1.00  0.00     0.022 A 
BRANCH  60  63
ATOM     63  S   UNL A   1      48.666  27.566  22.303  1.00  0.00     0.127 S 
ATOM     64  O   UNL A   1      49.950  28.261  22.235  1.00  0.00    -0.237 OA
ATOM     65  O   UNL A   1      48.705  26.169  21.868  1.00  0.00    -0.237 OA
ATOM     66  O   UNL A   1      47.518  28.320  21.814  1.00  0.00    -0.744 OA
ENDBRANCH  60  63
ENDBRANCH  42  56
BRANCH  43  67
ATOM     67  C   UNL A   1      38.688  30.175  30.742  1.00  0.00     0.023 A 
ATOM     68  C   UNL A   1      38.430  29.826  32.082  1.00  0.00     0.012 A 
ATOM     69  C   UNL A   1      37.716  30.904  30.029  1.00  0.00     0.148 A 
ATOM     70  C   UNL A   1      37.220  30.166  32.691  1.00  0.00     0.002 A 
ATOM     71  C   UNL A   1      36.538  31.294  30.659  1.00  0.00     0.091 A 
ATOM     72  F   UNL A   1      37.951  31.194  28.741  1.00  0.00    -0.205 F 
ATOM     73  C   UNL A   1      36.279  30.910  31.984  1.00  0.00     0.022 A 
BRANCH  71  74
ATOM     74  S   UNL A   1      35.337  32.361  29.856  1.00  0.00     0.127 S 
ATOM     75  O   UNL A   1      36.162  33.501  29.463  1.00  0.00    -0.237 OA
ATOM     76  O   UNL A   1      34.872  31.529  28.745  1.00  0.00    -0.237 OA
ATOM     77  O   UNL A   1      34.320  32.628  30.865  1.00  0.00    -0.744 OA
ENDBRANCH  71  74
ENDBRANCH  43  67
BRANCH  55  78
ATOM     78  C   UNL A   1      44.701  33.510  29.522  1.00  0.00     0.023 A 
ATOM     79  C   UNL A   1      45.397  33.662  30.739  1.00  0.00     0.012 A 
ATOM     80  C   UNL A   1      44.585  34.614  28.653  1.00  0.00     0.148 A 
ATOM     81  C   UNL A   1      45.946  34.894  31.096  1.00  0.00     0.002 A 
ATOM     82  C   UNL A   1      45.172  35.827  28.996  1.00  0.00     0.091 A 
ATOM     83  F   UNL A   1      43.905  34.457  27.508  1.00  0.00    -0.205 F 
ATOM     84  C   UNL A   1      45.844  35.972  30.220  1.00  0.00     0.022 A 
BRANCH  82  85
ATOM     85  S   UNL A   1      45.175  37.243  27.889  1.00  0.00     0.127 S 
ATOM     86  O   UNL A   1      45.991  38.202  28.631  1.00  0.00    -0.237 OA
ATOM     87  O   UNL A   1      45.812  36.702  26.688  1.00  0.00    -0.237 OA
ATOM     88  O   UNL A   1      43.776  37.615  27.711  1.00  0.00    -0.744 OA
ENDBRANCH  82  85
ENDBRANCH  55  78
ENDBRANCH  29  30
ENDBRANCH  22  24
ENDBRANCH  21  22
ENDBRANCH  20  21
ENDBRANCH   1  20
TORSDOF 17
ENDMDL
MODEL 2
REMARK VINA RESULT:     -11.5      2.146      4.024
REMARK SMILES C[C@@H](C(=O)OCCOC(=O)c1ccc(-c2c3nc(c(-c4cccc(S(=O)(=O)[O-])c4F)c4ccc([nH]4)c(-c4cccc(S(=O)(=O)[O-])c4F)c4nc(c(-c5cccc(S(=O)(=O)[O-])c5F)c5ccc2[nH]5)C=C4)C=C3)cc1)c1ccc(C[C@H]2CCCC2=O)cc1
REMARK SMILES IDX 6 1 5 2 3 3 4 4 2 5 1 6 74 7 75 8 86 9 76 10 85 11 77 12
REMARK SMILES IDX 78 13 79 14 80 15 83 16 81 17 82 18 84 19 7 20 8 21 9 22
REMARK SMILES IDX 10 23 11 24 12 25 73 26 13 27 72 28 14 29 15 30 16 31 66 32
REMARK SMILES IDX 17 33 71 34 65 35 67 36 18 37 70 38 64 39 63 40 19 42 51 43
REMARK SMILES IDX 31 44 50 45 32 46 35 47 49 48 68 49 33 50 34 51 48 53 69 54
REMARK SMILES IDX 36 55 20 56 21 57 29 58 22 59 24 60 30 61 23 62 25 63 26 64
REMARK SMILES IDX 27 65 28 66 52 67 53 68 61 69 54 70 56 71 62 72 55 73 57 74
REMARK SMILES IDX 58 75 59 76 60 77 37 78 38 79 46 80 39 81 41 82 47 83 40 84
REMARK SMILES IDX 42 85 43 86 44 87 45 88
REMARK H PARENT 67 41 35 52
REMARK Flexibility Score: inf
ROOT
ATOM      1  C   UNL A   1      36.687  22.953  23.548  1.00  0.00     0.274 C 
ENDROOT
BRANCH   1   2
ATOM      2  O   UNL A   1      35.290  23.249  23.345  1.00  0.00    -0.462 OA
BRANCH   2   3
ATOM      3  C   UNL A   1      34.683  23.949  24.348  1.00  0.00     0.313 C 
ATOM      4  O   UNL A   1      35.274  24.810  24.987  1.00  0.00    -0.252 OA
BRANCH   3   5
ATOM      5  C   UNL A   1      33.242  23.450  24.654  1.00  0.00     0.126 C 
ATOM      6  C   UNL A   1      32.744  24.016  25.996  1.00  0.00     0.025 C 
BRANCH   5   7
ATOM      7  C   UNL A   1      33.089  21.920  24.537  1.00  0.00    -0.034 A 
ATOM      8  C   UNL A   1      33.495  21.093  25.596  1.00  0.00     0.005 A 
ATOM      9  C   UNL A   1      32.513  21.279  23.425  1.00  0.00     0.005 A 
ATOM     10  C   UNL A   1      33.187  19.732  25.625  1.00  0.00     0.004 A 
ATOM     11  C   UNL A   1      32.272  19.895  23.421  1.00  0.00     0.004 A 
ATOM     12  C   UNL A   1      32.581  19.106  24.535  1.00  0.00    -0.047 A 
BRANCH  12  13
ATOM     13  C   UNL A   1      32.153  17.654  24.606  1.00  0.00     0.047 C 
BRANCH  13  14
ATOM     14  C   UNL A   1      33.097  16.583  24.050  1.00  0.00     0.060 C 
ATOM     15  C   UNL A   1      34.414  17.097  23.467  1.00  0.00     0.012 C 
ATOM     16  C   UNL A   1      33.587  15.606  25.092  1.00  0.00     0.136 C 
ATOM     17  C   UNL A   1      35.442  16.990  24.587  1.00  0.00     0.009 C 
ATOM     18  C   UNL A   1      35.061  15.741  25.368  1.00  0.00     0.076 C 
ATOM     19  O   UNL A   1      32.878  14.786  25.659  1.00  0.00    -0.299 OA
ENDBRANCH  13  14
ENDBRANCH  12  13
ENDBRANCH   5   7
ENDBRANCH   3   5
ENDBRANCH   2   3
ENDBRANCH   1   2
BRANCH   1  20
ATOM     20  C   UNL A   1      36.895  21.601  24.234  1.00  0.00     0.275 C 
BRANCH  20  21
ATOM     21  O   UNL A   1      37.244  21.749  25.623  1.00  0.00    -0.458 OA
BRANCH  21  22
ATOM     22  C   UNL A   1      38.528  21.442  25.930  1.00  0.00     0.338 C 
ATOM     23  O   UNL A   1      39.123  20.417  25.650  1.00  0.00    -0.246 OA
BRANCH  22  24
ATOM     24  C   UNL A   1      39.195  22.615  26.522  1.00  0.00     0.060 A 
ATOM     25  C   UNL A   1      38.706  23.861  26.143  1.00  0.00     0.016 A 
ATOM     26  C   UNL A   1      40.319  22.526  27.346  1.00  0.00     0.016 A 
ATOM     27  C   UNL A   1      39.319  25.022  26.596  1.00  0.00     0.010 A 
ATOM     28  C   UNL A   1      40.942  23.704  27.796  1.00  0.00     0.010 A 
ATOM     29  C   UNL A   1      40.442  24.962  27.423  1.00  0.00    -0.014 A 
BRANCH  29  30
ATOM     30  C   UNL A   1      41.093  26.242  27.800  1.00  0.00     0.031 A 
ATOM     31  C   UNL A   1      42.450  26.576  27.254  1.00  0.00     0.074 A 
ATOM     32  C   UNL A   1      40.423  27.163  28.518  1.00  0.00     0.049 A 
ATOM     33  N   UNL A   1      43.166  27.658  27.422  1.00  0.00    -0.248 NA
ATOM     34  C   UNL A   1      43.076  25.567  26.386  1.00  0.00     0.031 C 
ATOM     35  C   UNL A   1      39.054  27.012  29.009  1.00  0.00     0.029 A 
ATOM     36  N   UNL A   1      40.789  28.424  28.925  1.00  0.00    -0.354 N 
ATOM     37  C   UNL A   1      44.352  27.437  26.737  1.00  0.00     0.074 A 
ATOM     38  C   UNL A   1      44.240  26.137  26.109  1.00  0.00     0.031 C 
ATOM     39  C   UNL A   1      38.686  28.146  29.627  1.00  0.00     0.029 A 
ATOM     40  C   UNL A   1      39.801  29.091  29.615  1.00  0.00     0.049 A 
ATOM     41  H   UNL A   1      41.674  28.813  28.742  1.00  0.00     0.167 HD
ATOM     42  C   UNL A   1      45.442  28.235  26.653  1.00  0.00     0.034 A 
ATOM     43  C   UNL A   1      39.796  30.319  30.171  1.00  0.00     0.034 A 
ATOM     44  C   UNL A   1      45.553  29.536  27.256  1.00  0.00     0.049 A 
ATOM     45  C   UNL A   1      41.035  31.174  30.081  1.00  0.00     0.074 A 
ATOM     46  C   UNL A   1      46.640  30.394  27.252  1.00  0.00     0.029 A 
ATOM     47  N   UNL A   1      44.552  30.166  27.977  1.00  0.00    -0.354 N 
ATOM     48  N   UNL A   1      42.140  30.967  29.405  1.00  0.00    -0.248 NA
ATOM     49  C   UNL A   1      41.025  32.441  30.832  1.00  0.00     0.031 C 
ATOM     50  C   UNL A   1      46.302  31.534  27.988  1.00  0.00     0.029 A 
ATOM     51  C   UNL A   1      44.996  31.396  28.431  1.00  0.00     0.049 A 
ATOM     52  H   UNL A   1      43.654  29.794  28.141  1.00  0.00     0.167 HD
ATOM     53  C   UNL A   1      42.948  32.075  29.643  1.00  0.00     0.074 A 
ATOM     54  C   UNL A   1      42.189  32.974  30.487  1.00  0.00     0.031 C 
ATOM     55  C   UNL A   1      44.219  32.311  29.228  1.00  0.00     0.034 A 
BRANCH  42  56
ATOM     56  C   UNL A   1      46.631  27.696  25.911  1.00  0.00     0.023 A 
ATOM     57  C   UNL A   1      46.769  27.926  24.529  1.00  0.00     0.012 A 
ATOM     58  C   UNL A   1      47.636  26.991  26.603  1.00  0.00     0.148 A 
ATOM     59  C   UNL A   1      47.880  27.437  23.841  1.00  0.00     0.002 A 
ATOM     60  C   UNL A   1      48.756  26.540  25.919  1.00  0.00     0.091 A 
ATOM     61  F   UNL A   1      47.467  26.761  27.913  1.00  0.00    -0.205 F 
ATOM     62  C   UNL A   1      48.876  26.755  24.537  1.00  0.00     0.022 A 
BRANCH  60  63
ATOM     63  S   UNL A   1      50.116  25.709  26.744  1.00  0.00     0.127 S 
ATOM     64  O   UNL A   1      51.087  25.582  25.660  1.00  0.00    -0.237 OA
ATOM     65  O   UNL A   1      50.484  26.672  27.783  1.00  0.00    -0.237 OA
ATOM     66  O   UNL A   1      49.571  24.455  27.249  1.00  0.00    -0.744 OA
ENDBRANCH  60  63
ENDBRANCH  42  56
BRANCH  43  67
ATOM     67  C   UNL A   1      38.571  30.844  30.848  1.00  0.00     0.023 A 
ATOM     68  C   UNL A   1      38.449  30.714  32.246  1.00  0.00     0.012 A 
ATOM     69  C   UNL A   1      37.526  31.453  30.127  1.00  0.00     0.148 A 
ATOM     70  C   UNL A   1      37.300  31.150  32.908  1.00  0.00     0.002 A 
ATOM     71  C   UNL A   1      36.410  31.942  30.800  1.00  0.00     0.091 A 
ATOM     72  F   UNL A   1      37.630  31.533  28.793  1.00  0.00    -0.205 F 
ATOM     73  C   UNL A   1      36.286  31.775  32.188  1.00  0.00     0.022 A 
BRANCH  71  74
ATOM     74  S   UNL A   1      35.124  32.873  29.959  1.00  0.00     0.127 S 
ATOM     75  O   UNL A   1      34.229  33.215  31.062  1.00  0.00    -0.237 OA
ATOM     76  O   UNL A   1      35.869  34.002  29.400  1.00  0.00    -0.237 OA
ATOM     77  O   UNL A   1      34.582  31.964  28.957  1.00  0.00    -0.744 OA
ENDBRANCH  71  74
ENDBRANCH  43  67
BRANCH  55  78
ATOM     78  C   UNL A   1      44.885  33.586  29.678  1.00  0.00     0.023 A 
ATOM     79  C   UNL A   1      45.662  33.584  30.855  1.00  0.00     0.012 A 
ATOM     80  C   UNL A   1      44.824  34.758  28.896  1.00  0.00     0.148 A 
ATOM     81  C   UNL A   1      46.344  34.731  31.260  1.00  0.00     0.002 A 
ATOM     82  C   UNL A   1      45.542  35.885  29.284  1.00  0.00     0.091 A 
ATOM     83  F   UNL A   1      44.067  34.749  27.789  1.00  0.00    -0.205 F 
ATOM     84  C   UNL A   1      46.294  35.876  30.469  1.00  0.00     0.022 A 
BRANCH  82  85
ATOM     85  S   UNL A   1      45.614  37.373  28.279  1.00  0.00     0.127 S 
ATOM     86  O   UNL A   1      44.216  37.800  28.276  1.00  0.00    -0.237 OA
ATOM     87  O   UNL A   1      46.512  38.231  29.053  1.00  0.00    -0.237 OA
ATOM     88  O   UNL A   1      46.146  36.958  26.987  1.00  0.00    -0.744 OA
ENDBRANCH  82  85
ENDBRANCH  55  78
ENDBRANCH  29  30
ENDBRANCH  22  24
ENDBRANCH  21  22
ENDBRANCH  20  21
ENDBRANCH   1  20
TORSDOF 17
ENDMDL
MODEL 3
REMARK VINA RESULT:     -11.3      5.210      8.461
REMARK SMILES C[C@@H](C(=O)OCCOC(=O)c1ccc(-c2c3nc(c(-c4cccc(S(=O)(=O)[O-])c4F)c4ccc([nH]4)c(-c4cccc(S(=O)(=O)[O-])c4F)c4nc(c(-c5cccc(S(=O)(=O)[O-])c5F)c5ccc2[nH]5)C=C4)C=C3)cc1)c1ccc(C[C@H]2CCCC2=O)cc1
REMARK SMILES IDX 6 1 5 2 3 3 4 4 2 5 1 6 74 7 75 8 86 9 76 10 85 11 77 12
REMARK SMILES IDX 78 13 79 14 80 15 83 16 81 17 82 18 84 19 7 20 8 21 9 22
REMARK SMILES IDX 10 23 11 24 12 25 73 26 13 27 72 28 14 29 15 30 16 31 66 32
REMARK SMILES IDX 17 33 71 34 65 35 67 36 18 37 70 38 64 39 63 40 19 42 51 43
REMARK SMILES IDX 31 44 50 45 32 46 35 47 49 48 68 49 33 50 34 51 48 53 69 54
REMARK SMILES IDX 36 55 20 56 21 57 29 58 22 59 24 60 30 61 23 62 25 63 26 64
REMARK SMILES IDX 27 65 28 66 52 67 53 68 61 69 54 70 56 71 62 72 55 73 57 74
REMARK SMILES IDX 58 75 59 76 60 77 37 78 38 79 46 80 39 81 41 82 47 83 40 84
REMARK SMILES IDX 42 85 43 86 44 87 45 88
REMARK H PARENT 67 41 35 52
REMARK Flexibility Score: inf
ROOT
ATOM      1  C   UNL A   1      31.205  30.410  25.246  1.00  0.00     0.274 C 
ENDROOT
BRANCH   1   2
ATOM      2  O   UNL A   1      31.909  29.151  25.212  1.00  0.00    -0.462 OA
BRANCH   2   3
ATOM      3  C   UNL A   1      31.125  28.038  25.122  1.00  0.00     0.313 C 
ATOM      4  O   UNL A   1      30.327  27.878  24.207  1.00  0.00    -0.252 OA
BRANCH   3   5
ATOM      5  C   UNL A   1      31.270  27.090  26.346  1.00  0.00     0.126 C 
ATOM      6  C   UNL A   1      31.558  27.894  27.626  1.00  0.00     0.025 C 
BRANCH   5   7
ATOM      7  C   UNL A   1      32.266  25.936  26.109  1.00  0.00    -0.034 A 
ATOM      8  C   UNL A   1      33.471  26.179  25.432  1.00  0.00     0.005 A 
ATOM      9  C   UNL A   1      32.061  24.625  26.575  1.00  0.00     0.005 A 
ATOM     10  C   UNL A   1      34.488  25.225  25.377  1.00  0.00     0.004 A 
ATOM     11  C   UNL A   1      33.056  23.639  26.452  1.00  0.00     0.004 A 
ATOM     12  C   UNL A   1      34.297  23.936  25.875  1.00  0.00    -0.047 A 
BRANCH  12  13
ATOM     13  C   UNL A   1      35.433  22.934  25.909  1.00  0.00     0.047 C 
BRANCH  13  14
ATOM     14  C   UNL A   1      35.657  22.036  24.688  1.00  0.00     0.060 C 
ATOM     15  C   UNL A   1      37.098  21.951  24.183  1.00  0.00     0.012 C 
ATOM     16  C   UNL A   1      35.335  20.583  24.936  1.00  0.00     0.136 C 
ATOM     17  C   UNL A   1      37.697  20.707  24.828  1.00  0.00     0.009 C 
ATOM     18  C   UNL A   1      36.557  19.703  24.911  1.00  0.00     0.076 C 
ATOM     19  O   UNL A   1      34.208  20.148  25.136  1.00  0.00    -0.299 OA
ENDBRANCH  13  14
ENDBRANCH  12  13
ENDBRANCH   5   7
ENDBRANCH   3   5
ENDBRANCH   2   3
ENDBRANCH   1   2
BRANCH   1  20
ATOM     20  C   UNL A   1      31.651  31.288  26.418  1.00  0.00     0.275 C 
BRANCH  20  21
ATOM     21  O   UNL A   1      33.070  31.200  26.647  1.00  0.00    -0.458 OA
BRANCH  21  22
ATOM     22  C   UNL A   1      33.602  32.222  27.361  1.00  0.00     0.338 C 
ATOM     23  O   UNL A   1      33.076  33.292  27.613  1.00  0.00    -0.246 OA
BRANCH  22  24
ATOM     24  C   UNL A   1      34.878  31.799  27.964  1.00  0.00     0.060 A 
ATOM     25  C   UNL A   1      34.936  30.492  28.436  1.00  0.00     0.016 A 
ATOM     26  C   UNL A   1      35.960  32.660  28.157  1.00  0.00     0.016 A 
ATOM     27  C   UNL A   1      36.075  30.030  29.082  1.00  0.00     0.010 A 
ATOM     28  C   UNL A   1      37.109  32.192  28.819  1.00  0.00     0.010 A 
ATOM     29  C   UNL A   1      37.172  30.869  29.285  1.00  0.00    -0.014 A 
BRANCH  29  30
ATOM     30  C   UNL A   1      38.322  30.331  30.056  1.00  0.00     0.031 A 
ATOM     31  C   UNL A   1      39.297  29.406  29.389  1.00  0.00     0.074 A 
ATOM     32  C   UNL A   1      38.572  30.768  31.305  1.00  0.00     0.049 A 
ATOM     33  N   UNL A   1      40.387  28.867  29.869  1.00  0.00    -0.248 NA
ATOM     34  C   UNL A   1      39.020  29.058  27.986  1.00  0.00     0.031 C 
ATOM     35  C   UNL A   1      37.770  31.755  32.024  1.00  0.00     0.029 A 
ATOM     36  N   UNL A   1      39.595  30.468  32.173  1.00  0.00    -0.354 N 
ATOM     37  C   UNL A   1      40.893  28.067  28.855  1.00  0.00     0.074 A 
ATOM     38  C   UNL A   1      40.017  28.228  27.714  1.00  0.00     0.031 C 
ATOM     39  C   UNL A   1      38.345  32.000  33.213  1.00  0.00     0.029 A 
ATOM     40  C   UNL A   1      39.532  31.160  33.361  1.00  0.00     0.049 A 
ATOM     41  H   UNL A   1      40.304  29.818  31.965  1.00  0.00     0.167 HD
ATOM     42  C   UNL A   1      41.978  27.257  28.878  1.00  0.00     0.034 A 
ATOM     43  C   UNL A   1      40.337  31.122  34.442  1.00  0.00     0.034 A 
ATOM     44  C   UNL A   1      42.865  27.106  29.999  1.00  0.00     0.049 A 
ATOM     45  C   UNL A   1      41.524  30.191  34.444  1.00  0.00     0.074 A 
ATOM     46  C   UNL A   1      43.966  26.275  30.116  1.00  0.00     0.029 A 
ATOM     47  N   UNL A   1      42.754  27.792  31.197  1.00  0.00    -0.354 N 
ATOM     48  N   UNL A   1      42.009  29.460  33.468  1.00  0.00    -0.248 NA
ATOM     49  C   UNL A   1      42.280  30.081  35.703  1.00  0.00     0.031 C 
ATOM     50  C   UNL A   1      44.508  26.443  31.395  1.00  0.00     0.029 A 
ATOM     51  C   UNL A   1      43.758  27.397  32.065  1.00  0.00     0.049 A 
ATOM     52  H   UNL A   1      42.063  28.464  31.402  1.00  0.00     0.167 HD
ATOM     53  C   UNL A   1      43.125  28.814  33.992  1.00  0.00     0.074 A 
ATOM     54  C   UNL A   1      43.274  29.274  35.357  1.00  0.00     0.031 C 
ATOM     55  C   UNL A   1      43.933  27.895  33.405  1.00  0.00     0.034 A 
BRANCH  42  56
ATOM     56  C   UNL A   1      42.239  26.427  27.653  1.00  0.00     0.023 A 
ATOM     57  C   UNL A   1      42.911  26.984  26.548  1.00  0.00     0.012 A 
ATOM     58  C   UNL A   1      41.847  25.073  27.619  1.00  0.00     0.148 A 
ATOM     59  C   UNL A   1      43.166  26.211  25.416  1.00  0.00     0.002 A 
ATOM     60  C   UNL A   1      42.138  24.300  26.504  1.00  0.00     0.091 A 
ATOM     61  F   UNL A   1      41.184  24.574  28.673  1.00  0.00    -0.205 F 
ATOM     62  C   UNL A   1      42.790  24.869  25.398  1.00  0.00     0.022 A 
BRANCH  60  63
ATOM     63  S   UNL A   1      41.747  22.551  26.420  1.00  0.00     0.127 S 
ATOM     64  O   UNL A   1      42.349  22.053  27.655  1.00  0.00    -0.237 OA
ATOM     65  O   UNL A   1      40.284  22.560  26.415  1.00  0.00    -0.237 OA
ATOM     66  O   UNL A   1      42.353  22.065  25.186  1.00  0.00    -0.744 OA
ENDBRANCH  60  63
ENDBRANCH  42  56
BRANCH  43  67
ATOM     67  C   UNL A   1      40.079  32.009  35.617  1.00  0.00     0.023 A 
ATOM     68  C   UNL A   1      40.899  33.137  35.819  1.00  0.00     0.012 A 
ATOM     69  C   UNL A   1      39.047  31.744  36.538  1.00  0.00     0.148 A 
ATOM     70  C   UNL A   1      40.719  33.964  36.929  1.00  0.00     0.002 A 
ATOM     71  C   UNL A   1      38.833  32.606  37.609  1.00  0.00     0.091 A 
ATOM     72  F   UNL A   1      38.300  30.645  36.362  1.00  0.00    -0.205 F 
ATOM     73  C   UNL A   1      39.679  33.706  37.818  1.00  0.00     0.022 A 
BRANCH  71  74
ATOM     74  S   UNL A   1      37.435  32.412  38.721  1.00  0.00     0.127 S 
ATOM     75  O   UNL A   1      37.771  33.344  39.794  1.00  0.00    -0.237 OA
ATOM     76  O   UNL A   1      36.308  32.823  37.882  1.00  0.00    -0.237 OA
ATOM     77  O   UNL A   1      37.422  31.001  39.083  1.00  0.00    -0.744 OA
ENDBRANCH  71  74
ENDBRANCH  43  67
BRANCH  55  78
ATOM     78  C   UNL A   1      45.055  27.311  34.227  1.00  0.00     0.023 A 
ATOM     79  C   UNL A   1      46.300  27.972  34.269  1.00  0.00     0.012 A 
ATOM     80  C   UNL A   1      44.855  26.168  35.028  1.00  0.00     0.148 A 
ATOM     81  C   UNL A   1      47.334  27.491  35.072  1.00  0.00     0.002 A 
ATOM     82  C   UNL A   1      45.876  25.721  35.860  1.00  0.00     0.091 A 
ATOM     83  F   UNL A   1      43.671  25.542  34.965  1.00  0.00    -0.205 F 
ATOM     84  C   UNL A   1      47.119  26.375  35.876  1.00  0.00     0.022 A 
BRANCH  82  85
ATOM     85  S   UNL A   1      45.659  24.349  37.000  1.00  0.00     0.127 S 
ATOM     86  O   UNL A   1      45.510  23.219  36.085  1.00  0.00    -0.237 OA
ATOM     87  O   UNL A   1      46.915  24.362  37.751  1.00  0.00    -0.237 OA
ATOM     88  O   UNL A   1      44.480  24.672  37.795  1.00  0.00    -0.744 OA
ENDBRANCH  82  85
ENDBRANCH  55  78
ENDBRANCH  29  30
ENDBRANCH  22  24
ENDBRANCH  21  22
ENDBRANCH  20  21
ENDBRANCH   1  20
TORSDOF 17
ENDMDL
