MODEL 1
REMARK VINA RESULT:     -12.2      0.000      0.000
REMARK SMILES Cc1cc(NC(=O)[C@@H]2CCC[C@@H](C(=O)OCCOC(=O)c3ccc(-c4c5nc(c(-c6cccc(S(=O)(=O)[O-])c6F)c6ccc([nH]6)c(-c6cccc(S(=O)(=O)[O-])c6F)c6nc(c(-c7cccc(S(=O)(=O)[O-])c7F)c7ccc4[nH]7)C=C6)C=C5)cc3)C2)ncc1Br
REMARK SMILES IDX 17 1 16 2 15 3 13 4 14 5 12 6 8 7 9 8 84 9 10 10 11 11 6 12
REMARK SMILES IDX 5 13 7 15 4 16 1 17 2 18 3 19 87 20 86 21 88 22 85 23 18 24
REMARK SMILES IDX 19 25 20 26 21 27 22 28 83 29 23 30 82 31 24 32 25 33 26 34
REMARK SMILES IDX 76 35 27 36 81 37 75 38 77 39 28 40 80 41 74 42 73 43 29 45
REMARK SMILES IDX 61 46 41 47 60 48 42 49 45 50 59 51 78 52 43 53 44 54 58 56
REMARK SMILES IDX 79 57 46 58 30 59 31 60 39 61 32 62 34 63 40 64 33 65 35 66
REMARK SMILES IDX 36 67 37 68 38 69 62 70 63 71 71 72 64 73 66 74 72 75 65 76
REMARK SMILES IDX 67 77 68 78 69 79 70 80 47 81 48 82 56 83 49 84 51 85 57 86
REMARK SMILES IDX 50 87 52 88 53 89 54 90 55 91
REMARK H PARENT 5 14 77 44 45 55
REMARK Flexibility Score: inf
ROOT
ATOM      1  C   UNL A   1      31.594  29.770  25.882  1.00  0.00     0.275 C 
ENDROOT
BRANCH   1   2
ATOM      2  C   UNL A   1      31.068  29.791  24.447  1.00  0.00     0.274 C 
BRANCH   2   3
ATOM      3  O   UNL A   1      31.490  28.628  23.709  1.00  0.00    -0.462 OA
BRANCH   3   4
ATOM      4  C   UNL A   1      31.045  27.422  24.147  1.00  0.00     0.309 C 
ATOM      5  O   UNL A   1      29.864  27.144  24.325  1.00  0.00    -0.252 OA
BRANCH   4   6
ATOM      6  C   UNL A   1      32.181  26.476  24.540  1.00  0.00     0.100 C 
ATOM      7  C   UNL A   1      30.991  24.363  25.438  1.00  0.00     0.080 C 
ATOM      8  C   UNL A   1      30.946  23.818  24.001  1.00  0.00     0.013 C 
ATOM      9  C   UNL A   1      31.934  25.541  25.723  1.00  0.00     0.028 C 
ATOM     10  C   UNL A   1      31.492  24.720  22.889  1.00  0.00     0.002 C 
ATOM     11  C   UNL A   1      32.602  25.665  23.324  1.00  0.00     0.015 C 
BRANCH   7  12
ATOM     12  C   UNL A   1      31.050  23.365  26.608  1.00  0.00     0.228 C 
ATOM     13  N   UNL A   1      31.979  22.408  26.833  1.00  0.00    -0.310 N 
ATOM     14  H   UNL A   1      31.769  21.842  27.612  1.00  0.00     0.171 HD
ATOM     15  O   UNL A   1      30.140  23.397  27.454  1.00  0.00    -0.274 OA
BRANCH  13  16
ATOM     16  C   UNL A   1      33.165  22.051  26.205  1.00  0.00     0.132 A 
ATOM     17  C   UNL A   1      36.646  23.566  26.061  1.00  0.00     0.046 C 
ATOM     18  C   UNL A   1      35.514  22.593  25.902  1.00  0.00    -0.032 A 
ATOM     19  C   UNL A   1      34.221  22.962  26.307  1.00  0.00     0.051 A 
ATOM     20  C   UNL A   1      35.681  21.320  25.354  1.00  0.00     0.039 A 
ATOM     21  C   UNL A   1      34.556  20.520  25.196  1.00  0.00     0.129 A 
ATOM     22  Br  UNL A   1      37.371  20.623  24.868  1.00  0.00    -0.049 Br
ATOM     23  N   UNL A   1      33.306  20.866  25.595  1.00  0.00    -0.238 NA
ENDBRANCH  13  16
ENDBRANCH   7  12
ENDBRANCH   4   6
ENDBRANCH   3   4
ENDBRANCH   2   3
ENDBRANCH   1   2
BRANCH   1  24
ATOM     24  O   UNL A   1      32.941  30.261  25.945  1.00  0.00    -0.458 OA
BRANCH  24  25
ATOM     25  C   UNL A   1      33.146  31.254  26.845  1.00  0.00     0.338 C 
ATOM     26  O   UNL A   1      32.371  32.142  27.154  1.00  0.00    -0.246 OA
BRANCH  25  27
ATOM     27  C   UNL A   1      34.406  30.977  27.551  1.00  0.00     0.060 A 
ATOM     28  C   UNL A   1      35.367  31.975  27.715  1.00  0.00     0.016 A 
ATOM     29  C   UNL A   1      34.623  29.684  28.040  1.00  0.00     0.016 A 
ATOM     30  C   UNL A   1      36.566  31.663  28.351  1.00  0.00     0.010 A 
ATOM     31  C   UNL A   1      35.826  29.370  28.665  1.00  0.00     0.010 A 
ATOM     32  C   UNL A   1      36.805  30.358  28.820  1.00  0.00    -0.014 A 
BRANCH  32  33
ATOM     33  C   UNL A   1      38.046  30.063  29.565  1.00  0.00     0.031 A 
ATOM     34  C   UNL A   1      38.276  30.610  30.940  1.00  0.00     0.074 A 
ATOM     35  C   UNL A   1      38.974  29.294  28.965  1.00  0.00     0.049 A 
ATOM     36  N   UNL A   1      39.240  30.327  31.777  1.00  0.00    -0.248 NA
ATOM     37  C   UNL A   1      37.317  31.607  31.441  1.00  0.00     0.031 C 
ATOM     38  C   UNL A   1      38.884  28.792  27.592  1.00  0.00     0.029 A 
ATOM     39  N   UNL A   1      40.163  28.800  29.428  1.00  0.00    -0.354 N 
ATOM     40  C   UNL A   1      39.008  31.106  32.902  1.00  0.00     0.074 A 
ATOM     41  C   UNL A   1      37.827  31.898  32.632  1.00  0.00     0.031 C 
ATOM     42  C   UNL A   1      39.961  28.034  27.334  1.00  0.00     0.029 A 
ATOM     43  C   UNL A   1      40.812  28.000  28.519  1.00  0.00     0.049 A 
ATOM     44  H   UNL A   1      40.519  28.998  30.324  1.00  0.00     0.167 HD
ATOM     45  C   UNL A   1      39.704  31.129  34.061  1.00  0.00     0.034 A 
ATOM     46  C   UNL A   1      41.952  27.294  28.638  1.00  0.00     0.034 A 
ATOM     47  C   UNL A   1      40.861  30.315  34.320  1.00  0.00     0.049 A 
ATOM     48  C   UNL A   1      42.675  27.294  29.953  1.00  0.00     0.074 A 
ATOM     49  C   UNL A   1      41.585  30.202  35.494  1.00  0.00     0.029 A 
ATOM     50  N   UNL A   1      41.468  29.483  33.392  1.00  0.00    -0.354 N 
ATOM     51  N   UNL A   1      42.350  27.907  31.066  1.00  0.00    -0.248 NA
ATOM     52  C   UNL A   1      43.897  26.485  30.045  1.00  0.00     0.031 C 
ATOM     53  C   UNL A   1      42.638  29.309  35.271  1.00  0.00     0.029 A 
ATOM     54  C   UNL A   1      42.562  28.858  33.962  1.00  0.00     0.049 A 
ATOM     55  H   UNL A   1      41.165  29.357  32.464  1.00  0.00     0.167 HD
ATOM     56  C   UNL A   1      43.316  27.547  31.995  1.00  0.00     0.074 A 
ATOM     57  C   UNL A   1      44.230  26.647  31.319  1.00  0.00     0.031 C 
ATOM     58  C   UNL A   1      43.439  27.937  33.286  1.00  0.00     0.034 A 
BRANCH  45  59
ATOM     59  C   UNL A   1      39.198  31.998  35.180  1.00  0.00     0.023 A 
ATOM     60  C   UNL A   1      38.282  31.452  36.102  1.00  0.00     0.012 A 
ATOM     61  C   UNL A   1      39.712  33.292  35.395  1.00  0.00     0.148 A 
ATOM     62  C   UNL A   1      37.877  32.183  37.217  1.00  0.00     0.002 A 
ATOM     63  C   UNL A   1      39.325  34.004  36.525  1.00  0.00     0.091 A 
ATOM     64  F   UNL A   1      40.577  33.792  34.502  1.00  0.00    -0.205 F 
ATOM     65  C   UNL A   1      38.405  33.452  37.434  1.00  0.00     0.022 A 
BRANCH  63  66
ATOM     66  S   UNL A   1      39.983  35.625  36.933  1.00  0.00     0.127 S 
ATOM     67  O   UNL A   1      39.283  35.923  38.182  1.00  0.00    -0.237 OA
ATOM     68  O   UNL A   1      41.411  35.346  37.086  1.00  0.00    -0.237 OA
ATOM     69  O   UNL A   1      39.645  36.494  35.814  1.00  0.00    -0.744 OA
ENDBRANCH  63  66
ENDBRANCH  45  59
BRANCH  46  70
ATOM     70  C   UNL A   1      42.397  26.449  27.499  1.00  0.00     0.023 A 
ATOM     71  C   UNL A   1      43.321  26.975  26.575  1.00  0.00     0.012 A 
ATOM     72  C   UNL A   1      41.993  25.106  27.387  1.00  0.00     0.148 A 
ATOM     73  C   UNL A   1      43.831  26.176  25.553  1.00  0.00     0.002 A 
ATOM     74  C   UNL A   1      42.534  24.305  26.388  1.00  0.00     0.091 A 
ATOM     75  F   UNL A   1      41.116  24.632  28.283  1.00  0.00    -0.205 F 
ATOM     76  C   UNL A   1      43.447  24.841  25.466  1.00  0.00     0.022 A 
BRANCH  74  77
ATOM     77  S   UNL A   1      42.180  22.550  26.255  1.00  0.00     0.127 S 
ATOM     78  O   UNL A   1      42.872  22.199  25.018  1.00  0.00    -0.237 OA
ATOM     79  O   UNL A   1      42.797  22.027  27.475  1.00  0.00    -0.237 OA
ATOM     80  O   UNL A   1      40.729  22.437  26.214  1.00  0.00    -0.744 OA
ENDBRANCH  74  77
ENDBRANCH  46  70
BRANCH  58  81
ATOM     81  C   UNL A   1      44.604  27.408  34.072  1.00  0.00     0.023 A 
ATOM     82  C   UNL A   1      45.803  28.145  34.104  1.00  0.00     0.012 A 
ATOM     83  C   UNL A   1      44.467  26.264  34.883  1.00  0.00     0.148 A 
ATOM     84  C   UNL A   1      46.853  27.749  34.928  1.00  0.00     0.002 A 
ATOM     85  C   UNL A   1      45.506  25.894  35.727  1.00  0.00     0.091 A 
ATOM     86  F   UNL A   1      43.316  25.578  34.827  1.00  0.00    -0.205 F 
ATOM     87  C   UNL A   1      46.701  26.633  35.748  1.00  0.00     0.022 A 
BRANCH  85  88
ATOM     88  S   UNL A   1      45.379  24.519  36.875  1.00  0.00     0.127 S 
ATOM     89  O   UNL A   1      46.678  24.570  37.545  1.00  0.00    -0.237 OA
ATOM     90  O   UNL A   1      44.246  24.918  37.710  1.00  0.00    -0.237 OA
ATOM     91  O   UNL A   1      45.149  23.331  36.063  1.00  0.00    -0.744 OA
ENDBRANCH  85  88
ENDBRANCH  58  81
ENDBRANCH  32  33
ENDBRANCH  25  27
ENDBRANCH  24  25
ENDBRANCH   1  24
TORSDOF 16
ENDMDL
MODEL 2
REMARK VINA RESULT:     -12.1      5.196     10.029
REMARK SMILES Cc1cc(NC(=O)[C@@H]2CCC[C@@H](C(=O)OCCOC(=O)c3ccc(-c4c5nc(c(-c6cccc(S(=O)(=O)[O-])c6F)c6ccc([nH]6)c(-c6cccc(S(=O)(=O)[O-])c6F)c6nc(c(-c7cccc(S(=O)(=O)[O-])c7F)c7ccc4[nH]7)C=C6)C=C5)cc3)C2)ncc1Br
REMARK SMILES IDX 17 1 16 2 15 3 13 4 14 5 12 6 8 7 9 8 84 9 10 10 11 11 6 12
REMARK SMILES IDX 5 13 7 15 4 16 1 17 2 18 3 19 87 20 86 21 88 22 85 23 18 24
REMARK SMILES IDX 19 25 20 26 21 27 22 28 83 29 23 30 82 31 24 32 25 33 26 34
REMARK SMILES IDX 76 35 27 36 81 37 75 38 77 39 28 40 80 41 74 42 73 43 29 45
REMARK SMILES IDX 61 46 41 47 60 48 42 49 45 50 59 51 78 52 43 53 44 54 58 56
REMARK SMILES IDX 79 57 46 58 30 59 31 60 39 61 32 62 34 63 40 64 33 65 35 66
REMARK SMILES IDX 36 67 37 68 38 69 62 70 63 71 71 72 64 73 66 74 72 75 65 76
REMARK SMILES IDX 67 77 68 78 69 79 70 80 47 81 48 82 56 83 49 84 51 85 57 86
REMARK SMILES IDX 50 87 52 88 53 89 54 90 55 91
REMARK H PARENT 5 14 77 44 45 55
REMARK Flexibility Score: inf
ROOT
ATOM      1  C   UNL A   1      37.352  20.810  24.829  1.00  0.00     0.275 C 
ENDROOT
BRANCH   1   2
ATOM      2  C   UNL A   1      35.892  20.506  25.168  1.00  0.00     0.274 C 
BRANCH   2   3
ATOM      3  O   UNL A   1      34.985  21.214  24.302  1.00  0.00    -0.462 OA
BRANCH   3   4
ATOM      4  C   UNL A   1      33.677  21.242  24.668  1.00  0.00     0.309 C 
ATOM      5  O   UNL A   1      33.059  20.275  25.098  1.00  0.00    -0.252 OA
BRANCH   4   6
ATOM      6  C   UNL A   1      33.001  22.577  24.353  1.00  0.00     0.100 C 
ATOM      7  C   UNL A   1      31.594  23.109  26.457  1.00  0.00     0.080 C 
ATOM      8  C   UNL A   1      32.826  23.801  27.065  1.00  0.00     0.013 C 
ATOM      9  C   UNL A   1      31.615  22.817  24.950  1.00  0.00     0.028 C 
ATOM     10  C   UNL A   1      34.125  23.767  26.253  1.00  0.00     0.002 C 
ATOM     11  C   UNL A   1      33.931  23.716  24.745  1.00  0.00     0.015 C 
BRANCH   7  12
ATOM     12  C   UNL A   1      30.193  23.597  26.865  1.00  0.00     0.228 C 
ATOM     13  N   UNL A   1      29.598  24.768  26.542  1.00  0.00    -0.310 N 
ATOM     14  H   UNL A   1      28.723  24.890  26.979  1.00  0.00     0.171 HD
ATOM     15  O   UNL A   1      29.507  22.865  27.598  1.00  0.00    -0.274 OA
BRANCH  13  16
ATOM     16  C   UNL A   1      29.953  25.837  25.728  1.00  0.00     0.132 A 
ATOM     17  C   UNL A   1      32.667  28.492  25.874  1.00  0.00     0.046 C 
ATOM     18  C   UNL A   1      31.546  27.634  25.362  1.00  0.00    -0.032 A 
ATOM     19  C   UNL A   1      30.968  26.671  26.205  1.00  0.00     0.051 A 
ATOM     20  C   UNL A   1      31.032  27.752  24.069  1.00  0.00     0.039 A 
ATOM     21  C   UNL A   1      29.953  26.951  23.714  1.00  0.00     0.129 A 
ATOM     22  Br  UNL A   1      31.771  28.913  22.772  1.00  0.00    -0.049 Br
ATOM     23  N   UNL A   1      29.398  26.012  24.521  1.00  0.00    -0.238 NA
ENDBRANCH  13  16
ENDBRANCH   7  12
ENDBRANCH   4   6
ENDBRANCH   3   4
ENDBRANCH   2   3
ENDBRANCH   1   2
BRANCH   1  24
ATOM     24  O   UNL A   1      37.895  21.792  25.723  1.00  0.00    -0.458 OA
BRANCH  24  25
ATOM     25  C   UNL A   1      39.121  21.496  26.221  1.00  0.00     0.338 C 
ATOM     26  O   UNL A   1      39.708  20.430  26.151  1.00  0.00    -0.246 OA
BRANCH  25  27
ATOM     27  C   UNL A   1      39.732  22.743  26.701  1.00  0.00     0.060 A 
ATOM     28  C   UNL A   1      40.724  22.721  27.682  1.00  0.00     0.016 A 
ATOM     29  C   UNL A   1      39.283  23.954  26.162  1.00  0.00     0.016 A 
ATOM     30  C   UNL A   1      41.248  23.926  28.143  1.00  0.00     0.010 A 
ATOM     31  C   UNL A   1      39.799  25.158  26.633  1.00  0.00     0.010 A 
ATOM     32  C   UNL A   1      40.781  25.150  27.629  1.00  0.00    -0.014 A 
BRANCH  32  33
ATOM     33  C   UNL A   1      41.405  26.414  28.068  1.00  0.00     0.031 A 
ATOM     34  C   UNL A   1      42.837  26.724  27.759  1.00  0.00     0.074 A 
ATOM     35  C   UNL A   1      40.648  27.281  28.767  1.00  0.00     0.049 A 
ATOM     36  N   UNL A   1      43.485  27.845  27.945  1.00  0.00    -0.248 NA
ATOM     37  C   UNL A   1      43.652  25.646  27.178  1.00  0.00     0.031 C 
ATOM     38  C   UNL A   1      39.271  27.030  29.199  1.00  0.00     0.029 A 
ATOM     39  N   UNL A   1      40.923  28.539  29.230  1.00  0.00    -0.354 N 
ATOM     40  C   UNL A   1      44.782  27.611  27.508  1.00  0.00     0.074 A 
ATOM     41  C   UNL A   1      44.840  26.232  27.072  1.00  0.00     0.031 C 
ATOM     42  C   UNL A   1      38.811  28.114  29.841  1.00  0.00     0.029 A 
ATOM     43  C   UNL A   1      39.857  29.131  29.864  1.00  0.00     0.049 A 
ATOM     44  H   UNL A   1      41.798  28.977  29.121  1.00  0.00     0.167 HD
ATOM     45  C   UNL A   1      45.815  28.482  27.451  1.00  0.00     0.034 A 
ATOM     46  C   UNL A   1      39.729  30.368  30.382  1.00  0.00     0.034 A 
ATOM     47  C   UNL A   1      45.731  29.857  27.865  1.00  0.00     0.049 A 
ATOM     48  C   UNL A   1      40.873  31.331  30.255  1.00  0.00     0.074 A 
ATOM     49  C   UNL A   1      46.696  30.844  27.767  1.00  0.00     0.029 A 
ATOM     50  N   UNL A   1      44.623  30.437  28.464  1.00  0.00    -0.354 N 
ATOM     51  N   UNL A   1      42.040  31.147  29.687  1.00  0.00    -0.248 NA
ATOM     52  C   UNL A   1      40.676  32.678  30.807  1.00  0.00     0.031 C 
ATOM     53  C   UNL A   1      46.175  32.018  28.317  1.00  0.00     0.029 A 
ATOM     54  C   UNL A   1      44.882  31.765  28.748  1.00  0.00     0.049 A 
ATOM     55  H   UNL A   1      43.778  29.971  28.659  1.00  0.00     0.167 HD
ATOM     56  C   UNL A   1      42.712  32.357  29.797  1.00  0.00     0.074 A 
ATOM     57  C   UNL A   1      41.814  33.273  30.472  1.00  0.00     0.031 C 
ATOM     58  C   UNL A   1      43.964  32.673  29.387  1.00  0.00     0.034 A 
BRANCH  45  59
ATOM     59  C   UNL A   1      47.110  28.015  26.845  1.00  0.00     0.023 A 
ATOM     60  C   UNL A   1      48.106  27.489  27.694  1.00  0.00     0.012 A 
ATOM     61  C   UNL A   1      47.296  27.977  25.449  1.00  0.00     0.148 A 
ATOM     62  C   UNL A   1      49.271  26.940  27.164  1.00  0.00     0.002 A 
ATOM     63  C   UNL A   1      48.450  27.402  24.927  1.00  0.00     0.091 A 
ATOM     64  F   UNL A   1      46.339  28.489  24.664  1.00  0.00    -0.205 F 
ATOM     65  C   UNL A   1      49.438  26.886  25.783  1.00  0.00     0.022 A 
BRANCH  63  66
ATOM     66  S   UNL A   1      48.745  27.231  23.163  1.00  0.00     0.127 S 
ATOM     67  O   UNL A   1      50.206  27.287  23.101  1.00  0.00    -0.237 OA
ATOM     68  O   UNL A   1      48.174  25.913  22.883  1.00  0.00    -0.237 OA
ATOM     69  O   UNL A   1      48.058  28.346  22.527  1.00  0.00    -0.744 OA
ENDBRANCH  63  66
ENDBRANCH  45  59
BRANCH  46  70
ATOM     70  C   UNL A   1      38.422  30.773  30.961  1.00  0.00     0.023 A 
ATOM     71  C   UNL A   1      38.194  30.583  32.338  1.00  0.00     0.012 A 
ATOM     72  C   UNL A   1      37.454  31.433  30.182  1.00  0.00     0.148 A 
ATOM     73  C   UNL A   1      37.017  31.041  32.929  1.00  0.00     0.002 A 
ATOM     74  C   UNL A   1      36.301  31.921  30.785  1.00  0.00     0.091 A 
ATOM     75  F   UNL A   1      37.701  31.603  28.876  1.00  0.00    -0.205 F 
ATOM     76  C   UNL A   1      36.077  31.718  32.157  1.00  0.00     0.022 A 
BRANCH  74  77
ATOM     77  S   UNL A   1      35.079  32.893  29.898  1.00  0.00     0.127 S 
ATOM     78  O   UNL A   1      35.904  33.948  29.315  1.00  0.00    -0.237 OA
ATOM     79  O   UNL A   1      34.560  31.917  28.939  1.00  0.00    -0.237 OA
ATOM     80  O   UNL A   1      34.116  33.332  30.898  1.00  0.00    -0.744 OA
ENDBRANCH  74  77
ENDBRANCH  46  70
BRANCH  58  81
ATOM     81  C   UNL A   1      44.460  34.065  29.652  1.00  0.00     0.023 A 
ATOM     82  C   UNL A   1      45.116  34.340  30.867  1.00  0.00     0.012 A 
ATOM     83  C   UNL A   1      44.399  35.055  28.652  1.00  0.00     0.148 A 
ATOM     84  C   UNL A   1      45.702  35.585  31.086  1.00  0.00     0.002 A 
ATOM     85  C   UNL A   1      45.015  36.283  28.865  1.00  0.00     0.091 A 
ATOM     86  F   UNL A   1      43.762  34.767  27.508  1.00  0.00    -0.205 F 
ATOM     87  C   UNL A   1      45.663  36.550  30.082  1.00  0.00     0.022 A 
BRANCH  85  88
ATOM     88  S   UNL A   1      45.085  37.562  27.606  1.00  0.00     0.127 S 
ATOM     89  O   UNL A   1      45.777  36.871  26.519  1.00  0.00    -0.237 OA
ATOM     90  O   UNL A   1      43.669  37.828  27.357  1.00  0.00    -0.237 OA
ATOM     91  O   UNL A   1      45.820  38.673  28.198  1.00  0.00    -0.744 OA
ENDBRANCH  85  88
ENDBRANCH  58  81
ENDBRANCH  32  33
ENDBRANCH  25  27
ENDBRANCH  24  25
ENDBRANCH   1  24
TORSDOF 16
ENDMDL
MODEL 3
REMARK VINA RESULT:     -12.0      5.184     10.151
REMARK SMILES Cc1cc(NC(=O)[C@@H]2CCC[C@@H](C(=O)OCCOC(=O)c3ccc(-c4c5nc(c(-c6cccc(S(=O)(=O)[O-])c6F)c6ccc([nH]6)c(-c6cccc(S(=O)(=O)[O-])c6F)c6nc(c(-c7cccc(S(=O)(=O)[O-])c7F)c7ccc4[nH]7)C=C6)C=C5)cc3)C2)ncc1Br
REMARK SMILES IDX 17 1 16 2 15 3 13 4 14 5 12 6 8 7 9 8 84 9 10 10 11 11 6 12
REMARK SMILES IDX 5 13 7 15 4 16 1 17 2 18 3 19 87 20 86 21 88 22 85 23 18 24
REMARK SMILES IDX 19 25 20 26 21 27 22 28 83 29 23 30 82 31 24 32 25 33 26 34
REMARK SMILES IDX 76 35 27 36 81 37 75 38 77 39 28 40 80 41 74 42 73 43 29 45
REMARK SMILES IDX 61 46 41 47 60 48 42 49 45 50 59 51 78 52 43 53 44 54 58 56
REMARK SMILES IDX 79 57 46 58 30 59 31 60 39 61 32 62 34 63 40 64 33 65 35 66
REMARK SMILES IDX 36 67 37 68 38 69 62 70 63 71 71 72 64 73 66 74 72 75 65 76
REMARK SMILES IDX 67 77 68 78 69 79 70 80 47 81 48 82 56 83 49 84 51 85 57 86
REMARK SMILES IDX 50 87 52 88 53 89 54 90 55 91
REMARK H PARENT 5 14 77 44 45 55
REMARK Flexibility Score: inf
ROOT
ATOM      1  C   UNL A   1      37.896  20.324  24.990  1.00  0.00     0.275 C 
ENDROOT
BRANCH   1   2
ATOM      2  C   UNL A   1      36.368  20.360  24.997  1.00  0.00     0.274 C 
BRANCH   2   3
ATOM      3  O   UNL A   1      35.862  21.623  24.526  1.00  0.00    -0.462 OA
BRANCH   3   4
ATOM      4  C   UNL A   1      35.003  22.288  25.341  1.00  0.00     0.309 C 
ATOM      5  O   UNL A   1      35.272  23.331  25.926  1.00  0.00    -0.252 OA
BRANCH   4   6
ATOM      6  C   UNL A   1      33.697  21.528  25.576  1.00  0.00     0.100 C 
ATOM      7  C   UNL A   1      31.884  23.367  25.706  1.00  0.00     0.080 C 
ATOM      8  C   UNL A   1      31.735  23.283  24.177  1.00  0.00     0.013 C 
ATOM      9  C   UNL A   1      32.624  22.222  26.412  1.00  0.00     0.028 C 
ATOM     10  C   UNL A   1      32.671  22.326  23.431  1.00  0.00     0.002 C 
ATOM     11  C   UNL A   1      33.111  21.111  24.235  1.00  0.00     0.015 C 
BRANCH   7  12
ATOM     12  C   UNL A   1      30.664  23.786  26.547  1.00  0.00     0.228 C 
ATOM     13  N   UNL A   1      29.949  24.929  26.454  1.00  0.00    -0.310 N 
ATOM     14  H   UNL A   1      29.253  25.006  27.148  1.00  0.00     0.171 HD
ATOM     15  O   UNL A   1      30.277  23.016  27.443  1.00  0.00    -0.274 OA
BRANCH  13  16
ATOM     16  C   UNL A   1      29.981  26.019  25.593  1.00  0.00     0.132 A 
ATOM     17  C   UNL A   1      32.326  28.976  25.150  1.00  0.00     0.046 C 
ATOM     18  C   UNL A   1      31.227  27.984  24.895  1.00  0.00    -0.032 A 
ATOM     19  C   UNL A   1      30.973  26.974  25.836  1.00  0.00     0.051 A 
ATOM     20  C   UNL A   1      30.423  28.021  23.755  1.00  0.00     0.039 A 
ATOM     21  C   UNL A   1      29.394  27.094  23.645  1.00  0.00     0.129 A 
ATOM     22  Br  UNL A   1      30.707  29.241  22.337  1.00  0.00    -0.049 Br
ATOM     23  N   UNL A   1      29.151  26.109  24.545  1.00  0.00    -0.238 NA
ENDBRANCH  13  16
ENDBRANCH   7  12
ENDBRANCH   4   6
ENDBRANCH   3   4
ENDBRANCH   2   3
ENDBRANCH   1   2
BRANCH   1  24
ATOM     24  O   UNL A   1      38.441  21.458  25.679  1.00  0.00    -0.458 OA
BRANCH  24  25
ATOM     25  C   UNL A   1      39.580  21.212  26.373  1.00  0.00     0.338 C 
ATOM     26  O   UNL A   1      40.160  20.145  26.486  1.00  0.00    -0.246 OA
BRANCH  25  27
ATOM     27  C   UNL A   1      40.130  22.499  26.821  1.00  0.00     0.060 A 
ATOM     28  C   UNL A   1      41.074  22.555  27.846  1.00  0.00     0.016 A 
ATOM     29  C   UNL A   1      39.670  23.668  26.204  1.00  0.00     0.016 A 
ATOM     30  C   UNL A   1      41.539  23.797  28.272  1.00  0.00     0.010 A 
ATOM     31  C   UNL A   1      40.126  24.909  26.639  1.00  0.00     0.010 A 
ATOM     32  C   UNL A   1      41.060  24.980  27.678  1.00  0.00    -0.014 A 
BRANCH  32  33
ATOM     33  C   UNL A   1      41.623  26.283  28.084  1.00  0.00     0.031 A 
ATOM     34  C   UNL A   1      43.035  26.658  27.753  1.00  0.00     0.074 A 
ATOM     35  C   UNL A   1      40.831  27.124  28.775  1.00  0.00     0.049 A 
ATOM     36  N   UNL A   1      43.627  27.813  27.909  1.00  0.00    -0.248 NA
ATOM     37  C   UNL A   1      43.898  25.610  27.185  1.00  0.00     0.031 C 
ATOM     38  C   UNL A   1      39.473  26.813  29.227  1.00  0.00     0.029 A 
ATOM     39  N   UNL A   1      41.047  28.404  29.209  1.00  0.00    -0.354 N 
ATOM     40  C   UNL A   1      44.930  27.636  27.462  1.00  0.00     0.074 A 
ATOM     41  C   UNL A   1      45.053  26.253  27.054  1.00  0.00     0.031 C 
ATOM     42  C   UNL A   1      38.965  27.887  29.852  1.00  0.00     0.029 A 
ATOM     43  C   UNL A   1      39.959  28.955  29.843  1.00  0.00     0.049 A 
ATOM     44  H   UNL A   1      41.897  28.883  29.081  1.00  0.00     0.167 HD
ATOM     45  C   UNL A   1      45.916  28.557  27.375  1.00  0.00     0.034 A 
ATOM     46  C   UNL A   1      39.774  30.194  30.336  1.00  0.00     0.034 A 
ATOM     47  C   UNL A   1      45.767  29.934  27.763  1.00  0.00     0.049 A 
ATOM     48  C   UNL A   1      40.865  31.212  30.177  1.00  0.00     0.074 A 
ATOM     49  C   UNL A   1      46.680  30.966  27.633  1.00  0.00     0.029 A 
ATOM     50  N   UNL A   1      44.638  30.470  28.362  1.00  0.00    -0.354 N 
ATOM     51  N   UNL A   1      42.034  31.075  29.600  1.00  0.00    -0.248 NA
ATOM     52  C   UNL A   1      40.606  32.558  30.704  1.00  0.00     0.031 C 
ATOM     53  C   UNL A   1      46.106  32.124  28.165  1.00  0.00     0.029 A 
ATOM     54  C   UNL A   1      44.832  31.815  28.616  1.00  0.00     0.049 A 
ATOM     55  H   UNL A   1      43.819  29.967  28.576  1.00  0.00     0.167 HD
ATOM     56  C   UNL A   1      42.645  32.318  29.677  1.00  0.00     0.074 A 
ATOM     57  C   UNL A   1      41.709  33.203  30.344  1.00  0.00     0.031 C 
ATOM     58  C   UNL A   1      43.875  32.689  29.246  1.00  0.00     0.034 A 
BRANCH  45  59
ATOM     59  C   UNL A   1      47.227  28.143  26.765  1.00  0.00     0.023 A 
ATOM     60  C   UNL A   1      48.277  27.742  27.617  1.00  0.00     0.012 A 
ATOM     61  C   UNL A   1      47.384  28.029  25.369  1.00  0.00     0.148 A 
ATOM     62  C   UNL A   1      49.466  27.242  27.090  1.00  0.00     0.002 A 
ATOM     63  C   UNL A   1      48.563  27.504  24.852  1.00  0.00     0.091 A 
ATOM     64  F   UNL A   1      46.374  28.423  24.580  1.00  0.00    -0.205 F 
ATOM     65  C   UNL A   1      49.605  27.113  25.711  1.00  0.00     0.022 A 
BRANCH  63  66
ATOM     66  S   UNL A   1      48.829  27.242  23.095  1.00  0.00     0.127 S 
ATOM     67  O   UNL A   1      50.287  27.320  23.002  1.00  0.00    -0.237 OA
ATOM     68  O   UNL A   1      48.277  25.901  22.898  1.00  0.00    -0.237 OA
ATOM     69  O   UNL A   1      48.110  28.308  22.412  1.00  0.00    -0.744 OA
ENDBRANCH  63  66
ENDBRANCH  45  59
BRANCH  46  70
ATOM     70  C   UNL A   1      38.454  30.545  30.922  1.00  0.00     0.023 A 
ATOM     71  C   UNL A   1      38.211  30.269  32.281  1.00  0.00     0.012 A 
ATOM     72  C   UNL A   1      37.486  31.238  30.172  1.00  0.00     0.148 A 
ATOM     73  C   UNL A   1      37.021  30.674  32.884  1.00  0.00     0.002 A 
ATOM     74  C   UNL A   1      36.318  31.672  30.788  1.00  0.00     0.091 A 
ATOM     75  F   UNL A   1      37.746  31.491  28.882  1.00  0.00    -0.205 F 
ATOM     76  C   UNL A   1      36.081  31.383  32.142  1.00  0.00     0.022 A 
BRANCH  74  77
ATOM     77  S   UNL A   1      35.093  32.679  29.946  1.00  0.00     0.127 S 
ATOM     78  O   UNL A   1      34.603  31.759  28.924  1.00  0.00    -0.237 OA
ATOM     79  O   UNL A   1      34.146  32.962  31.025  1.00  0.00    -0.237 OA
ATOM     80  O   UNL A   1      35.810  33.845  29.447  1.00  0.00    -0.744 OA
ENDBRANCH  74  77
ENDBRANCH  46  70
BRANCH  58  81
ATOM     81  C   UNL A   1      44.303  34.109  29.478  1.00  0.00     0.023 A 
ATOM     82  C   UNL A   1      45.054  34.422  30.627  1.00  0.00     0.012 A 
ATOM     83  C   UNL A   1      44.082  35.098  28.498  1.00  0.00     0.148 A 
ATOM     84  C   UNL A   1      45.576  35.701  30.802  1.00  0.00     0.002 A 
ATOM     85  C   UNL A   1      44.634  36.362  28.664  1.00  0.00     0.091 A 
ATOM     86  F   UNL A   1      43.357  34.773  27.418  1.00  0.00    -0.205 F 
ATOM     87  C   UNL A   1      45.378  36.666  29.816  1.00  0.00     0.022 A 
BRANCH  85  88
ATOM     88  S   UNL A   1      44.500  37.648  27.418  1.00  0.00     0.127 S 
ATOM     89  O   UNL A   1      43.219  37.323  26.792  1.00  0.00    -0.237 OA
ATOM     90  O   UNL A   1      44.490  38.865  28.231  1.00  0.00    -0.237 OA
ATOM     91  O   UNL A   1      45.664  37.501  26.555  1.00  0.00    -0.744 OA
ENDBRANCH  85  88
ENDBRANCH  58  81
ENDBRANCH  32  33
ENDBRANCH  25  27
ENDBRANCH  24  25
ENDBRANCH   1  24
TORSDOF 16
ENDMDL
