MODEL 1
REMARK VINA RESULT:     -12.0      0.000      0.000
REMARK SMILES NS(=O)(=O)c1ccc(-n2nc(C(=O)OCCOC(=O)c3ccc(-c4c5nc(c(-c6cccc(S(=O)(=O)[O-])c6F)c6ccc([nH]6)c(-c6cccc(S(=O)(=O)[O-])c6F)c6nc(c(-c7cccc(S(=O)(=O)[O-])c7F)c7ccc4[nH]7)C=C6)C=C5)cc3)cc2-c2cc3ccccc3s2)cc1
REMARK SMILES IDX 15 1 14 2 12 3 13 4 11 5 9 6 10 7 84 8 83 9 8 10 5 11 6 12
REMARK SMILES IDX 95 13 7 14 94 15 2 16 3 17 4 18 1 19 85 22 86 23 93 24 87 25
REMARK SMILES IDX 92 26 88 27 91 28 89 29 90 30 16 31 17 32 18 33 19 34 20 35
REMARK SMILES IDX 21 36 82 37 22 38 81 39 23 40 24 41 25 42 75 43 26 44 80 45
REMARK SMILES IDX 74 46 76 47 27 48 79 49 73 50 72 51 28 53 60 54 40 55 59 56
REMARK SMILES IDX 41 57 44 58 58 59 77 60 42 61 43 62 57 64 78 65 45 66 29 67
REMARK SMILES IDX 30 68 38 69 31 70 33 71 39 72 32 73 34 74 35 75 36 76 37 77
REMARK SMILES IDX 61 78 62 79 70 80 63 81 65 82 71 83 64 84 66 85 67 86 68 87
REMARK SMILES IDX 69 88 46 89 47 90 55 91 48 92 50 93 56 94 49 95 51 96 52 97
REMARK SMILES IDX 53 98 54 99
REMARK H PARENT 1 20 1 21 76 52 44 63
REMARK Flexibility Score: inf
ROOT
ATOM      1  C   UNL A   1      34.314  32.173  27.816  1.00  0.00     0.275 C 
ENDROOT
BRANCH   1   2
ATOM      2  O   UNL A   1      33.799  30.857  27.557  1.00  0.00    -0.457 OA
BRANCH   2   3
ATOM      3  C   UNL A   1      32.593  30.777  26.894  1.00  0.00     0.358 C 
ATOM      4  O   UNL A   1      31.811  31.714  26.785  1.00  0.00    -0.244 OA
BRANCH   3   5
ATOM      5  C   UNL A   1      32.370  29.424  26.356  1.00  0.00     0.171 A 
ATOM      6  N   UNL A   1      32.788  27.417  25.765  1.00  0.00    -0.231 N 
ATOM      7  N   UNL A   1      32.977  28.300  26.784  1.00  0.00    -0.160 NA
ATOM      8  C   UNL A   1      32.114  28.001  24.716  1.00  0.00     0.085 A 
ATOM      9  C   UNL A   1      31.531  29.128  25.262  1.00  0.00     0.068 A 
BRANCH   6  10
ATOM     10  C   UNL A   1      33.276  26.101  25.865  1.00  0.00     0.065 A 
ATOM     11  C   UNL A   1      34.167  23.481  26.020  1.00  0.00     0.082 A 
ATOM     12  C   UNL A   1      35.051  24.491  25.625  1.00  0.00     0.024 A 
ATOM     13  C   UNL A   1      32.841  23.773  26.355  1.00  0.00     0.024 A 
ATOM     14  C   UNL A   1      34.598  25.806  25.521  1.00  0.00     0.030 A 
ATOM     15  C   UNL A   1      32.401  25.097  26.304  1.00  0.00     0.030 A 
BRANCH  11  16
ATOM     16  S   UNL A   1      34.749  21.815  26.109  1.00  0.00     0.238 S 
ATOM     17  O   UNL A   1      36.160  21.766  25.835  1.00  0.00    -0.207 OA
ATOM     18  O   UNL A   1      33.790  20.950  25.451  1.00  0.00    -0.207 OA
BRANCH  16  19
ATOM     19  N   UNL A   1      34.609  21.480  27.752  1.00  0.00    -0.225 NA
ATOM     20  H   UNL A   1      35.025  20.571  27.951  1.00  0.00     0.137 HD
ATOM     21  H   UNL A   1      33.622  21.467  28.014  1.00  0.00     0.137 HD
ENDBRANCH  16  19
ENDBRANCH  11  16
ENDBRANCH   6  10
BRANCH   8  22
ATOM     22  C   UNL A   1      32.181  27.750  23.300  1.00  0.00     0.054 A 
ATOM     23  C   UNL A   1      33.093  26.919  22.655  1.00  0.00     0.031 A 
ATOM     24  S   UNL A   1      30.642  27.341  22.561  1.00  0.00    -0.134 S 
ATOM     25  C   UNL A   1      32.491  25.590  22.625  1.00  0.00    -0.007 A 
ATOM     26  C   UNL A   1      31.099  25.677  22.785  1.00  0.00     0.035 A 
ATOM     27  C   UNL A   1      33.082  24.307  22.645  1.00  0.00     0.009 A 
ATOM     28  C   UNL A   1      30.306  24.570  23.115  1.00  0.00     0.019 A 
ATOM     29  C   UNL A   1      32.301  23.199  22.999  1.00  0.00     0.001 A 
ATOM     30  C   UNL A   1      30.943  23.338  23.274  1.00  0.00     0.001 A 
ENDBRANCH   8  22
ENDBRANCH   3   5
ENDBRANCH   2   3
ENDBRANCH   1   2
BRANCH   1  31
ATOM     31  C   UNL A   1      34.382  32.442  29.312  1.00  0.00     0.275 C 
BRANCH  31  32
ATOM     32  O   UNL A   1      35.241  31.498  29.939  1.00  0.00    -0.458 OA
BRANCH  32  33
ATOM     33  C   UNL A   1      36.347  32.029  30.504  1.00  0.00     0.338 C 
ATOM     34  O   UNL A   1      36.403  32.977  31.271  1.00  0.00    -0.246 OA
BRANCH  33  35
ATOM     35  C   UNL A   1      37.525  31.409  29.912  1.00  0.00     0.060 A 
ATOM     36  C   UNL A   1      37.437  30.053  29.586  1.00  0.00     0.016 A 
ATOM     37  C   UNL A   1      38.744  32.080  30.053  1.00  0.00     0.016 A 
ATOM     38  C   UNL A   1      38.593  29.311  29.616  1.00  0.00     0.010 A 
ATOM     39  C   UNL A   1      39.887  31.336  30.117  1.00  0.00     0.010 A 
ATOM     40  C   UNL A   1      39.782  29.955  29.975  1.00  0.00    -0.014 A 
BRANCH  40  41
ATOM     41  C   UNL A   1      41.000  29.180  30.021  1.00  0.00     0.031 A 
ATOM     42  C   UNL A   1      41.405  28.953  31.428  1.00  0.00     0.074 A 
ATOM     43  C   UNL A   1      41.521  28.642  28.900  1.00  0.00     0.049 A 
ATOM     44  N   UNL A   1      42.426  29.447  32.046  1.00  0.00    -0.248 NA
ATOM     45  C   UNL A   1      40.421  28.320  32.330  1.00  0.00     0.031 C 
ATOM     46  C   UNL A   1      40.906  28.640  27.564  1.00  0.00     0.029 A 
ATOM     47  N   UNL A   1      42.609  27.843  28.732  1.00  0.00    -0.354 N 
ATOM     48  C   UNL A   1      42.358  28.890  33.323  1.00  0.00     0.074 A 
ATOM     49  C   UNL A   1      40.994  28.501  33.520  1.00  0.00     0.031 C 
ATOM     50  C   UNL A   1      41.472  27.667  26.816  1.00  0.00     0.029 A 
ATOM     51  C   UNL A   1      42.561  27.072  27.569  1.00  0.00     0.049 A 
ATOM     52  H   UNL A   1      43.359  27.811  29.369  1.00  0.00     0.167 HD
ATOM     53  C   UNL A   1      43.488  28.395  33.898  1.00  0.00     0.034 A 
ATOM     54  C   UNL A   1      43.302  25.970  27.296  1.00  0.00     0.034 A 
ATOM     55  C   UNL A   1      44.651  28.912  33.222  1.00  0.00     0.049 A 
ATOM     56  C   UNL A   1      44.462  25.981  28.211  1.00  0.00     0.074 A 
ATOM     57  C   UNL A   1      45.301  30.121  33.122  1.00  0.00     0.029 A 
ATOM     58  N   UNL A   1      45.030  28.143  32.152  1.00  0.00    -0.354 N 
ATOM     59  N   UNL A   1      45.402  26.883  28.160  1.00  0.00    -0.248 NA
ATOM     60  C   UNL A   1      44.395  25.215  29.452  1.00  0.00     0.031 C 
ATOM     61  C   UNL A   1      45.981  30.097  31.868  1.00  0.00     0.029 A 
ATOM     62  C   UNL A   1      45.777  28.857  31.263  1.00  0.00     0.049 A 
ATOM     63  H   UNL A   1      44.793  27.193  32.041  1.00  0.00     0.167 HD
ATOM     64  C   UNL A   1      45.709  27.113  29.489  1.00  0.00     0.074 A 
ATOM     65  C   UNL A   1      45.215  25.946  30.210  1.00  0.00     0.031 C 
ATOM     66  C   UNL A   1      46.014  28.368  29.923  1.00  0.00     0.034 A 
BRANCH  53  67
ATOM     67  C   UNL A   1      43.579  27.063  34.637  1.00  0.00     0.023 A 
ATOM     68  C   UNL A   1      43.814  27.141  36.030  1.00  0.00     0.012 A 
ATOM     69  C   UNL A   1      43.763  25.792  34.040  1.00  0.00     0.148 A 
ATOM     70  C   UNL A   1      44.277  26.044  36.766  1.00  0.00     0.002 A 
ATOM     71  C   UNL A   1      44.171  24.690  34.785  1.00  0.00     0.091 A 
ATOM     72  F   UNL A   1      43.662  25.638  32.722  1.00  0.00    -0.205 F 
ATOM     73  C   UNL A   1      44.458  24.817  36.142  1.00  0.00     0.022 A 
BRANCH  71  74
ATOM     74  S   UNL A   1      44.415  23.073  34.028  1.00  0.00     0.127 S 
ATOM     75  O   UNL A   1      45.794  23.177  33.560  1.00  0.00    -0.237 OA
ATOM     76  O   UNL A   1      44.210  22.182  35.169  1.00  0.00    -0.237 OA
ATOM     77  O   UNL A   1      43.399  22.958  32.989  1.00  0.00    -0.744 OA
ENDBRANCH  71  74
ENDBRANCH  53  67
BRANCH  54  78
ATOM     78  C   UNL A   1      42.971  24.774  26.484  1.00  0.00     0.023 A 
ATOM     79  C   UNL A   1      43.830  24.365  25.444  1.00  0.00     0.012 A 
ATOM     80  C   UNL A   1      41.964  23.878  26.904  1.00  0.00     0.148 A 
ATOM     81  C   UNL A   1      43.710  23.095  24.863  1.00  0.00     0.002 A 
ATOM     82  C   UNL A   1      41.842  22.619  26.320  1.00  0.00     0.091 A 
ATOM     83  F   UNL A   1      41.182  24.229  27.933  1.00  0.00    -0.205 F 
ATOM     84  C   UNL A   1      42.723  22.220  25.307  1.00  0.00     0.022 A 
BRANCH  82  85
ATOM     85  S   UNL A   1      40.610  21.424  26.854  1.00  0.00     0.127 S 
ATOM     86  O   UNL A   1      41.021  20.226  26.122  1.00  0.00    -0.237 OA
ATOM     87  O   UNL A   1      40.842  21.371  28.294  1.00  0.00    -0.237 OA
ATOM     88  O   UNL A   1      39.321  21.966  26.444  1.00  0.00    -0.744 OA
ENDBRANCH  82  85
ENDBRANCH  54  78
BRANCH  66  89
ATOM     89  C   UNL A   1      46.506  29.355  28.910  1.00  0.00     0.023 A 
ATOM     90  C   UNL A   1      47.818  29.360  28.399  1.00  0.00     0.012 A 
ATOM     91  C   UNL A   1      45.552  30.229  28.371  1.00  0.00     0.148 A 
ATOM     92  C   UNL A   1      48.167  30.236  27.366  1.00  0.00     0.002 A 
ATOM     93  C   UNL A   1      45.887  31.058  27.314  1.00  0.00     0.091 A 
ATOM     94  F   UNL A   1      44.313  30.208  28.888  1.00  0.00    -0.205 F 
ATOM     95  C   UNL A   1      47.197  31.073  26.813  1.00  0.00     0.022 A 
BRANCH  93  96
ATOM     96  S   UNL A   1      44.646  32.055  26.491  1.00  0.00     0.127 S 
ATOM     97  O   UNL A   1      44.254  32.986  27.547  1.00  0.00    -0.237 OA
ATOM     98  O   UNL A   1      45.406  32.655  25.394  1.00  0.00    -0.237 OA
ATOM     99  O   UNL A   1      43.608  31.127  26.056  1.00  0.00    -0.744 OA
ENDBRANCH  93  96
ENDBRANCH  66  89
ENDBRANCH  40  41
ENDBRANCH  33  35
ENDBRANCH  32  33
ENDBRANCH  31  32
ENDBRANCH   1  31
TORSDOF 18
ENDMDL
MODEL 2
REMARK VINA RESULT:     -11.8      1.672      2.296
REMARK SMILES NS(=O)(=O)c1ccc(-n2nc(C(=O)OCCOC(=O)c3ccc(-c4c5nc(c(-c6cccc(S(=O)(=O)[O-])c6F)c6ccc([nH]6)c(-c6cccc(S(=O)(=O)[O-])c6F)c6nc(c(-c7cccc(S(=O)(=O)[O-])c7F)c7ccc4[nH]7)C=C6)C=C5)cc3)cc2-c2cc3ccccc3s2)cc1
REMARK SMILES IDX 15 1 14 2 12 3 13 4 11 5 9 6 10 7 84 8 83 9 8 10 5 11 6 12
REMARK SMILES IDX 95 13 7 14 94 15 2 16 3 17 4 18 1 19 85 22 86 23 93 24 87 25
REMARK SMILES IDX 92 26 88 27 91 28 89 29 90 30 16 31 17 32 18 33 19 34 20 35
REMARK SMILES IDX 21 36 82 37 22 38 81 39 23 40 24 41 25 42 75 43 26 44 80 45
REMARK SMILES IDX 74 46 76 47 27 48 79 49 73 50 72 51 28 53 60 54 40 55 59 56
REMARK SMILES IDX 41 57 44 58 58 59 77 60 42 61 43 62 57 64 78 65 45 66 29 67
REMARK SMILES IDX 30 68 38 69 31 70 33 71 39 72 32 73 34 74 35 75 36 76 37 77
REMARK SMILES IDX 61 78 62 79 70 80 63 81 65 82 71 83 64 84 66 85 67 86 68 87
REMARK SMILES IDX 69 88 46 89 47 90 55 91 48 92 50 93 56 94 49 95 51 96 52 97
REMARK SMILES IDX 53 98 54 99
REMARK H PARENT 1 20 1 21 76 52 44 63
REMARK Flexibility Score: inf
ROOT
ATOM      1  C   UNL A   1      35.104  31.511  27.732  1.00  0.00     0.275 C 
ENDROOT
BRANCH   1   2
ATOM      2  O   UNL A   1      34.391  30.272  27.585  1.00  0.00    -0.457 OA
BRANCH   2   3
ATOM      3  C   UNL A   1      33.112  30.343  27.078  1.00  0.00     0.358 C 
ATOM      4  O   UNL A   1      32.444  31.370  27.051  1.00  0.00    -0.244 OA
BRANCH   3   5
ATOM      5  C   UNL A   1      32.656  29.028  26.596  1.00  0.00     0.171 A 
ATOM      6  N   UNL A   1      32.757  27.019  25.882  1.00  0.00    -0.231 N 
ATOM      7  N   UNL A   1      33.270  27.852  26.831  1.00  0.00    -0.160 NA
ATOM      8  C   UNL A   1      31.877  27.684  25.058  1.00  0.00     0.085 A 
ATOM      9  C   UNL A   1      31.541  28.827  25.757  1.00  0.00     0.068 A 
BRANCH   6  10
ATOM     10  C   UNL A   1      33.156  25.671  25.829  1.00  0.00     0.065 A 
ATOM     11  C   UNL A   1      33.860  22.993  25.703  1.00  0.00     0.082 A 
ATOM     12  C   UNL A   1      34.670  23.953  25.085  1.00  0.00     0.024 A 
ATOM     13  C   UNL A   1      32.706  23.364  26.399  1.00  0.00     0.024 A 
ATOM     14  C   UNL A   1      34.304  25.298  25.125  1.00  0.00     0.030 A 
ATOM     15  C   UNL A   1      32.367  24.715  26.487  1.00  0.00     0.030 A 
BRANCH  11  16
ATOM     16  S   UNL A   1      34.321  21.290  25.609  1.00  0.00     0.238 S 
ATOM     17  O   UNL A   1      35.703  21.127  25.971  1.00  0.00    -0.207 OA
ATOM     18  O   UNL A   1      33.752  20.719  24.405  1.00  0.00    -0.207 OA
BRANCH  16  19
ATOM     19  N   UNL A   1      33.451  20.619  26.884  1.00  0.00    -0.225 NA
ATOM     20  H   UNL A   1      34.092  20.150  27.523  1.00  0.00     0.137 HD
ATOM     21  H   UNL A   1      32.779  19.943  26.519  1.00  0.00     0.137 HD
ENDBRANCH  16  19
ENDBRANCH  11  16
ENDBRANCH   6  10
BRANCH   8  22
ATOM     22  C   UNL A   1      31.553  27.478  23.670  1.00  0.00     0.054 A 
ATOM     23  C   UNL A   1      30.382  26.912  23.174  1.00  0.00     0.031 A 
ATOM     24  S   UNL A   1      31.808  28.883  22.649  1.00  0.00    -0.134 S 
ATOM     25  C   UNL A   1      29.439  28.011  22.989  1.00  0.00    -0.007 A 
ATOM     26  C   UNL A   1      30.121  29.233  22.895  1.00  0.00     0.035 A 
ATOM     27  C   UNL A   1      28.030  28.043  23.073  1.00  0.00     0.009 A 
ATOM     28  C   UNL A   1      29.479  30.471  23.036  1.00  0.00     0.019 A 
ATOM     29  C   UNL A   1      27.381  29.273  23.240  1.00  0.00     0.001 A 
ATOM     30  C   UNL A   1      28.102  30.464  23.266  1.00  0.00     0.001 A 
ENDBRANCH   8  22
ENDBRANCH   3   5
ENDBRANCH   2   3
ENDBRANCH   1   2
BRANCH   1  31
ATOM     31  C   UNL A   1      34.962  32.053  29.146  1.00  0.00     0.275 C 
BRANCH  31  32
ATOM     32  O   UNL A   1      35.422  31.090  30.086  1.00  0.00    -0.458 OA
BRANCH  32  33
ATOM     33  C   UNL A   1      36.526  31.454  30.773  1.00  0.00     0.338 C 
ATOM     34  O   UNL A   1      36.625  32.358  31.588  1.00  0.00    -0.246 OA
BRANCH  33  35
ATOM     35  C   UNL A   1      37.670  30.711  30.261  1.00  0.00     0.060 A 
ATOM     36  C   UNL A   1      37.637  29.320  30.387  1.00  0.00     0.016 A 
ATOM     37  C   UNL A   1      38.850  31.427  30.029  1.00  0.00     0.016 A 
ATOM     38  C   UNL A   1      38.836  28.659  30.499  1.00  0.00     0.010 A 
ATOM     39  C   UNL A   1      40.039  30.774  30.177  1.00  0.00     0.010 A 
ATOM     40  C   UNL A   1      40.011  29.417  30.487  1.00  0.00    -0.014 A 
BRANCH  40  41
ATOM     41  C   UNL A   1      41.276  28.732  30.617  1.00  0.00     0.031 A 
ATOM     42  C   UNL A   1      41.722  28.752  32.030  1.00  0.00     0.074 A 
ATOM     43  C   UNL A   1      41.808  28.055  29.579  1.00  0.00     0.049 A 
ATOM     44  N   UNL A   1      42.723  29.396  32.533  1.00  0.00    -0.248 NA
ATOM     45  C   UNL A   1      40.798  28.212  33.048  1.00  0.00     0.031 C 
ATOM     46  C   UNL A   1      41.168  27.808  28.278  1.00  0.00     0.029 A 
ATOM     47  N   UNL A   1      42.940  27.304  29.505  1.00  0.00    -0.354 N 
ATOM     48  C   UNL A   1      42.715  29.043  33.883  1.00  0.00     0.074 A 
ATOM     49  C   UNL A   1      41.382  28.611  34.178  1.00  0.00     0.031 C 
ATOM     50  C   UNL A   1      41.778  26.764  27.674  1.00  0.00     0.029 A 
ATOM     51  C   UNL A   1      42.917  26.359  28.478  1.00  0.00     0.049 A 
ATOM     52  H   UNL A   1      43.703  27.417  30.117  1.00  0.00     0.167 HD
ATOM     53  C   UNL A   1      43.884  28.712  34.494  1.00  0.00     0.034 A 
ATOM     54  C   UNL A   1      43.719  25.273  28.359  1.00  0.00     0.034 A 
ATOM     55  C   UNL A   1      44.999  29.183  33.713  1.00  0.00     0.049 A 
ATOM     56  C   UNL A   1      44.894  25.496  29.227  1.00  0.00     0.074 A 
ATOM     57  C   UNL A   1      45.571  30.397  33.407  1.00  0.00     0.029 A 
ATOM     58  N   UNL A   1      45.404  28.279  32.765  1.00  0.00    -0.354 N 
ATOM     59  N   UNL A   1      45.775  26.432  29.008  1.00  0.00    -0.248 NA
ATOM     60  C   UNL A   1      44.899  24.932  30.573  1.00  0.00     0.031 C 
ATOM     61  C   UNL A   1      46.226  30.217  32.153  1.00  0.00     0.029 A 
ATOM     62  C   UNL A   1      46.088  28.887  31.755  1.00  0.00     0.049 A 
ATOM     63  H   UNL A   1      45.225  27.311  32.810  1.00  0.00     0.167 HD
ATOM     64  C   UNL A   1      46.094  26.885  30.276  1.00  0.00     0.074 A 
ATOM     65  C   UNL A   1      45.687  25.819  31.184  1.00  0.00     0.031 C 
ATOM     66  C   UNL A   1      46.328  28.209  30.500  1.00  0.00     0.034 A 
BRANCH  53  67
ATOM     67  C   UNL A   1      44.073  27.520  35.430  1.00  0.00     0.023 A 
ATOM     68  C   UNL A   1      44.636  27.807  36.695  1.00  0.00     0.012 A 
ATOM     69  C   UNL A   1      44.037  26.155  35.053  1.00  0.00     0.148 A 
ATOM     70  C   UNL A   1      45.197  26.808  37.500  1.00  0.00     0.002 A 
ATOM     71  C   UNL A   1      44.546  25.158  35.880  1.00  0.00     0.091 A 
ATOM     72  F   UNL A   1      43.617  25.793  33.843  1.00  0.00    -0.205 F 
ATOM     73  C   UNL A   1      45.155  25.482  37.090  1.00  0.00     0.022 A 
BRANCH  71  74
ATOM     74  S   UNL A   1      44.511  23.422  35.402  1.00  0.00     0.127 S 
ATOM     75  O   UNL A   1      45.103  22.786  36.574  1.00  0.00    -0.237 OA
ATOM     76  O   UNL A   1      43.076  23.195  35.228  1.00  0.00    -0.237 OA
ATOM     77  O   UNL A   1      45.284  23.328  34.170  1.00  0.00    -0.744 OA
ENDBRANCH  71  74
ENDBRANCH  53  67
BRANCH  54  78
ATOM     78  C   UNL A   1      43.448  23.947  27.753  1.00  0.00     0.023 A 
ATOM     79  C   UNL A   1      42.208  23.311  27.968  1.00  0.00     0.012 A 
ATOM     80  C   UNL A   1      44.291  23.433  26.743  1.00  0.00     0.148 A 
ATOM     81  C   UNL A   1      41.808  22.220  27.184  1.00  0.00     0.002 A 
ATOM     82  C   UNL A   1      43.894  22.344  25.971  1.00  0.00     0.091 A 
ATOM     83  F   UNL A   1      45.442  24.066  26.487  1.00  0.00    -0.205 F 
ATOM     84  C   UNL A   1      42.646  21.743  26.181  1.00  0.00     0.022 A 
BRANCH  82  85
ATOM     85  S   UNL A   1      44.909  21.685  24.642  1.00  0.00     0.127 S 
ATOM     86  O   UNL A   1      46.184  21.463  25.323  1.00  0.00    -0.237 OA
ATOM     87  O   UNL A   1      44.187  20.469  24.282  1.00  0.00    -0.237 OA
ATOM     88  O   UNL A   1      44.948  22.720  23.616  1.00  0.00    -0.744 OA
ENDBRANCH  82  85
ENDBRANCH  54  78
BRANCH  66  89
ATOM     89  C   UNL A   1      46.738  29.051  29.333  1.00  0.00     0.023 A 
ATOM     90  C   UNL A   1      48.018  29.004  28.747  1.00  0.00     0.012 A 
ATOM     91  C   UNL A   1      45.734  29.827  28.736  1.00  0.00     0.148 A 
ATOM     92  C   UNL A   1      48.286  29.732  27.584  1.00  0.00     0.002 A 
ATOM     93  C   UNL A   1      45.988  30.505  27.556  1.00  0.00     0.091 A 
ATOM     94  F   UNL A   1      44.528  29.859  29.325  1.00  0.00    -0.205 F 
ATOM     95  C   UNL A   1      47.266  30.469  26.980  1.00  0.00     0.022 A 
BRANCH  93  96
ATOM     96  S   UNL A   1      44.679  31.357  26.679  1.00  0.00     0.127 S 
ATOM     97  O   UNL A   1      43.745  30.270  26.393  1.00  0.00    -0.237 OA
ATOM     98  O   UNL A   1      44.212  32.321  27.677  1.00  0.00    -0.237 OA
ATOM     99  O   UNL A   1      45.306  31.967  25.512  1.00  0.00    -0.744 OA
ENDBRANCH  93  96
ENDBRANCH  66  89
ENDBRANCH  40  41
ENDBRANCH  33  35
ENDBRANCH  32  33
ENDBRANCH  31  32
ENDBRANCH   1  31
TORSDOF 18
ENDMDL
MODEL 3
REMARK VINA RESULT:     -11.4      1.517      2.067
REMARK SMILES NS(=O)(=O)c1ccc(-n2nc(C(=O)OCCOC(=O)c3ccc(-c4c5nc(c(-c6cccc(S(=O)(=O)[O-])c6F)c6ccc([nH]6)c(-c6cccc(S(=O)(=O)[O-])c6F)c6nc(c(-c7cccc(S(=O)(=O)[O-])c7F)c7ccc4[nH]7)C=C6)C=C5)cc3)cc2-c2cc3ccccc3s2)cc1
REMARK SMILES IDX 15 1 14 2 12 3 13 4 11 5 9 6 10 7 84 8 83 9 8 10 5 11 6 12
REMARK SMILES IDX 95 13 7 14 94 15 2 16 3 17 4 18 1 19 85 22 86 23 93 24 87 25
REMARK SMILES IDX 92 26 88 27 91 28 89 29 90 30 16 31 17 32 18 33 19 34 20 35
REMARK SMILES IDX 21 36 82 37 22 38 81 39 23 40 24 41 25 42 75 43 26 44 80 45
REMARK SMILES IDX 74 46 76 47 27 48 79 49 73 50 72 51 28 53 60 54 40 55 59 56
REMARK SMILES IDX 41 57 44 58 58 59 77 60 42 61 43 62 57 64 78 65 45 66 29 67
REMARK SMILES IDX 30 68 38 69 31 70 33 71 39 72 32 73 34 74 35 75 36 76 37 77
REMARK SMILES IDX 61 78 62 79 70 80 63 81 65 82 71 83 64 84 66 85 67 86 68 87
REMARK SMILES IDX 69 88 46 89 47 90 55 91 48 92 50 93 56 94 49 95 51 96 52 97
REMARK SMILES IDX 53 98 54 99
REMARK H PARENT 1 20 1 21 76 52 44 63
REMARK Flexibility Score: inf
ROOT
ATOM      1  C   UNL A   1      33.909  31.862  27.320  1.00  0.00     0.275 C 
ENDROOT
BRANCH   1   2
ATOM      2  O   UNL A   1      33.463  30.499  27.220  1.00  0.00    -0.457 OA
BRANCH   2   3
ATOM      3  C   UNL A   1      32.286  30.274  26.541  1.00  0.00     0.358 C 
ATOM      4  O   UNL A   1      31.515  31.163  26.199  1.00  0.00    -0.244 OA
BRANCH   3   5
ATOM      5  C   UNL A   1      32.075  28.837  26.301  1.00  0.00     0.171 A 
ATOM      6  N   UNL A   1      32.490  26.833  25.696  1.00  0.00    -0.231 N 
ATOM      7  N   UNL A   1      33.023  27.882  26.381  1.00  0.00    -0.160 NA
ATOM      8  C   UNL A   1      31.257  27.152  25.173  1.00  0.00     0.085 A 
ATOM      9  C   UNL A   1      30.855  28.266  25.885  1.00  0.00     0.068 A 
BRANCH   6  10
ATOM     10  C   UNL A   1      33.200  25.623  25.582  1.00  0.00     0.065 A 
ATOM     11  C   UNL A   1      34.530  23.205  25.321  1.00  0.00     0.082 A 
ATOM     12  C   UNL A   1      35.176  24.394  24.964  1.00  0.00     0.024 A 
ATOM     13  C   UNL A   1      33.225  23.217  25.824  1.00  0.00     0.024 A 
ATOM     14  C   UNL A   1      34.500  25.609  25.070  1.00  0.00     0.030 A 
ATOM     15  C   UNL A   1      32.567  24.437  25.983  1.00  0.00     0.030 A 
BRANCH  11  16
ATOM     16  S   UNL A   1      35.390  21.672  25.143  1.00  0.00     0.238 S 
ATOM     17  O   UNL A   1      36.238  21.709  23.982  1.00  0.00    -0.207 OA
ATOM     18  O   UNL A   1      34.467  20.586  25.408  1.00  0.00    -0.207 OA
BRANCH  16  19
ATOM     19  N   UNL A   1      36.441  21.704  26.456  1.00  0.00    -0.225 NA
ATOM     20  H   UNL A   1      37.403  21.646  26.124  1.00  0.00     0.137 HD
ATOM     21  H   UNL A   1      36.244  20.911  27.069  1.00  0.00     0.137 HD
ENDBRANCH  16  19
ENDBRANCH  11  16
ENDBRANCH   6  10
BRANCH   8  22
ATOM     22  C   UNL A   1      30.595  26.692  23.980  1.00  0.00     0.054 A 
ATOM     23  C   UNL A   1      29.220  26.632  23.773  1.00  0.00     0.031 A 
ATOM     24  S   UNL A   1      31.216  27.386  22.492  1.00  0.00    -0.134 S 
ATOM     25  C   UNL A   1      28.831  27.921  23.209  1.00  0.00    -0.007 A 
ATOM     26  C   UNL A   1      29.940  28.561  22.634  1.00  0.00     0.035 A 
ATOM     27  C   UNL A   1      27.627  28.650  23.316  1.00  0.00     0.009 A 
ATOM     28  C   UNL A   1      29.942  29.924  22.310  1.00  0.00     0.019 A 
ATOM     29  C   UNL A   1      27.625  30.019  23.019  1.00  0.00     0.001 A 
ATOM     30  C   UNL A   1      28.779  30.654  22.565  1.00  0.00     0.001 A 
ENDBRANCH   8  22
ENDBRANCH   3   5
ENDBRANCH   2   3
ENDBRANCH   1   2
BRANCH   1  31
ATOM     31  C   UNL A   1      34.078  32.271  28.775  1.00  0.00     0.275 C 
BRANCH  31  32
ATOM     32  O   UNL A   1      34.982  31.388  29.428  1.00  0.00    -0.458 OA
BRANCH  32  33
ATOM     33  C   UNL A   1      36.047  31.991  30.000  1.00  0.00     0.338 C 
ATOM     34  O   UNL A   1      36.040  32.982  30.713  1.00  0.00    -0.246 OA
BRANCH  33  35
ATOM     35  C   UNL A   1      37.267  31.382  29.488  1.00  0.00     0.060 A 
ATOM     36  C   UNL A   1      37.212  30.027  29.151  1.00  0.00     0.016 A 
ATOM     37  C   UNL A   1      38.469  32.062  29.714  1.00  0.00     0.016 A 
ATOM     38  C   UNL A   1      38.369  29.294  29.256  1.00  0.00     0.010 A 
ATOM     39  C   UNL A   1      39.610  31.326  29.853  1.00  0.00     0.010 A 
ATOM     40  C   UNL A   1      39.525  29.945  29.698  1.00  0.00    -0.014 A 
BRANCH  40  41
ATOM     41  C   UNL A   1      40.744  29.180  29.825  1.00  0.00     0.031 A 
ATOM     42  C   UNL A   1      41.075  28.984  31.255  1.00  0.00     0.074 A 
ATOM     43  C   UNL A   1      41.326  28.622  28.744  1.00  0.00     0.049 A 
ATOM     44  N   UNL A   1      42.060  29.497  31.915  1.00  0.00    -0.248 NA
ATOM     45  C   UNL A   1      40.049  28.363  32.117  1.00  0.00     0.031 C 
ATOM     46  C   UNL A   1      40.782  28.589  27.377  1.00  0.00     0.029 A 
ATOM     47  N   UNL A   1      42.425  27.826  28.649  1.00  0.00    -0.354 N 
ATOM     48  C   UNL A   1      41.928  28.965  33.198  1.00  0.00     0.074 A 
ATOM     49  C   UNL A   1      40.558  28.571  33.331  1.00  0.00     0.031 C 
ATOM     50  C   UNL A   1      41.391  27.605  26.680  1.00  0.00     0.029 A 
ATOM     51  C   UNL A   1      42.443  27.032  27.502  1.00  0.00     0.049 A 
ATOM     52  H   UNL A   1      43.141  27.812  29.325  1.00  0.00     0.167 HD
ATOM     53  C   UNL A   1      43.028  28.490  33.842  1.00  0.00     0.034 A 
ATOM     54  C   UNL A   1      43.203  25.929  27.291  1.00  0.00     0.034 A 
ATOM     55  C   UNL A   1      44.222  29.000  33.217  1.00  0.00     0.049 A 
ATOM     56  C   UNL A   1      44.313  25.966  28.266  1.00  0.00     0.074 A 
ATOM     57  C   UNL A   1      44.871  30.211  33.126  1.00  0.00     0.029 A 
ATOM     58  N   UNL A   1      44.662  28.212  32.185  1.00  0.00    -0.354 N 
ATOM     59  N   UNL A   1      45.250  26.873  28.245  1.00  0.00    -0.248 NA
ATOM     60  C   UNL A   1      44.185  25.226  29.516  1.00  0.00     0.031 C 
ATOM     61  C   UNL A   1      45.616  30.166  31.911  1.00  0.00     0.029 A 
ATOM     62  C   UNL A   1      45.451  28.913  31.322  1.00  0.00     0.049 A 
ATOM     63  H   UNL A   1      44.436  27.259  32.081  1.00  0.00     0.167 HD
ATOM     64  C   UNL A   1      45.485  27.132  29.583  1.00  0.00     0.074 A 
ATOM     65  C   UNL A   1      44.960  25.977  30.301  1.00  0.00     0.031 C 
ATOM     66  C   UNL A   1      45.760  28.398  30.006  1.00  0.00     0.034 A 
BRANCH  53  67
ATOM     67  C   UNL A   1      43.088  27.174  34.613  1.00  0.00     0.023 A 
ATOM     68  C   UNL A   1      41.866  26.473  34.742  1.00  0.00     0.012 A 
ATOM     69  C   UNL A   1      44.145  26.754  35.457  1.00  0.00     0.148 A 
ATOM     70  C   UNL A   1      41.685  25.471  35.702  1.00  0.00     0.002 A 
ATOM     71  C   UNL A   1      43.978  25.720  36.373  1.00  0.00     0.091 A 
ATOM     72  F   UNL A   1      45.301  27.413  35.481  1.00  0.00    -0.205 F 
ATOM     73  C   UNL A   1      42.741  25.096  36.521  1.00  0.00     0.022 A 
BRANCH  71  74
ATOM     74  S   UNL A   1      45.316  25.188  37.456  1.00  0.00     0.127 S 
ATOM     75  O   UNL A   1      45.630  26.427  38.160  1.00  0.00    -0.237 OA
ATOM     76  O   UNL A   1      44.651  24.164  38.262  1.00  0.00    -0.237 OA
ATOM     77  O   UNL A   1      46.361  24.674  36.579  1.00  0.00    -0.744 OA
ENDBRANCH  71  74
ENDBRANCH  53  67
BRANCH  54  78
ATOM     78  C   UNL A   1      42.922  24.715  26.488  1.00  0.00     0.023 A 
ATOM     79  C   UNL A   1      43.846  24.279  25.516  1.00  0.00     0.012 A 
ATOM     80  C   UNL A   1      41.885  23.831  26.862  1.00  0.00     0.148 A 
ATOM     81  C   UNL A   1      43.759  22.996  24.959  1.00  0.00     0.002 A 
ATOM     82  C   UNL A   1      41.798  22.559  26.301  1.00  0.00     0.091 A 
ATOM     83  F   UNL A   1      41.039  24.209  27.829  1.00  0.00    -0.205 F 
ATOM     84  C   UNL A   1      42.742  22.133  25.358  1.00  0.00     0.022 A 
BRANCH  82  85
ATOM     85  S   UNL A   1      40.529  21.380  26.781  1.00  0.00     0.127 S 
ATOM     86  O   UNL A   1      40.913  20.198  26.009  1.00  0.00    -0.237 OA
ATOM     87  O   UNL A   1      40.747  21.268  28.221  1.00  0.00    -0.237 OA
ATOM     88  O   UNL A   1      39.258  21.973  26.381  1.00  0.00    -0.744 OA
ENDBRANCH  82  85
ENDBRANCH  54  78
BRANCH  66  89
ATOM     89  C   UNL A   1      46.300  29.367  29.001  1.00  0.00     0.023 A 
ATOM     90  C   UNL A   1      47.634  29.364  28.551  1.00  0.00     0.012 A 
ATOM     91  C   UNL A   1      45.372  30.232  28.402  1.00  0.00     0.148 A 
ATOM     92  C   UNL A   1      48.031  30.222  27.520  1.00  0.00     0.002 A 
ATOM     93  C   UNL A   1      45.756  31.042  27.348  1.00  0.00     0.091 A 
ATOM     94  F   UNL A   1      44.111  30.219  28.862  1.00  0.00    -0.205 F 
ATOM     95  C   UNL A   1      47.089  31.049  26.909  1.00  0.00     0.022 A 
BRANCH  93  96
ATOM     96  S   UNL A   1      44.556  32.024  26.451  1.00  0.00     0.127 S 
ATOM     97  O   UNL A   1      44.166  33.017  27.450  1.00  0.00    -0.237 OA
ATOM     98  O   UNL A   1      45.351  32.550  25.340  1.00  0.00    -0.237 OA
ATOM     99  O   UNL A   1      43.504  31.100  26.042  1.00  0.00    -0.744 OA
ENDBRANCH  93  96
ENDBRANCH  66  89
ENDBRANCH  40  41
ENDBRANCH  33  35
ENDBRANCH  32  33
ENDBRANCH  31  32
ENDBRANCH   1  31
TORSDOF 18
ENDMDL
