MODEL 1
REMARK VINA RESULT:     -11.2      0.000      0.000
REMARK SMILES CC(C)c1nc(N(C)C[C@@H]2CC[N@@H+](C)C2)sc1C(=O)OCCOC(=O)c1ccc(-c2c3nc(c(-c4cccc(S(=O)(=O)[O-])c4F)c4ccc([nH]4)c(-c4cccc(S(=O)(=O)[O-])c4F)c4nc(c(-c5cccc(S(=O)(=O)[O-])c5F)c5ccc2[nH]5)C=C4)C=C3)cc1
REMARK SMILES IDX 21 1 20 2 18 3 19 4 17 5 4 6 5 7 6 8 16 9 2 10 1 11 3 12
REMARK SMILES IDX 7 13 8 14 9 15 10 16 11 17 15 18 12 19 13 20 14 21 22 23
REMARK SMILES IDX 23 24 24 25 25 26 26 27 27 28 88 29 28 30 87 31 29 32 30 33
REMARK SMILES IDX 31 34 81 35 32 36 86 37 80 38 82 39 33 40 85 41 79 42 78 43
REMARK SMILES IDX 34 45 66 46 46 47 65 48 47 49 50 50 64 51 83 52 48 53 49 54
REMARK SMILES IDX 63 56 84 57 51 58 35 59 36 60 44 61 37 62 39 63 45 64 38 65
REMARK SMILES IDX 40 66 41 67 42 68 43 69 67 70 68 71 76 72 69 73 71 74 77 75
REMARK SMILES IDX 70 76 72 77 73 78 74 79 75 80 52 81 53 82 61 83 54 84 56 85
REMARK SMILES IDX 62 86 55 87 57 88 58 89 59 90 60 91
REMARK H PARENT 13 22 82 44 50 55
REMARK Flexibility Score: inf
ROOT
ATOM      1  C   UNL A   1      31.359  29.401  24.989  1.00  0.00     0.275 C 
ENDROOT
BRANCH   1   2
ATOM      2  O   UNL A   1      31.984  28.170  25.406  1.00  0.00    -0.458 OA
BRANCH   2   3
ATOM      3  C   UNL A   1      31.522  27.022  24.826  1.00  0.00     0.350 C 
ATOM      4  O   UNL A   1      30.371  26.875  24.438  1.00  0.00    -0.245 OA
BRANCH   3   5
ATOM      5  C   UNL A   1      32.589  26.053  24.688  1.00  0.00     0.137 A 
ATOM      6  C   UNL A   1      33.387  25.674  23.619  1.00  0.00     0.071 A 
ATOM      7  N   UNL A   1      34.208  24.578  23.883  1.00  0.00    -0.224 NA
ATOM      8  C   UNL A   1      34.006  24.094  25.090  1.00  0.00     0.186 A 
ATOM      9  S   UNL A   1      33.082  25.169  26.076  1.00  0.00    -0.089 S 
BRANCH   6  10
ATOM     10  C   UNL A   1      33.456  26.311  22.252  1.00  0.00     0.034 C 
ATOM     11  C   UNL A   1      32.176  26.033  21.455  1.00  0.00     0.014 C 
ATOM     12  C   UNL A   1      33.695  27.824  22.308  1.00  0.00     0.014 C 
ENDBRANCH   6  10
BRANCH   8  13
ATOM     13  N   UNL A   1      34.489  22.897  25.532  1.00  0.00    -0.351 N 
ATOM     14  C   UNL A   1      35.907  22.684  25.790  1.00  0.00     0.146 C 
BRANCH  13  15
ATOM     15  C   UNL A   1      33.615  21.727  25.603  1.00  0.00     0.128 C 
BRANCH  15  16
ATOM     16  C   UNL A   1      33.769  20.751  24.426  1.00  0.00     0.069 C 
ATOM     17  C   UNL A   1      32.536  20.675  23.515  1.00  0.00     0.072 C 
ATOM     18  C   UNL A   1      33.953  19.316  24.937  1.00  0.00     0.267 C 
ATOM     19  C   UNL A   1      32.164  19.200  23.474  1.00  0.00     0.262 C 
ATOM     20  N   UNL A   1      32.625  18.722  24.777  1.00  0.00    -0.337 N 
ATOM     21  C   UNL A   1      32.638  17.271  24.865  1.00  0.00     0.332 C 
ATOM     22  H   UNL A   1      31.997  19.000  25.531  1.00  0.00     0.347 HD
ENDBRANCH  15  16
ENDBRANCH  13  15
ENDBRANCH   8  13
ENDBRANCH   3   5
ENDBRANCH   2   3
ENDBRANCH   1   2
BRANCH   1  23
ATOM     23  C   UNL A   1      31.676  30.553  25.947  1.00  0.00     0.275 C 
BRANCH  23  24
ATOM     24  O   UNL A   1      32.981  30.400  26.532  1.00  0.00    -0.458 OA
BRANCH  24  25
ATOM     25  C   UNL A   1      33.445  31.485  27.194  1.00  0.00     0.338 C 
ATOM     26  O   UNL A   1      32.836  32.514  27.439  1.00  0.00    -0.246 OA
BRANCH  25  27
ATOM     27  C   UNL A   1      34.772  31.186  27.753  1.00  0.00     0.060 A 
ATOM     28  C   UNL A   1      35.005  29.871  28.149  1.00  0.00     0.016 A 
ATOM     29  C   UNL A   1      35.739  32.168  27.960  1.00  0.00     0.016 A 
ATOM     30  C   UNL A   1      36.203  29.516  28.758  1.00  0.00     0.010 A 
ATOM     31  C   UNL A   1      36.950  31.811  28.571  1.00  0.00     0.010 A 
ATOM     32  C   UNL A   1      37.185  30.485  28.985  1.00  0.00    -0.014 A 
BRANCH  32  33
ATOM     33  C   UNL A   1      38.423  30.111  29.714  1.00  0.00     0.031 A 
ATOM     34  C   UNL A   1      39.398  29.154  29.089  1.00  0.00     0.074 A 
ATOM     35  C   UNL A   1      38.682  30.647  30.922  1.00  0.00     0.049 A 
ATOM     36  N   UNL A   1      40.494  28.646  29.590  1.00  0.00    -0.248 NA
ATOM     37  C   UNL A   1      39.102  28.707  27.717  1.00  0.00     0.031 C 
ATOM     38  C   UNL A   1      37.829  31.609  31.621  1.00  0.00     0.029 A 
ATOM     39  N   UNL A   1      39.734  30.448  31.782  1.00  0.00    -0.354 N 
ATOM     40  C   UNL A   1      40.988  27.778  28.624  1.00  0.00     0.074 A 
ATOM     41  C   UNL A   1      40.077  27.835  27.500  1.00  0.00     0.031 C 
ATOM     42  C   UNL A   1      38.386  31.911  32.804  1.00  0.00     0.029 A 
ATOM     43  C   UNL A   1      39.610  31.132  32.969  1.00  0.00     0.049 A 
ATOM     44  H   UNL A   1      40.504  29.873  31.570  1.00  0.00     0.167 HD
ATOM     45  C   UNL A   1      42.103  27.011  28.665  1.00  0.00     0.034 A 
ATOM     46  C   UNL A   1      40.380  31.113  34.076  1.00  0.00     0.034 A 
ATOM     47  C   UNL A   1      43.034  26.998  29.761  1.00  0.00     0.049 A 
ATOM     48  C   UNL A   1      41.611  30.247  34.094  1.00  0.00     0.074 A 
ATOM     49  C   UNL A   1      44.215  26.287  29.876  1.00  0.00     0.029 A 
ATOM     50  N   UNL A   1      42.894  27.732  30.928  1.00  0.00    -0.354 N 
ATOM     51  N   UNL A   1      42.104  29.491  33.143  1.00  0.00    -0.248 NA
ATOM     52  C   UNL A   1      42.405  30.246  35.332  1.00  0.00     0.031 C 
ATOM     53  C   UNL A   1      44.782  26.580  31.122  1.00  0.00     0.029 A 
ATOM     54  C   UNL A   1      43.962  27.487  31.773  1.00  0.00     0.049 A 
ATOM     55  H   UNL A   1      42.144  28.338  31.128  1.00  0.00     0.167 HD
ATOM     56  C   UNL A   1      43.276  28.948  33.656  1.00  0.00     0.074 A 
ATOM     57  C   UNL A   1      43.433  29.480  34.993  1.00  0.00     0.031 C 
ATOM     58  C   UNL A   1      44.135  28.070  33.079  1.00  0.00     0.034 A 
BRANCH  45  59
ATOM     59  C   UNL A   1      42.391  26.129  27.479  1.00  0.00     0.023 A 
ATOM     60  C   UNL A   1      43.125  26.639  26.390  1.00  0.00     0.012 A 
ATOM     61  C   UNL A   1      41.985  24.780  27.469  1.00  0.00     0.148 A 
ATOM     62  C   UNL A   1      43.428  25.827  25.297  1.00  0.00     0.002 A 
ATOM     63  C   UNL A   1      42.323  23.967  26.394  1.00  0.00     0.091 A 
ATOM     64  F   UNL A   1      41.265  24.321  28.503  1.00  0.00    -0.205 F 
ATOM     65  C   UNL A   1      43.036  24.490  25.304  1.00  0.00     0.022 A 
BRANCH  63  66
ATOM     66  S   UNL A   1      41.926  22.215  26.345  1.00  0.00     0.127 S 
ATOM     67  O   UNL A   1      42.741  21.760  25.220  1.00  0.00    -0.237 OA
ATOM     68  O   UNL A   1      42.386  21.757  27.657  1.00  0.00    -0.237 OA
ATOM     69  O   UNL A   1      40.485  22.137  26.148  1.00  0.00    -0.744 OA
ENDBRANCH  63  66
ENDBRANCH  45  59
BRANCH  46  70
ATOM     70  C   UNL A   1      40.019  31.958  35.250  1.00  0.00     0.023 A 
ATOM     71  C   UNL A   1      40.589  33.239  35.382  1.00  0.00     0.012 A 
ATOM     72  C   UNL A   1      39.100  31.513  36.220  1.00  0.00     0.148 A 
ATOM     73  C   UNL A   1      40.267  34.052  36.471  1.00  0.00     0.002 A 
ATOM     74  C   UNL A   1      38.741  32.350  37.271  1.00  0.00     0.091 A 
ATOM     75  F   UNL A   1      38.588  30.281  36.093  1.00  0.00    -0.205 F 
ATOM     76  C   UNL A   1      39.335  33.613  37.407  1.00  0.00     0.022 A 
BRANCH  74  77
ATOM     77  S   UNL A   1      37.451  31.914  38.442  1.00  0.00     0.127 S 
ATOM     78  O   UNL A   1      38.121  32.129  39.721  1.00  0.00    -0.237 OA
ATOM     79  O   UNL A   1      36.405  32.887  38.122  1.00  0.00    -0.237 OA
ATOM     80  O   UNL A   1      37.095  30.535  38.133  1.00  0.00    -0.744 OA
ENDBRANCH  74  77
ENDBRANCH  46  70
BRANCH  58  81
ATOM     81  C   UNL A   1      45.341  27.649  33.877  1.00  0.00     0.023 A 
ATOM     82  C   UNL A   1      46.513  28.428  33.829  1.00  0.00     0.012 A 
ATOM     83  C   UNL A   1      45.286  26.529  34.729  1.00  0.00     0.148 A 
ATOM     84  C   UNL A   1      47.624  28.082  34.598  1.00  0.00     0.002 A 
ATOM     85  C   UNL A   1      46.380  26.217  35.526  1.00  0.00     0.091 A 
ATOM     86  F   UNL A   1      44.167  25.790  34.744  1.00  0.00    -0.205 F 
ATOM     87  C   UNL A   1      47.554  26.985  35.454  1.00  0.00     0.022 A 
BRANCH  85  88
ATOM     88  S   UNL A   1      46.343  24.879  36.725  1.00  0.00     0.127 S 
ATOM     89  O   UNL A   1      46.197  23.709  35.861  1.00  0.00    -0.237 OA
ATOM     90  O   UNL A   1      47.651  25.001  37.370  1.00  0.00    -0.237 OA
ATOM     91  O   UNL A   1      45.213  25.159  37.600  1.00  0.00    -0.744 OA
ENDBRANCH  85  88
ENDBRANCH  58  81
ENDBRANCH  32  33
ENDBRANCH  25  27
ENDBRANCH  24  25
ENDBRANCH  23  24
ENDBRANCH   1  23
TORSDOF 18
ENDMDL
MODEL 2
REMARK VINA RESULT:     -11.1      1.386      1.752
REMARK SMILES CC(C)c1nc(N(C)C[C@@H]2CC[N@@H+](C)C2)sc1C(=O)OCCOC(=O)c1ccc(-c2c3nc(c(-c4cccc(S(=O)(=O)[O-])c4F)c4ccc([nH]4)c(-c4cccc(S(=O)(=O)[O-])c4F)c4nc(c(-c5cccc(S(=O)(=O)[O-])c5F)c5ccc2[nH]5)C=C4)C=C3)cc1
REMARK SMILES IDX 21 1 20 2 18 3 19 4 17 5 4 6 5 7 6 8 16 9 2 10 1 11 3 12
REMARK SMILES IDX 7 13 8 14 9 15 10 16 11 17 15 18 12 19 13 20 14 21 22 23
REMARK SMILES IDX 23 24 24 25 25 26 26 27 27 28 88 29 28 30 87 31 29 32 30 33
REMARK SMILES IDX 31 34 81 35 32 36 86 37 80 38 82 39 33 40 85 41 79 42 78 43
REMARK SMILES IDX 34 45 66 46 46 47 65 48 47 49 50 50 64 51 83 52 48 53 49 54
REMARK SMILES IDX 63 56 84 57 51 58 35 59 36 60 44 61 37 62 39 63 45 64 38 65
REMARK SMILES IDX 40 66 41 67 42 68 43 69 67 70 68 71 76 72 69 73 71 74 77 75
REMARK SMILES IDX 70 76 72 77 73 78 74 79 75 80 52 81 53 82 61 83 54 84 56 85
REMARK SMILES IDX 62 86 55 87 57 88 58 89 59 90 60 91
REMARK H PARENT 13 22 82 44 50 55
REMARK Flexibility Score: inf
ROOT
ATOM      1  C   UNL A   1      31.483  28.699  24.778  1.00  0.00     0.275 C 
ENDROOT
BRANCH   1   2
ATOM      2  O   UNL A   1      31.072  27.496  25.459  1.00  0.00    -0.458 OA
BRANCH   2   3
ATOM      3  C   UNL A   1      30.611  26.476  24.674  1.00  0.00     0.350 C 
ATOM      4  O   UNL A   1      29.586  26.542  24.011  1.00  0.00    -0.245 OA
BRANCH   3   5
ATOM      5  C   UNL A   1      31.530  25.357  24.698  1.00  0.00     0.137 A 
ATOM      6  C   UNL A   1      32.275  24.728  23.713  1.00  0.00     0.071 A 
ATOM      7  N   UNL A   1      32.928  23.573  24.145  1.00  0.00    -0.224 NA
ATOM      8  C   UNL A   1      32.648  23.292  25.400  1.00  0.00     0.186 A 
ATOM      9  S   UNL A   1      31.879  24.612  26.206  1.00  0.00    -0.089 S 
BRANCH   6  10
ATOM     10  C   UNL A   1      32.448  25.155  22.275  1.00  0.00     0.034 C 
ATOM     11  C   UNL A   1      33.369  26.376  22.176  1.00  0.00     0.014 C 
ATOM     12  C   UNL A   1      32.997  24.037  21.381  1.00  0.00     0.014 C 
ENDBRANCH   6  10
BRANCH   8  13
ATOM     13  N   UNL A   1      32.951  22.112  26.012  1.00  0.00    -0.351 N 
ATOM     14  C   UNL A   1      33.962  22.020  27.058  1.00  0.00     0.146 C 
BRANCH  13  15
ATOM     15  C   UNL A   1      32.386  20.856  25.519  1.00  0.00     0.128 C 
BRANCH  15  16
ATOM     16  C   UNL A   1      33.142  20.247  24.330  1.00  0.00     0.069 C 
ATOM     17  C   UNL A   1      32.258  19.971  23.104  1.00  0.00     0.072 C 
ATOM     18  C   UNL A   1      33.713  18.872  24.702  1.00  0.00     0.267 C 
ATOM     19  C   UNL A   1      32.465  18.497  22.789  1.00  0.00     0.262 C 
ATOM     20  N   UNL A   1      32.762  17.932  24.105  1.00  0.00    -0.337 N 
ATOM     21  C   UNL A   1      33.280  16.575  24.025  1.00  0.00     0.332 C 
ATOM     22  H   UNL A   1      31.924  17.833  24.678  1.00  0.00     0.347 HD
ENDBRANCH  15  16
ENDBRANCH  13  15
ENDBRANCH   8  13
ENDBRANCH   3   5
ENDBRANCH   2   3
ENDBRANCH   1   2
BRANCH   1  23
ATOM     23  C   UNL A   1      31.630  29.878  25.745  1.00  0.00     0.275 C 
BRANCH  23  24
ATOM     24  O   UNL A   1      33.013  30.223  25.940  1.00  0.00    -0.458 OA
BRANCH  24  25
ATOM     25  C   UNL A   1      33.240  31.189  26.860  1.00  0.00     0.338 C 
ATOM     26  O   UNL A   1      32.458  32.048  27.234  1.00  0.00    -0.246 OA
BRANCH  25  27
ATOM     27  C   UNL A   1      34.542  30.956  27.501  1.00  0.00     0.060 A 
ATOM     28  C   UNL A   1      34.825  29.650  27.894  1.00  0.00     0.016 A 
ATOM     29  C   UNL A   1      35.435  31.987  27.785  1.00  0.00     0.016 A 
ATOM     30  C   UNL A   1      35.998  29.353  28.576  1.00  0.00     0.010 A 
ATOM     31  C   UNL A   1      36.622  31.690  28.470  1.00  0.00     0.010 A 
ATOM     32  C   UNL A   1      36.906  30.373  28.881  1.00  0.00    -0.014 A 
BRANCH  32  33
ATOM     33  C   UNL A   1      38.113  30.057  29.686  1.00  0.00     0.031 A 
ATOM     34  C   UNL A   1      39.169  29.147  29.124  1.00  0.00     0.074 A 
ATOM     35  C   UNL A   1      38.272  30.604  30.907  1.00  0.00     0.049 A 
ATOM     36  N   UNL A   1      40.254  28.692  29.693  1.00  0.00    -0.248 NA
ATOM     37  C   UNL A   1      38.979  28.688  27.738  1.00  0.00     0.031 C 
ATOM     38  C   UNL A   1      37.332  31.524  31.549  1.00  0.00     0.029 A 
ATOM     39  N   UNL A   1      39.277  30.455  31.830  1.00  0.00    -0.354 N 
ATOM     40  C   UNL A   1      40.847  27.848  28.761  1.00  0.00     0.074 A 
ATOM     41  C   UNL A   1      40.005  27.863  27.583  1.00  0.00     0.031 C 
ATOM     42  C   UNL A   1      37.801  31.852  32.764  1.00  0.00     0.029 A 
ATOM     43  C   UNL A   1      39.048  31.131  33.006  1.00  0.00     0.049 A 
ATOM     44  H   UNL A   1      40.085  29.916  31.666  1.00  0.00     0.167 HD
ATOM     45  C   UNL A   1      41.992  27.135  28.872  1.00  0.00     0.034 A 
ATOM     46  C   UNL A   1      39.748  31.147  34.158  1.00  0.00     0.034 A 
ATOM     47  C   UNL A   1      42.854  27.165  30.023  1.00  0.00     0.049 A 
ATOM     48  C   UNL A   1      41.016  30.341  34.253  1.00  0.00     0.074 A 
ATOM     49  C   UNL A   1      44.058  26.511  30.212  1.00  0.00     0.029 A 
ATOM     50  N   UNL A   1      42.608  27.891  31.178  1.00  0.00    -0.354 N 
ATOM     51  N   UNL A   1      41.601  29.610  33.336  1.00  0.00    -0.248 NA
ATOM     52  C   UNL A   1      41.731  30.377  35.538  1.00  0.00     0.031 C 
ATOM     53  C   UNL A   1      44.533  26.829  31.490  1.00  0.00     0.029 A 
ATOM     54  C   UNL A   1      43.633  27.696  32.087  1.00  0.00     0.049 A 
ATOM     55  H   UNL A   1      41.820  28.461  31.330  1.00  0.00     0.167 HD
ATOM     56  C   UNL A   1      42.764  29.122  33.921  1.00  0.00     0.074 A 
ATOM     57  C   UNL A   1      42.814  29.661  35.264  1.00  0.00     0.031 C 
ATOM     58  C   UNL A   1      43.697  28.286  33.400  1.00  0.00     0.034 A 
BRANCH  45  59
ATOM     59  C   UNL A   1      42.394  26.268  27.708  1.00  0.00     0.023 A 
ATOM     60  C   UNL A   1      43.256  26.781  26.719  1.00  0.00     0.012 A 
ATOM     61  C   UNL A   1      41.965  24.929  27.625  1.00  0.00     0.148 A 
ATOM     62  C   UNL A   1      43.663  25.983  25.650  1.00  0.00     0.002 A 
ATOM     63  C   UNL A   1      42.406  24.128  26.579  1.00  0.00     0.091 A 
ATOM     64  F   UNL A   1      41.125  24.468  28.563  1.00  0.00    -0.205 F 
ATOM     65  C   UNL A   1      43.247  24.655  25.586  1.00  0.00     0.022 A 
BRANCH  63  66
ATOM     66  S   UNL A   1      41.982  22.387  26.450  1.00  0.00     0.127 S 
ATOM     67  O   UNL A   1      40.524  22.445  26.357  1.00  0.00    -0.237 OA
ATOM     68  O   UNL A   1      42.656  21.995  25.211  1.00  0.00    -0.237 OA
ATOM     69  O   UNL A   1      42.510  21.756  27.651  1.00  0.00    -0.744 OA
ENDBRANCH  63  66
ENDBRANCH  45  59
BRANCH  46  70
ATOM     70  C   UNL A   1      39.277  31.974  35.305  1.00  0.00     0.023 A 
ATOM     71  C   UNL A   1      38.374  31.420  36.233  1.00  0.00     0.012 A 
ATOM     72  C   UNL A   1      39.733  33.293  35.496  1.00  0.00     0.148 A 
ATOM     73  C   UNL A   1      37.917  32.171  37.318  1.00  0.00     0.002 A 
ATOM     74  C   UNL A   1      39.319  34.016  36.610  1.00  0.00     0.091 A 
ATOM     75  F   UNL A   1      40.571  33.813  34.589  1.00  0.00    -0.205 F 
ATOM     76  C   UNL A   1      38.399  33.462  37.513  1.00  0.00     0.022 A 
BRANCH  74  77
ATOM     77  S   UNL A   1      39.994  35.632  37.005  1.00  0.00     0.127 S 
ATOM     78  O   UNL A   1      39.593  36.417  35.842  1.00  0.00    -0.237 OA
ATOM     79  O   UNL A   1      39.289  35.964  38.245  1.00  0.00    -0.237 OA
ATOM     80  O   UNL A   1      41.427  35.425  37.171  1.00  0.00    -0.744 OA
ENDBRANCH  74  77
ENDBRANCH  46  70
BRANCH  58  81
ATOM     81  C   UNL A   1      44.870  27.922  34.271  1.00  0.00     0.023 A 
ATOM     82  C   UNL A   1      46.019  28.737  34.267  1.00  0.00     0.012 A 
ATOM     83  C   UNL A   1      44.804  26.821  35.146  1.00  0.00     0.148 A 
ATOM     84  C   UNL A   1      47.097  28.444  35.103  1.00  0.00     0.002 A 
ATOM     85  C   UNL A   1      45.863  26.562  36.008  1.00  0.00     0.091 A 
ATOM     86  F   UNL A   1      43.709  26.047  35.120  1.00  0.00    -0.205 F 
ATOM     87  C   UNL A   1      47.014  27.366  35.981  1.00  0.00     0.022 A 
BRANCH  85  88
ATOM     88  S   UNL A   1      45.801  25.251  37.236  1.00  0.00     0.127 S 
ATOM     89  O   UNL A   1      47.101  25.392  37.888  1.00  0.00    -0.237 OA
ATOM     90  O   UNL A   1      44.659  25.647  38.060  1.00  0.00    -0.237 OA
ATOM     91  O   UNL A   1      45.604  24.016  36.489  1.00  0.00    -0.744 OA
ENDBRANCH  85  88
ENDBRANCH  58  81
ENDBRANCH  32  33
ENDBRANCH  25  27
ENDBRANCH  24  25
ENDBRANCH  23  24
ENDBRANCH   1  23
TORSDOF 18
ENDMDL
MODEL 3
REMARK VINA RESULT:     -10.7      2.397      4.038
REMARK SMILES CC(C)c1nc(N(C)C[C@@H]2CC[N@@H+](C)C2)sc1C(=O)OCCOC(=O)c1ccc(-c2c3nc(c(-c4cccc(S(=O)(=O)[O-])c4F)c4ccc([nH]4)c(-c4cccc(S(=O)(=O)[O-])c4F)c4nc(c(-c5cccc(S(=O)(=O)[O-])c5F)c5ccc2[nH]5)C=C4)C=C3)cc1
REMARK SMILES IDX 21 1 20 2 18 3 19 4 17 5 4 6 5 7 6 8 16 9 2 10 1 11 3 12
REMARK SMILES IDX 7 13 8 14 9 15 10 16 11 17 15 18 12 19 13 20 14 21 22 23
REMARK SMILES IDX 23 24 24 25 25 26 26 27 27 28 88 29 28 30 87 31 29 32 30 33
REMARK SMILES IDX 31 34 81 35 32 36 86 37 80 38 82 39 33 40 85 41 79 42 78 43
REMARK SMILES IDX 34 45 66 46 46 47 65 48 47 49 50 50 64 51 83 52 48 53 49 54
REMARK SMILES IDX 63 56 84 57 51 58 35 59 36 60 44 61 37 62 39 63 45 64 38 65
REMARK SMILES IDX 40 66 41 67 42 68 43 69 67 70 68 71 76 72 69 73 71 74 77 75
REMARK SMILES IDX 70 76 72 77 73 78 74 79 75 80 52 81 53 82 61 83 54 84 56 85
REMARK SMILES IDX 62 86 55 87 57 88 58 89 59 90 60 91
REMARK H PARENT 13 22 82 44 50 55
REMARK Flexibility Score: inf
ROOT
ATOM      1  C   UNL A   1      32.281  28.711  27.141  1.00  0.00     0.275 C 
ENDROOT
BRANCH   1   2
ATOM      2  O   UNL A   1      33.212  28.195  26.169  1.00  0.00    -0.458 OA
BRANCH   2   3
ATOM      3  C   UNL A   1      32.971  26.933  25.701  1.00  0.00     0.350 C 
ATOM      4  O   UNL A   1      33.551  25.937  26.109  1.00  0.00    -0.245 OA
BRANCH   3   5
ATOM      5  C   UNL A   1      31.908  26.947  24.717  1.00  0.00     0.137 A 
ATOM      6  C   UNL A   1      31.894  27.146  23.345  1.00  0.00     0.071 A 
ATOM      7  N   UNL A   1      30.615  27.226  22.795  1.00  0.00    -0.224 NA
ATOM      8  C   UNL A   1      29.679  27.153  23.718  1.00  0.00     0.186 A 
ATOM      9  S   UNL A   1      30.303  26.617  25.236  1.00  0.00    -0.089 S 
BRANCH   6  10
ATOM     10  C   UNL A   1      33.083  27.272  22.422  1.00  0.00     0.034 C 
ATOM     11  C   UNL A   1      33.918  28.508  22.775  1.00  0.00     0.014 C 
ATOM     12  C   UNL A   1      33.986  26.033  22.437  1.00  0.00     0.014 C 
ENDBRANCH   6  10
BRANCH   8  13
ATOM     13  N   UNL A   1      28.362  27.436  23.504  1.00  0.00    -0.351 N 
ATOM     14  C   UNL A   1      27.295  26.616  24.062  1.00  0.00     0.146 C 
BRANCH  13  15
ATOM     15  C   UNL A   1      27.974  28.485  22.562  1.00  0.00     0.128 C 
BRANCH  15  16
ATOM     16  C   UNL A   1      28.668  29.834  22.798  1.00  0.00     0.069 C 
ATOM     17  C   UNL A   1      27.826  30.835  23.605  1.00  0.00     0.072 C 
ATOM     18  C   UNL A   1      28.929  30.548  21.465  1.00  0.00     0.267 C 
ATOM     19  C   UNL A   1      27.754  32.083  22.738  1.00  0.00     0.262 C 
ATOM     20  N   UNL A   1      27.849  31.533  21.385  1.00  0.00    -0.337 N 
ATOM     21  C   UNL A   1      28.090  32.559  20.383  1.00  0.00     0.332 C 
ATOM     22  H   UNL A   1      26.974  31.106  21.082  1.00  0.00     0.347 HD
ENDBRANCH  15  16
ENDBRANCH  13  15
ENDBRANCH   8  13
ENDBRANCH   3   5
ENDBRANCH   2   3
ENDBRANCH   1   2
BRANCH   1  23
ATOM     23  C   UNL A   1      32.125  30.230  27.027  1.00  0.00     0.275 C 
BRANCH  23  24
ATOM     24  O   UNL A   1      33.345  30.848  26.581  1.00  0.00    -0.458 OA
BRANCH  24  25
ATOM     25  C   UNL A   1      33.809  31.842  27.374  1.00  0.00     0.338 C 
ATOM     26  O   UNL A   1      33.211  32.847  27.721  1.00  0.00    -0.246 OA
BRANCH  25  27
ATOM     27  C   UNL A   1      35.116  31.456  27.925  1.00  0.00     0.060 A 
ATOM     28  C   UNL A   1      35.227  30.164  28.436  1.00  0.00     0.016 A 
ATOM     29  C   UNL A   1      36.186  32.345  28.016  1.00  0.00     0.016 A 
ATOM     30  C   UNL A   1      36.402  29.742  29.045  1.00  0.00     0.010 A 
ATOM     31  C   UNL A   1      37.374  31.919  28.627  1.00  0.00     0.010 A 
ATOM     32  C   UNL A   1      37.486  30.619  29.156  1.00  0.00    -0.014 A 
BRANCH  32  33
ATOM     33  C   UNL A   1      38.703  30.184  29.886  1.00  0.00     0.031 A 
ATOM     34  C   UNL A   1      39.640  29.193  29.254  1.00  0.00     0.074 A 
ATOM     35  C   UNL A   1      38.980  30.693  31.102  1.00  0.00     0.049 A 
ATOM     36  N   UNL A   1      40.710  28.633  29.754  1.00  0.00    -0.248 NA
ATOM     37  C   UNL A   1      39.332  28.776  27.876  1.00  0.00     0.031 C 
ATOM     38  C   UNL A   1      38.165  31.683  31.808  1.00  0.00     0.029 A 
ATOM     39  N   UNL A   1      40.018  30.440  31.964  1.00  0.00    -0.354 N 
ATOM     40  C   UNL A   1      41.171  27.756  28.779  1.00  0.00     0.074 A 
ATOM     41  C   UNL A   1      40.269  27.865  27.652  1.00  0.00     0.031 C 
ATOM     42  C   UNL A   1      38.729  31.947  32.997  1.00  0.00     0.029 A 
ATOM     43  C   UNL A   1      39.918  31.115  33.158  1.00  0.00     0.049 A 
ATOM     44  H   UNL A   1      40.764  29.835  31.747  1.00  0.00     0.167 HD
ATOM     45  C   UNL A   1      42.252  26.941  28.815  1.00  0.00     0.034 A 
ATOM     46  C   UNL A   1      40.681  31.049  34.268  1.00  0.00     0.034 A 
ATOM     47  C   UNL A   1      43.177  26.876  29.915  1.00  0.00     0.049 A 
ATOM     48  C   UNL A   1      41.874  30.132  34.281  1.00  0.00     0.074 A 
ATOM     49  C   UNL A   1      44.326  26.114  30.027  1.00  0.00     0.029 A 
ATOM     50  N   UNL A   1      43.063  27.602  31.090  1.00  0.00    -0.354 N 
ATOM     51  N   UNL A   1      42.338  29.367  33.323  1.00  0.00    -0.248 NA
ATOM     52  C   UNL A   1      42.661  30.083  35.522  1.00  0.00     0.031 C 
ATOM     53  C   UNL A   1      44.899  26.367  31.279  1.00  0.00     0.029 A 
ATOM     54  C   UNL A   1      44.116  27.301  31.937  1.00  0.00     0.049 A 
ATOM     55  H   UNL A   1      42.339  28.237  31.294  1.00  0.00     0.167 HD
ATOM     56  C   UNL A   1      43.483  28.768  33.834  1.00  0.00     0.074 A 
ATOM     57  C   UNL A   1      43.658  29.277  35.179  1.00  0.00     0.031 C 
ATOM     58  C   UNL A   1      44.307  27.861  33.251  1.00  0.00     0.034 A 
BRANCH  45  59
ATOM     59  C   UNL A   1      42.508  26.062  27.621  1.00  0.00     0.023 A 
ATOM     60  C   UNL A   1      43.268  26.553  26.541  1.00  0.00     0.012 A 
ATOM     61  C   UNL A   1      42.045  24.732  27.593  1.00  0.00     0.148 A 
ATOM     62  C   UNL A   1      43.541  25.742  25.439  1.00  0.00     0.002 A 
ATOM     63  C   UNL A   1      42.354  23.918  26.510  1.00  0.00     0.091 A 
ATOM     64  F   UNL A   1      41.303  24.292  28.619  1.00  0.00    -0.205 F 
ATOM     65  C   UNL A   1      43.093  24.423  25.428  1.00  0.00     0.022 A 
BRANCH  63  66
ATOM     66  S   UNL A   1      41.883  22.185  26.439  1.00  0.00     0.127 S 
ATOM     67  O   UNL A   1      42.432  21.678  27.695  1.00  0.00    -0.237 OA
ATOM     68  O   UNL A   1      40.422  22.262  26.399  1.00  0.00    -0.237 OA
ATOM     69  O   UNL A   1      42.494  21.654  25.228  1.00  0.00    -0.744 OA
ENDBRANCH  63  66
ENDBRANCH  45  59
BRANCH  46  70
ATOM     70  C   UNL A   1      40.351  31.895  35.450  1.00  0.00     0.023 A 
ATOM     71  C   UNL A   1      41.134  33.032  35.729  1.00  0.00     0.012 A 
ATOM     72  C   UNL A   1      39.256  31.596  36.285  1.00  0.00     0.148 A 
ATOM     73  C   UNL A   1      40.846  33.843  36.829  1.00  0.00     0.002 A 
ATOM     74  C   UNL A   1      38.940  32.439  37.344  1.00  0.00     0.091 A 
ATOM     75  F   UNL A   1      38.538  30.496  36.021  1.00  0.00    -0.205 F 
ATOM     76  C   UNL A   1      39.744  33.555  37.628  1.00  0.00     0.022 A 
BRANCH  74  77
ATOM     77  S   UNL A   1      37.462  32.213  38.338  1.00  0.00     0.127 S 
ATOM     78  O   UNL A   1      37.878  32.762  39.625  1.00  0.00    -0.237 OA
ATOM     79  O   UNL A   1      36.479  33.021  37.613  1.00  0.00    -0.237 OA
ATOM     80  O   UNL A   1      37.192  30.782  38.313  1.00  0.00    -0.744 OA
ENDBRANCH  74  77
ENDBRANCH  46  70
BRANCH  58  81
ATOM     81  C   UNL A   1      45.490  27.379  34.048  1.00  0.00     0.023 A 
ATOM     82  C   UNL A   1      46.698  28.102  34.007  1.00  0.00     0.012 A 
ATOM     83  C   UNL A   1      45.381  26.259  34.894  1.00  0.00     0.148 A 
ATOM     84  C   UNL A   1      47.790  27.700  34.776  1.00  0.00     0.002 A 
ATOM     85  C   UNL A   1      46.458  25.892  35.692  1.00  0.00     0.091 A 
ATOM     86  F   UNL A   1      44.228  25.574  34.904  1.00  0.00    -0.205 F 
ATOM     87  C   UNL A   1      47.666  26.604  35.626  1.00  0.00     0.022 A 
BRANCH  85  88
ATOM     88  S   UNL A   1      46.355  24.550  36.883  1.00  0.00     0.127 S 
ATOM     89  O   UNL A   1      46.120  23.398  36.016  1.00  0.00    -0.237 OA
ATOM     90  O   UNL A   1      47.679  24.584  37.507  1.00  0.00    -0.237 OA
ATOM     91  O   UNL A   1      45.260  24.896  37.779  1.00  0.00    -0.744 OA
ENDBRANCH  85  88
ENDBRANCH  58  81
ENDBRANCH  32  33
ENDBRANCH  25  27
ENDBRANCH  24  25
ENDBRANCH  23  24
ENDBRANCH   1  23
TORSDOF 18
ENDMDL
