MODEL 1
REMARK VINA RESULT:     -12.1      0.000      0.000
REMARK SMILES Cc1ccc(/C=C(\NC(=O)c2cccc(C)c2)C(=O)OCCOC(=O)c2ccc(-c3c4nc(c(-c5cccc(S(=O)(=O)[O-])c5F)c5ccc([nH]5)c(-c5cccc(S(=O)(=O)[O-])c5F)c5nc(c(-c6cccc(S(=O)(=O)[O-])c6F)c6ccc3[nH]6)C=C5)C=C4)cc2)cc1
REMARK SMILES IDX 22 1 21 2 20 3 18 4 19 5 7 6 6 7 5 8 1 9 2 10 3 11 90 12
REMARK SMILES IDX 4 13 89 14 8 15 9 16 10 18 11 19 12 20 17 21 13 22 15 23
REMARK SMILES IDX 14 24 16 25 23 26 24 27 25 28 26 29 27 30 88 31 28 32 87 33
REMARK SMILES IDX 29 34 30 35 31 36 81 37 32 38 86 39 80 40 82 41 33 42 85 43
REMARK SMILES IDX 79 44 78 45 34 47 66 48 46 49 65 50 47 51 50 52 64 53 83 54
REMARK SMILES IDX 48 55 49 56 63 58 84 59 51 60 35 61 36 62 44 63 37 64 39 65
REMARK SMILES IDX 45 66 38 67 40 68 41 69 42 70 43 71 67 72 68 73 76 74 69 75
REMARK SMILES IDX 71 76 77 77 70 78 72 79 73 80 74 81 75 82 52 83 53 84 61 85
REMARK SMILES IDX 54 86 56 87 62 88 55 89 57 90 58 91 59 92 60 93
REMARK H PARENT 8 17 82 46 50 57
REMARK Flexibility Score: inf
ROOT
ATOM      1  C   UNL A   1      37.445  23.428  25.385  1.00  0.00     0.275 C 
ENDROOT
BRANCH   1   2
ATOM      2  C   UNL A   1      35.944  23.076  25.247  1.00  0.00     0.275 C 
BRANCH   2   3
ATOM      3  O   UNL A   1      35.077  24.070  24.677  1.00  0.00    -0.457 OA
BRANCH   3   4
ATOM      4  C   UNL A   1      33.789  23.770  24.374  1.00  0.00     0.354 C 
ATOM      5  O   UNL A   1      33.380  22.682  24.001  1.00  0.00    -0.244 OA
BRANCH   4   6
ATOM      6  C   UNL A   1      32.982  25.055  24.422  1.00  0.00     0.128 C 
ATOM      7  C   UNL A   1      33.468  25.951  25.306  1.00  0.00     0.042 C 
BRANCH   7   8
ATOM      8  C   UNL A   1      33.111  27.323  25.727  1.00  0.00    -0.023 A 
ATOM      9  C   UNL A   1      31.406  31.278  26.306  1.00  0.00     0.044 C 
ATOM     10  C   UNL A   1      32.034  29.926  26.130  1.00  0.00    -0.051 A 
ATOM     11  C   UNL A   1      31.805  28.895  27.052  1.00  0.00     0.004 A 
ATOM     12  C   UNL A   1      32.839  29.658  25.023  1.00  0.00     0.004 A 
ATOM     13  C   UNL A   1      32.337  27.604  26.853  1.00  0.00     0.008 A 
ATOM     14  C   UNL A   1      33.360  28.373  24.825  1.00  0.00     0.008 A 
ENDBRANCH   7   8
BRANCH   6  15
ATOM     15  N   UNL A   1      31.796  25.115  23.698  1.00  0.00    -0.316 N 
ATOM     16  C   UNL A   1      30.586  25.464  24.309  1.00  0.00     0.255 C 
ATOM     17  H   UNL A   1      31.807  24.908  22.736  1.00  0.00     0.170 HD
ATOM     18  O   UNL A   1      30.286  25.041  25.425  1.00  0.00    -0.269 OA
BRANCH  16  19
ATOM     19  C   UNL A   1      29.694  26.490  23.673  1.00  0.00     0.040 A 
ATOM     20  C   UNL A   1      28.335  26.549  23.987  1.00  0.00     0.014 A 
ATOM     21  C   UNL A   1      30.254  27.571  22.986  1.00  0.00     0.017 A 
ATOM     22  C   UNL A   1      27.566  27.658  23.605  1.00  0.00     0.001 A 
ATOM     23  C   UNL A   1      29.519  28.730  22.676  1.00  0.00    -0.050 A 
ATOM     24  C   UNL A   1      28.158  28.751  22.972  1.00  0.00     0.003 A 
ATOM     25  C   UNL A   1      30.131  29.924  22.006  1.00  0.00     0.044 C 
ENDBRANCH  16  19
ENDBRANCH   6  15
ENDBRANCH   4   6
ENDBRANCH   3   4
ENDBRANCH   2   3
ENDBRANCH   1   2
BRANCH   1  26
ATOM     26  O   UNL A   1      37.987  23.419  26.729  1.00  0.00    -0.458 OA
BRANCH  26  27
ATOM     27  C   UNL A   1      39.341  23.298  26.882  1.00  0.00     0.338 C 
ATOM     28  O   UNL A   1      39.963  22.254  26.774  1.00  0.00    -0.246 OA
BRANCH  27  29
ATOM     29  C   UNL A   1      39.925  24.641  27.126  1.00  0.00     0.060 A 
ATOM     30  C   UNL A   1      40.553  25.449  26.162  1.00  0.00     0.016 A 
ATOM     31  C   UNL A   1      39.521  25.215  28.300  1.00  0.00     0.016 A 
ATOM     32  C   UNL A   1      40.736  26.834  26.408  1.00  0.00     0.010 A 
ATOM     33  C   UNL A   1      39.267  26.545  28.242  1.00  0.00     0.010 A 
ATOM     34  C   UNL A   1      40.070  27.393  27.489  1.00  0.00    -0.014 A 
BRANCH  34  35
ATOM     35  C   UNL A   1      40.334  28.623  28.270  1.00  0.00     0.031 A 
ATOM     36  C   UNL A   1      39.390  29.755  28.445  1.00  0.00     0.074 A 
ATOM     37  C   UNL A   1      41.232  28.355  29.262  1.00  0.00     0.049 A 
ATOM     38  N   UNL A   1      39.532  30.648  29.364  1.00  0.00    -0.248 NA
ATOM     39  C   UNL A   1      38.186  29.980  27.656  1.00  0.00     0.031 C 
ATOM     40  C   UNL A   1      41.348  28.881  30.618  1.00  0.00     0.029 A 
ATOM     41  N   UNL A   1      42.294  27.443  29.203  1.00  0.00    -0.354 N 
ATOM     42  C   UNL A   1      38.347  31.342  29.506  1.00  0.00     0.074 A 
ATOM     43  C   UNL A   1      37.552  30.923  28.377  1.00  0.00     0.031 C 
ATOM     44  C   UNL A   1      42.530  28.505  31.138  1.00  0.00     0.029 A 
ATOM     45  C   UNL A   1      43.292  27.935  30.043  1.00  0.00     0.049 A 
ATOM     46  H   UNL A   1      42.328  26.615  28.672  1.00  0.00     0.167 HD
ATOM     47  C   UNL A   1      38.181  32.108  30.625  1.00  0.00     0.034 A 
ATOM     48  C   UNL A   1      44.437  28.458  29.503  1.00  0.00     0.034 A 
ATOM     49  C   UNL A   1      39.465  32.254  31.332  1.00  0.00     0.049 A 
ATOM     50  C   UNL A   1      44.528  29.959  29.763  1.00  0.00     0.074 A 
ATOM     51  C   UNL A   1      39.988  31.752  32.510  1.00  0.00     0.029 A 
ATOM     52  N   UNL A   1      40.529  32.847  30.655  1.00  0.00    -0.354 N 
ATOM     53  N   UNL A   1      43.572  30.669  30.303  1.00  0.00    -0.248 NA
ATOM     54  C   UNL A   1      45.696  30.776  29.458  1.00  0.00     0.031 C 
ATOM     55  C   UNL A   1      41.408  31.897  32.443  1.00  0.00     0.029 A 
ATOM     56  C   UNL A   1      41.737  32.540  31.258  1.00  0.00     0.049 A 
ATOM     57  H   UNL A   1      40.434  33.411  29.853  1.00  0.00     0.167 HD
ATOM     58  C   UNL A   1      43.898  31.993  30.312  1.00  0.00     0.074 A 
ATOM     59  C   UNL A   1      45.277  31.996  29.844  1.00  0.00     0.031 C 
ATOM     60  C   UNL A   1      42.994  32.972  30.641  1.00  0.00     0.034 A 
BRANCH  47  61
ATOM     61  C   UNL A   1      36.888  32.681  31.204  1.00  0.00     0.023 A 
ATOM     62  C   UNL A   1      36.539  32.269  32.516  1.00  0.00     0.012 A 
ATOM     63  C   UNL A   1      35.933  33.493  30.541  1.00  0.00     0.148 A 
ATOM     64  C   UNL A   1      35.328  32.615  33.130  1.00  0.00     0.002 A 
ATOM     65  C   UNL A   1      34.730  33.866  31.168  1.00  0.00     0.091 A 
ATOM     66  F   UNL A   1      36.148  33.868  29.277  1.00  0.00    -0.205 F 
ATOM     67  C   UNL A   1      34.423  33.420  32.458  1.00  0.00     0.022 A 
BRANCH  65  68
ATOM     68  S   UNL A   1      33.498  34.931  30.390  1.00  0.00     0.127 S 
ATOM     69  O   UNL A   1      33.065  34.118  29.253  1.00  0.00    -0.237 OA
ATOM     70  O   UNL A   1      32.494  35.078  31.447  1.00  0.00    -0.237 OA
ATOM     71  O   UNL A   1      34.189  36.165  30.040  1.00  0.00    -0.744 OA
ENDBRANCH  65  68
ENDBRANCH  47  61
BRANCH  48  72
ATOM     72  C   UNL A   1      44.856  27.709  28.261  1.00  0.00     0.023 A 
ATOM     73  C   UNL A   1      44.591  28.373  27.031  1.00  0.00     0.012 A 
ATOM     74  C   UNL A   1      45.861  26.718  28.278  1.00  0.00     0.148 A 
ATOM     75  C   UNL A   1      45.416  28.198  25.916  1.00  0.00     0.002 A 
ATOM     76  C   UNL A   1      46.663  26.527  27.144  1.00  0.00     0.091 A 
ATOM     77  F   UNL A   1      46.081  26.055  29.418  1.00  0.00    -0.205 F 
ATOM     78  C   UNL A   1      46.472  27.300  25.986  1.00  0.00     0.022 A 
BRANCH  76  79
ATOM     79  S   UNL A   1      48.048  25.374  27.102  1.00  0.00     0.127 S 
ATOM     80  O   UNL A   1      48.834  25.824  28.248  1.00  0.00    -0.237 OA
ATOM     81  O   UNL A   1      47.392  24.078  27.287  1.00  0.00    -0.237 OA
ATOM     82  O   UNL A   1      48.664  25.558  25.797  1.00  0.00    -0.744 OA
ENDBRANCH  76  79
ENDBRANCH  48  72
BRANCH  60  83
ATOM     83  C   UNL A   1      43.222  34.450  30.382  1.00  0.00     0.023 A 
ATOM     84  C   UNL A   1      43.567  35.337  31.421  1.00  0.00     0.012 A 
ATOM     85  C   UNL A   1      43.242  34.977  29.065  1.00  0.00     0.148 A 
ATOM     86  C   UNL A   1      43.798  36.696  31.192  1.00  0.00     0.002 A 
ATOM     87  C   UNL A   1      43.593  36.305  28.830  1.00  0.00     0.091 A 
ATOM     88  F   UNL A   1      42.904  34.197  28.028  1.00  0.00    -0.205 F 
ATOM     89  C   UNL A   1      43.826  37.178  29.894  1.00  0.00     0.022 A 
BRANCH  87  90
ATOM     90  S   UNL A   1      43.914  36.905  27.165  1.00  0.00     0.127 S 
ATOM     91  O   UNL A   1      44.992  36.022  26.726  1.00  0.00    -0.237 OA
ATOM     92  O   UNL A   1      42.630  36.678  26.498  1.00  0.00    -0.237 OA
ATOM     93  O   UNL A   1      44.258  38.311  27.326  1.00  0.00    -0.744 OA
ENDBRANCH  87  90
ENDBRANCH  60  83
ENDBRANCH  34  35
ENDBRANCH  27  29
ENDBRANCH  26  27
ENDBRANCH   1  26
TORSDOF 17
ENDMDL
MODEL 2
REMARK VINA RESULT:     -12.1      1.616      2.739
REMARK SMILES Cc1ccc(/C=C(\NC(=O)c2cccc(C)c2)C(=O)OCCOC(=O)c2ccc(-c3c4nc(c(-c5cccc(S(=O)(=O)[O-])c5F)c5ccc([nH]5)c(-c5cccc(S(=O)(=O)[O-])c5F)c5nc(c(-c6cccc(S(=O)(=O)[O-])c6F)c6ccc3[nH]6)C=C5)C=C4)cc2)cc1
REMARK SMILES IDX 22 1 21 2 20 3 18 4 19 5 7 6 6 7 5 8 1 9 2 10 3 11 90 12
REMARK SMILES IDX 4 13 89 14 8 15 9 16 10 18 11 19 12 20 17 21 13 22 15 23
REMARK SMILES IDX 14 24 16 25 23 26 24 27 25 28 26 29 27 30 88 31 28 32 87 33
REMARK SMILES IDX 29 34 30 35 31 36 81 37 32 38 86 39 80 40 82 41 33 42 85 43
REMARK SMILES IDX 79 44 78 45 34 47 66 48 46 49 65 50 47 51 50 52 64 53 83 54
REMARK SMILES IDX 48 55 49 56 63 58 84 59 51 60 35 61 36 62 44 63 37 64 39 65
REMARK SMILES IDX 45 66 38 67 40 68 41 69 42 70 43 71 67 72 68 73 76 74 69 75
REMARK SMILES IDX 71 76 77 77 70 78 72 79 73 80 74 81 75 82 52 83 53 84 61 85
REMARK SMILES IDX 54 86 56 87 62 88 55 89 57 90 58 91 59 92 60 93
REMARK H PARENT 8 17 82 46 50 57
REMARK Flexibility Score: inf
ROOT
ATOM      1  C   UNL A   1      38.183  21.776  25.380  1.00  0.00     0.275 C 
ENDROOT
BRANCH   1   2
ATOM      2  C   UNL A   1      36.695  21.351  25.377  1.00  0.00     0.275 C 
BRANCH   2   3
ATOM      3  O   UNL A   1      35.738  22.272  25.925  1.00  0.00    -0.457 OA
BRANCH   3   4
ATOM      4  C   UNL A   1      34.416  21.966  25.939  1.00  0.00     0.354 C 
ATOM      5  O   UNL A   1      33.946  20.847  26.060  1.00  0.00    -0.244 OA
BRANCH   4   6
ATOM      6  C   UNL A   1      33.637  23.229  25.616  1.00  0.00     0.128 C 
ATOM      7  C   UNL A   1      32.361  22.985  25.253  1.00  0.00     0.042 C 
BRANCH   7   8
ATOM      8  C   UNL A   1      31.192  23.807  24.875  1.00  0.00    -0.023 A 
ATOM      9  C   UNL A   1      28.348  26.938  23.874  1.00  0.00     0.044 C 
ATOM     10  C   UNL A   1      29.294  25.826  24.227  1.00  0.00    -0.051 A 
ATOM     11  C   UNL A   1      29.839  24.997  23.236  1.00  0.00     0.004 A 
ATOM     12  C   UNL A   1      29.674  25.614  25.551  1.00  0.00     0.004 A 
ATOM     13  C   UNL A   1      30.780  23.998  23.555  1.00  0.00     0.008 A 
ATOM     14  C   UNL A   1      30.615  24.625  25.864  1.00  0.00     0.008 A 
ENDBRANCH   7   8
BRANCH   6  15
ATOM     15  N   UNL A   1      34.326  24.437  25.581  1.00  0.00    -0.316 N 
ATOM     16  C   UNL A   1      34.256  25.284  24.469  1.00  0.00     0.255 C 
ATOM     17  H   UNL A   1      34.876  24.701  26.354  1.00  0.00     0.170 HD
ATOM     18  O   UNL A   1      34.283  24.840  23.321  1.00  0.00    -0.269 OA
BRANCH  16  19
ATOM     19  C   UNL A   1      33.992  26.749  24.660  1.00  0.00     0.040 A 
ATOM     20  C   UNL A   1      34.006  27.626  23.572  1.00  0.00     0.014 A 
ATOM     21  C   UNL A   1      33.451  27.209  25.862  1.00  0.00     0.017 A 
ATOM     22  C   UNL A   1      33.503  28.928  23.705  1.00  0.00     0.001 A 
ATOM     23  C   UNL A   1      32.860  28.480  25.988  1.00  0.00    -0.050 A 
ATOM     24  C   UNL A   1      32.914  29.346  24.898  1.00  0.00     0.003 A 
ATOM     25  C   UNL A   1      32.211  28.953  27.254  1.00  0.00     0.044 C 
ENDBRANCH  16  19
ENDBRANCH   6  15
ENDBRANCH   4   6
ENDBRANCH   3   4
ENDBRANCH   2   3
ENDBRANCH   1   2
BRANCH   1  26
ATOM     26  O   UNL A   1      38.549  22.832  26.302  1.00  0.00    -0.458 OA
BRANCH  26  27
ATOM     27  C   UNL A   1      39.655  22.653  27.087  1.00  0.00     0.338 C 
ATOM     28  O   UNL A   1      40.097  21.569  27.431  1.00  0.00    -0.246 OA
BRANCH  27  29
ATOM     29  C   UNL A   1      40.258  23.977  27.387  1.00  0.00     0.060 A 
ATOM     30  C   UNL A   1      41.173  24.663  26.570  1.00  0.00     0.016 A 
ATOM     31  C   UNL A   1      39.610  24.669  28.372  1.00  0.00     0.016 A 
ATOM     32  C   UNL A   1      41.392  26.051  26.764  1.00  0.00     0.010 A 
ATOM     33  C   UNL A   1      39.483  26.002  28.162  1.00  0.00     0.010 A 
ATOM     34  C   UNL A   1      40.516  26.737  27.592  1.00  0.00    -0.014 A 
BRANCH  34  35
ATOM     35  C   UNL A   1      40.663  28.011  28.332  1.00  0.00     0.031 A 
ATOM     36  C   UNL A   1      39.724  29.159  28.271  1.00  0.00     0.074 A 
ATOM     37  C   UNL A   1      41.372  27.799  29.479  1.00  0.00     0.049 A 
ATOM     38  N   UNL A   1      39.721  30.106  29.146  1.00  0.00    -0.248 NA
ATOM     39  C   UNL A   1      38.679  29.343  27.273  1.00  0.00     0.031 C 
ATOM     40  C   UNL A   1      41.261  28.407  30.800  1.00  0.00     0.029 A 
ATOM     41  N   UNL A   1      42.410  26.876  29.660  1.00  0.00    -0.354 N 
ATOM     42  C   UNL A   1      38.543  30.816  29.038  1.00  0.00     0.074 A 
ATOM     43  C   UNL A   1      37.948  30.334  27.815  1.00  0.00     0.031 C 
ATOM     44  C   UNL A   1      42.328  28.055  31.538  1.00  0.00     0.029 A 
ATOM     45  C   UNL A   1      43.258  27.412  30.629  1.00  0.00     0.049 A 
ATOM     46  H   UNL A   1      42.520  26.017  29.193  1.00  0.00     0.167 HD
ATOM     47  C   UNL A   1      38.200  31.652  30.063  1.00  0.00     0.034 A 
ATOM     48  C   UNL A   1      44.488  27.892  30.266  1.00  0.00     0.034 A 
ATOM     49  C   UNL A   1      39.345  31.832  30.973  1.00  0.00     0.049 A 
ATOM     50  C   UNL A   1      44.560  29.405  30.446  1.00  0.00     0.074 A 
ATOM     51  C   UNL A   1      39.647  31.401  32.251  1.00  0.00     0.029 A 
ATOM     52  N   UNL A   1      40.520  32.373  30.456  1.00  0.00    -0.354 N 
ATOM     53  N   UNL A   1      43.539  30.155  30.769  1.00  0.00    -0.248 NA
ATOM     54  C   UNL A   1      45.778  30.193  30.300  1.00  0.00     0.031 C 
ATOM     55  C   UNL A   1      41.060  31.531  32.423  1.00  0.00     0.029 A 
ATOM     56  C   UNL A   1      41.601  32.096  31.277  1.00  0.00     0.049 A 
ATOM     57  H   UNL A   1      40.576  32.887  29.617  1.00  0.00     0.167 HD
ATOM     58  C   UNL A   1      43.882  31.475  30.754  1.00  0.00     0.074 A 
ATOM     59  C   UNL A   1      45.321  31.438  30.533  1.00  0.00     0.031 C 
ATOM     60  C   UNL A   1      42.953  32.479  30.862  1.00  0.00     0.034 A 
BRANCH  47  61
ATOM     61  C   UNL A   1      36.837  32.270  30.373  1.00  0.00     0.023 A 
ATOM     62  C   UNL A   1      36.261  31.947  31.629  1.00  0.00     0.012 A 
ATOM     63  C   UNL A   1      36.024  33.043  29.506  1.00  0.00     0.148 A 
ATOM     64  C   UNL A   1      34.969  32.339  32.002  1.00  0.00     0.002 A 
ATOM     65  C   UNL A   1      34.739  33.465  29.892  1.00  0.00     0.091 A 
ATOM     66  F   UNL A   1      36.460  33.335  28.277  1.00  0.00    -0.205 F 
ATOM     67  C   UNL A   1      34.207  33.105  31.135  1.00  0.00     0.022 A 
BRANCH  65  68
ATOM     68  S   UNL A   1      33.677  34.485  28.848  1.00  0.00     0.127 S 
ATOM     69  O   UNL A   1      33.204  33.519  27.855  1.00  0.00    -0.237 OA
ATOM     70  O   UNL A   1      32.651  34.940  29.789  1.00  0.00    -0.237 OA
ATOM     71  O   UNL A   1      34.524  35.547  28.321  1.00  0.00    -0.744 OA
ENDBRANCH  65  68
ENDBRANCH  47  61
BRANCH  48  72
ATOM     72  C   UNL A   1      45.101  27.064  29.162  1.00  0.00     0.023 A 
ATOM     73  C   UNL A   1      45.357  25.703  29.492  1.00  0.00     0.012 A 
ATOM     74  C   UNL A   1      44.968  27.403  27.799  1.00  0.00     0.148 A 
ATOM     75  C   UNL A   1      45.293  24.695  28.525  1.00  0.00     0.002 A 
ATOM     76  C   UNL A   1      44.937  26.387  26.833  1.00  0.00     0.091 A 
ATOM     77  F   UNL A   1      44.778  28.688  27.479  1.00  0.00    -0.205 F 
ATOM     78  C   UNL A   1      45.049  25.036  27.202  1.00  0.00     0.022 A 
BRANCH  76  79
ATOM     79  S   UNL A   1      44.653  26.704  25.081  1.00  0.00     0.127 S 
ATOM     80  O   UNL A   1      46.006  26.996  24.616  1.00  0.00    -0.237 OA
ATOM     81  O   UNL A   1      44.111  25.428  24.609  1.00  0.00    -0.237 OA
ATOM     82  O   UNL A   1      43.712  27.813  25.037  1.00  0.00    -0.744 OA
ENDBRANCH  76  79
ENDBRANCH  48  72
BRANCH  60  83
ATOM     83  C   UNL A   1      43.250  33.936  30.558  1.00  0.00     0.023 A 
ATOM     84  C   UNL A   1      43.601  34.846  31.575  1.00  0.00     0.012 A 
ATOM     85  C   UNL A   1      43.328  34.413  29.225  1.00  0.00     0.148 A 
ATOM     86  C   UNL A   1      43.894  36.185  31.306  1.00  0.00     0.002 A 
ATOM     87  C   UNL A   1      43.741  35.717  28.954  1.00  0.00     0.091 A 
ATOM     88  F   UNL A   1      42.989  33.611  28.206  1.00  0.00    -0.205 F 
ATOM     89  C   UNL A   1      43.979  36.618  29.993  1.00  0.00     0.022 A 
BRANCH  87  90
ATOM     90  S   UNL A   1      44.134  36.243  27.279  1.00  0.00     0.127 S 
ATOM     91  O   UNL A   1      44.622  37.602  27.495  1.00  0.00    -0.237 OA
ATOM     92  O   UNL A   1      45.165  35.281  26.883  1.00  0.00    -0.237 OA
ATOM     93  O   UNL A   1      42.888  36.116  26.537  1.00  0.00    -0.744 OA
ENDBRANCH  87  90
ENDBRANCH  60  83
ENDBRANCH  34  35
ENDBRANCH  27  29
ENDBRANCH  26  27
ENDBRANCH   1  26
TORSDOF 17
ENDMDL
MODEL 3
REMARK VINA RESULT:     -12.1      4.005      9.711
REMARK SMILES Cc1ccc(/C=C(\NC(=O)c2cccc(C)c2)C(=O)OCCOC(=O)c2ccc(-c3c4nc(c(-c5cccc(S(=O)(=O)[O-])c5F)c5ccc([nH]5)c(-c5cccc(S(=O)(=O)[O-])c5F)c5nc(c(-c6cccc(S(=O)(=O)[O-])c6F)c6ccc3[nH]6)C=C5)C=C4)cc2)cc1
REMARK SMILES IDX 22 1 21 2 20 3 18 4 19 5 7 6 6 7 5 8 1 9 2 10 3 11 90 12
REMARK SMILES IDX 4 13 89 14 8 15 9 16 10 18 11 19 12 20 17 21 13 22 15 23
REMARK SMILES IDX 14 24 16 25 23 26 24 27 25 28 26 29 27 30 88 31 28 32 87 33
REMARK SMILES IDX 29 34 30 35 31 36 81 37 32 38 86 39 80 40 82 41 33 42 85 43
REMARK SMILES IDX 79 44 78 45 34 47 66 48 46 49 65 50 47 51 50 52 64 53 83 54
REMARK SMILES IDX 48 55 49 56 63 58 84 59 51 60 35 61 36 62 44 63 37 64 39 65
REMARK SMILES IDX 45 66 38 67 40 68 41 69 42 70 43 71 67 72 68 73 76 74 69 75
REMARK SMILES IDX 71 76 77 77 70 78 72 79 73 80 74 81 75 82 52 83 53 84 61 85
REMARK SMILES IDX 54 86 56 87 62 88 55 89 57 90 58 91 59 92 60 93
REMARK H PARENT 8 17 82 46 50 57
REMARK Flexibility Score: inf
ROOT
ATOM      1  C   UNL A   1      34.080  30.841  27.431  1.00  0.00     0.275 C 
ENDROOT
BRANCH   1   2
ATOM      2  C   UNL A   1      33.778  29.410  26.922  1.00  0.00     0.275 C 
BRANCH   2   3
ATOM      3  O   UNL A   1      32.436  29.124  26.496  1.00  0.00    -0.457 OA
BRANCH   3   4
ATOM      4  C   UNL A   1      31.814  27.985  26.893  1.00  0.00     0.354 C 
ATOM      5  O   UNL A   1      31.230  27.826  27.952  1.00  0.00    -0.244 OA
BRANCH   4   6
ATOM      6  C   UNL A   1      32.112  26.905  25.869  1.00  0.00     0.128 C 
ATOM      7  C   UNL A   1      33.007  25.995  26.306  1.00  0.00     0.042 C 
BRANCH   7   8
ATOM      8  C   UNL A   1      33.618  24.763  25.761  1.00  0.00    -0.023 A 
ATOM      9  C   UNL A   1      36.169  21.435  24.620  1.00  0.00     0.044 C 
ATOM     10  C   UNL A   1      35.259  22.573  24.978  1.00  0.00    -0.051 A 
ATOM     11  C   UNL A   1      34.239  22.414  25.928  1.00  0.00     0.004 A 
ATOM     12  C   UNL A   1      35.428  23.827  24.393  1.00  0.00     0.004 A 
ATOM     13  C   UNL A   1      33.426  23.498  26.317  1.00  0.00     0.008 A 
ATOM     14  C   UNL A   1      34.624  24.904  24.787  1.00  0.00     0.008 A 
ENDBRANCH   7   8
BRANCH   6  15
ATOM     15  N   UNL A   1      31.575  27.040  24.594  1.00  0.00    -0.316 N 
ATOM     16  C   UNL A   1      30.320  26.513  24.271  1.00  0.00     0.255 C 
ATOM     17  H   UNL A   1      32.089  27.517  23.902  1.00  0.00     0.170 HD
ATOM     18  O   UNL A   1      29.967  25.405  24.677  1.00  0.00    -0.269 OA
BRANCH  16  19
ATOM     19  C   UNL A   1      29.316  27.359  23.545  1.00  0.00     0.040 A 
ATOM     20  C   UNL A   1      27.950  27.234  23.809  1.00  0.00     0.014 A 
ATOM     21  C   UNL A   1      29.740  28.472  22.815  1.00  0.00     0.017 A 
ATOM     22  C   UNL A   1      27.045  28.195  23.336  1.00  0.00     0.001 A 
ATOM     23  C   UNL A   1      28.858  29.492  22.411  1.00  0.00    -0.050 A 
ATOM     24  C   UNL A   1      27.498  29.327  22.660  1.00  0.00     0.003 A 
ATOM     25  C   UNL A   1      29.318  30.725  21.692  1.00  0.00     0.044 C 
ENDBRANCH  16  19
ENDBRANCH   6  15
ENDBRANCH   4   6
ENDBRANCH   3   4
ENDBRANCH   2   3
ENDBRANCH   1   2
BRANCH   1  26
ATOM     26  O   UNL A   1      35.472  31.154  27.682  1.00  0.00    -0.458 OA
BRANCH  26  27
ATOM     27  C   UNL A   1      35.994  30.848  28.909  1.00  0.00     0.338 C 
ATOM     28  O   UNL A   1      35.525  31.209  29.975  1.00  0.00    -0.246 OA
BRANCH  27  29
ATOM     29  C   UNL A   1      37.169  29.957  28.728  1.00  0.00     0.060 A 
ATOM     30  C   UNL A   1      37.953  29.861  27.565  1.00  0.00     0.016 A 
ATOM     31  C   UNL A   1      37.667  29.454  29.898  1.00  0.00     0.016 A 
ATOM     32  C   UNL A   1      39.242  29.272  27.626  1.00  0.00     0.010 A 
ATOM     33  C   UNL A   1      39.018  29.396  29.980  1.00  0.00     0.010 A 
ATOM     34  C   UNL A   1      39.785  29.030  28.879  1.00  0.00    -0.014 A 
BRANCH  34  35
ATOM     35  C   UNL A   1      40.846  28.096  29.322  1.00  0.00     0.031 A 
ATOM     36  C   UNL A   1      40.938  26.660  28.961  1.00  0.00     0.074 A 
ATOM     37  C   UNL A   1      41.995  28.789  29.571  1.00  0.00     0.049 A 
ATOM     38  N   UNL A   1      42.017  25.971  29.108  1.00  0.00    -0.248 NA
ATOM     39  C   UNL A   1      39.869  25.868  28.366  1.00  0.00     0.031 C 
ATOM     40  C   UNL A   1      43.394  28.425  29.375  1.00  0.00     0.029 A 
ATOM     41  N   UNL A   1      42.093  30.091  30.078  1.00  0.00    -0.354 N 
ATOM     42  C   UNL A   1      41.912  24.806  28.376  1.00  0.00     0.074 A 
ATOM     43  C   UNL A   1      40.528  24.762  27.972  1.00  0.00     0.031 C 
ATOM     44  C   UNL A   1      44.176  29.331  29.990  1.00  0.00     0.029 A 
ATOM     45  C   UNL A   1      43.290  30.156  30.789  1.00  0.00     0.049 A 
ATOM     46  H   UNL A   1      41.442  30.819  29.955  1.00  0.00     0.167 HD
ATOM     47  C   UNL A   1      43.051  24.089  28.140  1.00  0.00     0.034 A 
ATOM     48  C   UNL A   1      43.265  30.216  32.157  1.00  0.00     0.034 A 
ATOM     49  C   UNL A   1      44.147  24.589  28.990  1.00  0.00     0.049 A 
ATOM     50  C   UNL A   1      43.843  28.944  32.771  1.00  0.00     0.074 A 
ATOM     51  C   UNL A   1      45.300  25.317  28.760  1.00  0.00     0.029 A 
ATOM     52  N   UNL A   1      43.983  24.545  30.372  1.00  0.00    -0.354 N 
ATOM     53  N   UNL A   1      44.184  27.886  32.083  1.00  0.00    -0.248 NA
ATOM     54  C   UNL A   1      44.104  28.764  34.194  1.00  0.00     0.031 C 
ATOM     55  C   UNL A   1      45.723  25.856  30.014  1.00  0.00     0.029 A 
ATOM     56  C   UNL A   1      44.865  25.404  31.007  1.00  0.00     0.049 A 
ATOM     57  H   UNL A   1      43.328  23.976  30.838  1.00  0.00     0.167 HD
ATOM     58  C   UNL A   1      44.568  26.872  32.909  1.00  0.00     0.074 A 
ATOM     59  C   UNL A   1      44.578  27.504  34.222  1.00  0.00     0.031 C 
ATOM     60  C   UNL A   1      44.785  25.595  32.457  1.00  0.00     0.034 A 
BRANCH  47  61
ATOM     61  C   UNL A   1      43.291  22.994  27.101  1.00  0.00     0.023 A 
ATOM     62  C   UNL A   1      43.981  23.375  25.921  1.00  0.00     0.012 A 
ATOM     63  C   UNL A   1      42.807  21.662  27.127  1.00  0.00     0.148 A 
ATOM     64  C   UNL A   1      44.167  22.512  24.833  1.00  0.00     0.002 A 
ATOM     65  C   UNL A   1      43.021  20.786  26.047  1.00  0.00     0.091 A 
ATOM     66  F   UNL A   1      42.086  21.241  28.170  1.00  0.00    -0.205 F 
ATOM     67  C   UNL A   1      43.692  21.213  24.896  1.00  0.00     0.022 A 
BRANCH  65  68
ATOM     68  S   UNL A   1      42.465  19.068  26.041  1.00  0.00     0.127 S 
ATOM     69  O   UNL A   1      41.054  19.204  25.677  1.00  0.00    -0.237 OA
ATOM     70  O   UNL A   1      43.304  18.468  25.002  1.00  0.00    -0.237 OA
ATOM     71  O   UNL A   1      42.710  18.557  27.383  1.00  0.00    -0.744 OA
ENDBRANCH  65  68
ENDBRANCH  47  61
BRANCH  48  72
ATOM     72  C   UNL A   1      42.096  31.032  32.654  1.00  0.00     0.023 A 
ATOM     73  C   UNL A   1      41.927  32.299  32.028  1.00  0.00     0.012 A 
ATOM     74  C   UNL A   1      40.975  30.445  33.278  1.00  0.00     0.148 A 
ATOM     75  C   UNL A   1      40.661  32.867  31.863  1.00  0.00     0.002 A 
ATOM     76  C   UNL A   1      39.713  31.039  33.134  1.00  0.00     0.091 A 
ATOM     77  F   UNL A   1      41.138  29.278  33.912  1.00  0.00    -0.205 F 
ATOM     78  C   UNL A   1      39.550  32.218  32.387  1.00  0.00     0.022 A 
BRANCH  76  79
ATOM     79  S   UNL A   1      38.200  30.307  33.788  1.00  0.00     0.127 S 
ATOM     80  O   UNL A   1      38.319  28.929  33.319  1.00  0.00    -0.237 OA
ATOM     81  O   UNL A   1      38.365  30.472  35.234  1.00  0.00    -0.237 OA
ATOM     82  O   UNL A   1      37.115  31.084  33.211  1.00  0.00    -0.744 OA
ENDBRANCH  76  79
ENDBRANCH  48  72
BRANCH  60  83
ATOM     83  C   UNL A   1      44.923  24.391  33.372  1.00  0.00     0.023 A 
ATOM     84  C   UNL A   1      43.881  23.455  33.522  1.00  0.00     0.012 A 
ATOM     85  C   UNL A   1      46.154  24.077  34.001  1.00  0.00     0.148 A 
ATOM     86  C   UNL A   1      44.003  22.333  34.346  1.00  0.00     0.002 A 
ATOM     87  C   UNL A   1      46.309  22.894  34.721  1.00  0.00     0.091 A 
ATOM     88  F   UNL A   1      47.184  24.931  33.919  1.00  0.00    -0.205 F 
ATOM     89  C   UNL A   1      45.223  22.044  34.935  1.00  0.00     0.022 A 
BRANCH  87  90
ATOM     90  S   UNL A   1      47.930  22.337  35.267  1.00  0.00     0.127 S 
ATOM     91  O   UNL A   1      48.159  23.174  36.441  1.00  0.00    -0.237 OA
ATOM     92  O   UNL A   1      47.691  20.923  35.564  1.00  0.00    -0.237 OA
ATOM     93  O   UNL A   1      48.814  22.564  34.132  1.00  0.00    -0.744 OA
ENDBRANCH  87  90
ENDBRANCH  60  83
ENDBRANCH  34  35
ENDBRANCH  27  29
ENDBRANCH  26  27
ENDBRANCH   1  26
TORSDOF 17
ENDMDL
