MODEL 1
REMARK VINA RESULT:     -12.1      0.000      0.000
REMARK SMILES Cc1cc(S(=O)(=O)Nc2ccc(Cl)cc2F)ccc1OCC(=O)OCCOC(=O)c1ccc(-c2c3nc(c(-c4cccc(S(=O)(=O)[O-])c4F)c4ccc([nH]4)c(-c4cccc(S(=O)(=O)[O-])c4F)c4nc(c(-c5cccc(S(=O)(=O)[O-])c5F)c5ccc2[nH]5)C=C4)C=C3)cc1
REMARK SMILES IDX 25 1 24 2 22 3 23 4 21 5 20 6 19 7 1 8 2 9 3 10 4 11 18 12
REMARK SMILES IDX 17 13 5 14 6 15 7 16 8 17 9 19 10 20 15 21 11 22 14 23 16 24
REMARK SMILES IDX 12 25 13 26 26 27 27 28 28 29 29 30 30 31 31 32 92 33 32 34
REMARK SMILES IDX 91 35 33 36 34 37 35 38 85 39 36 40 90 41 84 42 86 43 37 44
REMARK SMILES IDX 89 45 83 46 82 47 38 49 70 50 50 51 69 52 51 53 54 54 68 55
REMARK SMILES IDX 87 56 52 57 53 58 67 60 88 61 55 62 39 63 40 64 48 65 41 66
REMARK SMILES IDX 43 67 49 68 42 69 44 70 45 71 46 72 47 73 71 74 72 75 80 76
REMARK SMILES IDX 73 77 75 78 81 79 74 80 76 81 77 82 78 83 79 84 56 85 57 86
REMARK SMILES IDX 65 87 58 88 60 89 66 90 59 91 61 92 62 93 63 94 64 95
REMARK H PARENT 8 18 86 48 54 59
REMARK Flexibility Score: inf
ROOT
ATOM      1  C   UNL A   1      33.811  28.104  25.399  1.00  0.00     0.274 C 
ENDROOT
BRANCH   1   2
ATOM      2  O   UNL A   1      32.593  28.580  24.839  1.00  0.00    -0.460 OA
BRANCH   2   3
ATOM      3  C   UNL A   1      32.630  28.856  23.509  1.00  0.00     0.344 C 
ATOM      4  O   UNL A   1      33.650  29.172  22.909  1.00  0.00    -0.248 OA
BRANCH   3   5
ATOM      5  C   UNL A   1      31.237  28.822  22.863  1.00  0.00     0.351 C 
BRANCH   5   6
ATOM      6  O   UNL A   1      30.628  27.592  22.490  1.00  0.00    -0.482 OA
BRANCH   6   7
ATOM      7  C   UNL A   1      30.592  26.554  23.378  1.00  0.00     0.123 A 
ATOM      8  C   UNL A   1      32.265  25.357  21.849  1.00  0.00     0.048 C 
ATOM      9  C   UNL A   1      31.404  25.440  23.086  1.00  0.00    -0.008 A 
ATOM     10  C   UNL A   1      31.488  24.387  24.014  1.00  0.00     0.029 A 
ATOM     11  C   UNL A   1      30.776  24.447  25.211  1.00  0.00     0.088 A 
ATOM     12  C   UNL A   1      29.854  26.577  24.565  1.00  0.00     0.048 A 
ATOM     13  C   UNL A   1      30.004  25.569  25.510  1.00  0.00     0.026 A 
BRANCH  11  14
ATOM     14  S   UNL A   1      30.908  23.144  26.400  1.00  0.00     0.262 S 
ATOM     15  O   UNL A   1      29.837  23.269  27.376  1.00  0.00    -0.201 OA
ATOM     16  O   UNL A   1      31.094  21.906  25.679  1.00  0.00    -0.201 OA
BRANCH  14  17
ATOM     17  N   UNL A   1      32.357  23.356  27.292  1.00  0.00    -0.277 N 
ATOM     18  H   UNL A   1      32.331  23.663  28.226  1.00  0.00     0.180 HD
BRANCH  17  19
ATOM     19  C   UNL A   1      33.610  23.075  26.646  1.00  0.00     0.085 A 
ATOM     20  C   UNL A   1      34.314  24.092  25.994  1.00  0.00     0.031 A 
ATOM     21  C   UNL A   1      34.167  21.792  26.721  1.00  0.00     0.148 A 
ATOM     22  C   UNL A   1      35.562  23.813  25.423  1.00  0.00     0.023 A 
ATOM     23  C   UNL A   1      35.414  21.514  26.173  1.00  0.00     0.062 A 
ATOM     24  F   UNL A   1      33.506  20.811  27.353  1.00  0.00    -0.205 F 
ATOM     25  C   UNL A   1      36.106  22.529  25.520  1.00  0.00     0.044 A 
ATOM     26  Cl  UNL A   1      37.647  22.203  24.828  1.00  0.00    -0.084 Cl
ENDBRANCH  17  19
ENDBRANCH  14  17
ENDBRANCH  11  14
ENDBRANCH   6   7
ENDBRANCH   5   6
ENDBRANCH   3   5
ENDBRANCH   2   3
ENDBRANCH   1   2
BRANCH   1  27
ATOM     27  C   UNL A   1      34.105  28.800  26.733  1.00  0.00     0.275 C 
BRANCH  27  28
ATOM     28  O   UNL A   1      34.229  30.257  26.837  1.00  0.00    -0.458 OA
BRANCH  28  29
ATOM     29  C   UNL A   1      35.008  31.053  27.612  1.00  0.00     0.338 C 
ATOM     30  O   UNL A   1      34.763  32.242  27.778  1.00  0.00    -0.246 OA
BRANCH  29  31
ATOM     31  C   UNL A   1      36.216  30.450  28.172  1.00  0.00     0.060 A 
ATOM     32  C   UNL A   1      36.232  29.901  29.468  1.00  0.00     0.016 A 
ATOM     33  C   UNL A   1      37.315  30.359  27.335  1.00  0.00     0.016 A 
ATOM     34  C   UNL A   1      37.313  29.142  29.900  1.00  0.00     0.010 A 
ATOM     35  C   UNL A   1      38.322  29.514  27.707  1.00  0.00     0.010 A 
ATOM     36  C   UNL A   1      38.344  28.938  28.997  1.00  0.00    -0.014 A 
BRANCH  36  37
ATOM     37  C   UNL A   1      39.638  28.368  29.323  1.00  0.00     0.031 A 
ATOM     38  C   UNL A   1      39.981  26.961  29.070  1.00  0.00     0.074 A 
ATOM     39  C   UNL A   1      40.539  29.364  29.466  1.00  0.00     0.049 A 
ATOM     40  N   UNL A   1      41.167  26.491  29.214  1.00  0.00    -0.248 NA
ATOM     41  C   UNL A   1      39.026  25.954  28.626  1.00  0.00     0.031 C 
ATOM     42  C   UNL A   1      41.956  29.407  29.178  1.00  0.00     0.029 A 
ATOM     43  N   UNL A   1      40.271  30.634  30.000  1.00  0.00    -0.354 N 
ATOM     44  C   UNL A   1      41.212  25.250  28.609  1.00  0.00     0.074 A 
ATOM     45  C   UNL A   1      39.834  24.923  28.340  1.00  0.00     0.031 C 
ATOM     46  C   UNL A   1      42.479  30.479  29.805  1.00  0.00     0.029 A 
ATOM     47  C   UNL A   1      41.429  30.999  30.679  1.00  0.00     0.049 A 
ATOM     48  H   UNL A   1      39.440  31.155  29.914  1.00  0.00     0.167 HD
ATOM     49  C   UNL A   1      42.438  24.750  28.281  1.00  0.00     0.034 A 
ATOM     50  C   UNL A   1      41.449  30.987  32.048  1.00  0.00     0.034 A 
ATOM     51  C   UNL A   1      43.483  25.615  28.855  1.00  0.00     0.049 A 
ATOM     52  C   UNL A   1      42.477  29.985  32.532  1.00  0.00     0.074 A 
ATOM     53  C   UNL A   1      44.220  26.662  28.327  1.00  0.00     0.029 A 
ATOM     54  N   UNL A   1      43.616  25.694  30.239  1.00  0.00    -0.354 N 
ATOM     55  N   UNL A   1      42.816  28.907  31.878  1.00  0.00    -0.248 NA
ATOM     56  C   UNL A   1      43.282  30.194  33.728  1.00  0.00     0.031 C 
ATOM     57  C   UNL A   1      44.694  27.446  29.416  1.00  0.00     0.029 A 
ATOM     58  C   UNL A   1      44.268  26.862  30.599  1.00  0.00     0.049 A 
ATOM     59  H   UNL A   1      43.293  25.013  30.872  1.00  0.00     0.167 HD
ATOM     60  C   UNL A   1      43.884  28.312  32.489  1.00  0.00     0.074 A 
ATOM     61  C   UNL A   1      44.134  29.157  33.650  1.00  0.00     0.031 C 
ATOM     62  C   UNL A   1      44.493  27.186  32.003  1.00  0.00     0.034 A 
BRANCH  49  63
ATOM     63  C   UNL A   1      42.754  23.685  27.234  1.00  0.00     0.023 A 
ATOM     64  C   UNL A   1      43.435  24.130  26.072  1.00  0.00     0.012 A 
ATOM     65  C   UNL A   1      42.393  22.316  27.239  1.00  0.00     0.148 A 
ATOM     66  C   UNL A   1      43.675  23.313  24.962  1.00  0.00     0.002 A 
ATOM     67  C   UNL A   1      42.623  21.495  26.122  1.00  0.00     0.091 A 
ATOM     68  F   UNL A   1      41.847  21.776  28.330  1.00  0.00    -0.205 F 
ATOM     69  C   UNL A   1      43.254  21.997  24.980  1.00  0.00     0.022 A 
BRANCH  67  70
ATOM     70  S   UNL A   1      42.115  19.764  26.038  1.00  0.00     0.127 S 
ATOM     71  O   UNL A   1      42.827  19.294  24.847  1.00  0.00    -0.237 OA
ATOM     72  O   UNL A   1      42.625  19.225  27.298  1.00  0.00    -0.237 OA
ATOM     73  O   UNL A   1      40.663  19.765  25.912  1.00  0.00    -0.744 OA
ENDBRANCH  67  70
ENDBRANCH  49  63
BRANCH  50  74
ATOM     74  C   UNL A   1      40.109  31.266  32.683  1.00  0.00     0.023 A 
ATOM     75  C   UNL A   1      39.372  30.136  33.134  1.00  0.00     0.012 A 
ATOM     76  C   UNL A   1      39.755  32.530  33.195  1.00  0.00     0.148 A 
ATOM     77  C   UNL A   1      38.435  30.239  34.167  1.00  0.00     0.002 A 
ATOM     78  C   UNL A   1      38.802  32.625  34.217  1.00  0.00     0.091 A 
ATOM     79  F   UNL A   1      40.386  33.614  32.728  1.00  0.00    -0.205 F 
ATOM     80  C   UNL A   1      38.173  31.480  34.730  1.00  0.00     0.022 A 
BRANCH  78  81
ATOM     81  S   UNL A   1      38.432  34.195  35.022  1.00  0.00     0.127 S 
ATOM     82  O   UNL A   1      37.488  33.780  36.056  1.00  0.00    -0.237 OA
ATOM     83  O   UNL A   1      39.742  34.620  35.522  1.00  0.00    -0.237 OA
ATOM     84  O   UNL A   1      37.910  35.037  33.957  1.00  0.00    -0.744 OA
ENDBRANCH  78  81
ENDBRANCH  50  74
BRANCH  62  85
ATOM     85  C   UNL A   1      45.390  26.285  32.824  1.00  0.00     0.023 A 
ATOM     86  C   UNL A   1      46.778  26.505  32.906  1.00  0.00     0.012 A 
ATOM     87  C   UNL A   1      44.846  25.316  33.705  1.00  0.00     0.148 A 
ATOM     88  C   UNL A   1      47.597  25.766  33.762  1.00  0.00     0.002 A 
ATOM     89  C   UNL A   1      45.645  24.680  34.649  1.00  0.00     0.091 A 
ATOM     90  F   UNL A   1      43.545  24.994  33.637  1.00  0.00    -0.205 F 
ATOM     91  C   UNL A   1      47.027  24.872  34.655  1.00  0.00     0.022 A 
BRANCH  89  92
ATOM     92  S   UNL A   1      44.906  23.755  36.003  1.00  0.00     0.127 S 
ATOM     93  O   UNL A   1      44.293  22.629  35.304  1.00  0.00    -0.237 OA
ATOM     94  O   UNL A   1      46.072  23.405  36.817  1.00  0.00    -0.237 OA
ATOM     95  O   UNL A   1      43.995  24.693  36.645  1.00  0.00    -0.744 OA
ENDBRANCH  89  92
ENDBRANCH  62  85
ENDBRANCH  36  37
ENDBRANCH  29  31
ENDBRANCH  28  29
ENDBRANCH  27  28
ENDBRANCH   1  27
TORSDOF 19
ENDMDL
MODEL 2
REMARK VINA RESULT:     -11.9      4.015      9.631
REMARK SMILES Cc1cc(S(=O)(=O)Nc2ccc(Cl)cc2F)ccc1OCC(=O)OCCOC(=O)c1ccc(-c2c3nc(c(-c4cccc(S(=O)(=O)[O-])c4F)c4ccc([nH]4)c(-c4cccc(S(=O)(=O)[O-])c4F)c4nc(c(-c5cccc(S(=O)(=O)[O-])c5F)c5ccc2[nH]5)C=C4)C=C3)cc1
REMARK SMILES IDX 25 1 24 2 22 3 23 4 21 5 20 6 19 7 1 8 2 9 3 10 4 11 18 12
REMARK SMILES IDX 17 13 5 14 6 15 7 16 8 17 9 19 10 20 15 21 11 22 14 23 16 24
REMARK SMILES IDX 12 25 13 26 26 27 27 28 28 29 29 30 30 31 31 32 92 33 32 34
REMARK SMILES IDX 91 35 33 36 34 37 35 38 85 39 36 40 90 41 84 42 86 43 37 44
REMARK SMILES IDX 89 45 83 46 82 47 38 49 70 50 50 51 69 52 51 53 54 54 68 55
REMARK SMILES IDX 87 56 52 57 53 58 67 60 88 61 55 62 39 63 40 64 48 65 41 66
REMARK SMILES IDX 43 67 49 68 42 69 44 70 45 71 46 72 47 73 71 74 72 75 80 76
REMARK SMILES IDX 73 77 75 78 81 79 74 80 76 81 77 82 78 83 79 84 56 85 57 86
REMARK SMILES IDX 65 87 58 88 60 89 66 90 59 91 61 92 62 93 63 94 64 95
REMARK H PARENT 8 18 86 48 54 59
REMARK Flexibility Score: inf
ROOT
ATOM      1  C   UNL A   1      36.765  21.076  24.708  1.00  0.00     0.274 C 
ENDROOT
BRANCH   1   2
ATOM      2  O   UNL A   1      35.844  21.107  25.790  1.00  0.00    -0.460 OA
BRANCH   2   3
ATOM      3  C   UNL A   1      34.656  20.489  25.564  1.00  0.00     0.344 C 
ATOM      4  O   UNL A   1      34.486  19.639  24.698  1.00  0.00    -0.248 OA
BRANCH   3   5
ATOM      5  C   UNL A   1      33.527  21.041  26.449  1.00  0.00     0.351 C 
BRANCH   5   6
ATOM      6  O   UNL A   1      32.452  21.787  25.892  1.00  0.00    -0.482 OA
BRANCH   6   7
ATOM      7  C   UNL A   1      32.454  23.151  25.980  1.00  0.00     0.123 A 
ATOM      8  C   UNL A   1      30.048  22.969  26.844  1.00  0.00     0.048 C 
ATOM      9  C   UNL A   1      31.276  23.757  26.459  1.00  0.00    -0.008 A 
ATOM     10  C   UNL A   1      31.254  25.147  26.670  1.00  0.00     0.029 A 
ATOM     11  C   UNL A   1      32.387  25.916  26.407  1.00  0.00     0.088 A 
ATOM     12  C   UNL A   1      33.567  23.944  25.684  1.00  0.00     0.048 A 
ATOM     13  C   UNL A   1      33.560  25.304  25.968  1.00  0.00     0.026 A 
BRANCH  11  14
ATOM     14  S   UNL A   1      32.378  27.659  26.707  1.00  0.00     0.262 S 
ATOM     15  O   UNL A   1      31.352  27.976  27.688  1.00  0.00    -0.201 OA
ATOM     16  O   UNL A   1      33.745  28.076  26.924  1.00  0.00    -0.201 OA
BRANCH  14  17
ATOM     17  N   UNL A   1      31.896  28.464  25.272  1.00  0.00    -0.277 N 
ATOM     18  H   UNL A   1      31.498  29.363  25.311  1.00  0.00     0.180 HD
BRANCH  17  19
ATOM     19  C   UNL A   1      32.084  27.798  24.013  1.00  0.00     0.085 A 
ATOM     20  C   UNL A   1      33.330  27.821  23.378  1.00  0.00     0.031 A 
ATOM     21  C   UNL A   1      31.035  27.064  23.443  1.00  0.00     0.148 A 
ATOM     22  C   UNL A   1      33.509  27.116  22.182  1.00  0.00     0.023 A 
ATOM     23  C   UNL A   1      31.214  26.346  22.266  1.00  0.00     0.062 A 
ATOM     24  F   UNL A   1      29.839  27.026  24.047  1.00  0.00    -0.205 F 
ATOM     25  C   UNL A   1      32.454  26.379  21.637  1.00  0.00     0.044 A 
ATOM     26  Cl  UNL A   1      32.693  25.504  20.175  1.00  0.00    -0.084 Cl
ENDBRANCH  17  19
ENDBRANCH  14  17
ENDBRANCH  11  14
ENDBRANCH   6   7
ENDBRANCH   5   6
ENDBRANCH   3   5
ENDBRANCH   2   3
ENDBRANCH   1   2
BRANCH   1  27
ATOM     27  C   UNL A   1      37.749  22.250  24.796  1.00  0.00     0.275 C 
BRANCH  27  28
ATOM     28  O   UNL A   1      38.133  22.845  26.079  1.00  0.00    -0.458 OA
BRANCH  28  29
ATOM     29  C   UNL A   1      39.326  22.942  26.719  1.00  0.00     0.338 C 
ATOM     30  O   UNL A   1      40.003  21.958  26.991  1.00  0.00    -0.246 OA
BRANCH  29  31
ATOM     31  C   UNL A   1      39.731  24.277  27.158  1.00  0.00     0.060 A 
ATOM     32  C   UNL A   1      40.449  25.143  26.313  1.00  0.00     0.016 A 
ATOM     33  C   UNL A   1      39.294  24.683  28.407  1.00  0.00     0.016 A 
ATOM     34  C   UNL A   1      40.633  26.476  26.662  1.00  0.00     0.010 A 
ATOM     35  C   UNL A   1      39.364  26.017  28.697  1.00  0.00     0.010 A 
ATOM     36  C   UNL A   1      40.063  26.905  27.850  1.00  0.00    -0.014 A 
BRANCH  36  37
ATOM     37  C   UNL A   1      40.323  28.183  28.486  1.00  0.00     0.031 A 
ATOM     38  C   UNL A   1      39.398  29.322  28.405  1.00  0.00     0.074 A 
ATOM     39  C   UNL A   1      41.254  28.018  29.451  1.00  0.00     0.049 A 
ATOM     40  N   UNL A   1      39.549  30.399  29.089  1.00  0.00    -0.248 NA
ATOM     41  C   UNL A   1      38.216  29.356  27.554  1.00  0.00     0.031 C 
ATOM     42  C   UNL A   1      41.434  28.691  30.718  1.00  0.00     0.029 A 
ATOM     43  N   UNL A   1      42.335  27.123  29.395  1.00  0.00    -0.354 N 
ATOM     44  C   UNL A   1      38.371  31.117  29.019  1.00  0.00     0.074 A 
ATOM     45  C   UNL A   1      37.609  30.472  27.979  1.00  0.00     0.031 C 
ATOM     46  C   UNL A   1      42.680  28.428  31.160  1.00  0.00     0.029 A 
ATOM     47  C   UNL A   1      43.376  27.763  30.060  1.00  0.00     0.049 A 
ATOM     48  H   UNL A   1      42.353  26.233  28.973  1.00  0.00     0.167 HD
ATOM     49  C   UNL A   1      38.153  32.067  29.973  1.00  0.00     0.034 A 
ATOM     50  C   UNL A   1      44.425  28.280  29.347  1.00  0.00     0.034 A 
ATOM     51  C   UNL A   1      39.375  32.237  30.777  1.00  0.00     0.049 A 
ATOM     52  C   UNL A   1      44.483  29.781  29.545  1.00  0.00     0.074 A 
ATOM     53  C   UNL A   1      39.778  31.696  31.986  1.00  0.00     0.029 A 
ATOM     54  N   UNL A   1      40.518  32.757  30.174  1.00  0.00    -0.354 N 
ATOM     55  N   UNL A   1      43.440  30.531  29.786  1.00  0.00    -0.248 NA
ATOM     56  C   UNL A   1      45.735  30.522  29.609  1.00  0.00     0.031 C 
ATOM     57  C   UNL A   1      41.197  31.786  32.047  1.00  0.00     0.029 A 
ATOM     58  C   UNL A   1      41.649  32.401  30.889  1.00  0.00     0.049 A 
ATOM     59  H   UNL A   1      40.520  33.303  29.355  1.00  0.00     0.167 HD
ATOM     60  C   UNL A   1      43.845  31.801  30.087  1.00  0.00     0.074 A 
ATOM     61  C   UNL A   1      45.295  31.743  29.957  1.00  0.00     0.031 C 
ATOM     62  C   UNL A   1      42.975  32.801  30.432  1.00  0.00     0.034 A 
BRANCH  49  63
ATOM     63  C   UNL A   1      36.811  32.652  30.408  1.00  0.00     0.023 A 
ATOM     64  C   UNL A   1      36.341  32.260  31.688  1.00  0.00     0.012 A 
ATOM     65  C   UNL A   1      35.935  33.484  29.668  1.00  0.00     0.148 A 
ATOM     66  C   UNL A   1      35.074  32.593  32.175  1.00  0.00     0.002 A 
ATOM     67  C   UNL A   1      34.658  33.812  30.151  1.00  0.00     0.091 A 
ATOM     68  F   UNL A   1      36.332  33.995  28.501  1.00  0.00    -0.205 F 
ATOM     69  C   UNL A   1      34.223  33.357  31.399  1.00  0.00     0.022 A 
BRANCH  67  70
ATOM     70  S   UNL A   1      33.467  34.802  29.221  1.00  0.00     0.127 S 
ATOM     71  O   UNL A   1      33.020  33.858  28.194  1.00  0.00    -0.237 OA
ATOM     72  O   UNL A   1      32.460  35.114  30.234  1.00  0.00    -0.237 OA
ATOM     73  O   UNL A   1      34.199  35.952  28.707  1.00  0.00    -0.744 OA
ENDBRANCH  67  70
ENDBRANCH  49  63
BRANCH  50  74
ATOM     74  C   UNL A   1      44.718  27.539  28.065  1.00  0.00     0.023 A 
ATOM     75  C   UNL A   1      44.391  28.209  26.854  1.00  0.00     0.012 A 
ATOM     76  C   UNL A   1      45.623  26.462  27.998  1.00  0.00     0.148 A 
ATOM     77  C   UNL A   1      45.056  27.923  25.658  1.00  0.00     0.002 A 
ATOM     78  C   UNL A   1      46.272  26.171  26.791  1.00  0.00     0.091 A 
ATOM     79  F   UNL A   1      45.888  25.771  29.114  1.00  0.00    -0.205 F 
ATOM     80  C   UNL A   1      46.019  26.925  25.634  1.00  0.00     0.022 A 
BRANCH  78  81
ATOM     81  S   UNL A   1      47.558  24.913  26.687  1.00  0.00     0.127 S 
ATOM     82  O   UNL A   1      48.213  25.265  25.430  1.00  0.00    -0.237 OA
ATOM     83  O   UNL A   1      48.358  25.167  27.887  1.00  0.00    -0.237 OA
ATOM     84  O   UNL A   1      46.838  23.650  26.719  1.00  0.00    -0.744 OA
ENDBRANCH  78  81
ENDBRANCH  50  74
BRANCH  62  85
ATOM     85  C   UNL A   1      43.316  34.275  30.386  1.00  0.00     0.023 A 
ATOM     86  C   UNL A   1      43.841  34.945  31.508  1.00  0.00     0.012 A 
ATOM     87  C   UNL A   1      43.319  34.988  29.160  1.00  0.00     0.148 A 
ATOM     88  C   UNL A   1      44.284  36.267  31.441  1.00  0.00     0.002 A 
ATOM     89  C   UNL A   1      43.884  36.255  29.071  1.00  0.00     0.091 A 
ATOM     90  F   UNL A   1      42.767  34.448  28.062  1.00  0.00    -0.205 F 
ATOM     91  C   UNL A   1      44.332  36.915  30.216  1.00  0.00     0.022 A 
BRANCH  89  92
ATOM     92  S   UNL A   1      44.234  36.994  27.469  1.00  0.00     0.127 S 
ATOM     93  O   UNL A   1      42.894  37.269  26.961  1.00  0.00    -0.237 OA
ATOM     94  O   UNL A   1      45.004  38.184  27.834  1.00  0.00    -0.237 OA
ATOM     95  O   UNL A   1      45.005  35.986  26.752  1.00  0.00    -0.744 OA
ENDBRANCH  89  92
ENDBRANCH  62  85
ENDBRANCH  36  37
ENDBRANCH  29  31
ENDBRANCH  28  29
ENDBRANCH  27  28
ENDBRANCH   1  27
TORSDOF 19
ENDMDL
MODEL 3
REMARK VINA RESULT:     -11.8      4.133      9.650
REMARK SMILES Cc1cc(S(=O)(=O)Nc2ccc(Cl)cc2F)ccc1OCC(=O)OCCOC(=O)c1ccc(-c2c3nc(c(-c4cccc(S(=O)(=O)[O-])c4F)c4ccc([nH]4)c(-c4cccc(S(=O)(=O)[O-])c4F)c4nc(c(-c5cccc(S(=O)(=O)[O-])c5F)c5ccc2[nH]5)C=C4)C=C3)cc1
REMARK SMILES IDX 25 1 24 2 22 3 23 4 21 5 20 6 19 7 1 8 2 9 3 10 4 11 18 12
REMARK SMILES IDX 17 13 5 14 6 15 7 16 8 17 9 19 10 20 15 21 11 22 14 23 16 24
REMARK SMILES IDX 12 25 13 26 26 27 27 28 28 29 29 30 30 31 31 32 92 33 32 34
REMARK SMILES IDX 91 35 33 36 34 37 35 38 85 39 36 40 90 41 84 42 86 43 37 44
REMARK SMILES IDX 89 45 83 46 82 47 38 49 70 50 50 51 69 52 51 53 54 54 68 55
REMARK SMILES IDX 87 56 52 57 53 58 67 60 88 61 55 62 39 63 40 64 48 65 41 66
REMARK SMILES IDX 43 67 49 68 42 69 44 70 45 71 46 72 47 73 71 74 72 75 80 76
REMARK SMILES IDX 73 77 75 78 81 79 74 80 76 81 77 82 78 83 79 84 56 85 57 86
REMARK SMILES IDX 65 87 58 88 60 89 66 90 59 91 61 92 62 93 63 94 64 95
REMARK H PARENT 8 18 86 48 54 59
REMARK Flexibility Score: inf
ROOT
ATOM      1  C   UNL A   1      35.838  23.325  24.986  1.00  0.00     0.274 C 
ENDROOT
BRANCH   1   2
ATOM      2  O   UNL A   1      35.000  22.616  25.889  1.00  0.00    -0.460 OA
BRANCH   2   3
ATOM      3  C   UNL A   1      34.840  21.294  25.624  1.00  0.00     0.344 C 
ATOM      4  O   UNL A   1      35.718  20.586  25.145  1.00  0.00    -0.248 OA
BRANCH   3   5
ATOM      5  C   UNL A   1      33.409  20.807  25.901  1.00  0.00     0.351 C 
BRANCH   5   6
ATOM      6  O   UNL A   1      32.409  20.849  24.892  1.00  0.00    -0.482 OA
BRANCH   6   7
ATOM      7  C   UNL A   1      32.291  21.956  24.097  1.00  0.00     0.123 A 
ATOM      8  C   UNL A   1      30.690  22.896  25.864  1.00  0.00     0.048 C 
ATOM      9  C   UNL A   1      31.452  22.987  24.565  1.00  0.00    -0.008 A 
ATOM     10  C   UNL A   1      31.373  24.190  23.842  1.00  0.00     0.029 A 
ATOM     11  C   UNL A   1      32.118  24.360  22.676  1.00  0.00     0.088 A 
ATOM     12  C   UNL A   1      32.998  22.129  22.904  1.00  0.00     0.048 A 
ATOM     13  C   UNL A   1      32.973  23.350  22.239  1.00  0.00     0.026 A 
BRANCH  11  14
ATOM     14  S   UNL A   1      32.053  25.886  21.784  1.00  0.00     0.262 S 
ATOM     15  O   UNL A   1      32.167  25.619  20.359  1.00  0.00    -0.201 OA
ATOM     16  O   UNL A   1      30.936  26.648  22.294  1.00  0.00    -0.201 OA
BRANCH  14  17
ATOM     17  N   UNL A   1      33.437  26.817  22.180  1.00  0.00    -0.277 N 
ATOM     18  H   UNL A   1      34.164  26.939  21.527  1.00  0.00     0.180 HD
BRANCH  17  19
ATOM     19  C   UNL A   1      33.515  27.414  23.485  1.00  0.00     0.085 A 
ATOM     20  C   UNL A   1      33.930  26.659  24.586  1.00  0.00     0.031 A 
ATOM     21  C   UNL A   1      33.236  28.777  23.651  1.00  0.00     0.148 A 
ATOM     22  C   UNL A   1      34.058  27.274  25.837  1.00  0.00     0.023 A 
ATOM     23  C   UNL A   1      33.380  29.397  24.887  1.00  0.00     0.062 A 
ATOM     24  F   UNL A   1      32.847  29.513  22.600  1.00  0.00    -0.205 F 
ATOM     25  C   UNL A   1      33.787  28.638  25.979  1.00  0.00     0.044 A 
ATOM     26  Cl  UNL A   1      33.963  29.384  27.519  1.00  0.00    -0.084 Cl
ENDBRANCH  17  19
ENDBRANCH  14  17
ENDBRANCH  11  14
ENDBRANCH   6   7
ENDBRANCH   5   6
ENDBRANCH   3   5
ENDBRANCH   2   3
ENDBRANCH   1   2
BRANCH   1  27
ATOM     27  C   UNL A   1      37.138  23.758  25.675  1.00  0.00     0.275 C 
BRANCH  27  28
ATOM     28  O   UNL A   1      38.119  22.785  26.163  1.00  0.00    -0.458 OA
BRANCH  28  29
ATOM     29  C   UNL A   1      39.361  22.927  26.691  1.00  0.00     0.338 C 
ATOM     30  O   UNL A   1      40.103  21.971  26.878  1.00  0.00    -0.246 OA
BRANCH  29  31
ATOM     31  C   UNL A   1      39.746  24.272  27.116  1.00  0.00     0.060 A 
ATOM     32  C   UNL A   1      40.405  25.159  26.245  1.00  0.00     0.016 A 
ATOM     33  C   UNL A   1      39.349  24.664  28.383  1.00  0.00     0.016 A 
ATOM     34  C   UNL A   1      40.567  26.496  26.589  1.00  0.00     0.010 A 
ATOM     35  C   UNL A   1      39.394  25.999  28.673  1.00  0.00     0.010 A 
ATOM     36  C   UNL A   1      40.034  26.907  27.800  1.00  0.00    -0.014 A 
BRANCH  36  37
ATOM     37  C   UNL A   1      40.285  28.191  28.429  1.00  0.00     0.031 A 
ATOM     38  C   UNL A   1      39.344  29.317  28.353  1.00  0.00     0.074 A 
ATOM     39  C   UNL A   1      41.228  28.041  29.384  1.00  0.00     0.049 A 
ATOM     40  N   UNL A   1      39.489  30.399  29.031  1.00  0.00    -0.248 NA
ATOM     41  C   UNL A   1      38.152  29.334  27.515  1.00  0.00     0.031 C 
ATOM     42  C   UNL A   1      41.412  28.722  30.647  1.00  0.00     0.029 A 
ATOM     43  N   UNL A   1      42.319  27.161  29.320  1.00  0.00    -0.354 N 
ATOM     44  C   UNL A   1      38.301  31.102  28.971  1.00  0.00     0.074 A 
ATOM     45  C   UNL A   1      37.536  30.444  27.942  1.00  0.00     0.031 C 
ATOM     46  C   UNL A   1      42.666  28.477  31.076  1.00  0.00     0.029 A 
ATOM     47  C   UNL A   1      43.359  27.816  29.971  1.00  0.00     0.049 A 
ATOM     48  H   UNL A   1      42.344  26.270  28.902  1.00  0.00     0.167 HD
ATOM     49  C   UNL A   1      38.080  32.053  29.924  1.00  0.00     0.034 A 
ATOM     50  C   UNL A   1      44.393  28.344  29.245  1.00  0.00     0.034 A 
ATOM     51  C   UNL A   1      39.309  32.242  30.714  1.00  0.00     0.049 A 
ATOM     52  C   UNL A   1      44.434  29.846  29.437  1.00  0.00     0.074 A 
ATOM     53  C   UNL A   1      39.732  31.711  31.921  1.00  0.00     0.029 A 
ATOM     54  N   UNL A   1      40.438  32.774  30.097  1.00  0.00    -0.354 N 
ATOM     55  N   UNL A   1      43.385  30.584  29.686  1.00  0.00    -0.248 NA
ATOM     56  C   UNL A   1      45.678  30.603  29.484  1.00  0.00     0.031 C 
ATOM     57  C   UNL A   1      41.150  31.819  31.966  1.00  0.00     0.029 A 
ATOM     58  C   UNL A   1      41.582  32.435  30.801  1.00  0.00     0.049 A 
ATOM     59  H   UNL A   1      40.425  33.317  29.276  1.00  0.00     0.167 HD
ATOM     60  C   UNL A   1      43.776  31.860  29.978  1.00  0.00     0.074 A 
ATOM     61  C   UNL A   1      45.226  31.820  29.833  1.00  0.00     0.031 C 
ATOM     62  C   UNL A   1      42.898  32.851  30.328  1.00  0.00     0.034 A 
BRANCH  49  63
ATOM     63  C   UNL A   1      36.736  32.623  30.370  1.00  0.00     0.023 A 
ATOM     64  C   UNL A   1      36.271  32.207  31.645  1.00  0.00     0.012 A 
ATOM     65  C   UNL A   1      35.854  33.461  29.646  1.00  0.00     0.148 A 
ATOM     66  C   UNL A   1      35.002  32.524  32.140  1.00  0.00     0.002 A 
ATOM     67  C   UNL A   1      34.575  33.773  30.136  1.00  0.00     0.091 A 
ATOM     68  F   UNL A   1      36.245  33.993  28.487  1.00  0.00    -0.205 F 
ATOM     69  C   UNL A   1      34.146  33.296  31.378  1.00  0.00     0.022 A 
BRANCH  67  70
ATOM     70  S   UNL A   1      33.377  34.771  29.226  1.00  0.00     0.127 S 
ATOM     71  O   UNL A   1      34.222  35.826  28.662  1.00  0.00    -0.237 OA
ATOM     72  O   UNL A   1      32.859  33.821  28.242  1.00  0.00    -0.237 OA
ATOM     73  O   UNL A   1      32.400  35.237  30.203  1.00  0.00    -0.744 OA
ENDBRANCH  67  70
ENDBRANCH  49  63
BRANCH  50  74
ATOM     74  C   UNL A   1      44.683  27.602  27.963  1.00  0.00     0.023 A 
ATOM     75  C   UNL A   1      44.267  28.230  26.757  1.00  0.00     0.012 A 
ATOM     76  C   UNL A   1      45.650  26.581  27.876  1.00  0.00     0.148 A 
ATOM     77  C   UNL A   1      44.902  27.966  25.539  1.00  0.00     0.002 A 
ATOM     78  C   UNL A   1      46.268  26.311  26.648  1.00  0.00     0.091 A 
ATOM     79  F   UNL A   1      46.001  25.927  28.990  1.00  0.00    -0.205 F 
ATOM     80  C   UNL A   1      45.924  27.029  25.491  1.00  0.00     0.022 A 
BRANCH  78  81
ATOM     81  S   UNL A   1      47.626  25.134  26.510  1.00  0.00     0.127 S 
ATOM     82  O   UNL A   1      46.952  23.872  26.801  1.00  0.00    -0.237 OA
ATOM     83  O   UNL A   1      48.055  25.295  25.119  1.00  0.00    -0.237 OA
ATOM     84  O   UNL A   1      48.606  25.592  27.483  1.00  0.00    -0.744 OA
ENDBRANCH  78  81
ENDBRANCH  50  74
BRANCH  62  85
ATOM     85  C   UNL A   1      43.220  34.328  30.272  1.00  0.00     0.023 A 
ATOM     86  C   UNL A   1      43.728  35.014  31.392  1.00  0.00     0.012 A 
ATOM     87  C   UNL A   1      43.220  35.032  29.041  1.00  0.00     0.148 A 
ATOM     88  C   UNL A   1      44.154  36.342  31.318  1.00  0.00     0.002 A 
ATOM     89  C   UNL A   1      43.769  36.306  28.946  1.00  0.00     0.091 A 
ATOM     90  F   UNL A   1      42.682  34.476  27.944  1.00  0.00    -0.205 F 
ATOM     91  C   UNL A   1      44.201  36.980  30.088  1.00  0.00     0.022 A 
BRANCH  89  92
ATOM     92  S   UNL A   1      44.119  37.037  27.340  1.00  0.00     0.127 S 
ATOM     93  O   UNL A   1      42.865  36.817  26.626  1.00  0.00    -0.237 OA
ATOM     94  O   UNL A   1      44.388  38.434  27.683  1.00  0.00    -0.237 OA
ATOM     95  O   UNL A   1      45.282  36.313  26.845  1.00  0.00    -0.744 OA
ENDBRANCH  89  92
ENDBRANCH  62  85
ENDBRANCH  36  37
ENDBRANCH  29  31
ENDBRANCH  28  29
ENDBRANCH  27  28
ENDBRANCH   1  27
TORSDOF 19
ENDMDL
