MODEL 1
REMARK VINA RESULT:     -12.4      0.000      0.000
REMARK SMILES O=C(Nc1ccc(-c2nc3ccccc3[nH]2)cc1)c1ccc(C(=O)OCCOC(=O)c2ccc(-c3c4nc(c(-c5cccc(S(=O)(=O)[O-])c5F)c5ccc([nH]5)c(-c5cccc(S(=O)(=O)[O-])c5F)c5nc(c(-c6cccc(S(=O)(=O)[O-])c6F)c6ccc3[nH]6)C=C5)C=C4)cc2)cc1
REMARK SMILES IDX 26 1 25 2 23 3 24 4 22 5 19 6 20 7 95 8 21 9 94 10 2 11 1 12
REMARK SMILES IDX 3 13 4 15 5 16 18 17 6 18 17 19 7 20 8 21 9 22 16 23 10 24
REMARK SMILES IDX 15 25 11 27 14 28 12 29 13 30 27 31 28 32 29 33 30 34 31 35
REMARK SMILES IDX 32 36 93 37 33 38 92 39 34 40 35 41 36 42 86 43 37 44 91 45
REMARK SMILES IDX 85 46 87 47 38 48 90 49 84 50 83 51 39 53 71 54 51 55 70 56
REMARK SMILES IDX 52 57 55 58 69 59 88 60 53 61 54 62 68 64 89 65 56 66 40 67
REMARK SMILES IDX 41 68 49 69 42 70 44 71 50 72 43 73 45 74 46 75 47 76 48 77
REMARK SMILES IDX 72 78 73 79 81 80 74 81 76 82 82 83 75 84 77 85 78 86 79 87
REMARK SMILES IDX 80 88 57 89 58 90 66 91 59 92 61 93 67 94 60 95 62 96 63 97
REMARK SMILES IDX 64 98 65 99
REMARK H PARENT 3 14 16 26 87 52 55 63
REMARK Flexibility Score: inf
ROOT
ATOM      1  C   UNL A   1      35.989  20.624  25.008  1.00  0.00     0.275 C 
ENDROOT
BRANCH   1   2
ATOM      2  O   UNL A   1      35.436  21.540  25.977  1.00  0.00    -0.458 OA
BRANCH   2   3
ATOM      3  C   UNL A   1      34.121  21.826  25.818  1.00  0.00     0.338 C 
ATOM      4  O   UNL A   1      33.218  21.541  26.591  1.00  0.00    -0.246 OA
BRANCH   3   5
ATOM      5  C   UNL A   1      33.896  22.657  24.610  1.00  0.00     0.060 A 
ATOM      6  C   UNL A   1      33.255  24.208  22.374  1.00  0.00     0.040 A 
ATOM      7  C   UNL A   1      32.547  23.030  22.629  1.00  0.00     0.015 A 
ATOM      8  C   UNL A   1      34.337  24.573  23.186  1.00  0.00     0.015 A 
ATOM      9  C   UNL A   1      32.887  22.247  23.728  1.00  0.00     0.016 A 
ATOM     10  C   UNL A   1      34.639  23.811  24.326  1.00  0.00     0.016 A 
BRANCH   6  11
ATOM     11  C   UNL A   1      32.838  25.053  21.228  1.00  0.00     0.255 C 
ATOM     12  O   UNL A   1      32.956  24.615  20.088  1.00  0.00    -0.269 OA
ATOM     13  N   UNL A   1      32.200  26.254  21.487  1.00  0.00    -0.322 N 
ATOM     14  H   UNL A   1      31.534  26.540  20.820  1.00  0.00     0.170 HD
BRANCH  13  15
ATOM     15  C   UNL A   1      32.382  27.123  22.585  1.00  0.00     0.041 A 
ATOM     16  C   UNL A   1      31.534  27.020  23.693  1.00  0.00     0.027 A 
ATOM     17  C   UNL A   1      33.340  28.134  22.571  1.00  0.00     0.027 A 
ATOM     18  C   UNL A   1      31.674  27.894  24.792  1.00  0.00     0.014 A 
ATOM     19  C   UNL A   1      33.472  29.002  23.652  1.00  0.00     0.014 A 
ATOM     20  C   UNL A   1      32.644  28.905  24.778  1.00  0.00     0.017 A 
BRANCH  20  21
ATOM     21  C   UNL A   1      32.902  29.849  25.875  1.00  0.00     0.138 A 
ATOM     22  N   UNL A   1      32.099  30.851  26.197  1.00  0.00    -0.229 NA
ATOM     23  N   UNL A   1      34.019  29.884  26.677  1.00  0.00    -0.338 N 
ATOM     24  C   UNL A   1      32.813  31.660  27.036  1.00  0.00     0.089 A 
ATOM     25  C   UNL A   1      34.044  31.097  27.328  1.00  0.00     0.066 A 
ATOM     26  H   UNL A   1      34.686  29.166  26.770  1.00  0.00     0.168 HD
ATOM     27  C   UNL A   1      32.488  32.921  27.555  1.00  0.00     0.030 A 
ATOM     28  C   UNL A   1      35.011  31.758  28.094  1.00  0.00     0.028 A 
ATOM     29  C   UNL A   1      33.454  33.614  28.294  1.00  0.00     0.002 A 
ATOM     30  C   UNL A   1      34.703  33.045  28.543  1.00  0.00     0.002 A 
ENDBRANCH  20  21
ENDBRANCH  13  15
ENDBRANCH   6  11
ENDBRANCH   3   5
ENDBRANCH   2   3
ENDBRANCH   1   2
BRANCH   1  31
ATOM     31  C   UNL A   1      37.518  20.682  24.994  1.00  0.00     0.275 C 
BRANCH  31  32
ATOM     32  O   UNL A   1      38.005  21.624  25.968  1.00  0.00    -0.458 OA
BRANCH  32  33
ATOM     33  C   UNL A   1      39.303  21.473  26.333  1.00  0.00     0.338 C 
ATOM     34  O   UNL A   1      39.966  20.451  26.279  1.00  0.00    -0.246 OA
BRANCH  33  35
ATOM     35  C   UNL A   1      39.847  22.765  26.786  1.00  0.00     0.060 A 
ATOM     36  C   UNL A   1      39.293  23.938  26.281  1.00  0.00     0.016 A 
ATOM     37  C   UNL A   1      40.980  22.826  27.596  1.00  0.00     0.016 A 
ATOM     38  C   UNL A   1      39.907  25.168  26.520  1.00  0.00     0.010 A 
ATOM     39  C   UNL A   1      41.546  24.075  27.907  1.00  0.00     0.010 A 
ATOM     40  C   UNL A   1      41.031  25.265  27.357  1.00  0.00    -0.014 A 
BRANCH  40  41
ATOM     41  C   UNL A   1      41.697  26.584  27.598  1.00  0.00     0.031 A 
ATOM     42  C   UNL A   1      43.013  26.911  26.948  1.00  0.00     0.074 A 
ATOM     43  C   UNL A   1      41.126  27.565  28.321  1.00  0.00     0.049 A 
ATOM     44  N   UNL A   1      43.904  27.824  27.243  1.00  0.00    -0.248 NA
ATOM     45  C   UNL A   1      43.344  26.105  25.770  1.00  0.00     0.031 C 
ATOM     46  C   UNL A   1      39.805  27.518  28.939  1.00  0.00     0.029 A 
ATOM     47  N   UNL A   1      41.600  28.818  28.633  1.00  0.00    -0.354 N 
ATOM     48  C   UNL A   1      44.976  27.599  26.385  1.00  0.00     0.074 A 
ATOM     49  C   UNL A   1      44.553  26.563  25.484  1.00  0.00     0.031 C 
ATOM     50  C   UNL A   1      39.549  28.705  29.508  1.00  0.00     0.029 A 
ATOM     51  C   UNL A   1      40.732  29.556  29.396  1.00  0.00     0.049 A 
ATOM     52  H   UNL A   1      42.477  29.152  28.336  1.00  0.00     0.167 HD
ATOM     53  C   UNL A   1      46.199  28.182  26.344  1.00  0.00     0.034 A 
ATOM     54  C   UNL A   1      40.885  30.760  29.980  1.00  0.00     0.034 A 
ATOM     55  C   UNL A   1      46.516  29.384  27.058  1.00  0.00     0.049 A 
ATOM     56  C   UNL A   1      42.186  31.503  29.842  1.00  0.00     0.074 A 
ATOM     57  C   UNL A   1      47.703  30.093  27.088  1.00  0.00     0.029 A 
ATOM     58  N   UNL A   1      45.593  30.108  27.790  1.00  0.00    -0.354 N 
ATOM     59  N   UNL A   1      43.271  31.159  29.191  1.00  0.00    -0.248 NA
ATOM     60  C   UNL A   1      42.281  32.808  30.512  1.00  0.00     0.031 C 
ATOM     61  C   UNL A   1      47.478  31.280  27.797  1.00  0.00     0.029 A 
ATOM     62  C   UNL A   1      46.154  31.298  28.204  1.00  0.00     0.049 A 
ATOM     63  H   UNL A   1      44.674  29.817  27.988  1.00  0.00     0.167 HD
ATOM     64  C   UNL A   1      44.166  32.213  29.355  1.00  0.00     0.074 A 
ATOM     65  C   UNL A   1      43.489  33.218  30.146  1.00  0.00     0.031 C 
ATOM     66  C   UNL A   1      45.443  32.326  28.914  1.00  0.00     0.034 A 
BRANCH  53  67
ATOM     67  C   UNL A   1      47.289  27.540  25.511  1.00  0.00     0.023 A 
ATOM     68  C   UNL A   1      48.162  26.581  26.060  1.00  0.00     0.012 A 
ATOM     69  C   UNL A   1      47.423  27.882  24.146  1.00  0.00     0.148 A 
ATOM     70  C   UNL A   1      49.198  26.039  25.295  1.00  0.00     0.002 A 
ATOM     71  C   UNL A   1      48.413  27.285  23.372  1.00  0.00     0.091 A 
ATOM     72  F   UNL A   1      46.594  28.800  23.629  1.00  0.00    -0.205 F 
ATOM     73  C   UNL A   1      49.319  26.385  23.951  1.00  0.00     0.022 A 
BRANCH  71  74
ATOM     74  S   UNL A   1      48.550  27.576  21.603  1.00  0.00     0.127 S 
ATOM     75  O   UNL A   1      47.220  28.094  21.287  1.00  0.00    -0.237 OA
ATOM     76  O   UNL A   1      49.624  28.567  21.532  1.00  0.00    -0.237 OA
ATOM     77  O   UNL A   1      48.885  26.284  21.019  1.00  0.00    -0.744 OA
ENDBRANCH  71  74
ENDBRANCH  53  67
BRANCH  54  78
ATOM     78  C   UNL A   1      39.744  31.337  30.742  1.00  0.00     0.023 A 
ATOM     79  C   UNL A   1      38.654  31.888  30.043  1.00  0.00     0.012 A 
ATOM     80  C   UNL A   1      39.696  31.259  32.146  1.00  0.00     0.148 A 
ATOM     81  C   UNL A   1      37.538  32.359  30.732  1.00  0.00     0.002 A 
ATOM     82  C   UNL A   1      38.552  31.665  32.821  1.00  0.00     0.091 A 
ATOM     83  F   UNL A   1      40.755  30.751  32.793  1.00  0.00    -0.205 F 
ATOM     84  C   UNL A   1      37.478  32.230  32.118  1.00  0.00     0.022 A 
BRANCH  82  85
ATOM     85  S   UNL A   1      38.332  31.370  34.579  1.00  0.00     0.127 S 
ATOM     86  O   UNL A   1      38.431  29.915  34.651  1.00  0.00    -0.237 OA
ATOM     87  O   UNL A   1      39.465  32.095  35.154  1.00  0.00    -0.237 OA
ATOM     88  O   UNL A   1      37.032  31.938  34.909  1.00  0.00    -0.744 OA
ENDBRANCH  82  85
ENDBRANCH  54  78
BRANCH  66  89
ATOM     89  C   UNL A   1      46.191  33.594  29.200  1.00  0.00     0.023 A 
ATOM     90  C   UNL A   1      47.016  33.676  30.338  1.00  0.00     0.012 A 
ATOM     91  C   UNL A   1      46.179  34.652  28.269  1.00  0.00     0.148 A 
ATOM     92  C   UNL A   1      47.807  34.803  30.554  1.00  0.00     0.002 A 
ATOM     93  C   UNL A   1      47.001  35.754  28.471  1.00  0.00     0.091 A 
ATOM     94  F   UNL A   1      45.373  34.557  27.202  1.00  0.00    -0.205 F 
ATOM     95  C   UNL A   1      47.811  35.834  29.616  1.00  0.00     0.022 A 
BRANCH  93  96
ATOM     96  S   UNL A   1      47.141  37.078  27.265  1.00  0.00     0.127 S 
ATOM     97  O   UNL A   1      45.786  37.625  27.265  1.00  0.00    -0.237 OA
ATOM     98  O   UNL A   1      48.151  37.946  27.870  1.00  0.00    -0.237 OA
ATOM     99  O   UNL A   1      47.560  36.442  26.022  1.00  0.00    -0.744 OA
ENDBRANCH  93  96
ENDBRANCH  66  89
ENDBRANCH  40  41
ENDBRANCH  33  35
ENDBRANCH  32  33
ENDBRANCH  31  32
ENDBRANCH   1  31
TORSDOF 17
ENDMDL
MODEL 2
REMARK VINA RESULT:     -12.2      2.496      3.531
REMARK SMILES O=C(Nc1ccc(-c2nc3ccccc3[nH]2)cc1)c1ccc(C(=O)OCCOC(=O)c2ccc(-c3c4nc(c(-c5cccc(S(=O)(=O)[O-])c5F)c5ccc([nH]5)c(-c5cccc(S(=O)(=O)[O-])c5F)c5nc(c(-c6cccc(S(=O)(=O)[O-])c6F)c6ccc3[nH]6)C=C5)C=C4)cc2)cc1
REMARK SMILES IDX 26 1 25 2 23 3 24 4 22 5 19 6 20 7 95 8 21 9 94 10 2 11 1 12
REMARK SMILES IDX 3 13 4 15 5 16 18 17 6 18 17 19 7 20 8 21 9 22 16 23 10 24
REMARK SMILES IDX 15 25 11 27 14 28 12 29 13 30 27 31 28 32 29 33 30 34 31 35
REMARK SMILES IDX 32 36 93 37 33 38 92 39 34 40 35 41 36 42 86 43 37 44 91 45
REMARK SMILES IDX 85 46 87 47 38 48 90 49 84 50 83 51 39 53 71 54 51 55 70 56
REMARK SMILES IDX 52 57 55 58 69 59 88 60 53 61 54 62 68 64 89 65 56 66 40 67
REMARK SMILES IDX 41 68 49 69 42 70 44 71 50 72 43 73 45 74 46 75 47 76 48 77
REMARK SMILES IDX 72 78 73 79 81 80 74 81 76 82 82 83 75 84 77 85 78 86 79 87
REMARK SMILES IDX 80 88 57 89 58 90 66 91 59 92 61 93 67 94 60 95 62 96 63 97
REMARK SMILES IDX 64 98 65 99
REMARK H PARENT 3 14 16 26 87 52 55 63
REMARK Flexibility Score: inf
ROOT
ATOM      1  C   UNL A   1      38.782  21.334  26.011  1.00  0.00     0.275 C 
ENDROOT
BRANCH   1   2
ATOM      2  O   UNL A   1      38.195  22.177  24.997  1.00  0.00    -0.458 OA
BRANCH   2   3
ATOM      3  C   UNL A   1      37.409  23.179  25.462  1.00  0.00     0.338 C 
ATOM      4  O   UNL A   1      37.773  24.310  25.751  1.00  0.00    -0.246 OA
BRANCH   3   5
ATOM      5  C   UNL A   1      35.981  22.779  25.476  1.00  0.00     0.060 A 
ATOM      6  C   UNL A   1      33.350  21.838  25.405  1.00  0.00     0.040 A 
ATOM      7  C   UNL A   1      34.163  21.714  24.276  1.00  0.00     0.015 A 
ATOM      8  C   UNL A   1      33.819  22.505  26.545  1.00  0.00     0.015 A 
ATOM      9  C   UNL A   1      35.463  22.208  24.306  1.00  0.00     0.016 A 
ATOM     10  C   UNL A   1      35.150  22.949  26.591  1.00  0.00     0.016 A 
BRANCH   6  11
ATOM     11  C   UNL A   1      31.986  21.254  25.367  1.00  0.00     0.255 C 
ATOM     12  O   UNL A   1      31.859  20.034  25.373  1.00  0.00    -0.269 OA
ATOM     13  N   UNL A   1      30.898  22.104  25.464  1.00  0.00    -0.322 N 
ATOM     14  H   UNL A   1      30.102  21.734  25.910  1.00  0.00     0.170 HD
BRANCH  13  15
ATOM     15  C   UNL A   1      30.782  23.433  25.003  1.00  0.00     0.041 A 
ATOM     16  C   UNL A   1      30.855  23.696  23.630  1.00  0.00     0.027 A 
ATOM     17  C   UNL A   1      30.667  24.508  25.882  1.00  0.00     0.027 A 
ATOM     18  C   UNL A   1      30.771  25.017  23.144  1.00  0.00     0.014 A 
ATOM     19  C   UNL A   1      30.594  25.813  25.401  1.00  0.00     0.014 A 
ATOM     20  C   UNL A   1      30.647  26.096  24.030  1.00  0.00     0.017 A 
BRANCH  20  21
ATOM     21  C   UNL A   1      30.519  27.506  23.637  1.00  0.00     0.138 A 
ATOM     22  N   UNL A   1      30.619  28.524  24.477  1.00  0.00    -0.229 NA
ATOM     23  N   UNL A   1      30.215  27.980  22.381  1.00  0.00    -0.338 N 
ATOM     24  C   UNL A   1      30.144  29.620  23.812  1.00  0.00     0.089 A 
ATOM     25  C   UNL A   1      29.845  29.302  22.498  1.00  0.00     0.066 A 
ATOM     26  H   UNL A   1      30.255  27.464  21.544  1.00  0.00     0.168 HD
ATOM     27  C   UNL A   1      29.899  30.917  24.283  1.00  0.00     0.030 A 
ATOM     28  C   UNL A   1      29.259  30.217  21.617  1.00  0.00     0.028 A 
ATOM     29  C   UNL A   1      29.280  31.837  23.429  1.00  0.00     0.002 A 
ATOM     30  C   UNL A   1      28.950  31.484  22.121  1.00  0.00     0.002 A 
ENDBRANCH  20  21
ENDBRANCH  13  15
ENDBRANCH   6  11
ENDBRANCH   3   5
ENDBRANCH   2   3
ENDBRANCH   1   2
BRANCH   1  31
ATOM     31  C   UNL A   1      39.332  20.039  25.411  1.00  0.00     0.275 C 
BRANCH  31  32
ATOM     32  O   UNL A   1      40.152  19.338  26.365  1.00  0.00    -0.458 OA
BRANCH  32  33
ATOM     33  C   UNL A   1      41.489  19.388  26.138  1.00  0.00     0.338 C 
ATOM     34  O   UNL A   1      42.203  18.475  25.761  1.00  0.00    -0.246 OA
BRANCH  33  35
ATOM     35  C   UNL A   1      41.984  20.755  26.377  1.00  0.00     0.060 A 
ATOM     36  C   UNL A   1      41.973  21.253  27.677  1.00  0.00     0.016 A 
ATOM     37  C   UNL A   1      42.331  21.592  25.317  1.00  0.00     0.016 A 
ATOM     38  C   UNL A   1      42.235  22.603  27.917  1.00  0.00     0.010 A 
ATOM     39  C   UNL A   1      42.680  22.930  25.571  1.00  0.00     0.010 A 
ATOM     40  C   UNL A   1      42.617  23.462  26.874  1.00  0.00    -0.014 A 
BRANCH  40  41
ATOM     41  C   UNL A   1      42.882  24.913  27.133  1.00  0.00     0.031 A 
ATOM     42  C   UNL A   1      44.122  25.575  26.601  1.00  0.00     0.074 A 
ATOM     43  C   UNL A   1      42.001  25.711  27.765  1.00  0.00     0.049 A 
ATOM     44  N   UNL A   1      44.705  26.696  26.949  1.00  0.00    -0.248 NA
ATOM     45  C   UNL A   1      44.772  24.879  25.488  1.00  0.00     0.031 C 
ATOM     46  C   UNL A   1      40.684  25.317  28.255  1.00  0.00     0.029 A 
ATOM     47  N   UNL A   1      42.091  27.047  28.078  1.00  0.00    -0.354 N 
ATOM     48  C   UNL A   1      45.878  26.759  26.205  1.00  0.00     0.074 A 
ATOM     49  C   UNL A   1      45.839  25.642  25.304  1.00  0.00     0.031 C 
ATOM     50  C   UNL A   1      40.066  26.396  28.757  1.00  0.00     0.029 A 
ATOM     51  C   UNL A   1      40.986  27.531  28.730  1.00  0.00     0.049 A 
ATOM     52  H   UNL A   1      42.873  27.601  27.856  1.00  0.00     0.167 HD
ATOM     53  C   UNL A   1      46.901  27.648  26.262  1.00  0.00     0.034 A 
ATOM     54  C   UNL A   1      40.754  28.737  29.286  1.00  0.00     0.034 A 
ATOM     55  C   UNL A   1      46.814  28.896  26.962  1.00  0.00     0.049 A 
ATOM     56  C   UNL A   1      41.819  29.800  29.247  1.00  0.00     0.074 A 
ATOM     57  C   UNL A   1      47.761  29.897  27.082  1.00  0.00     0.029 A 
ATOM     58  N   UNL A   1      45.663  29.352  27.578  1.00  0.00    -0.354 N 
ATOM     59  N   UNL A   1      43.016  29.754  28.715  1.00  0.00    -0.248 NA
ATOM     60  C   UNL A   1      41.495  31.087  29.879  1.00  0.00     0.031 C 
ATOM     61  C   UNL A   1      47.159  30.985  27.726  1.00  0.00     0.029 A 
ATOM     62  C   UNL A   1      45.843  30.652  28.004  1.00  0.00     0.049 A 
ATOM     63  H   UNL A   1      44.838  28.827  27.697  1.00  0.00     0.167 HD
ATOM     64  C   UNL A   1      43.578  31.009  28.928  1.00  0.00     0.074 A 
ATOM     65  C   UNL A   1      42.582  31.802  29.617  1.00  0.00     0.031 C 
ATOM     66  C   UNL A   1      44.817  31.456  28.607  1.00  0.00     0.034 A 
BRANCH  53  67
ATOM     67  C   UNL A   1      48.200  27.316  25.559  1.00  0.00     0.023 A 
ATOM     68  C   UNL A   1      49.292  26.766  26.259  1.00  0.00     0.012 A 
ATOM     69  C   UNL A   1      48.321  27.530  24.168  1.00  0.00     0.148 A 
ATOM     70  C   UNL A   1      50.503  26.515  25.608  1.00  0.00     0.002 A 
ATOM     71  C   UNL A   1      49.507  27.212  23.513  1.00  0.00     0.091 A 
ATOM     72  F   UNL A   1      47.281  28.060  23.506  1.00  0.00    -0.205 F 
ATOM     73  C   UNL A   1      50.609  26.732  24.236  1.00  0.00     0.022 A 
BRANCH  71  74
ATOM     74  S   UNL A   1      49.678  27.336  21.727  1.00  0.00     0.127 S 
ATOM     75  O   UNL A   1      49.517  28.774  21.516  1.00  0.00    -0.237 OA
ATOM     76  O   UNL A   1      51.034  26.834  21.507  1.00  0.00    -0.237 OA
ATOM     77  O   UNL A   1      48.628  26.490  21.175  1.00  0.00    -0.744 OA
ENDBRANCH  71  74
ENDBRANCH  53  67
BRANCH  54  78
ATOM     78  C   UNL A   1      39.430  28.993  29.915  1.00  0.00     0.023 A 
ATOM     79  C   UNL A   1      39.195  28.560  31.233  1.00  0.00     0.012 A 
ATOM     80  C   UNL A   1      38.442  29.739  29.246  1.00  0.00     0.148 A 
ATOM     81  C   UNL A   1      37.993  28.860  31.872  1.00  0.00     0.002 A 
ATOM     82  C   UNL A   1      37.277  30.095  29.913  1.00  0.00     0.091 A 
ATOM     83  F   UNL A   1      38.678  30.121  27.983  1.00  0.00    -0.205 F 
ATOM     84  C   UNL A   1      37.043  29.643  31.220  1.00  0.00     0.022 A 
BRANCH  82  85
ATOM     85  S   UNL A   1      36.090  31.242  29.205  1.00  0.00     0.127 S 
ATOM     86  O   UNL A   1      36.960  32.312  28.725  1.00  0.00    -0.237 OA
ATOM     87  O   UNL A   1      35.472  30.432  28.155  1.00  0.00    -0.237 OA
ATOM     88  O   UNL A   1      35.190  31.592  30.294  1.00  0.00    -0.744 OA
ENDBRANCH  82  85
ENDBRANCH  54  78
BRANCH  66  89
ATOM     89  C   UNL A   1      45.169  32.881  28.920  1.00  0.00     0.023 A 
ATOM     90  C   UNL A   1      45.751  33.199  30.162  1.00  0.00     0.012 A 
ATOM     91  C   UNL A   1      45.044  33.878  27.933  1.00  0.00     0.148 A 
ATOM     92  C   UNL A   1      46.190  34.495  30.422  1.00  0.00     0.002 A 
ATOM     93  C   UNL A   1      45.522  35.158  28.185  1.00  0.00     0.091 A 
ATOM     94  F   UNL A   1      44.472  33.554  26.764  1.00  0.00    -0.205 F 
ATOM     95  C   UNL A   1      46.089  35.470  29.431  1.00  0.00     0.022 A 
BRANCH  93  96
ATOM     96  S   UNL A   1      45.522  36.444  26.930  1.00  0.00     0.127 S 
ATOM     97  O   UNL A   1      46.010  35.718  25.759  1.00  0.00    -0.237 OA
ATOM     98  O   UNL A   1      44.109  36.821  26.869  1.00  0.00    -0.237 OA
ATOM     99  O   UNL A   1      46.403  37.491  27.432  1.00  0.00    -0.744 OA
ENDBRANCH  93  96
ENDBRANCH  66  89
ENDBRANCH  40  41
ENDBRANCH  33  35
ENDBRANCH  32  33
ENDBRANCH  31  32
ENDBRANCH   1  31
TORSDOF 17
ENDMDL
MODEL 3
REMARK VINA RESULT:     -12.0      4.796      8.999
REMARK SMILES O=C(Nc1ccc(-c2nc3ccccc3[nH]2)cc1)c1ccc(C(=O)OCCOC(=O)c2ccc(-c3c4nc(c(-c5cccc(S(=O)(=O)[O-])c5F)c5ccc([nH]5)c(-c5cccc(S(=O)(=O)[O-])c5F)c5nc(c(-c6cccc(S(=O)(=O)[O-])c6F)c6ccc3[nH]6)C=C5)C=C4)cc2)cc1
REMARK SMILES IDX 26 1 25 2 23 3 24 4 22 5 19 6 20 7 95 8 21 9 94 10 2 11 1 12
REMARK SMILES IDX 3 13 4 15 5 16 18 17 6 18 17 19 7 20 8 21 9 22 16 23 10 24
REMARK SMILES IDX 15 25 11 27 14 28 12 29 13 30 27 31 28 32 29 33 30 34 31 35
REMARK SMILES IDX 32 36 93 37 33 38 92 39 34 40 35 41 36 42 86 43 37 44 91 45
REMARK SMILES IDX 85 46 87 47 38 48 90 49 84 50 83 51 39 53 71 54 51 55 70 56
REMARK SMILES IDX 52 57 55 58 69 59 88 60 53 61 54 62 68 64 89 65 56 66 40 67
REMARK SMILES IDX 41 68 49 69 42 70 44 71 50 72 43 73 45 74 46 75 47 76 48 77
REMARK SMILES IDX 72 78 73 79 81 80 74 81 76 82 82 83 75 84 77 85 78 86 79 87
REMARK SMILES IDX 80 88 57 89 58 90 66 91 59 92 61 93 67 94 60 95 62 96 63 97
REMARK SMILES IDX 64 98 65 99
REMARK H PARENT 3 14 16 26 87 52 55 63
REMARK Flexibility Score: inf
ROOT
ATOM      1  C   UNL A   1      31.892  30.946  26.624  1.00  0.00     0.275 C 
ENDROOT
BRANCH   1   2
ATOM      2  O   UNL A   1      33.200  30.652  26.087  1.00  0.00    -0.458 OA
BRANCH   2   3
ATOM      3  C   UNL A   1      33.811  29.565  26.617  1.00  0.00     0.338 C 
ATOM      4  O   UNL A   1      34.571  29.555  27.575  1.00  0.00    -0.246 OA
BRANCH   3   5
ATOM      5  C   UNL A   1      33.353  28.317  25.958  1.00  0.00     0.060 A 
ATOM      6  C   UNL A   1      32.311  25.975  24.844  1.00  0.00     0.040 A 
ATOM      7  C   UNL A   1      32.296  26.152  26.230  1.00  0.00     0.015 A 
ATOM      8  C   UNL A   1      32.920  26.927  24.016  1.00  0.00     0.015 A 
ATOM      9  C   UNL A   1      32.839  27.307  26.782  1.00  0.00     0.016 A 
ATOM     10  C   UNL A   1      33.415  28.117  24.572  1.00  0.00     0.016 A 
BRANCH   6  11
ATOM     11  C   UNL A   1      31.677  24.760  24.276  1.00  0.00     0.255 C 
ATOM     12  O   UNL A   1      30.453  24.703  24.205  1.00  0.00    -0.269 OA
ATOM     13  N   UNL A   1      32.487  23.786  23.718  1.00  0.00    -0.322 N 
ATOM     14  H   UNL A   1      32.100  23.284  22.965  1.00  0.00     0.170 HD
BRANCH  13  15
ATOM     15  C   UNL A   1      33.798  23.420  24.092  1.00  0.00     0.041 A 
ATOM     16  C   UNL A   1      34.824  23.466  23.141  1.00  0.00     0.027 A 
ATOM     17  C   UNL A   1      34.093  22.942  25.366  1.00  0.00     0.027 A 
ATOM     18  C   UNL A   1      36.138  23.079  23.478  1.00  0.00     0.014 A 
ATOM     19  C   UNL A   1      35.389  22.550  25.695  1.00  0.00     0.014 A 
ATOM     20  C   UNL A   1      36.433  22.605  24.763  1.00  0.00     0.017 A 
BRANCH  20  21
ATOM     21  C   UNL A   1      37.766  22.206  25.235  1.00  0.00     0.138 A 
ATOM     22  N   UNL A   1      38.303  21.014  25.024  1.00  0.00    -0.229 NA
ATOM     23  N   UNL A   1      38.620  22.960  26.008  1.00  0.00    -0.338 N 
ATOM     24  C   UNL A   1      39.382  20.926  25.858  1.00  0.00     0.089 A 
ATOM     25  C   UNL A   1      39.587  22.124  26.522  1.00  0.00     0.066 A 
ATOM     26  H   UNL A   1      38.551  23.928  26.166  1.00  0.00     0.168 HD
ATOM     27  C   UNL A   1      40.213  19.831  26.134  1.00  0.00     0.030 A 
ATOM     28  C   UNL A   1      40.571  22.282  27.503  1.00  0.00     0.028 A 
ATOM     29  C   UNL A   1      41.181  19.958  27.138  1.00  0.00     0.002 A 
ATOM     30  C   UNL A   1      41.343  21.162  27.823  1.00  0.00     0.002 A 
ENDBRANCH  20  21
ENDBRANCH  13  15
ENDBRANCH   6  11
ENDBRANCH   3   5
ENDBRANCH   2   3
ENDBRANCH   1   2
BRANCH   1  31
ATOM     31  C   UNL A   1      31.811  32.383  27.142  1.00  0.00     0.275 C 
BRANCH  31  32
ATOM     32  O   UNL A   1      33.126  32.956  27.275  1.00  0.00    -0.458 OA
BRANCH  32  33
ATOM     33  C   UNL A   1      33.258  33.906  28.235  1.00  0.00     0.338 C 
ATOM     34  O   UNL A   1      32.585  34.914  28.366  1.00  0.00    -0.246 OA
BRANCH  33  35
ATOM     35  C   UNL A   1      34.339  33.529  29.164  1.00  0.00     0.060 A 
ATOM     36  C   UNL A   1      35.537  34.234  29.115  1.00  0.00     0.016 A 
ATOM     37  C   UNL A   1      34.226  32.406  29.982  1.00  0.00     0.016 A 
ATOM     38  C   UNL A   1      36.650  33.781  29.825  1.00  0.00     0.010 A 
ATOM     39  C   UNL A   1      35.323  32.002  30.764  1.00  0.00     0.010 A 
ATOM     40  C   UNL A   1      36.560  32.672  30.682  1.00  0.00    -0.014 A 
BRANCH  40  41
ATOM     41  C   UNL A   1      37.760  32.179  31.429  1.00  0.00     0.031 A 
ATOM     42  C   UNL A   1      38.708  31.197  30.799  1.00  0.00     0.074 A 
ATOM     43  C   UNL A   1      38.101  32.645  32.645  1.00  0.00     0.049 A 
ATOM     44  N   UNL A   1      39.606  30.412  31.342  1.00  0.00    -0.248 NA
ATOM     45  C   UNL A   1      38.650  31.123  29.337  1.00  0.00     0.031 C 
ATOM     46  C   UNL A   1      37.403  33.687  33.391  1.00  0.00     0.029 A 
ATOM     47  N   UNL A   1      39.158  32.301  33.454  1.00  0.00    -0.354 N 
ATOM     48  C   UNL A   1      40.109  29.637  30.303  1.00  0.00     0.074 A 
ATOM     49  C   UNL A   1      39.515  30.149  29.101  1.00  0.00     0.031 C 
ATOM     50  C   UNL A   1      38.078  33.938  34.523  1.00  0.00     0.029 A 
ATOM     51  C   UNL A   1      39.189  32.995  34.637  1.00  0.00     0.049 A 
ATOM     52  H   UNL A   1      39.827  31.622  33.209  1.00  0.00     0.167 HD
ATOM     53  C   UNL A   1      40.974  28.593  30.333  1.00  0.00     0.034 A 
ATOM     54  C   UNL A   1      39.991  32.860  35.712  1.00  0.00     0.034 A 
ATOM     55  C   UNL A   1      41.763  28.263  31.484  1.00  0.00     0.049 A 
ATOM     56  C   UNL A   1      41.057  31.798  35.726  1.00  0.00     0.074 A 
ATOM     57  C   UNL A   1      42.692  27.251  31.644  1.00  0.00     0.029 A 
ATOM     58  N   UNL A   1      41.780  29.016  32.643  1.00  0.00    -0.354 N 
ATOM     59  N   UNL A   1      41.372  30.928  34.797  1.00  0.00    -0.248 NA
ATOM     60  C   UNL A   1      41.888  31.707  36.935  1.00  0.00     0.031 C 
ATOM     61  C   UNL A   1      43.313  27.429  32.887  1.00  0.00     0.029 A 
ATOM     62  C   UNL A   1      42.764  28.549  33.490  1.00  0.00     0.049 A 
ATOM     63  H   UNL A   1      41.180  29.773  32.836  1.00  0.00     0.167 HD
ATOM     64  C   UNL A   1      42.447  30.203  35.301  1.00  0.00     0.074 A 
ATOM     65  C   UNL A   1      42.747  30.751  36.606  1.00  0.00     0.031 C 
ATOM     66  C   UNL A   1      43.109  29.158  34.745  1.00  0.00     0.034 A 
BRANCH  53  67
ATOM     67  C   UNL A   1      41.119  27.727  29.099  1.00  0.00     0.023 A 
ATOM     68  C   UNL A   1      40.277  26.619  28.878  1.00  0.00     0.012 A 
ATOM     69  C   UNL A   1      42.097  28.043  28.129  1.00  0.00     0.148 A 
ATOM     70  C   UNL A   1      40.459  25.797  27.762  1.00  0.00     0.002 A 
ATOM     71  C   UNL A   1      42.226  27.260  26.986  1.00  0.00     0.091 A 
ATOM     72  F   UNL A   1      42.901  29.095  28.347  1.00  0.00    -0.205 F 
ATOM     73  C   UNL A   1      41.427  26.120  26.814  1.00  0.00     0.022 A 
BRANCH  71  74
ATOM     74  S   UNL A   1      43.357  27.688  25.655  1.00  0.00     0.127 S 
ATOM     75  O   UNL A   1      43.972  26.394  25.366  1.00  0.00    -0.237 OA
ATOM     76  O   UNL A   1      42.449  28.178  24.618  1.00  0.00    -0.237 OA
ATOM     77  O   UNL A   1      44.242  28.705  26.207  1.00  0.00    -0.744 OA
ENDBRANCH  71  74
ENDBRANCH  53  67
BRANCH  54  78
ATOM     78  C   UNL A   1      39.808  33.786  36.862  1.00  0.00     0.023 A 
ATOM     79  C   UNL A   1      40.145  35.144  36.716  1.00  0.00     0.012 A 
ATOM     80  C   UNL A   1      39.220  33.345  38.062  1.00  0.00     0.148 A 
ATOM     81  C   UNL A   1      39.906  36.047  37.752  1.00  0.00     0.002 A 
ATOM     82  C   UNL A   1      38.920  34.261  39.061  1.00  0.00     0.091 A 
ATOM     83  F   UNL A   1      38.928  32.042  38.187  1.00  0.00    -0.205 F 
ATOM     84  C   UNL A   1      39.276  35.610  38.916  1.00  0.00     0.022 A 
BRANCH  82  85
ATOM     85  S   UNL A   1      37.956  33.807  40.507  1.00  0.00     0.127 S 
ATOM     86  O   UNL A   1      36.766  33.219  39.900  1.00  0.00    -0.237 OA
ATOM     87  O   UNL A   1      38.842  32.854  41.177  1.00  0.00    -0.237 OA
ATOM     88  O   UNL A   1      37.751  35.047  41.243  1.00  0.00    -0.744 OA
ENDBRANCH  82  85
ENDBRANCH  54  78
BRANCH  66  89
ATOM     89  C   UNL A   1      44.270  28.567  35.489  1.00  0.00     0.023 A 
ATOM     90  C   UNL A   1      45.562  29.093  35.297  1.00  0.00     0.012 A 
ATOM     91  C   UNL A   1      44.057  27.581  36.473  1.00  0.00     0.148 A 
ATOM     92  C   UNL A   1      46.630  28.634  36.066  1.00  0.00     0.002 A 
ATOM     93  C   UNL A   1      45.119  27.158  37.262  1.00  0.00     0.091 A 
ATOM     94  F   UNL A   1      42.821  27.085  36.624  1.00  0.00    -0.205 F 
ATOM     95  C   UNL A   1      46.407  27.678  37.056  1.00  0.00     0.022 A 
BRANCH  93  96
ATOM     96  S   UNL A   1      44.900  26.007  38.624  1.00  0.00     0.127 S 
ATOM     97  O   UNL A   1      44.560  24.773  37.918  1.00  0.00    -0.237 OA
ATOM     98  O   UNL A   1      46.223  26.007  39.250  1.00  0.00    -0.237 OA
ATOM     99  O   UNL A   1      43.841  26.567  39.454  1.00  0.00    -0.744 OA
ENDBRANCH  93  96
ENDBRANCH  66  89
ENDBRANCH  40  41
ENDBRANCH  33  35
ENDBRANCH  32  33
ENDBRANCH  31  32
ENDBRANCH   1  31
TORSDOF 17
ENDMDL
