MODEL 1
REMARK VINA RESULT:     -10.2      0.000      0.000
REMARK SMILES C=C(c1ccccc1)[C@@H](C(=O)OCCOC(=O)c1ccc(-c2c3nc(c(-c4cccc(S(=O)(=O)[O-])c4F)c4ccc([nH]4)c(-c4cccc(S(=O)(=O)[O-])c4F)c4nc(c(-c5cccc(S(=O)(=O)[O-])c5F)c5ccc2[nH]5)C=C4)C=C3)cc1)S(C)(=O)=O
REMARK SMILES IDX 14 1 13 2 12 3 10 4 11 5 9 6 2 7 1 8 3 9 4 10 8 11 5 12 7 13
REMARK SMILES IDX 6 14 81 15 82 16 83 17 84 18 15 19 16 20 17 21 18 22 19 23
REMARK SMILES IDX 80 24 20 25 79 26 21 27 22 28 23 29 73 30 24 31 78 32 72 33
REMARK SMILES IDX 74 34 25 35 77 36 71 37 70 38 26 40 58 41 38 42 57 43 39 44
REMARK SMILES IDX 42 45 56 46 75 47 40 48 41 49 55 51 76 52 43 53 27 54 28 55
REMARK SMILES IDX 36 56 29 57 31 58 37 59 30 60 32 61 33 62 34 63 35 64 59 65
REMARK SMILES IDX 60 66 68 67 61 68 63 69 69 70 62 71 64 72 65 73 66 74 67 75
REMARK SMILES IDX 44 76 45 77 53 78 46 79 48 80 54 81 47 82 49 83 50 84 51 85
REMARK SMILES IDX 52 86
REMARK H PARENT 74 39 42 50
REMARK Flexibility Score: inf
ROOT
ATOM      1  C   UNL A   1      40.658  19.127  26.132  1.00  0.00     0.275 C 
ENDROOT
BRANCH   1   2
ATOM      2  C   UNL A   1      42.135  19.141  25.750  1.00  0.00     0.274 C 
BRANCH   2   3
ATOM      3  O   UNL A   1      42.849  20.157  26.489  1.00  0.00    -0.461 OA
BRANCH   3   4
ATOM      4  C   UNL A   1      43.401  21.167  25.751  1.00  0.00     0.329 C 
ATOM      5  O   UNL A   1      42.741  21.870  24.995  1.00  0.00    -0.250 OA
BRANCH   4   6
ATOM      6  C   UNL A   1      44.921  21.201  25.832  1.00  0.00     0.247 C 
BRANCH   6   7
ATOM      7  C   UNL A   1      45.560  22.583  25.712  1.00  0.00    -0.019 C 
ATOM      8  C   UNL A   1      46.024  23.106  24.558  1.00  0.00     0.015 C 
BRANCH   7   9
ATOM      9  C   UNL A   1      45.639  23.407  26.948  1.00  0.00    -0.021 A 
ATOM     10  C   UNL A   1      46.740  24.234  27.213  1.00  0.00     0.008 A 
ATOM     11  C   UNL A   1      44.613  23.353  27.905  1.00  0.00     0.008 A 
ATOM     12  C   UNL A   1      46.810  24.990  28.386  1.00  0.00     0.001 A 
ATOM     13  C   UNL A   1      44.678  24.113  29.075  1.00  0.00     0.001 A 
ATOM     14  C   UNL A   1      45.777  24.933  29.316  1.00  0.00     0.000 A 
ENDBRANCH   7   9
ENDBRANCH   6   7
BRANCH   6  15
ATOM     15  S   UNL A   1      45.611  20.051  24.626  1.00  0.00     0.165 S 
ATOM     16  C   UNL A   1      45.508  18.461  25.402  1.00  0.00     0.159 C 
ATOM     17  O   UNL A   1      44.725  19.963  23.479  1.00  0.00    -0.228 OA
ATOM     18  O   UNL A   1      47.025  20.313  24.439  1.00  0.00    -0.228 OA
ENDBRANCH   6  15
ENDBRANCH   4   6
ENDBRANCH   3   4
ENDBRANCH   2   3
ENDBRANCH   1   2
BRANCH   1  19
ATOM     19  O   UNL A   1      40.362  20.297  26.908  1.00  0.00    -0.458 OA
BRANCH  19  20
ATOM     20  C   UNL A   1      39.478  21.162  26.356  1.00  0.00     0.338 C 
ATOM     21  O   UNL A   1      38.580  20.880  25.578  1.00  0.00    -0.246 OA
BRANCH  20  22
ATOM     22  C   UNL A   1      39.723  22.535  26.853  1.00  0.00     0.060 A 
ATOM     23  C   UNL A   1      39.008  23.620  26.350  1.00  0.00     0.016 A 
ATOM     24  C   UNL A   1      40.776  22.758  27.741  1.00  0.00     0.016 A 
ATOM     25  C   UNL A   1      39.432  24.923  26.615  1.00  0.00     0.010 A 
ATOM     26  C   UNL A   1      41.127  24.066  28.092  1.00  0.00     0.010 A 
ATOM     27  C   UNL A   1      40.504  25.170  27.483  1.00  0.00    -0.014 A 
BRANCH  27  28
ATOM     28  C   UNL A   1      41.035  26.552  27.699  1.00  0.00     0.031 A 
ATOM     29  C   UNL A   1      42.351  26.954  27.076  1.00  0.00     0.074 A 
ATOM     30  C   UNL A   1      40.370  27.453  28.451  1.00  0.00     0.049 A 
ATOM     31  N   UNL A   1      43.125  27.972  27.355  1.00  0.00    -0.248 NA
ATOM     32  C   UNL A   1      42.882  26.078  26.016  1.00  0.00     0.031 C 
ATOM     33  C   UNL A   1      39.074  27.240  29.093  1.00  0.00     0.029 A 
ATOM     34  N   UNL A   1      40.709  28.737  28.814  1.00  0.00    -0.354 N 
ATOM     35  C   UNL A   1      44.273  27.801  26.587  1.00  0.00     0.074 A 
ATOM     36  C   UNL A   1      44.086  26.594  25.813  1.00  0.00     0.031 C 
ATOM     37  C   UNL A   1      38.717  28.352  29.751  1.00  0.00     0.029 A 
ATOM     38  C   UNL A   1      39.794  29.331  29.653  1.00  0.00     0.049 A 
ATOM     39  H   UNL A   1      41.528  29.187  28.504  1.00  0.00     0.167 HD
ATOM     40  C   UNL A   1      45.378  28.583  26.527  1.00  0.00     0.034 A 
ATOM     41  C   UNL A   1      39.830  30.507  30.309  1.00  0.00     0.034 A 
ATOM     42  C   UNL A   1      45.512  29.846  27.203  1.00  0.00     0.049 A 
ATOM     43  C   UNL A   1      41.033  31.397  30.161  1.00  0.00     0.074 A 
ATOM     44  C   UNL A   1      46.591  30.713  27.205  1.00  0.00     0.029 A 
ATOM     45  N   UNL A   1      44.515  30.449  27.953  1.00  0.00    -0.354 N 
ATOM     46  N   UNL A   1      42.121  31.204  29.457  1.00  0.00    -0.248 NA
ATOM     47  C   UNL A   1      41.009  32.675  30.889  1.00  0.00     0.031 C 
ATOM     48  C   UNL A   1      46.239  31.852  27.940  1.00  0.00     0.029 A 
ATOM     49  C   UNL A   1      44.940  31.691  28.393  1.00  0.00     0.049 A 
ATOM     50  H   UNL A   1      43.636  30.051  28.147  1.00  0.00     0.167 HD
ATOM     51  C   UNL A   1      42.903  32.337  29.644  1.00  0.00     0.074 A 
ATOM     52  C   UNL A   1      42.149  33.231  30.499  1.00  0.00     0.031 C 
ATOM     53  C   UNL A   1      44.149  32.600  29.179  1.00  0.00     0.034 A 
BRANCH  40  54
ATOM     54  C   UNL A   1      46.525  28.124  25.663  1.00  0.00     0.023 A 
ATOM     55  C   UNL A   1      46.418  28.207  24.261  1.00  0.00     0.012 A 
ATOM     56  C   UNL A   1      47.734  27.685  26.240  1.00  0.00     0.148 A 
ATOM     57  C   UNL A   1      47.488  27.839  23.446  1.00  0.00     0.002 A 
ATOM     58  C   UNL A   1      48.810  27.358  25.422  1.00  0.00     0.091 A 
ATOM     59  F   UNL A   1      47.809  27.591  27.576  1.00  0.00    -0.205 F 
ATOM     60  C   UNL A   1      48.686  27.427  24.026  1.00  0.00     0.022 A 
BRANCH  58  61
ATOM     61  S   UNL A   1      50.417  26.897  26.079  1.00  0.00     0.127 S 
ATOM     62  O   UNL A   1      51.190  26.691  24.855  1.00  0.00    -0.237 OA
ATOM     63  O   UNL A   1      50.795  28.086  26.845  1.00  0.00    -0.237 OA
ATOM     64  O   UNL A   1      50.192  25.707  26.888  1.00  0.00    -0.744 OA
ENDBRANCH  58  61
ENDBRANCH  40  54
BRANCH  41  65
ATOM     65  C   UNL A   1      38.672  30.916  31.155  1.00  0.00     0.023 A 
ATOM     66  C   UNL A   1      38.747  30.761  32.553  1.00  0.00     0.012 A 
ATOM     67  C   UNL A   1      37.521  31.502  30.592  1.00  0.00     0.148 A 
ATOM     68  C   UNL A   1      37.692  31.167  33.371  1.00  0.00     0.002 A 
ATOM     69  C   UNL A   1      36.503  31.963  31.419  1.00  0.00     0.091 A 
ATOM     70  F   UNL A   1      37.448  31.616  29.258  1.00  0.00    -0.205 F 
ATOM     71  C   UNL A   1      36.577  31.783  32.806  1.00  0.00     0.022 A 
BRANCH  69  72
ATOM     72  S   UNL A   1      35.123  32.907  30.760  1.00  0.00     0.127 S 
ATOM     73  O   UNL A   1      34.189  32.904  31.882  1.00  0.00    -0.237 OA
ATOM     74  O   UNL A   1      35.736  34.206  30.475  1.00  0.00    -0.237 OA
ATOM     75  O   UNL A   1      34.704  32.179  29.569  1.00  0.00    -0.744 OA
ENDBRANCH  69  72
ENDBRANCH  41  65
BRANCH  53  76
ATOM     76  C   UNL A   1      44.765  33.919  29.553  1.00  0.00     0.023 A 
ATOM     77  C   UNL A   1      45.544  34.012  30.723  1.00  0.00     0.012 A 
ATOM     78  C   UNL A   1      44.628  35.046  28.720  1.00  0.00     0.148 A 
ATOM     79  C   UNL A   1      46.157  35.215  31.071  1.00  0.00     0.002 A 
ATOM     80  C   UNL A   1      45.271  36.233  29.055  1.00  0.00     0.091 A 
ATOM     81  F   UNL A   1      43.863  34.946  27.623  1.00  0.00    -0.205 F 
ATOM     82  C   UNL A   1      46.030  36.321  30.234  1.00  0.00     0.022 A 
BRANCH  80  83
ATOM     83  S   UNL A   1      45.214  37.676  27.988  1.00  0.00     0.127 S 
ATOM     84  O   UNL A   1      46.231  38.535  28.589  1.00  0.00    -0.237 OA
ATOM     85  O   UNL A   1      45.580  37.122  26.683  1.00  0.00    -0.237 OA
ATOM     86  O   UNL A   1      43.844  38.166  28.066  1.00  0.00    -0.744 OA
ENDBRANCH  80  83
ENDBRANCH  53  76
ENDBRANCH  27  28
ENDBRANCH  20  22
ENDBRANCH  19  20
ENDBRANCH   1  19
TORSDOF 17
ENDMDL
MODEL 2
REMARK VINA RESULT:     -10.2      3.427      9.904
REMARK SMILES C=C(c1ccccc1)[C@@H](C(=O)OCCOC(=O)c1ccc(-c2c3nc(c(-c4cccc(S(=O)(=O)[O-])c4F)c4ccc([nH]4)c(-c4cccc(S(=O)(=O)[O-])c4F)c4nc(c(-c5cccc(S(=O)(=O)[O-])c5F)c5ccc2[nH]5)C=C4)C=C3)cc1)S(C)(=O)=O
REMARK SMILES IDX 14 1 13 2 12 3 10 4 11 5 9 6 2 7 1 8 3 9 4 10 8 11 5 12 7 13
REMARK SMILES IDX 6 14 81 15 82 16 83 17 84 18 15 19 16 20 17 21 18 22 19 23
REMARK SMILES IDX 80 24 20 25 79 26 21 27 22 28 23 29 73 30 24 31 78 32 72 33
REMARK SMILES IDX 74 34 25 35 77 36 71 37 70 38 26 40 58 41 38 42 57 43 39 44
REMARK SMILES IDX 42 45 56 46 75 47 40 48 41 49 55 51 76 52 43 53 27 54 28 55
REMARK SMILES IDX 36 56 29 57 31 58 37 59 30 60 32 61 33 62 34 63 35 64 59 65
REMARK SMILES IDX 60 66 68 67 61 68 63 69 69 70 62 71 64 72 65 73 66 74 67 75
REMARK SMILES IDX 44 76 45 77 53 78 46 79 48 80 54 81 47 82 49 83 50 84 51 85
REMARK SMILES IDX 52 86
REMARK H PARENT 74 39 42 50
REMARK Flexibility Score: inf
ROOT
ATOM      1  C   UNL A   1      36.440  20.485  24.933  1.00  0.00     0.275 C 
ENDROOT
BRANCH   1   2
ATOM      2  C   UNL A   1      35.106  21.222  25.014  1.00  0.00     0.274 C 
BRANCH   2   3
ATOM      3  O   UNL A   1      34.000  20.294  24.955  1.00  0.00    -0.461 OA
BRANCH   3   4
ATOM      4  C   UNL A   1      32.750  20.833  25.086  1.00  0.00     0.329 C 
ATOM      5  O   UNL A   1      31.755  20.150  25.298  1.00  0.00    -0.250 OA
BRANCH   4   6
ATOM      6  C   UNL A   1      32.707  22.320  24.767  1.00  0.00     0.247 C 
BRANCH   6   7
ATOM      7  C   UNL A   1      31.983  23.197  25.787  1.00  0.00    -0.019 C 
ATOM      8  C   UNL A   1      31.003  22.758  26.603  1.00  0.00     0.015 C 
BRANCH   7   9
ATOM      9  C   UNL A   1      32.420  24.614  25.899  1.00  0.00    -0.021 A 
ATOM     10  C   UNL A   1      31.532  25.632  26.273  1.00  0.00     0.008 A 
ATOM     11  C   UNL A   1      33.744  24.976  25.600  1.00  0.00     0.008 A 
ATOM     12  C   UNL A   1      31.951  26.962  26.360  1.00  0.00     0.001 A 
ATOM     13  C   UNL A   1      34.167  26.304  25.691  1.00  0.00     0.001 A 
ATOM     14  C   UNL A   1      33.270  27.298  26.072  1.00  0.00     0.000 A 
ENDBRANCH   7   9
ENDBRANCH   6   7
BRANCH   6  15
ATOM     15  S   UNL A   1      32.042  22.558  23.107  1.00  0.00     0.165 S 
ATOM     16  C   UNL A   1      33.268  23.517  22.258  1.00  0.00     0.159 C 
ATOM     17  O   UNL A   1      32.017  21.285  22.409  1.00  0.00    -0.228 OA
ATOM     18  O   UNL A   1      30.853  23.386  23.159  1.00  0.00    -0.228 OA
ENDBRANCH   6  15
ENDBRANCH   4   6
ENDBRANCH   3   4
ENDBRANCH   2   3
ENDBRANCH   1   2
BRANCH   1  19
ATOM     19  O   UNL A   1      37.507  21.445  24.922  1.00  0.00    -0.458 OA
BRANCH  19  20
ATOM     20  C   UNL A   1      38.601  21.118  25.650  1.00  0.00     0.338 C 
ATOM     21  O   UNL A   1      39.124  20.017  25.712  1.00  0.00    -0.246 OA
BRANCH  20  22
ATOM     22  C   UNL A   1      39.122  22.308  26.359  1.00  0.00     0.060 A 
ATOM     23  C   UNL A   1      38.597  23.576  26.118  1.00  0.00     0.016 A 
ATOM     24  C   UNL A   1      40.243  22.173  27.179  1.00  0.00     0.016 A 
ATOM     25  C   UNL A   1      39.270  24.712  26.572  1.00  0.00     0.010 A 
ATOM     26  C   UNL A   1      40.849  23.310  27.724  1.00  0.00     0.010 A 
ATOM     27  C   UNL A   1      40.412  24.600  27.375  1.00  0.00    -0.014 A 
BRANCH  27  28
ATOM     28  C   UNL A   1      41.202  25.803  27.785  1.00  0.00     0.031 A 
ATOM     29  C   UNL A   1      40.554  26.870  28.638  1.00  0.00     0.074 A 
ATOM     30  C   UNL A   1      42.484  25.970  27.401  1.00  0.00     0.049 A 
ATOM     31  N   UNL A   1      40.941  28.099  28.865  1.00  0.00    -0.248 NA
ATOM     32  C   UNL A   1      39.286  26.514  29.299  1.00  0.00     0.031 C 
ATOM     33  C   UNL A   1      43.268  25.022  26.610  1.00  0.00     0.029 A 
ATOM     34  N   UNL A   1      43.353  27.014  27.618  1.00  0.00    -0.354 N 
ATOM     35  C   UNL A   1      39.920  28.691  29.602  1.00  0.00     0.074 A 
ATOM     36  C   UNL A   1      38.905  27.680  29.804  1.00  0.00     0.031 C 
ATOM     37  C   UNL A   1      44.502  25.513  26.425  1.00  0.00     0.029 A 
ATOM     38  C   UNL A   1      44.575  26.849  27.008  1.00  0.00     0.049 A 
ATOM     39  H   UNL A   1      43.123  27.804  28.159  1.00  0.00     0.167 HD
ATOM     40  C   UNL A   1      39.840  29.958  30.076  1.00  0.00     0.034 A 
ATOM     41  C   UNL A   1      45.624  27.686  26.887  1.00  0.00     0.034 A 
ATOM     42  C   UNL A   1      40.901  30.925  29.980  1.00  0.00     0.049 A 
ATOM     43  C   UNL A   1      45.543  29.060  27.493  1.00  0.00     0.074 A 
ATOM     44  C   UNL A   1      40.916  32.235  30.428  1.00  0.00     0.029 A 
ATOM     45  N   UNL A   1      42.154  30.671  29.447  1.00  0.00    -0.354 N 
ATOM     46  N   UNL A   1      44.558  29.612  28.158  1.00  0.00    -0.248 NA
ATOM     47  C   UNL A   1      46.723  29.925  27.342  1.00  0.00     0.031 C 
ATOM     48  C   UNL A   1      42.188  32.767  30.185  1.00  0.00     0.029 A 
ATOM     49  C   UNL A   1      42.961  31.787  29.586  1.00  0.00     0.049 A 
ATOM     50  H   UNL A   1      42.428  29.823  29.029  1.00  0.00     0.167 HD
ATOM     51  C   UNL A   1      45.002  30.879  28.517  1.00  0.00     0.074 A 
ATOM     52  C   UNL A   1      46.360  31.001  28.027  1.00  0.00     0.031 C 
ATOM     53  C   UNL A   1      44.334  31.866  29.162  1.00  0.00     0.034 A 
BRANCH  40  54
ATOM     54  C   UNL A   1      38.575  30.370  30.784  1.00  0.00     0.023 A 
ATOM     55  C   UNL A   1      38.428  30.105  32.159  1.00  0.00     0.012 A 
ATOM     56  C   UNL A   1      37.568  31.089  30.107  1.00  0.00     0.148 A 
ATOM     57  C   UNL A   1      37.290  30.527  32.846  1.00  0.00     0.002 A 
ATOM     58  C   UNL A   1      36.455  31.541  30.806  1.00  0.00     0.091 A 
ATOM     59  F   UNL A   1      37.715  31.313  28.793  1.00  0.00    -0.205 F 
ATOM     60  C   UNL A   1      36.311  31.254  32.173  1.00  0.00     0.022 A 
BRANCH  58  61
ATOM     61  S   UNL A   1      35.183  32.556  30.045  1.00  0.00     0.127 S 
ATOM     62  O   UNL A   1      34.677  31.666  29.002  1.00  0.00    -0.237 OA
ATOM     63  O   UNL A   1      34.256  32.781  31.156  1.00  0.00    -0.237 OA
ATOM     64  O   UNL A   1      35.859  33.757  29.573  1.00  0.00    -0.744 OA
ENDBRANCH  58  61
ENDBRANCH  40  54
BRANCH  41  65
ATOM     65  C   UNL A   1      46.852  27.233  26.174  1.00  0.00     0.023 A 
ATOM     66  C   UNL A   1      47.018  27.549  24.811  1.00  0.00     0.012 A 
ATOM     67  C   UNL A   1      47.878  26.538  26.844  1.00  0.00     0.148 A 
ATOM     68  C   UNL A   1      48.172  27.167  24.127  1.00  0.00     0.002 A 
ATOM     69  C   UNL A   1      49.053  26.219  26.173  1.00  0.00     0.091 A 
ATOM     70  F   UNL A   1      47.696  26.216  28.133  1.00  0.00    -0.205 F 
ATOM     71  C   UNL A   1      49.197  26.517  24.811  1.00  0.00     0.022 A 
BRANCH  69  72
ATOM     72  S   UNL A   1      50.466  25.530  27.043  1.00  0.00     0.127 S 
ATOM     73  O   UNL A   1      50.779  26.587  27.999  1.00  0.00    -0.237 OA
ATOM     74  O   UNL A   1      49.909  24.312  27.635  1.00  0.00    -0.237 OA
ATOM     75  O   UNL A   1      51.460  25.280  26.006  1.00  0.00    -0.744 OA
ENDBRANCH  69  72
ENDBRANCH  41  65
BRANCH  53  76
ATOM     76  C   UNL A   1      45.069  33.154  29.410  1.00  0.00     0.023 A 
ATOM     77  C   UNL A   1      45.829  33.302  30.588  1.00  0.00     0.012 A 
ATOM     78  C   UNL A   1      45.061  34.189  28.456  1.00  0.00     0.148 A 
ATOM     79  C   UNL A   1      46.549  34.472  30.823  1.00  0.00     0.002 A 
ATOM     80  C   UNL A   1      45.811  35.339  28.681  1.00  0.00     0.091 A 
ATOM     81  F   UNL A   1      44.314  34.041  27.352  1.00  0.00    -0.205 F 
ATOM     82  C   UNL A   1      46.548  35.485  29.867  1.00  0.00     0.022 A 
BRANCH  80  83
ATOM     83  S   UNL A   1      45.918  36.654  27.462  1.00  0.00     0.127 S 
ATOM     84  O   UNL A   1      46.814  37.602  28.120  1.00  0.00    -0.237 OA
ATOM     85  O   UNL A   1      46.500  35.969  26.305  1.00  0.00    -0.237 OA
ATOM     86  O   UNL A   1      44.549  37.111  27.258  1.00  0.00    -0.744 OA
ENDBRANCH  80  83
ENDBRANCH  53  76
ENDBRANCH  27  28
ENDBRANCH  20  22
ENDBRANCH  19  20
ENDBRANCH   1  19
TORSDOF 17
ENDMDL
MODEL 3
REMARK VINA RESULT:     -10.0      3.505     10.097
REMARK SMILES C=C(c1ccccc1)[C@@H](C(=O)OCCOC(=O)c1ccc(-c2c3nc(c(-c4cccc(S(=O)(=O)[O-])c4F)c4ccc([nH]4)c(-c4cccc(S(=O)(=O)[O-])c4F)c4nc(c(-c5cccc(S(=O)(=O)[O-])c5F)c5ccc2[nH]5)C=C4)C=C3)cc1)S(C)(=O)=O
REMARK SMILES IDX 14 1 13 2 12 3 10 4 11 5 9 6 2 7 1 8 3 9 4 10 8 11 5 12 7 13
REMARK SMILES IDX 6 14 81 15 82 16 83 17 84 18 15 19 16 20 17 21 18 22 19 23
REMARK SMILES IDX 80 24 20 25 79 26 21 27 22 28 23 29 73 30 24 31 78 32 72 33
REMARK SMILES IDX 74 34 25 35 77 36 71 37 70 38 26 40 58 41 38 42 57 43 39 44
REMARK SMILES IDX 42 45 56 46 75 47 40 48 41 49 55 51 76 52 43 53 27 54 28 55
REMARK SMILES IDX 36 56 29 57 31 58 37 59 30 60 32 61 33 62 34 63 35 64 59 65
REMARK SMILES IDX 60 66 68 67 61 68 63 69 69 70 62 71 64 72 65 73 66 74 67 75
REMARK SMILES IDX 44 76 45 77 53 78 46 79 48 80 54 81 47 82 49 83 50 84 51 85
REMARK SMILES IDX 52 86
REMARK H PARENT 74 39 42 50
REMARK Flexibility Score: inf
ROOT
ATOM      1  C   UNL A   1      36.302  20.903  25.018  1.00  0.00     0.275 C 
ENDROOT
BRANCH   1   2
ATOM      2  C   UNL A   1      35.618  21.715  26.113  1.00  0.00     0.274 C 
BRANCH   2   3
ATOM      3  O   UNL A   1      34.595  22.572  25.558  1.00  0.00    -0.461 OA
BRANCH   3   4
ATOM      4  C   UNL A   1      33.378  22.542  26.181  1.00  0.00     0.329 C 
ATOM      5  O   UNL A   1      33.258  22.568  27.400  1.00  0.00    -0.250 OA
BRANCH   4   6
ATOM      6  C   UNL A   1      32.224  22.296  25.220  1.00  0.00     0.247 C 
BRANCH   6   7
ATOM      7  C   UNL A   1      32.577  21.547  23.936  1.00  0.00    -0.019 C 
ATOM      8  C   UNL A   1      32.891  22.147  22.770  1.00  0.00     0.015 C 
BRANCH   7   9
ATOM      9  C   UNL A   1      32.607  20.061  24.001  1.00  0.00    -0.021 A 
ATOM     10  C   UNL A   1      32.768  19.379  25.216  1.00  0.00     0.008 A 
ATOM     11  C   UNL A   1      32.504  19.297  22.828  1.00  0.00     0.008 A 
ATOM     12  C   UNL A   1      32.811  17.983  25.260  1.00  0.00     0.001 A 
ATOM     13  C   UNL A   1      32.541  17.901  22.871  1.00  0.00     0.001 A 
ATOM     14  C   UNL A   1      32.694  17.244  24.089  1.00  0.00     0.000 A 
ENDBRANCH   7   9
ENDBRANCH   6   7
BRANCH   6  15
ATOM     15  S   UNL A   1      31.399  23.860  24.861  1.00  0.00     0.165 S 
ATOM     16  C   UNL A   1      30.405  24.189  26.291  1.00  0.00     0.159 C 
ATOM     17  O   UNL A   1      32.381  24.929  24.836  1.00  0.00    -0.228 OA
ATOM     18  O   UNL A   1      30.472  23.694  23.759  1.00  0.00    -0.228 OA
ENDBRANCH   6  15
ENDBRANCH   4   6
ENDBRANCH   3   4
ENDBRANCH   2   3
ENDBRANCH   1   2
BRANCH   1  19
ATOM     19  O   UNL A   1      37.588  21.479  24.740  1.00  0.00    -0.458 OA
BRANCH  19  20
ATOM     20  C   UNL A   1      38.587  21.122  25.582  1.00  0.00     0.338 C 
ATOM     21  O   UNL A   1      39.034  19.997  25.737  1.00  0.00    -0.246 OA
BRANCH  20  22
ATOM     22  C   UNL A   1      39.110  22.311  26.292  1.00  0.00     0.060 A 
ATOM     23  C   UNL A   1      38.613  23.585  26.023  1.00  0.00     0.016 A 
ATOM     24  C   UNL A   1      40.208  22.166  27.142  1.00  0.00     0.016 A 
ATOM     25  C   UNL A   1      39.295  24.714  26.482  1.00  0.00     0.010 A 
ATOM     26  C   UNL A   1      40.819  23.299  27.690  1.00  0.00     0.010 A 
ATOM     27  C   UNL A   1      40.414  24.592  27.316  1.00  0.00    -0.014 A 
BRANCH  27  28
ATOM     28  C   UNL A   1      41.213  25.785  27.733  1.00  0.00     0.031 A 
ATOM     29  C   UNL A   1      40.575  26.852  28.593  1.00  0.00     0.074 A 
ATOM     30  C   UNL A   1      42.496  25.944  27.349  1.00  0.00     0.049 A 
ATOM     31  N   UNL A   1      40.972  28.076  28.829  1.00  0.00    -0.248 NA
ATOM     32  C   UNL A   1      39.304  26.502  29.253  1.00  0.00     0.031 C 
ATOM     33  C   UNL A   1      43.272  24.995  26.551  1.00  0.00     0.029 A 
ATOM     34  N   UNL A   1      43.375  26.980  27.573  1.00  0.00    -0.354 N 
ATOM     35  C   UNL A   1      39.956  28.672  29.570  1.00  0.00     0.074 A 
ATOM     36  C   UNL A   1      38.934  27.668  29.766  1.00  0.00     0.031 C 
ATOM     37  C   UNL A   1      44.510  25.478  26.369  1.00  0.00     0.029 A 
ATOM     38  C   UNL A   1      44.595  26.808  26.960  1.00  0.00     0.049 A 
ATOM     39  H   UNL A   1      43.151  27.768  28.118  1.00  0.00     0.167 HD
ATOM     40  C   UNL A   1      39.887  29.936  30.052  1.00  0.00     0.034 A 
ATOM     41  C   UNL A   1      45.650  27.638  26.844  1.00  0.00     0.034 A 
ATOM     42  C   UNL A   1      40.956  30.895  29.962  1.00  0.00     0.049 A 
ATOM     43  C   UNL A   1      45.581  29.008  27.459  1.00  0.00     0.074 A 
ATOM     44  C   UNL A   1      40.983  32.202  30.419  1.00  0.00     0.029 A 
ATOM     45  N   UNL A   1      42.206  30.635  29.426  1.00  0.00    -0.354 N 
ATOM     46  N   UNL A   1      44.601  29.564  28.128  1.00  0.00    -0.248 NA
ATOM     47  C   UNL A   1      46.768  29.864  27.313  1.00  0.00     0.031 C 
ATOM     48  C   UNL A   1      42.259  32.725  30.178  1.00  0.00     0.029 A 
ATOM     49  C   UNL A   1      43.023  31.743  29.572  1.00  0.00     0.049 A 
ATOM     50  H   UNL A   1      42.473  29.787  29.002  1.00  0.00     0.167 HD
ATOM     51  C   UNL A   1      45.056  30.825  28.495  1.00  0.00     0.074 A 
ATOM     52  C   UNL A   1      46.414  30.939  28.006  1.00  0.00     0.031 C 
ATOM     53  C   UNL A   1      44.397  31.813  29.148  1.00  0.00     0.034 A 
BRANCH  40  54
ATOM     54  C   UNL A   1      38.626  30.354  30.764  1.00  0.00     0.023 A 
ATOM     55  C   UNL A   1      38.485  30.097  32.141  1.00  0.00     0.012 A 
ATOM     56  C   UNL A   1      37.618  31.071  30.088  1.00  0.00     0.148 A 
ATOM     57  C   UNL A   1      37.351  30.524  32.831  1.00  0.00     0.002 A 
ATOM     58  C   UNL A   1      36.508  31.529  30.790  1.00  0.00     0.091 A 
ATOM     59  F   UNL A   1      37.758  31.288  28.772  1.00  0.00    -0.205 F 
ATOM     60  C   UNL A   1      36.370  31.249  32.159  1.00  0.00     0.022 A 
BRANCH  58  61
ATOM     61  S   UNL A   1      35.234  32.542  30.029  1.00  0.00     0.127 S 
ATOM     62  O   UNL A   1      34.323  32.765  31.151  1.00  0.00    -0.237 OA
ATOM     63  O   UNL A   1      35.986  33.727  29.611  1.00  0.00    -0.237 OA
ATOM     64  O   UNL A   1      34.698  31.751  28.931  1.00  0.00    -0.744 OA
ENDBRANCH  58  61
ENDBRANCH  40  54
BRANCH  41  65
ATOM     65  C   UNL A   1      46.874  27.179  26.127  1.00  0.00     0.023 A 
ATOM     66  C   UNL A   1      47.029  27.480  24.760  1.00  0.00     0.012 A 
ATOM     67  C   UNL A   1      47.906  26.495  26.797  1.00  0.00     0.148 A 
ATOM     68  C   UNL A   1      48.179  27.093  24.072  1.00  0.00     0.002 A 
ATOM     69  C   UNL A   1      49.078  26.170  26.121  1.00  0.00     0.091 A 
ATOM     70  F   UNL A   1      47.735  26.187  28.091  1.00  0.00    -0.205 F 
ATOM     71  C   UNL A   1      49.210  26.454  24.755  1.00  0.00     0.022 A 
BRANCH  69  72
ATOM     72  S   UNL A   1      50.498  25.494  26.989  1.00  0.00     0.127 S 
ATOM     73  O   UNL A   1      51.452  25.296  25.902  1.00  0.00    -0.237 OA
ATOM     74  O   UNL A   1      50.843  26.572  27.919  1.00  0.00    -0.237 OA
ATOM     75  O   UNL A   1      50.002  24.289  27.641  1.00  0.00    -0.744 OA
ENDBRANCH  69  72
ENDBRANCH  41  65
BRANCH  53  76
ATOM     76  C   UNL A   1      45.142  33.094  29.404  1.00  0.00     0.023 A 
ATOM     77  C   UNL A   1      45.888  33.235  30.591  1.00  0.00     0.012 A 
ATOM     78  C   UNL A   1      45.158  34.127  28.448  1.00  0.00     0.148 A 
ATOM     79  C   UNL A   1      46.618  34.397  30.834  1.00  0.00     0.002 A 
ATOM     80  C   UNL A   1      45.917  35.269  28.681  1.00  0.00     0.091 A 
ATOM     81  F   UNL A   1      44.423  33.985  27.335  1.00  0.00    -0.205 F 
ATOM     82  C   UNL A   1      46.641  35.409  29.877  1.00  0.00     0.022 A 
BRANCH  80  83
ATOM     83  S   UNL A   1      46.055  36.581  27.462  1.00  0.00     0.127 S 
ATOM     84  O   UNL A   1      44.677  37.057  27.376  1.00  0.00    -0.237 OA
ATOM     85  O   UNL A   1      46.982  37.515  28.103  1.00  0.00    -0.237 OA
ATOM     86  O   UNL A   1      46.583  35.945  26.261  1.00  0.00    -0.744 OA
ENDBRANCH  80  83
ENDBRANCH  53  76
ENDBRANCH  27  28
ENDBRANCH  20  22
ENDBRANCH  19  20
ENDBRANCH   1  19
TORSDOF 17
ENDMDL
