MODEL 1
REMARK VINA RESULT:     -10.8      0.000      0.000
REMARK SMILES O=C(OCCOC(=O)[C@]1(CCc2cccnc2)C[C@H]2CC[C@@H]1O2)c1ccc(-c2c3nc(c(-c4cccc(S(=O)(=O)[O-])c4F)c4ccc([nH]4)c(-c4cccc(S(=O)(=O)[O-])c4F)c4nc(c(-c5cccc(S(=O)(=O)[O-])c5F)c5ccc2[nH]5)C=C4)C=C3)cc1
REMARK SMILES IDX 4 1 3 2 2 3 1 4 24 5 25 6 86 7 26 8 85 9 27 10 28 11 29 12
REMARK SMILES IDX 79 13 30 14 84 15 78 16 80 17 31 18 83 19 77 20 76 21 32 23
REMARK SMILES IDX 64 24 44 25 63 26 45 27 48 28 62 29 81 30 46 31 47 32 61 34
REMARK SMILES IDX 82 35 49 36 33 37 34 38 42 39 35 40 37 41 43 42 36 43 38 44
REMARK SMILES IDX 39 45 40 46 41 47 65 48 66 49 74 50 67 51 69 52 75 53 68 54
REMARK SMILES IDX 70 55 71 56 72 57 73 58 50 59 51 60 59 61 52 62 54 63 60 64
REMARK SMILES IDX 53 65 55 66 56 67 57 68 58 69 5 70 6 71 7 72 8 73 9 74 18 75
REMARK SMILES IDX 22 76 19 77 21 78 23 79 20 80 10 81 11 82 12 83 13 84 17 85
REMARK SMILES IDX 14 86 16 87 15 88
REMARK H PARENT 80 22 48 33
REMARK Flexibility Score: inf
ROOT
ATOM      1  C   UNL A   1      33.314  28.660  27.137  1.00  0.00     0.275 C 
ENDROOT
BRANCH   1   2
ATOM      2  O   UNL A   1      33.550  30.070  27.043  1.00  0.00    -0.458 OA
BRANCH   2   3
ATOM      3  C   UNL A   1      34.526  30.808  27.622  1.00  0.00     0.338 C 
ATOM      4  O   UNL A   1      34.353  32.022  27.726  1.00  0.00    -0.246 OA
BRANCH   3   5
ATOM      5  C   UNL A   1      35.848  30.246  28.038  1.00  0.00     0.060 A 
ATOM      6  C   UNL A   1      36.996  30.127  27.240  1.00  0.00     0.016 A 
ATOM      7  C   UNL A   1      35.924  29.797  29.364  1.00  0.00     0.016 A 
ATOM      8  C   UNL A   1      38.217  29.672  27.771  1.00  0.00     0.010 A 
ATOM      9  C   UNL A   1      37.138  29.351  29.896  1.00  0.00     0.010 A 
ATOM     10  C   UNL A   1      38.305  29.290  29.107  1.00  0.00    -0.014 A 
BRANCH  10  11
ATOM     11  C   UNL A   1      39.503  28.623  29.688  1.00  0.00     0.031 A 
ATOM     12  C   UNL A   1      40.293  29.424  30.680  1.00  0.00     0.074 A 
ATOM     13  C   UNL A   1      39.974  27.424  29.285  1.00  0.00     0.049 A 
ATOM     14  N   UNL A   1      41.472  29.190  31.181  1.00  0.00    -0.248 NA
ATOM     15  C   UNL A   1      39.661  30.667  31.163  1.00  0.00     0.031 C 
ATOM     16  C   UNL A   1      39.293  26.480  28.414  1.00  0.00     0.029 A 
ATOM     17  N   UNL A   1      41.207  26.841  29.483  1.00  0.00    -0.354 N 
ATOM     18  C   UNL A   1      41.711  30.244  32.047  1.00  0.00     0.074 A 
ATOM     19  C   UNL A   1      40.630  31.189  31.891  1.00  0.00     0.031 C 
ATOM     20  C   UNL A   1      40.169  25.557  27.979  1.00  0.00     0.029 A 
ATOM     21  C   UNL A   1      41.459  25.805  28.605  1.00  0.00     0.049 A 
ATOM     22  H   UNL A   1      41.841  27.132  30.177  1.00  0.00     0.167 HD
ATOM     23  C   UNL A   1      42.685  30.365  32.975  1.00  0.00     0.034 A 
ATOM     24  C   UNL A   1      42.602  25.144  28.331  1.00  0.00     0.034 A 
ATOM     25  C   UNL A   1      43.727  29.400  33.147  1.00  0.00     0.049 A 
ATOM     26  C   UNL A   1      43.769  25.361  29.255  1.00  0.00     0.074 A 
ATOM     27  C   UNL A   1      44.704  29.344  34.119  1.00  0.00     0.029 A 
ATOM     28  N   UNL A   1      43.932  28.323  32.298  1.00  0.00    -0.354 N 
ATOM     29  N   UNL A   1      43.895  26.239  30.220  1.00  0.00    -0.248 NA
ATOM     30  C   UNL A   1      44.894  24.419  29.151  1.00  0.00     0.031 C 
ATOM     31  C   UNL A   1      45.524  28.246  33.836  1.00  0.00     0.029 A 
ATOM     32  C   UNL A   1      45.037  27.604  32.705  1.00  0.00     0.049 A 
ATOM     33  H   UNL A   1      43.373  28.104  31.517  1.00  0.00     0.167 HD
ATOM     34  C   UNL A   1      45.046  25.885  30.911  1.00  0.00     0.074 A 
ATOM     35  C   UNL A   1      45.616  24.748  30.217  1.00  0.00     0.031 C 
ATOM     36  C   UNL A   1      45.552  26.432  32.043  1.00  0.00     0.034 A 
BRANCH  23  37
ATOM     37  C   UNL A   1      42.575  31.548  33.890  1.00  0.00     0.023 A 
ATOM     38  C   UNL A   1      43.158  32.776  33.502  1.00  0.00     0.012 A 
ATOM     39  C   UNL A   1      42.005  31.423  35.167  1.00  0.00     0.148 A 
ATOM     40  C   UNL A   1      43.253  33.834  34.402  1.00  0.00     0.002 A 
ATOM     41  C   UNL A   1      42.059  32.502  36.041  1.00  0.00     0.091 A 
ATOM     42  F   UNL A   1      41.481  30.243  35.522  1.00  0.00    -0.205 F 
ATOM     43  C   UNL A   1      42.702  33.695  35.671  1.00  0.00     0.022 A 
BRANCH  41  44
ATOM     44  S   UNL A   1      41.329  32.440  37.679  1.00  0.00     0.127 S 
ATOM     45  O   UNL A   1      42.249  31.537  38.376  1.00  0.00    -0.237 OA
ATOM     46  O   UNL A   1      41.419  33.841  38.103  1.00  0.00    -0.237 OA
ATOM     47  O   UNL A   1      39.979  31.947  37.499  1.00  0.00    -0.744 OA
ENDBRANCH  41  44
ENDBRANCH  23  37
BRANCH  24  48
ATOM     48  C   UNL A   1      42.664  24.140  27.229  1.00  0.00     0.023 A 
ATOM     49  C   UNL A   1      43.221  24.499  25.987  1.00  0.00     0.012 A 
ATOM     50  C   UNL A   1      42.173  22.829  27.405  1.00  0.00     0.148 A 
ATOM     51  C   UNL A   1      43.259  23.587  24.930  1.00  0.00     0.002 A 
ATOM     52  C   UNL A   1      42.235  21.916  26.354  1.00  0.00     0.091 A 
ATOM     53  F   UNL A   1      41.644  22.504  28.593  1.00  0.00    -0.205 F 
ATOM     54  C   UNL A   1      42.768  22.297  25.114  1.00  0.00     0.022 A 
BRANCH  52  55
ATOM     55  S   UNL A   1      41.686  20.208  26.503  1.00  0.00     0.127 S 
ATOM     56  O   UNL A   1      42.328  19.792  27.747  1.00  0.00    -0.237 OA
ATOM     57  O   UNL A   1      40.233  20.368  26.584  1.00  0.00    -0.237 OA
ATOM     58  O   UNL A   1      42.151  19.534  25.300  1.00  0.00    -0.744 OA
ENDBRANCH  52  55
ENDBRANCH  24  48
BRANCH  36  59
ATOM     59  C   UNL A   1      46.738  25.770  32.684  1.00  0.00     0.023 A 
ATOM     60  C   UNL A   1      48.034  26.258  32.451  1.00  0.00     0.012 A 
ATOM     61  C   UNL A   1      46.530  24.766  33.653  1.00  0.00     0.148 A 
ATOM     62  C   UNL A   1      49.114  25.756  33.176  1.00  0.00     0.002 A 
ATOM     63  C   UNL A   1      47.600  24.312  34.411  1.00  0.00     0.091 A 
ATOM     64  F   UNL A   1      45.285  24.304  33.837  1.00  0.00    -0.205 F 
ATOM     65  C   UNL A   1      48.894  24.801  34.167  1.00  0.00     0.022 A 
BRANCH  63  66
ATOM     66  S   UNL A   1      47.391  23.184  35.791  1.00  0.00     0.127 S 
ATOM     67  O   UNL A   1      46.151  23.672  36.391  1.00  0.00    -0.237 OA
ATOM     68  O   UNL A   1      47.276  21.891  35.116  1.00  0.00    -0.237 OA
ATOM     69  O   UNL A   1      48.581  23.331  36.619  1.00  0.00    -0.744 OA
ENDBRANCH  63  66
ENDBRANCH  36  59
ENDBRANCH  10  11
ENDBRANCH   3   5
ENDBRANCH   2   3
ENDBRANCH   1   2
BRANCH   1  70
ATOM     70  C   UNL A   1      31.949  28.164  26.652  1.00  0.00     0.274 C 
BRANCH  70  71
ATOM     71  O   UNL A   1      31.650  26.805  26.995  1.00  0.00    -0.462 OA
BRANCH  71  72
ATOM     72  C   UNL A   1      31.335  26.038  25.898  1.00  0.00     0.314 C 
ATOM     73  O   UNL A   1      30.420  26.320  25.131  1.00  0.00    -0.252 OA
BRANCH  72  74
ATOM     74  C   UNL A   1      32.257  24.809  25.729  1.00  0.00     0.097 C 
ATOM     75  C   UNL A   1      31.793  23.955  24.518  1.00  0.00     0.053 C 
ATOM     76  C   UNL A   1      31.914  23.851  26.868  1.00  0.00     0.136 C 
ATOM     77  C   UNL A   1      31.063  22.788  25.195  1.00  0.00     0.120 C 
ATOM     78  C   UNL A   1      32.678  22.527  26.902  1.00  0.00     0.036 C 
ATOM     79  O   UNL A   1      30.621  23.422  26.414  1.00  0.00    -0.374 OA
ATOM     80  C   UNL A   1      32.055  21.766  25.739  1.00  0.00     0.035 C 
BRANCH  74  81
ATOM     81  C   UNL A   1      33.752  25.158  25.719  1.00  0.00     0.026 C 
BRANCH  81  82
ATOM     82  C   UNL A   1      34.549  24.662  24.508  1.00  0.00     0.038 C 
BRANCH  82  83
ATOM     83  C   UNL A   1      35.569  23.607  24.828  1.00  0.00    -0.030 A 
ATOM     84  C   UNL A   1      36.736  23.894  25.542  1.00  0.00     0.007 A 
ATOM     85  C   UNL A   1      35.397  22.297  24.386  1.00  0.00     0.114 A 
ATOM     86  C   UNL A   1      37.691  22.902  25.732  1.00  0.00     0.020 A 
ATOM     87  N   UNL A   1      36.296  21.305  24.584  1.00  0.00    -0.264 NA
ATOM     88  C   UNL A   1      37.428  21.638  25.236  1.00  0.00     0.111 A 
ENDBRANCH  82  83
ENDBRANCH  81  82
ENDBRANCH  74  81
ENDBRANCH  72  74
ENDBRANCH  71  72
ENDBRANCH  70  71
ENDBRANCH   1  70
TORSDOF 17
ENDMDL
MODEL 2
REMARK VINA RESULT:     -10.8      5.492      8.295
REMARK SMILES O=C(OCCOC(=O)[C@]1(CCc2cccnc2)C[C@H]2CC[C@@H]1O2)c1ccc(-c2c3nc(c(-c4cccc(S(=O)(=O)[O-])c4F)c4ccc([nH]4)c(-c4cccc(S(=O)(=O)[O-])c4F)c4nc(c(-c5cccc(S(=O)(=O)[O-])c5F)c5ccc2[nH]5)C=C4)C=C3)cc1
REMARK SMILES IDX 4 1 3 2 2 3 1 4 24 5 25 6 86 7 26 8 85 9 27 10 28 11 29 12
REMARK SMILES IDX 79 13 30 14 84 15 78 16 80 17 31 18 83 19 77 20 76 21 32 23
REMARK SMILES IDX 64 24 44 25 63 26 45 27 48 28 62 29 81 30 46 31 47 32 61 34
REMARK SMILES IDX 82 35 49 36 33 37 34 38 42 39 35 40 37 41 43 42 36 43 38 44
REMARK SMILES IDX 39 45 40 46 41 47 65 48 66 49 74 50 67 51 69 52 75 53 68 54
REMARK SMILES IDX 70 55 71 56 72 57 73 58 50 59 51 60 59 61 52 62 54 63 60 64
REMARK SMILES IDX 53 65 55 66 56 67 57 68 58 69 5 70 6 71 7 72 8 73 9 74 18 75
REMARK SMILES IDX 22 76 19 77 21 78 23 79 20 80 10 81 11 82 12 83 13 84 17 85
REMARK SMILES IDX 14 86 16 87 15 88
REMARK H PARENT 80 22 48 33
REMARK Flexibility Score: inf
ROOT
ATOM      1  C   UNL A   1      38.552  20.600  25.083  1.00  0.00     0.275 C 
ENDROOT
BRANCH   1   2
ATOM      2  O   UNL A   1      39.439  19.807  25.881  1.00  0.00    -0.458 OA
BRANCH   2   3
ATOM      3  C   UNL A   1      40.777  19.935  26.045  1.00  0.00     0.338 C 
ATOM      4  O   UNL A   1      41.485  18.952  25.829  1.00  0.00    -0.246 OA
BRANCH   3   5
ATOM      5  C   UNL A   1      41.428  21.169  26.582  1.00  0.00     0.060 A 
ATOM      6  C   UNL A   1      41.725  21.442  27.926  1.00  0.00     0.016 A 
ATOM      7  C   UNL A   1      41.765  22.139  25.627  1.00  0.00     0.016 A 
ATOM      8  C   UNL A   1      42.433  22.598  28.303  1.00  0.00     0.010 A 
ATOM      9  C   UNL A   1      42.474  23.285  25.999  1.00  0.00     0.010 A 
ATOM     10  C   UNL A   1      42.825  23.528  27.343  1.00  0.00    -0.014 A 
BRANCH  10  11
ATOM     11  C   UNL A   1      43.403  24.857  27.682  1.00  0.00     0.031 A 
ATOM     12  C   UNL A   1      42.424  25.943  28.013  1.00  0.00     0.074 A 
ATOM     13  C   UNL A   1      44.714  25.161  27.583  1.00  0.00     0.049 A 
ATOM     14  N   UNL A   1      42.619  27.224  28.139  1.00  0.00    -0.248 NA
ATOM     15  C   UNL A   1      41.026  25.516  28.222  1.00  0.00     0.031 C 
ATOM     16  C   UNL A   1      45.803  24.221  27.370  1.00  0.00     0.029 A 
ATOM     17  N   UNL A   1      45.343  26.387  27.545  1.00  0.00    -0.354 N 
ATOM     18  C   UNL A   1      41.378  27.749  28.458  1.00  0.00     0.074 A 
ATOM     19  C   UNL A   1      40.414  26.678  28.357  1.00  0.00     0.031 C 
ATOM     20  C   UNL A   1      46.913  24.891  27.012  1.00  0.00     0.029 A 
ATOM     21  C   UNL A   1      46.628  26.317  27.045  1.00  0.00     0.049 A 
ATOM     22  H   UNL A   1      44.920  27.225  27.842  1.00  0.00     0.167 HD
ATOM     23  C   UNL A   1      41.079  28.988  28.905  1.00  0.00     0.034 A 
ATOM     24  C   UNL A   1      47.472  27.293  26.649  1.00  0.00     0.034 A 
ATOM     25  C   UNL A   1      42.051  30.028  29.039  1.00  0.00     0.049 A 
ATOM     26  C   UNL A   1      47.106  28.711  26.996  1.00  0.00     0.074 A 
ATOM     27  C   UNL A   1      41.904  31.287  29.585  1.00  0.00     0.029 A 
ATOM     28  N   UNL A   1      43.361  29.925  28.595  1.00  0.00    -0.354 N 
ATOM     29  N   UNL A   1      45.985  29.165  27.500  1.00  0.00    -0.248 NA
ATOM     30  C   UNL A   1      48.156  29.731  26.852  1.00  0.00     0.031 C 
ATOM     31  C   UNL A   1      43.123  31.959  29.440  1.00  0.00     0.029 A 
ATOM     32  C   UNL A   1      44.034  31.106  28.830  1.00  0.00     0.049 A 
ATOM     33  H   UNL A   1      43.753  29.127  28.172  1.00  0.00     0.167 HD
ATOM     34  C   UNL A   1      46.228  30.488  27.843  1.00  0.00     0.074 A 
ATOM     35  C   UNL A   1      47.587  30.781  27.433  1.00  0.00     0.031 C 
ATOM     36  C   UNL A   1      45.409  31.360  28.480  1.00  0.00     0.034 A 
BRANCH  23  37
ATOM     37  C   UNL A   1      39.659  29.203  29.339  1.00  0.00     0.023 A 
ATOM     38  C   UNL A   1      38.671  29.459  28.360  1.00  0.00     0.012 A 
ATOM     39  C   UNL A   1      39.321  29.266  30.700  1.00  0.00     0.148 A 
ATOM     40  C   UNL A   1      37.390  29.860  28.731  1.00  0.00     0.002 A 
ATOM     41  C   UNL A   1      38.027  29.617  31.061  1.00  0.00     0.091 A 
ATOM     42  F   UNL A   1      40.279  29.043  31.609  1.00  0.00    -0.205 F 
ATOM     43  C   UNL A   1      37.070  29.938  30.083  1.00  0.00     0.022 A 
BRANCH  41  44
ATOM     44  S   UNL A   1      37.500  29.691  32.775  1.00  0.00     0.127 S 
ATOM     45  O   UNL A   1      36.224  30.402  32.658  1.00  0.00    -0.237 OA
ATOM     46  O   UNL A   1      37.373  28.270  33.114  1.00  0.00    -0.237 OA
ATOM     47  O   UNL A   1      38.548  30.394  33.487  1.00  0.00    -0.744 OA
ENDBRANCH  41  44
ENDBRANCH  23  37
BRANCH  24  48
ATOM     48  C   UNL A   1      48.778  26.966  26.006  1.00  0.00     0.023 A 
ATOM     49  C   UNL A   1      49.791  26.345  26.760  1.00  0.00     0.012 A 
ATOM     50  C   UNL A   1      49.021  27.267  24.649  1.00  0.00     0.148 A 
ATOM     51  C   UNL A   1      51.034  26.060  26.189  1.00  0.00     0.002 A 
ATOM     52  C   UNL A   1      50.254  26.958  24.078  1.00  0.00     0.091 A 
ATOM     53  F   UNL A   1      48.046  27.860  23.946  1.00  0.00    -0.205 F 
ATOM     54  C   UNL A   1      51.265  26.365  24.850  1.00  0.00     0.022 A 
BRANCH  52  55
ATOM     55  S   UNL A   1      50.636  27.253  22.345  1.00  0.00     0.127 S 
ATOM     56  O   UNL A   1      50.518  28.706  22.253  1.00  0.00    -0.237 OA
ATOM     57  O   UNL A   1      52.003  26.740  22.248  1.00  0.00    -0.237 OA
ATOM     58  O   UNL A   1      49.651  26.495  21.586  1.00  0.00    -0.744 OA
ENDBRANCH  52  55
ENDBRANCH  24  48
BRANCH  36  59
ATOM     59  C   UNL A   1      45.962  32.699  28.873  1.00  0.00     0.023 A 
ATOM     60  C   UNL A   1      46.732  32.832  30.041  1.00  0.00     0.012 A 
ATOM     61  C   UNL A   1      45.850  33.784  27.980  1.00  0.00     0.148 A 
ATOM     62  C   UNL A   1      47.387  34.031  30.317  1.00  0.00     0.002 A 
ATOM     63  C   UNL A   1      46.551  34.955  28.231  1.00  0.00     0.091 A 
ATOM     64  F   UNL A   1      45.090  33.635  26.885  1.00  0.00    -0.205 F 
ATOM     65  C   UNL A   1      47.313  35.082  29.404  1.00  0.00     0.022 A 
BRANCH  63  66
ATOM     66  S   UNL A   1      46.620  36.307  27.053  1.00  0.00     0.127 S 
ATOM     67  O   UNL A   1      45.227  36.749  27.024  1.00  0.00    -0.237 OA
ATOM     68  O   UNL A   1      47.542  37.236  27.706  1.00  0.00    -0.237 OA
ATOM     69  O   UNL A   1      47.115  35.737  25.807  1.00  0.00    -0.744 OA
ENDBRANCH  63  66
ENDBRANCH  36  59
ENDBRANCH  10  11
ENDBRANCH   3   5
ENDBRANCH   2   3
ENDBRANCH   1   2
BRANCH   1  70
ATOM     70  C   UNL A   1      37.968  21.849  25.749  1.00  0.00     0.274 C 
BRANCH  70  71
ATOM     71  O   UNL A   1      36.536  21.879  25.813  1.00  0.00    -0.462 OA
BRANCH  71  72
ATOM     72  C   UNL A   1      35.961  22.299  24.638  1.00  0.00     0.314 C 
ATOM     73  O   UNL A   1      36.590  22.397  23.588  1.00  0.00    -0.252 OA
BRANCH  72  74
ATOM     74  C   UNL A   1      34.454  22.612  24.775  1.00  0.00     0.097 C 
ATOM     75  C   UNL A   1      33.881  23.094  23.414  1.00  0.00     0.053 C 
ATOM     76  C   UNL A   1      34.353  23.911  25.572  1.00  0.00     0.136 C 
ATOM     77  C   UNL A   1      33.787  24.611  23.613  1.00  0.00     0.120 C 
ATOM     78  C   UNL A   1      32.946  24.457  25.817  1.00  0.00     0.036 C 
ATOM     79  O   UNL A   1      34.842  24.822  24.575  1.00  0.00    -0.374 OA
ATOM     80  C   UNL A   1      32.560  24.978  24.439  1.00  0.00     0.035 C 
BRANCH  74  81
ATOM     81  C   UNL A   1      33.648  21.484  25.434  1.00  0.00     0.026 C 
BRANCH  81  82
ATOM     82  C   UNL A   1      32.620  20.783  24.541  1.00  0.00     0.038 C 
BRANCH  82  83
ATOM     83  C   UNL A   1      33.036  19.417  24.073  1.00  0.00    -0.030 A 
ATOM     84  C   UNL A   1      34.155  18.761  24.594  1.00  0.00     0.007 A 
ATOM     85  C   UNL A   1      32.327  18.767  23.065  1.00  0.00     0.114 A 
ATOM     86  C   UNL A   1      34.549  17.539  24.063  1.00  0.00     0.020 A 
ATOM     87  N   UNL A   1      32.671  17.564  22.550  1.00  0.00    -0.264 NA
ATOM     88  C   UNL A   1      33.784  16.989  23.050  1.00  0.00     0.111 A 
ENDBRANCH  82  83
ENDBRANCH  81  82
ENDBRANCH  74  81
ENDBRANCH  72  74
ENDBRANCH  71  72
ENDBRANCH  70  71
ENDBRANCH   1  70
TORSDOF 17
ENDMDL
MODEL 3
REMARK VINA RESULT:     -10.8      4.739      9.684
REMARK SMILES O=C(OCCOC(=O)[C@]1(CCc2cccnc2)C[C@H]2CC[C@@H]1O2)c1ccc(-c2c3nc(c(-c4cccc(S(=O)(=O)[O-])c4F)c4ccc([nH]4)c(-c4cccc(S(=O)(=O)[O-])c4F)c4nc(c(-c5cccc(S(=O)(=O)[O-])c5F)c5ccc2[nH]5)C=C4)C=C3)cc1
REMARK SMILES IDX 4 1 3 2 2 3 1 4 24 5 25 6 86 7 26 8 85 9 27 10 28 11 29 12
REMARK SMILES IDX 79 13 30 14 84 15 78 16 80 17 31 18 83 19 77 20 76 21 32 23
REMARK SMILES IDX 64 24 44 25 63 26 45 27 48 28 62 29 81 30 46 31 47 32 61 34
REMARK SMILES IDX 82 35 49 36 33 37 34 38 42 39 35 40 37 41 43 42 36 43 38 44
REMARK SMILES IDX 39 45 40 46 41 47 65 48 66 49 74 50 67 51 69 52 75 53 68 54
REMARK SMILES IDX 70 55 71 56 72 57 73 58 50 59 51 60 59 61 52 62 54 63 60 64
REMARK SMILES IDX 53 65 55 66 56 67 57 68 58 69 5 70 6 71 7 72 8 73 9 74 18 75
REMARK SMILES IDX 22 76 19 77 21 78 23 79 20 80 10 81 11 82 12 83 13 84 17 85
REMARK SMILES IDX 14 86 16 87 15 88
REMARK H PARENT 80 22 48 33
REMARK Flexibility Score: inf
ROOT
ATOM      1  C   UNL A   1      36.804  23.188  25.239  1.00  0.00     0.275 C 
ENDROOT
BRANCH   1   2
ATOM      2  O   UNL A   1      37.779  22.303  25.804  1.00  0.00    -0.458 OA
BRANCH   2   3
ATOM      3  C   UNL A   1      38.962  22.606  26.389  1.00  0.00     0.338 C 
ATOM      4  O   UNL A   1      39.755  21.690  26.606  1.00  0.00    -0.246 OA
BRANCH   3   5
ATOM      5  C   UNL A   1      39.309  23.973  26.888  1.00  0.00     0.060 A 
ATOM      6  C   UNL A   1      38.989  24.512  28.143  1.00  0.00     0.016 A 
ATOM      7  C   UNL A   1      40.026  24.780  25.993  1.00  0.00     0.016 A 
ATOM      8  C   UNL A   1      39.457  25.778  28.541  1.00  0.00     0.010 A 
ATOM      9  C   UNL A   1      40.498  26.035  26.389  1.00  0.00     0.010 A 
ATOM     10  C   UNL A   1      40.226  26.549  27.673  1.00  0.00    -0.014 A 
BRANCH  10  11
ATOM     11  C   UNL A   1      40.594  27.966  27.947  1.00  0.00     0.031 A 
ATOM     12  C   UNL A   1      42.052  28.246  28.150  1.00  0.00     0.074 A 
ATOM     13  C   UNL A   1      39.699  28.956  28.146  1.00  0.00     0.049 A 
ATOM     14  N   UNL A   1      42.634  29.320  28.601  1.00  0.00    -0.248 NA
ATOM     15  C   UNL A   1      42.979  27.152  27.801  1.00  0.00     0.031 C 
ATOM     16  C   UNL A   1      38.267  28.886  27.899  1.00  0.00     0.029 A 
ATOM     17  N   UNL A   1      39.863  30.202  28.711  1.00  0.00    -0.354 N 
ATOM     18  C   UNL A   1      43.990  29.036  28.572  1.00  0.00     0.074 A 
ATOM     19  C   UNL A   1      44.134  27.646  28.206  1.00  0.00     0.031 C 
ATOM     20  C   UNL A   1      37.657  29.927  28.496  1.00  0.00     0.029 A 
ATOM     21  C   UNL A   1      38.669  30.777  29.103  1.00  0.00     0.049 A 
ATOM     22  H   UNL A   1      40.738  30.638  28.824  1.00  0.00     0.167 HD
ATOM     23  C   UNL A   1      45.029  29.884  28.726  1.00  0.00     0.034 A 
ATOM     24  C   UNL A   1      38.425  31.856  29.874  1.00  0.00     0.034 A 
ATOM     25  C   UNL A   1      44.870  31.268  29.048  1.00  0.00     0.049 A 
ATOM     26  C   UNL A   1      39.586  32.756  30.198  1.00  0.00     0.074 A 
ATOM     27  C   UNL A   1      45.829  32.257  29.119  1.00  0.00     0.029 A 
ATOM     28  N   UNL A   1      43.655  31.852  29.375  1.00  0.00    -0.354 N 
ATOM     29  N   UNL A   1      40.861  32.559  29.970  1.00  0.00    -0.248 NA
ATOM     30  C   UNL A   1      39.275  34.080  30.760  1.00  0.00     0.031 C 
ATOM     31  C   UNL A   1      45.196  33.438  29.523  1.00  0.00     0.029 A 
ATOM     32  C   UNL A   1      43.838  33.186  29.674  1.00  0.00     0.049 A 
ATOM     33  H   UNL A   1      42.790  31.383  29.393  1.00  0.00     0.167 HD
ATOM     34  C   UNL A   1      41.490  33.765  30.244  1.00  0.00     0.074 A 
ATOM     35  C   UNL A   1      40.463  34.673  30.715  1.00  0.00     0.031 C 
ATOM     36  C   UNL A   1      42.794  34.095  30.075  1.00  0.00     0.034 A 
BRANCH  23  37
ATOM     37  C   UNL A   1      46.389  29.308  28.459  1.00  0.00     0.023 A 
ATOM     38  C   UNL A   1      46.923  29.382  27.153  1.00  0.00     0.012 A 
ATOM     39  C   UNL A   1      47.082  28.602  29.454  1.00  0.00     0.148 A 
ATOM     40  C   UNL A   1      48.084  28.689  26.819  1.00  0.00     0.002 A 
ATOM     41  C   UNL A   1      48.266  27.955  29.125  1.00  0.00     0.091 A 
ATOM     42  F   UNL A   1      46.544  28.525  30.678  1.00  0.00    -0.205 F 
ATOM     43  C   UNL A   1      48.755  27.976  27.808  1.00  0.00     0.022 A 
BRANCH  41  44
ATOM     44  S   UNL A   1      49.233  27.056  30.341  1.00  0.00     0.127 S 
ATOM     45  O   UNL A   1      50.388  26.635  29.543  1.00  0.00    -0.237 OA
ATOM     46  O   UNL A   1      49.527  28.102  31.327  1.00  0.00    -0.237 OA
ATOM     47  O   UNL A   1      48.380  25.989  30.824  1.00  0.00    -0.744 OA
ENDBRANCH  41  44
ENDBRANCH  23  37
BRANCH  24  48
ATOM     48  C   UNL A   1      37.034  32.211  30.281  1.00  0.00     0.023 A 
ATOM     49  C   UNL A   1      36.540  31.783  31.528  1.00  0.00     0.012 A 
ATOM     50  C   UNL A   1      36.196  32.971  29.437  1.00  0.00     0.148 A 
ATOM     51  C   UNL A   1      35.230  32.075  31.915  1.00  0.00     0.002 A 
ATOM     52  C   UNL A   1      34.898  33.279  29.840  1.00  0.00     0.091 A 
ATOM     53  F   UNL A   1      36.681  33.369  28.252  1.00  0.00    -0.205 F 
ATOM     54  C   UNL A   1      34.410  32.822  31.074  1.00  0.00     0.022 A 
BRANCH  52  55
ATOM     55  S   UNL A   1      33.778  34.288  28.857  1.00  0.00     0.127 S 
ATOM     56  O   UNL A   1      33.285  33.324  27.877  1.00  0.00    -0.237 OA
ATOM     57  O   UNL A   1      32.795  34.705  29.858  1.00  0.00    -0.237 OA
ATOM     58  O   UNL A   1      34.587  35.372  28.319  1.00  0.00    -0.744 OA
ENDBRANCH  52  55
ENDBRANCH  24  48
BRANCH  36  59
ATOM     59  C   UNL A   1      43.202  35.522  30.304  1.00  0.00     0.023 A 
ATOM     60  C   UNL A   1      43.787  35.904  31.524  1.00  0.00     0.012 A 
ATOM     61  C   UNL A   1      43.153  36.437  29.233  1.00  0.00     0.148 A 
ATOM     62  C   UNL A   1      44.320  37.183  31.674  1.00  0.00     0.002 A 
ATOM     63  C   UNL A   1      43.737  37.688  29.371  1.00  0.00     0.091 A 
ATOM     64  F   UNL A   1      42.568  36.051  28.089  1.00  0.00    -0.205 F 
ATOM     65  C   UNL A   1      44.314  38.065  30.595  1.00  0.00     0.022 A 
BRANCH  63  66
ATOM     66  S   UNL A   1      43.891  38.836  27.999  1.00  0.00     0.127 S 
ATOM     67  O   UNL A   1      42.491  39.110  27.682  1.00  0.00    -0.237 OA
ATOM     68  O   UNL A   1      44.609  39.953  28.613  1.00  0.00    -0.237 OA
ATOM     69  O   UNL A   1      44.635  38.133  26.963  1.00  0.00    -0.744 OA
ENDBRANCH  63  66
ENDBRANCH  36  59
ENDBRANCH  10  11
ENDBRANCH   3   5
ENDBRANCH   2   3
ENDBRANCH   1   2
BRANCH   1  70
ATOM     70  C   UNL A   1      35.855  22.582  24.201  1.00  0.00     0.274 C 
BRANCH  70  71
ATOM     71  O   UNL A   1      34.471  22.896  24.401  1.00  0.00    -0.462 OA
BRANCH  71  72
ATOM     72  C   UNL A   1      33.962  23.703  23.412  1.00  0.00     0.314 C 
ATOM     73  O   UNL A   1      34.166  23.502  22.219  1.00  0.00    -0.252 OA
BRANCH  72  74
ATOM     74  C   UNL A   1      33.102  24.866  23.957  1.00  0.00     0.097 C 
ATOM     75  C   UNL A   1      32.202  24.366  25.120  1.00  0.00     0.053 C 
ATOM     76  C   UNL A   1      32.033  25.145  22.904  1.00  0.00     0.136 C 
ATOM     77  C   UNL A   1      30.833  24.227  24.443  1.00  0.00     0.120 C 
ATOM     78  C   UNL A   1      31.023  26.246  23.228  1.00  0.00     0.036 C 
ATOM     79  O   UNL A   1      31.233  23.965  23.081  1.00  0.00    -0.374 OA
ATOM     80  C   UNL A   1      30.158  25.585  24.294  1.00  0.00     0.035 C 
BRANCH  74  81
ATOM     81  C   UNL A   1      33.912  26.129  24.286  1.00  0.00     0.026 C 
BRANCH  81  82
ATOM     82  C   UNL A   1      34.027  26.485  25.771  1.00  0.00     0.038 C 
BRANCH  82  83
ATOM     83  C   UNL A   1      33.307  27.744  26.163  1.00  0.00    -0.030 A 
ATOM     84  C   UNL A   1      32.325  27.759  27.159  1.00  0.00     0.007 A 
ATOM     85  C   UNL A   1      33.574  28.946  25.513  1.00  0.00     0.114 A 
ATOM     86  C   UNL A   1      31.625  28.931  27.421  1.00  0.00     0.020 A 
ATOM     87  N   UNL A   1      32.929  30.108  25.769  1.00  0.00    -0.264 NA
ATOM     88  C   UNL A   1      31.958  30.065  26.704  1.00  0.00     0.111 A 
ENDBRANCH  82  83
ENDBRANCH  81  82
ENDBRANCH  74  81
ENDBRANCH  72  74
ENDBRANCH  71  72
ENDBRANCH  70  71
ENDBRANCH   1  70
TORSDOF 17
ENDMDL
