MODEL 1
REMARK VINA RESULT:     -11.7      0.000      0.000
REMARK SMILES C[C@@H](CC(=O)OCCOC(=O)c1ccc(-c2c3nc(c(-c4cccc(S(=O)(=O)[O-])c4F)c4ccc([nH]4)c(-c4cccc(S(=O)(=O)[O-])c4F)c4nc(c(-c5cccc(S(=O)(=O)[O-])c5F)c5ccc2[nH]5)C=C4)C=C3)cc1)CC(=O)N1C[C@H](C)[C@@H](C)C1
REMARK SMILES IDX 7 1 6 2 4 3 5 4 3 5 2 6 1 7 75 8 76 9 77 10 78 11 79 12
REMARK SMILES IDX 84 13 80 14 82 15 81 16 83 17 8 18 9 19 10 20 11 21 12 22
REMARK SMILES IDX 13 23 74 24 14 25 73 26 15 27 16 28 17 29 67 30 18 31 72 32
REMARK SMILES IDX 66 33 68 34 19 35 71 36 65 37 64 38 20 40 52 41 32 42 51 43
REMARK SMILES IDX 33 44 36 45 50 46 69 47 34 48 35 49 49 51 70 52 37 53 21 54
REMARK SMILES IDX 22 55 30 56 23 57 25 58 31 59 24 60 26 61 27 62 28 63 29 64
REMARK SMILES IDX 53 65 54 66 62 67 55 68 57 69 63 70 56 71 58 72 59 73 60 74
REMARK SMILES IDX 61 75 38 76 39 77 47 78 40 79 42 80 48 81 41 82 43 83 44 84
REMARK SMILES IDX 45 85 46 86
REMARK H PARENT 68 39 36 50
REMARK Flexibility Score: inf
ROOT
ATOM      1  C   UNL A   1      34.831  20.904  25.378  1.00  0.00     0.274 C 
ENDROOT
BRANCH   1   2
ATOM      2  O   UNL A   1      34.001  19.996  24.627  1.00  0.00    -0.462 OA
BRANCH   2   3
ATOM      3  C   UNL A   1      32.710  20.356  24.427  1.00  0.00     0.306 C 
ATOM      4  O   UNL A   1      31.778  20.039  25.156  1.00  0.00    -0.252 OA
BRANCH   3   5
ATOM      5  C   UNL A   1      32.510  21.262  23.220  1.00  0.00     0.126 C 
BRANCH   5   6
ATOM      6  C   UNL A   1      32.473  22.791  23.429  1.00  0.00     0.006 C 
ATOM      7  C   UNL A   1      31.063  23.302  23.130  1.00  0.00     0.009 C 
BRANCH   6   8
ATOM      8  C   UNL A   1      33.585  23.490  22.630  1.00  0.00     0.104 C 
BRANCH   8   9
ATOM      9  C   UNL A   1      33.362  24.932  22.202  1.00  0.00     0.222 C 
ATOM     10  O   UNL A   1      33.277  25.245  21.016  1.00  0.00    -0.275 OA
ATOM     11  N   UNL A   1      33.115  25.821  23.227  1.00  0.00    -0.342 N 
ATOM     12  C   UNL A   1      32.163  26.905  23.094  1.00  0.00     0.123 C 
ATOM     13  C   UNL A   1      34.031  26.041  24.322  1.00  0.00     0.123 C 
ATOM     14  C   UNL A   1      32.747  28.054  23.914  1.00  0.00     0.010 C 
ATOM     15  C   UNL A   1      33.601  27.348  24.986  1.00  0.00     0.010 C 
ATOM     16  C   UNL A   1      33.589  28.963  23.019  1.00  0.00     0.010 C 
ATOM     17  C   UNL A   1      32.828  27.072  26.274  1.00  0.00     0.010 C 
ENDBRANCH   8   9
ENDBRANCH   6   8
ENDBRANCH   5   6
ENDBRANCH   3   5
ENDBRANCH   2   3
ENDBRANCH   1   2
BRANCH   1  18
ATOM     18  C   UNL A   1      36.297  20.700  25.005  1.00  0.00     0.275 C 
BRANCH  18  19
ATOM     19  O   UNL A   1      37.098  21.683  25.677  1.00  0.00    -0.458 OA
BRANCH  19  20
ATOM     20  C   UNL A   1      38.407  21.373  25.820  1.00  0.00     0.338 C 
ATOM     21  O   UNL A   1      38.958  20.324  25.541  1.00  0.00    -0.246 OA
BRANCH  20  22
ATOM     22  C   UNL A   1      39.109  22.538  26.376  1.00  0.00     0.060 A 
ATOM     23  C   UNL A   1      38.666  23.829  26.076  1.00  0.00     0.016 A 
ATOM     24  C   UNL A   1      40.253  22.339  27.144  1.00  0.00     0.016 A 
ATOM     25  C   UNL A   1      39.398  24.933  26.504  1.00  0.00     0.010 A 
ATOM     26  C   UNL A   1      40.946  23.447  27.630  1.00  0.00     0.010 A 
ATOM     27  C   UNL A   1      40.537  24.751  27.298  1.00  0.00    -0.014 A 
BRANCH  27  28
ATOM     28  C   UNL A   1      41.318  25.905  27.806  1.00  0.00     0.031 A 
ATOM     29  C   UNL A   1      40.626  26.973  28.604  1.00  0.00     0.074 A 
ATOM     30  C   UNL A   1      42.612  26.036  27.462  1.00  0.00     0.049 A 
ATOM     31  N   UNL A   1      41.041  28.171  28.913  1.00  0.00    -0.248 NA
ATOM     32  C   UNL A   1      39.278  26.653  29.103  1.00  0.00     0.031 C 
ATOM     33  C   UNL A   1      43.390  25.056  26.701  1.00  0.00     0.029 A 
ATOM     34  N   UNL A   1      43.490  27.073  27.664  1.00  0.00    -0.354 N 
ATOM     35  C   UNL A   1      39.985  28.775  29.585  1.00  0.00     0.074 A 
ATOM     36  C   UNL A   1      38.914  27.804  29.652  1.00  0.00     0.031 C 
ATOM     37  C   UNL A   1      44.616  25.549  26.473  1.00  0.00     0.029 A 
ATOM     38  C   UNL A   1      44.691  26.901  27.016  1.00  0.00     0.049 A 
ATOM     39  H   UNL A   1      43.280  27.860  28.218  1.00  0.00     0.167 HD
ATOM     40  C   UNL A   1      39.921  30.025  30.099  1.00  0.00     0.034 A 
ATOM     41  C   UNL A   1      45.716  27.757  26.830  1.00  0.00     0.034 A 
ATOM     42  C   UNL A   1      41.014  30.959  30.071  1.00  0.00     0.049 A 
ATOM     43  C   UNL A   1      45.620  29.139  27.413  1.00  0.00     0.074 A 
ATOM     44  C   UNL A   1      41.073  32.233  30.605  1.00  0.00     0.029 A 
ATOM     45  N   UNL A   1      42.245  30.715  29.479  1.00  0.00    -0.354 N 
ATOM     46  N   UNL A   1      44.644  29.674  28.105  1.00  0.00    -0.248 NA
ATOM     47  C   UNL A   1      46.771  30.030  27.206  1.00  0.00     0.031 C 
ATOM     48  C   UNL A   1      42.338  32.763  30.331  1.00  0.00     0.029 A 
ATOM     49  C   UNL A   1      43.071  31.813  29.635  1.00  0.00     0.049 A 
ATOM     50  H   UNL A   1      42.495  29.881  29.018  1.00  0.00     0.167 HD
ATOM     51  C   UNL A   1      45.073  30.952  28.445  1.00  0.00     0.074 A 
ATOM     52  C   UNL A   1      46.403  31.105  27.892  1.00  0.00     0.031 C 
ATOM     53  C   UNL A   1      44.418  31.917  29.135  1.00  0.00     0.034 A 
BRANCH  40  54
ATOM     54  C   UNL A   1      38.640  30.449  30.765  1.00  0.00     0.023 A 
ATOM     55  C   UNL A   1      38.448  30.187  32.137  1.00  0.00     0.012 A 
ATOM     56  C   UNL A   1      37.654  31.159  30.052  1.00  0.00     0.148 A 
ATOM     57  C   UNL A   1      37.285  30.605  32.782  1.00  0.00     0.002 A 
ATOM     58  C   UNL A   1      36.513  31.604  30.712  1.00  0.00     0.091 A 
ATOM     59  F   UNL A   1      37.841  31.376  28.743  1.00  0.00    -0.205 F 
ATOM     60  C   UNL A   1      36.323  31.321  32.075  1.00  0.00     0.022 A 
BRANCH  58  61
ATOM     61  S   UNL A   1      35.254  32.595  29.897  1.00  0.00     0.127 S 
ATOM     62  O   UNL A   1      34.769  31.672  28.872  1.00  0.00    -0.237 OA
ATOM     63  O   UNL A   1      34.307  32.851  30.983  1.00  0.00    -0.237 OA
ATOM     64  O   UNL A   1      35.939  33.781  29.404  1.00  0.00    -0.744 OA
ENDBRANCH  58  61
ENDBRANCH  40  54
BRANCH  41  65
ATOM     65  C   UNL A   1      46.921  27.309  26.079  1.00  0.00     0.023 A 
ATOM     66  C   UNL A   1      47.813  26.406  26.687  1.00  0.00     0.012 A 
ATOM     67  C   UNL A   1      47.157  27.719  24.750  1.00  0.00     0.148 A 
ATOM     68  C   UNL A   1      48.925  25.928  25.992  1.00  0.00     0.002 A 
ATOM     69  C   UNL A   1      48.237  27.197  24.046  1.00  0.00     0.091 A 
ATOM     70  F   UNL A   1      46.310  28.596  24.195  1.00  0.00    -0.205 F 
ATOM     71  C   UNL A   1      49.129  26.311  24.669  1.00  0.00     0.022 A 
BRANCH  69  72
ATOM     72  S   UNL A   1      48.487  27.529  22.297  1.00  0.00     0.127 S 
ATOM     73  O   UNL A   1      48.646  26.183  21.756  1.00  0.00    -0.237 OA
ATOM     74  O   UNL A   1      47.238  28.198  21.929  1.00  0.00    -0.237 OA
ATOM     75  O   UNL A   1      49.663  28.388  22.231  1.00  0.00    -0.744 OA
ENDBRANCH  69  72
ENDBRANCH  41  65
BRANCH  53  76
ATOM     76  C   UNL A   1      45.138  33.215  29.373  1.00  0.00     0.023 A 
ATOM     77  C   UNL A   1      45.954  33.358  30.512  1.00  0.00     0.012 A 
ATOM     78  C   UNL A   1      45.084  34.249  28.420  1.00  0.00     0.148 A 
ATOM     79  C   UNL A   1      46.697  34.521  30.706  1.00  0.00     0.002 A 
ATOM     80  C   UNL A   1      45.859  35.389  28.598  1.00  0.00     0.091 A 
ATOM     81  F   UNL A   1      44.285  34.096  27.354  1.00  0.00    -0.205 F 
ATOM     82  C   UNL A   1      46.660  35.530  29.744  1.00  0.00     0.022 A 
BRANCH  80  83
ATOM     83  S   UNL A   1      45.942  36.698  27.372  1.00  0.00     0.127 S 
ATOM     84  O   UNL A   1      46.130  35.940  26.137  1.00  0.00    -0.237 OA
ATOM     85  O   UNL A   1      44.629  37.333  27.505  1.00  0.00    -0.237 OA
ATOM     86  O   UNL A   1      47.062  37.544  27.764  1.00  0.00    -0.744 OA
ENDBRANCH  80  83
ENDBRANCH  53  76
ENDBRANCH  27  28
ENDBRANCH  20  22
ENDBRANCH  19  20
ENDBRANCH  18  19
ENDBRANCH   1  18
TORSDOF 17
ENDMDL
MODEL 2
REMARK VINA RESULT:     -11.4      5.359     10.210
REMARK SMILES C[C@@H](CC(=O)OCCOC(=O)c1ccc(-c2c3nc(c(-c4cccc(S(=O)(=O)[O-])c4F)c4ccc([nH]4)c(-c4cccc(S(=O)(=O)[O-])c4F)c4nc(c(-c5cccc(S(=O)(=O)[O-])c5F)c5ccc2[nH]5)C=C4)C=C3)cc1)CC(=O)N1C[C@H](C)[C@@H](C)C1
REMARK SMILES IDX 7 1 6 2 4 3 5 4 3 5 2 6 1 7 75 8 76 9 77 10 78 11 79 12
REMARK SMILES IDX 84 13 80 14 82 15 81 16 83 17 8 18 9 19 10 20 11 21 12 22
REMARK SMILES IDX 13 23 74 24 14 25 73 26 15 27 16 28 17 29 67 30 18 31 72 32
REMARK SMILES IDX 66 33 68 34 19 35 71 36 65 37 64 38 20 40 52 41 32 42 51 43
REMARK SMILES IDX 33 44 36 45 50 46 69 47 34 48 35 49 49 51 70 52 37 53 21 54
REMARK SMILES IDX 22 55 30 56 23 57 25 58 31 59 24 60 26 61 27 62 28 63 29 64
REMARK SMILES IDX 53 65 54 66 62 67 55 68 57 69 63 70 56 71 58 72 59 73 60 74
REMARK SMILES IDX 61 75 38 76 39 77 47 78 40 79 42 80 48 81 41 82 43 83 44 84
REMARK SMILES IDX 45 85 46 86
REMARK H PARENT 68 39 36 50
REMARK Flexibility Score: inf
ROOT
ATOM      1  C   UNL A   1      31.303  29.158  24.857  1.00  0.00     0.274 C 
ENDROOT
BRANCH   1   2
ATOM      2  O   UNL A   1      30.702  29.510  23.595  1.00  0.00    -0.462 OA
BRANCH   2   3
ATOM      3  C   UNL A   1      30.492  28.508  22.707  1.00  0.00     0.306 C 
ATOM      4  O   UNL A   1      29.901  28.634  21.642  1.00  0.00    -0.252 OA
BRANCH   3   5
ATOM      5  C   UNL A   1      31.117  27.184  23.124  1.00  0.00     0.126 C 
BRANCH   5   6
ATOM      6  C   UNL A   1      32.462  26.760  22.495  1.00  0.00     0.006 C 
ATOM      7  C   UNL A   1      32.188  25.840  21.304  1.00  0.00     0.009 C 
BRANCH   6   8
ATOM      8  C   UNL A   1      33.409  26.167  23.550  1.00  0.00     0.104 C 
BRANCH   8   9
ATOM      9  C   UNL A   1      33.714  24.679  23.486  1.00  0.00     0.222 C 
ATOM     10  O   UNL A   1      34.599  24.234  22.759  1.00  0.00    -0.275 OA
ATOM     11  N   UNL A   1      33.040  23.899  24.402  1.00  0.00    -0.342 N 
ATOM     12  C   UNL A   1      33.663  22.768  25.058  1.00  0.00     0.123 C 
ATOM     13  C   UNL A   1      31.598  23.840  24.483  1.00  0.00     0.123 C 
ATOM     14  C   UNL A   1      32.546  21.742  25.237  1.00  0.00     0.010 C 
ATOM     15  C   UNL A   1      31.265  22.596  25.306  1.00  0.00     0.010 C 
ATOM     16  C   UNL A   1      32.526  20.776  24.053  1.00  0.00     0.010 C 
ATOM     17  C   UNL A   1      30.885  22.980  26.735  1.00  0.00     0.010 C 
ENDBRANCH   8   9
ENDBRANCH   6   8
ENDBRANCH   5   6
ENDBRANCH   3   5
ENDBRANCH   2   3
ENDBRANCH   1   2
BRANCH   1  18
ATOM     18  C   UNL A   1      31.544  30.415  25.688  1.00  0.00     0.275 C 
BRANCH  18  19
ATOM     19  O   UNL A   1      32.886  30.396  26.198  1.00  0.00    -0.458 OA
BRANCH  19  20
ATOM     20  C   UNL A   1      33.227  31.439  26.988  1.00  0.00     0.338 C 
ATOM     21  O   UNL A   1      32.598  32.464  27.181  1.00  0.00    -0.246 OA
BRANCH  20  22
ATOM     22  C   UNL A   1      34.521  31.148  27.620  1.00  0.00     0.060 A 
ATOM     23  C   UNL A   1      34.834  29.840  27.998  1.00  0.00     0.016 A 
ATOM     24  C   UNL A   1      35.393  32.197  27.898  1.00  0.00     0.016 A 
ATOM     25  C   UNL A   1      36.007  29.581  28.704  1.00  0.00     0.010 A 
ATOM     26  C   UNL A   1      36.599  31.925  28.542  1.00  0.00     0.010 A 
ATOM     27  C   UNL A   1      36.906  30.621  28.968  1.00  0.00    -0.014 A 
BRANCH  27  28
ATOM     28  C   UNL A   1      38.184  30.375  29.680  1.00  0.00     0.031 A 
ATOM     29  C   UNL A   1      39.198  29.444  29.080  1.00  0.00     0.074 A 
ATOM     30  C   UNL A   1      38.379  30.906  30.902  1.00  0.00     0.049 A 
ATOM     31  N   UNL A   1      40.240  28.889  29.637  1.00  0.00    -0.248 NA
ATOM     32  C   UNL A   1      39.000  29.075  27.668  1.00  0.00     0.031 C 
ATOM     33  C   UNL A   1      37.468  31.833  31.577  1.00  0.00     0.029 A 
ATOM     34  N   UNL A   1      39.383  30.702  31.815  1.00  0.00    -0.354 N 
ATOM     35  C   UNL A   1      40.786  28.055  28.670  1.00  0.00     0.074 A 
ATOM     36  C   UNL A   1      39.969  28.188  27.484  1.00  0.00     0.031 C 
ATOM     37  C   UNL A   1      37.937  32.092  32.806  1.00  0.00     0.029 A 
ATOM     38  C   UNL A   1      39.144  31.304  33.028  1.00  0.00     0.049 A 
ATOM     39  H   UNL A   1      40.193  30.177  31.621  1.00  0.00     0.167 HD
ATOM     40  C   UNL A   1      41.873  27.254  28.767  1.00  0.00     0.034 A 
ATOM     41  C   UNL A   1      39.792  31.191  34.205  1.00  0.00     0.034 A 
ATOM     42  C   UNL A   1      42.706  27.174  29.936  1.00  0.00     0.049 A 
ATOM     43  C   UNL A   1      40.996  30.296  34.285  1.00  0.00     0.074 A 
ATOM     44  C   UNL A   1      43.859  26.432  30.124  1.00  0.00     0.029 A 
ATOM     45  N   UNL A   1      42.478  27.867  31.116  1.00  0.00    -0.354 N 
ATOM     46  N   UNL A   1      41.543  29.565  33.344  1.00  0.00    -0.248 NA
ATOM     47  C   UNL A   1      41.685  30.222  35.582  1.00  0.00     0.031 C 
ATOM     48  C   UNL A   1      44.324  26.671  31.421  1.00  0.00     0.029 A 
ATOM     49  C   UNL A   1      43.467  27.571  32.037  1.00  0.00     0.049 A 
ATOM     50  H   UNL A   1      41.724  28.480  31.274  1.00  0.00     0.167 HD
ATOM     51  C   UNL A   1      42.657  28.969  33.922  1.00  0.00     0.074 A 
ATOM     52  C   UNL A   1      42.714  29.434  35.293  1.00  0.00     0.031 C 
ATOM     53  C   UNL A   1      43.541  28.100  33.374  1.00  0.00     0.034 A 
BRANCH  40  54
ATOM     54  C   UNL A   1      42.245  26.422  27.569  1.00  0.00     0.023 A 
ATOM     55  C   UNL A   1      43.014  26.995  26.536  1.00  0.00     0.012 A 
ATOM     56  C   UNL A   1      41.888  25.061  27.493  1.00  0.00     0.148 A 
ATOM     57  C   UNL A   1      43.402  26.231  25.435  1.00  0.00     0.002 A 
ATOM     58  C   UNL A   1      42.310  24.298  26.409  1.00  0.00     0.091 A 
ATOM     59  F   UNL A   1      41.134  24.541  28.471  1.00  0.00    -0.205 F 
ATOM     60  C   UNL A   1      43.061  24.883  25.376  1.00  0.00     0.022 A 
BRANCH  58  61
ATOM     61  S   UNL A   1      41.977  22.536  26.284  1.00  0.00     0.127 S 
ATOM     62  O   UNL A   1      42.649  22.196  25.030  1.00  0.00    -0.237 OA
ATOM     63  O   UNL A   1      42.626  22.009  27.485  1.00  0.00    -0.237 OA
ATOM     64  O   UNL A   1      40.527  22.405  26.277  1.00  0.00    -0.744 OA
ENDBRANCH  58  61
ENDBRANCH  40  54
BRANCH  41  65
ATOM     65  C   UNL A   1      39.318  31.968  35.384  1.00  0.00     0.023 A 
ATOM     66  C   UNL A   1      38.472  31.346  36.321  1.00  0.00     0.012 A 
ATOM     67  C   UNL A   1      39.746  33.291  35.616  1.00  0.00     0.148 A 
ATOM     68  C   UNL A   1      38.050  32.030  37.462  1.00  0.00     0.002 A 
ATOM     69  C   UNL A   1      39.366  33.947  36.782  1.00  0.00     0.091 A 
ATOM     70  F   UNL A   1      40.533  33.876  34.702  1.00  0.00    -0.205 F 
ATOM     71  C   UNL A   1      38.508  33.323  37.700  1.00  0.00     0.022 A 
BRANCH  69  72
ATOM     72  S   UNL A   1      40.026  35.559  37.230  1.00  0.00     0.127 S 
ATOM     73  O   UNL A   1      39.362  35.810  38.506  1.00  0.00    -0.237 OA
ATOM     74  O   UNL A   1      41.461  35.288  37.325  1.00  0.00    -0.237 OA
ATOM     75  O   UNL A   1      39.659  36.445  36.134  1.00  0.00    -0.744 OA
ENDBRANCH  69  72
ENDBRANCH  41  65
BRANCH  53  76
ATOM     76  C   UNL A   1      44.676  27.622  34.237  1.00  0.00     0.023 A 
ATOM     77  C   UNL A   1      45.866  28.372  34.298  1.00  0.00     0.012 A 
ATOM     78  C   UNL A   1      44.522  26.490  35.060  1.00  0.00     0.148 A 
ATOM     79  C   UNL A   1      46.896  27.992  35.157  1.00  0.00     0.002 A 
ATOM     80  C   UNL A   1      45.535  26.141  35.944  1.00  0.00     0.091 A 
ATOM     81  F   UNL A   1      43.386  25.782  34.969  1.00  0.00    -0.205 F 
ATOM     82  C   UNL A   1      46.726  26.886  35.989  1.00  0.00     0.022 A 
BRANCH  80  83
ATOM     83  S   UNL A   1      45.370  24.787  37.112  1.00  0.00     0.127 S 
ATOM     84  O   UNL A   1      45.018  23.675  36.231  1.00  0.00    -0.237 OA
ATOM     85  O   UNL A   1      46.713  24.708  37.689  1.00  0.00    -0.237 OA
ATOM     86  O   UNL A   1      44.333  25.193  38.052  1.00  0.00    -0.744 OA
ENDBRANCH  80  83
ENDBRANCH  53  76
ENDBRANCH  27  28
ENDBRANCH  20  22
ENDBRANCH  19  20
ENDBRANCH  18  19
ENDBRANCH   1  18
TORSDOF 17
ENDMDL
MODEL 3
REMARK VINA RESULT:     -11.3      1.568      2.099
REMARK SMILES C[C@@H](CC(=O)OCCOC(=O)c1ccc(-c2c3nc(c(-c4cccc(S(=O)(=O)[O-])c4F)c4ccc([nH]4)c(-c4cccc(S(=O)(=O)[O-])c4F)c4nc(c(-c5cccc(S(=O)(=O)[O-])c5F)c5ccc2[nH]5)C=C4)C=C3)cc1)CC(=O)N1C[C@H](C)[C@@H](C)C1
REMARK SMILES IDX 7 1 6 2 4 3 5 4 3 5 2 6 1 7 75 8 76 9 77 10 78 11 79 12
REMARK SMILES IDX 84 13 80 14 82 15 81 16 83 17 8 18 9 19 10 20 11 21 12 22
REMARK SMILES IDX 13 23 74 24 14 25 73 26 15 27 16 28 17 29 67 30 18 31 72 32
REMARK SMILES IDX 66 33 68 34 19 35 71 36 65 37 64 38 20 40 52 41 32 42 51 43
REMARK SMILES IDX 33 44 36 45 50 46 69 47 34 48 35 49 49 51 70 52 37 53 21 54
REMARK SMILES IDX 22 55 30 56 23 57 25 58 31 59 24 60 26 61 27 62 28 63 29 64
REMARK SMILES IDX 53 65 54 66 62 67 55 68 57 69 63 70 56 71 58 72 59 73 60 74
REMARK SMILES IDX 61 75 38 76 39 77 47 78 40 79 42 80 48 81 41 82 43 83 44 84
REMARK SMILES IDX 45 85 46 86
REMARK H PARENT 68 39 36 50
REMARK Flexibility Score: inf
ROOT
ATOM      1  C   UNL A   1      34.563  21.073  25.790  1.00  0.00     0.274 C 
ENDROOT
BRANCH   1   2
ATOM      2  O   UNL A   1      33.576  20.233  25.160  1.00  0.00    -0.462 OA
BRANCH   2   3
ATOM      3  C   UNL A   1      32.811  20.792  24.191  1.00  0.00     0.306 C 
ATOM      4  O   UNL A   1      32.156  20.162  23.370  1.00  0.00    -0.252 OA
BRANCH   3   5
ATOM      5  C   UNL A   1      32.784  22.314  24.240  1.00  0.00     0.126 C 
BRANCH   5   6
ATOM      6  C   UNL A   1      32.018  23.084  23.143  1.00  0.00     0.006 C 
ATOM      7  C   UNL A   1      33.008  23.935  22.345  1.00  0.00     0.009 C 
BRANCH   6   8
ATOM      8  C   UNL A   1      30.838  23.871  23.735  1.00  0.00     0.104 C 
BRANCH   8   9
ATOM      9  C   UNL A   1      31.035  24.558  25.077  1.00  0.00     0.222 C 
ATOM     10  O   UNL A   1      30.614  24.064  26.121  1.00  0.00    -0.275 OA
ATOM     11  N   UNL A   1      31.839  25.679  25.055  1.00  0.00    -0.342 N 
ATOM     12  C   UNL A   1      32.763  25.986  26.126  1.00  0.00     0.123 C 
ATOM     13  C   UNL A   1      31.559  26.837  24.237  1.00  0.00     0.123 C 
ATOM     14  C   UNL A   1      32.777  27.510  26.220  1.00  0.00     0.010 C 
ATOM     15  C   UNL A   1      32.416  27.973  24.794  1.00  0.00     0.010 C 
ATOM     16  C   UNL A   1      31.753  27.983  27.251  1.00  0.00     0.010 C 
ATOM     17  C   UNL A   1      33.645  28.203  23.917  1.00  0.00     0.010 C 
ENDBRANCH   8   9
ENDBRANCH   6   8
ENDBRANCH   5   6
ENDBRANCH   3   5
ENDBRANCH   2   3
ENDBRANCH   1   2
BRANCH   1  18
ATOM     18  C   UNL A   1      35.949  20.759  25.232  1.00  0.00     0.275 C 
BRANCH  18  19
ATOM     19  O   UNL A   1      36.893  21.711  25.743  1.00  0.00    -0.458 OA
BRANCH  19  20
ATOM     20  C   UNL A   1      38.184  21.309  25.751  1.00  0.00     0.338 C 
ATOM     21  O   UNL A   1      38.626  20.219  25.438  1.00  0.00    -0.246 OA
BRANCH  20  22
ATOM     22  C   UNL A   1      39.023  22.427  26.204  1.00  0.00     0.060 A 
ATOM     23  C   UNL A   1      40.191  22.174  26.928  1.00  0.00     0.016 A 
ATOM     24  C   UNL A   1      38.604  23.732  25.962  1.00  0.00     0.016 A 
ATOM     25  C   UNL A   1      40.923  23.233  27.460  1.00  0.00     0.010 A 
ATOM     26  C   UNL A   1      39.377  24.792  26.436  1.00  0.00     0.010 A 
ATOM     27  C   UNL A   1      40.529  24.552  27.205  1.00  0.00    -0.014 A 
BRANCH  27  28
ATOM     28  C   UNL A   1      41.308  25.704  27.720  1.00  0.00     0.031 A 
ATOM     29  C   UNL A   1      40.610  26.776  28.508  1.00  0.00     0.074 A 
ATOM     30  C   UNL A   1      42.606  25.832  27.390  1.00  0.00     0.049 A 
ATOM     31  N   UNL A   1      41.024  27.974  28.819  1.00  0.00    -0.248 NA
ATOM     32  C   UNL A   1      39.255  26.461  28.993  1.00  0.00     0.031 C 
ATOM     33  C   UNL A   1      43.390  24.848  26.640  1.00  0.00     0.029 A 
ATOM     34  N   UNL A   1      43.484  26.867  27.600  1.00  0.00    -0.354 N 
ATOM     35  C   UNL A   1      39.963  28.581  29.478  1.00  0.00     0.074 A 
ATOM     36  C   UNL A   1      38.889  27.614  29.535  1.00  0.00     0.031 C 
ATOM     37  C   UNL A   1      44.620  25.338  26.425  1.00  0.00     0.029 A 
ATOM     38  C   UNL A   1      44.692  26.691  26.965  1.00  0.00     0.049 A 
ATOM     39  H   UNL A   1      43.271  27.655  28.149  1.00  0.00     0.167 HD
ATOM     40  C   UNL A   1      39.897  29.833  29.989  1.00  0.00     0.034 A 
ATOM     41  C   UNL A   1      45.721  27.543  26.789  1.00  0.00     0.034 A 
ATOM     42  C   UNL A   1      40.992  30.764  29.971  1.00  0.00     0.049 A 
ATOM     43  C   UNL A   1      45.622  28.926  27.368  1.00  0.00     0.074 A 
ATOM     44  C   UNL A   1      41.049  32.040  30.503  1.00  0.00     0.029 A 
ATOM     45  N   UNL A   1      42.229  30.515  29.393  1.00  0.00    -0.354 N 
ATOM     46  N   UNL A   1      44.640  29.466  28.048  1.00  0.00    -0.248 NA
ATOM     47  C   UNL A   1      46.778  29.814  27.172  1.00  0.00     0.031 C 
ATOM     48  C   UNL A   1      42.318  32.565  30.242  1.00  0.00     0.029 A 
ATOM     49  C   UNL A   1      43.056  31.612  29.556  1.00  0.00     0.049 A 
ATOM     50  H   UNL A   1      42.482  29.680  28.937  1.00  0.00     0.167 HD
ATOM     51  C   UNL A   1      45.068  30.743  28.390  1.00  0.00     0.074 A 
ATOM     52  C   UNL A   1      46.405  30.892  27.852  1.00  0.00     0.031 C 
ATOM     53  C   UNL A   1      44.408  31.711  29.070  1.00  0.00     0.034 A 
BRANCH  40  54
ATOM     54  C   UNL A   1      38.609  30.262  30.640  1.00  0.00     0.023 A 
ATOM     55  C   UNL A   1      38.397  29.992  32.007  1.00  0.00     0.012 A 
ATOM     56  C   UNL A   1      37.638  30.983  29.918  1.00  0.00     0.148 A 
ATOM     57  C   UNL A   1      37.227  30.414  32.639  1.00  0.00     0.002 A 
ATOM     58  C   UNL A   1      36.491  31.431  30.564  1.00  0.00     0.091 A 
ATOM     59  F   UNL A   1      37.844  31.206  28.612  1.00  0.00    -0.205 F 
ATOM     60  C   UNL A   1      36.280  31.141  31.923  1.00  0.00     0.022 A 
BRANCH  58  61
ATOM     61  S   UNL A   1      35.250  32.436  29.739  1.00  0.00     0.127 S 
ATOM     62  O   UNL A   1      34.323  32.720  30.833  1.00  0.00    -0.237 OA
ATOM     63  O   UNL A   1      36.031  33.589  29.288  1.00  0.00    -0.237 OA
ATOM     64  O   UNL A   1      34.720  31.610  28.663  1.00  0.00    -0.744 OA
ENDBRANCH  58  61
ENDBRANCH  40  54
BRANCH  41  65
ATOM     65  C   UNL A   1      46.934  27.091  26.052  1.00  0.00     0.023 A 
ATOM     66  C   UNL A   1      47.023  27.329  24.667  1.00  0.00     0.012 A 
ATOM     67  C   UNL A   1      48.020  26.487  26.717  1.00  0.00     0.148 A 
ATOM     68  C   UNL A   1      48.167  26.962  23.956  1.00  0.00     0.002 A 
ATOM     69  C   UNL A   1      49.177  26.175  26.012  1.00  0.00     0.091 A 
ATOM     70  F   UNL A   1      47.908  26.248  28.031  1.00  0.00    -0.205 F 
ATOM     71  C   UNL A   1      49.248  26.400  24.629  1.00  0.00     0.022 A 
BRANCH  69  72
ATOM     72  S   UNL A   1      50.663  25.580  26.831  1.00  0.00     0.127 S 
ATOM     73  O   UNL A   1      51.056  26.744  27.620  1.00  0.00    -0.237 OA
ATOM     74  O   UNL A   1      50.154  24.450  27.610  1.00  0.00    -0.237 OA
ATOM     75  O   UNL A   1      51.571  25.201  25.756  1.00  0.00    -0.744 OA
ENDBRANCH  69  72
ENDBRANCH  41  65
BRANCH  53  76
ATOM     76  C   UNL A   1      45.129  33.008  29.314  1.00  0.00     0.023 A 
ATOM     77  C   UNL A   1      45.950  33.144  30.450  1.00  0.00     0.012 A 
ATOM     78  C   UNL A   1      45.072  34.048  28.367  1.00  0.00     0.148 A 
ATOM     79  C   UNL A   1      46.693  34.306  30.649  1.00  0.00     0.002 A 
ATOM     80  C   UNL A   1      45.847  35.187  28.550  1.00  0.00     0.091 A 
ATOM     81  F   UNL A   1      44.269  33.902  27.303  1.00  0.00    -0.205 F 
ATOM     82  C   UNL A   1      46.652  35.321  29.693  1.00  0.00     0.022 A 
BRANCH  80  83
ATOM     83  S   UNL A   1      45.925  36.504  27.332  1.00  0.00     0.127 S 
ATOM     84  O   UNL A   1      46.388  35.786  26.145  1.00  0.00    -0.237 OA
ATOM     85  O   UNL A   1      44.533  36.953  27.269  1.00  0.00    -0.237 OA
ATOM     86  O   UNL A   1      46.853  37.491  27.867  1.00  0.00    -0.744 OA
ENDBRANCH  80  83
ENDBRANCH  53  76
ENDBRANCH  27  28
ENDBRANCH  20  22
ENDBRANCH  19  20
ENDBRANCH  18  19
ENDBRANCH   1  18
TORSDOF 17
ENDMDL
