MODEL 1
REMARK VINA RESULT:     -11.5      0.000      0.000
REMARK SMILES O=C(OCCOC(=O)c1c(C(F)(F)F)nn(-c2ccccc2)c1C(F)(F)Cl)c1ccc(-c2c3nc(c(-c4cccc(S(=O)(=O)[O-])c4F)c4ccc([nH]4)c(-c4cccc(S(=O)(=O)[O-])c4F)c4nc(c(-c5cccc(S(=O)(=O)[O-])c5F)c5ccc2[nH]5)C=C4)C=C3)cc1
REMARK SMILES IDX 4 1 3 2 2 3 1 4 28 5 29 6 90 7 30 8 89 9 31 10 32 11 33 12
REMARK SMILES IDX 83 13 34 14 88 15 82 16 84 17 35 18 87 19 81 20 80 21 36 23
REMARK SMILES IDX 68 24 48 25 67 26 49 27 52 28 66 29 85 30 50 31 51 32 65 34
REMARK SMILES IDX 86 35 53 36 37 37 38 38 46 39 39 40 41 41 47 42 40 43 42 44
REMARK SMILES IDX 43 45 44 46 45 47 69 48 70 49 78 50 71 51 73 52 79 53 72 54
REMARK SMILES IDX 74 55 75 56 76 57 77 58 54 59 55 60 63 61 56 62 58 63 64 64
REMARK SMILES IDX 57 65 59 66 60 67 61 68 62 69 5 70 6 71 7 72 8 73 9 74 10 75
REMARK SMILES IDX 23 76 15 77 16 78 11 79 12 80 13 81 14 82 24 83 25 84 26 85
REMARK SMILES IDX 27 86 17 87 18 88 22 89 19 90 21 91 20 92
REMARK H PARENT 84 22 52 33
REMARK Flexibility Score: inf
ROOT
ATOM      1  C   UNL A   1      34.413  34.139  28.100  1.00  0.00     0.275 C 
ENDROOT
BRANCH   1   2
ATOM      2  O   UNL A   1      35.521  33.238  27.935  1.00  0.00    -0.458 OA
BRANCH   2   3
ATOM      3  C   UNL A   1      35.278  31.913  27.864  1.00  0.00     0.338 C 
ATOM      4  O   UNL A   1      34.204  31.397  27.599  1.00  0.00    -0.246 OA
BRANCH   3   5
ATOM      5  C   UNL A   1      36.506  31.187  28.255  1.00  0.00     0.060 A 
ATOM      6  C   UNL A   1      36.652  29.821  27.966  1.00  0.00     0.016 A 
ATOM      7  C   UNL A   1      37.558  31.894  28.844  1.00  0.00     0.016 A 
ATOM      8  C   UNL A   1      37.822  29.159  28.300  1.00  0.00     0.010 A 
ATOM      9  C   UNL A   1      38.739  31.230  29.165  1.00  0.00     0.010 A 
ATOM     10  C   UNL A   1      38.861  29.857  28.920  1.00  0.00    -0.014 A 
BRANCH  10  11
ATOM     11  C   UNL A   1      40.036  29.084  29.315  1.00  0.00     0.031 A 
ATOM     12  C   UNL A   1      40.326  28.905  30.767  1.00  0.00     0.074 A 
ATOM     13  C   UNL A   1      40.819  28.441  28.426  1.00  0.00     0.049 A 
ATOM     14  N   UNL A   1      41.402  29.236  31.409  1.00  0.00    -0.248 NA
ATOM     15  C   UNL A   1      39.299  28.267  31.599  1.00  0.00     0.031 C 
ATOM     16  C   UNL A   1      40.538  28.211  27.008  1.00  0.00     0.029 A 
ATOM     17  N   UNL A   1      41.965  27.729  28.649  1.00  0.00    -0.354 N 
ATOM     18  C   UNL A   1      41.282  28.659  32.674  1.00  0.00     0.074 A 
ATOM     19  C   UNL A   1      39.931  28.166  32.770  1.00  0.00     0.031 C 
ATOM     20  C   UNL A   1      41.331  27.213  26.567  1.00  0.00     0.029 A 
ATOM     21  C   UNL A   1      42.260  26.848  27.623  1.00  0.00     0.049 A 
ATOM     22  H   UNL A   1      42.521  27.833  29.455  1.00  0.00     0.167 HD
ATOM     23  C   UNL A   1      42.351  28.453  33.491  1.00  0.00     0.034 A 
ATOM     24  C   UNL A   1      43.155  25.838  27.644  1.00  0.00     0.034 A 
ATOM     25  C   UNL A   1      43.517  29.198  33.102  1.00  0.00     0.049 A 
ATOM     26  C   UNL A   1      44.149  26.099  28.706  1.00  0.00     0.074 A 
ATOM     27  C   UNL A   1      43.843  30.525  32.925  1.00  0.00     0.029 A 
ATOM     28  N   UNL A   1      44.576  28.481  32.610  1.00  0.00    -0.354 N 
ATOM     29  N   UNL A   1      45.059  27.033  28.655  1.00  0.00    -0.248 NA
ATOM     30  C   UNL A   1      44.009  25.436  29.994  1.00  0.00     0.031 C 
ATOM     31  C   UNL A   1      44.908  30.536  31.975  1.00  0.00     0.029 A 
ATOM     32  C   UNL A   1      45.141  29.212  31.601  1.00  0.00     0.049 A 
ATOM     33  H   UNL A   1      44.878  27.599  32.928  1.00  0.00     0.167 HD
ATOM     34  C   UNL A   1      45.310  27.351  29.980  1.00  0.00     0.074 A 
ATOM     35  C   UNL A   1      44.792  26.219  30.737  1.00  0.00     0.031 C 
ATOM     36  C   UNL A   1      45.617  28.629  30.360  1.00  0.00     0.034 A 
BRANCH  23  37
ATOM     37  C   UNL A   1      42.464  27.337  34.507  1.00  0.00     0.023 A 
ATOM     38  C   UNL A   1      42.116  27.627  35.848  1.00  0.00     0.012 A 
ATOM     39  C   UNL A   1      43.144  26.122  34.273  1.00  0.00     0.148 A 
ATOM     40  C   UNL A   1      42.460  26.773  36.902  1.00  0.00     0.002 A 
ATOM     41  C   UNL A   1      43.409  25.237  35.317  1.00  0.00     0.091 A 
ATOM     42  F   UNL A   1      43.656  25.863  33.063  1.00  0.00    -0.205 F 
ATOM     43  C   UNL A   1      43.096  25.569  36.636  1.00  0.00     0.022 A 
BRANCH  41  44
ATOM     44  S   UNL A   1      44.142  23.635  34.971  1.00  0.00     0.127 S 
ATOM     45  O   UNL A   1      43.069  22.964  34.247  1.00  0.00    -0.237 OA
ATOM     46  O   UNL A   1      45.309  23.986  34.160  1.00  0.00    -0.237 OA
ATOM     47  O   UNL A   1      44.475  23.113  36.292  1.00  0.00    -0.744 OA
ENDBRANCH  41  44
ENDBRANCH  23  37
BRANCH  24  48
ATOM     48  C   UNL A   1      43.156  24.599  26.843  1.00  0.00     0.023 A 
ATOM     49  C   UNL A   1      44.260  24.292  26.029  1.00  0.00     0.012 A 
ATOM     50  C   UNL A   1      42.156  23.613  27.014  1.00  0.00     0.148 A 
ATOM     51  C   UNL A   1      44.368  23.045  25.404  1.00  0.00     0.002 A 
ATOM     52  C   UNL A   1      42.254  22.386  26.366  1.00  0.00     0.091 A 
ATOM     53  F   UNL A   1      41.154  23.843  27.874  1.00  0.00    -0.205 F 
ATOM     54  C   UNL A   1      43.363  22.094  25.568  1.00  0.00     0.022 A 
BRANCH  52  55
ATOM     55  S   UNL A   1      40.955  21.151  26.513  1.00  0.00     0.127 S 
ATOM     56  O   UNL A   1      39.807  21.827  25.907  1.00  0.00    -0.237 OA
ATOM     57  O   UNL A   1      41.492  20.043  25.730  1.00  0.00    -0.237 OA
ATOM     58  O   UNL A   1      40.813  20.920  27.946  1.00  0.00    -0.744 OA
ENDBRANCH  52  55
ENDBRANCH  24  48
BRANCH  36  59
ATOM     59  C   UNL A   1      46.102  29.600  29.311  1.00  0.00     0.023 A 
ATOM     60  C   UNL A   1      47.456  29.647  28.925  1.00  0.00     0.012 A 
ATOM     61  C   UNL A   1      45.164  30.349  28.574  1.00  0.00     0.148 A 
ATOM     62  C   UNL A   1      47.875  30.451  27.862  1.00  0.00     0.002 A 
ATOM     63  C   UNL A   1      45.579  31.110  27.482  1.00  0.00     0.091 A 
ATOM     64  F   UNL A   1      43.871  30.293  28.931  1.00  0.00    -0.205 F 
ATOM     65  C   UNL A   1      46.935  31.172  27.132  1.00  0.00     0.022 A 
BRANCH  63  66
ATOM     66  S   UNL A   1      44.384  31.931  26.421  1.00  0.00     0.127 S 
ATOM     67  O   UNL A   1      43.432  30.861  26.135  1.00  0.00    -0.237 OA
ATOM     68  O   UNL A   1      43.861  32.997  27.279  1.00  0.00    -0.237 OA
ATOM     69  O   UNL A   1      45.157  32.421  25.286  1.00  0.00    -0.744 OA
ENDBRANCH  63  66
ENDBRANCH  36  59
ENDBRANCH  10  11
ENDBRANCH   3   5
ENDBRANCH   2   3
ENDBRANCH   1   2
BRANCH   1  70
ATOM     70  C   UNL A   1      34.191  34.741  29.488  1.00  0.00     0.275 C 
BRANCH  70  71
ATOM     71  O   UNL A   1      35.260  34.366  30.378  1.00  0.00    -0.458 OA
BRANCH  71  72
ATOM     72  C   UNL A   1      34.902  33.442  31.312  1.00  0.00     0.342 C 
ATOM     73  O   UNL A   1      34.167  32.482  31.118  1.00  0.00    -0.246 OA
BRANCH  72  74
ATOM     74  C   UNL A   1      35.321  33.819  32.644  1.00  0.00     0.121 A 
ATOM     75  C   UNL A   1      34.913  34.929  33.430  1.00  0.00     0.181 A 
ATOM     76  C   UNL A   1      36.315  33.189  33.385  1.00  0.00     0.145 A 
ATOM     77  N   UNL A   1      35.536  34.908  34.625  1.00  0.00    -0.162 NA
ATOM     78  N   UNL A   1      36.512  33.985  34.492  1.00  0.00    -0.229 N 
BRANCH  75  79
ATOM     79  C   UNL A   1      33.969  36.036  33.035  1.00  0.00     0.436 C 
ATOM     80  F   UNL A   1      34.456  36.815  32.040  1.00  0.00    -0.164 F 
ATOM     81  F   UNL A   1      32.771  35.548  32.619  1.00  0.00    -0.164 F 
ATOM     82  F   UNL A   1      33.699  36.856  34.085  1.00  0.00    -0.164 F 
ENDBRANCH  75  79
BRANCH  76  83
ATOM     83  C   UNL A   1      37.126  31.971  33.158  1.00  0.00     0.365 C 
ATOM     84  F   UNL A   1      37.251  31.269  34.315  1.00  0.00    -0.181 F 
ATOM     85  F   UNL A   1      36.542  31.128  32.266  1.00  0.00    -0.181 F 
ATOM     86  Cl  UNL A   1      38.755  32.310  32.537  1.00  0.00    -0.040 Cl
ENDBRANCH  76  83
BRANCH  78  87
ATOM     87  C   UNL A   1      37.618  34.010  35.373  1.00  0.00     0.065 A 
ATOM     88  C   UNL A   1      38.791  34.662  34.985  1.00  0.00     0.028 A 
ATOM     89  C   UNL A   1      37.531  33.382  36.623  1.00  0.00     0.028 A 
ATOM     90  C   UNL A   1      39.847  34.758  35.893  1.00  0.00     0.002 A 
ATOM     91  C   UNL A   1      38.605  33.454  37.509  1.00  0.00     0.002 A 
ATOM     92  C   UNL A   1      39.752  34.160  37.152  1.00  0.00     0.000 A 
ENDBRANCH  78  87
ENDBRANCH  72  74
ENDBRANCH  71  72
ENDBRANCH  70  71
ENDBRANCH   1  70
TORSDOF 17
ENDMDL
MODEL 2
REMARK VINA RESULT:     -11.3      1.688      2.138
REMARK SMILES O=C(OCCOC(=O)c1c(C(F)(F)F)nn(-c2ccccc2)c1C(F)(F)Cl)c1ccc(-c2c3nc(c(-c4cccc(S(=O)(=O)[O-])c4F)c4ccc([nH]4)c(-c4cccc(S(=O)(=O)[O-])c4F)c4nc(c(-c5cccc(S(=O)(=O)[O-])c5F)c5ccc2[nH]5)C=C4)C=C3)cc1
REMARK SMILES IDX 4 1 3 2 2 3 1 4 28 5 29 6 90 7 30 8 89 9 31 10 32 11 33 12
REMARK SMILES IDX 83 13 34 14 88 15 82 16 84 17 35 18 87 19 81 20 80 21 36 23
REMARK SMILES IDX 68 24 48 25 67 26 49 27 52 28 66 29 85 30 50 31 51 32 65 34
REMARK SMILES IDX 86 35 53 36 37 37 38 38 46 39 39 40 41 41 47 42 40 43 42 44
REMARK SMILES IDX 43 45 44 46 45 47 69 48 70 49 78 50 71 51 73 52 79 53 72 54
REMARK SMILES IDX 74 55 75 56 76 57 77 58 54 59 55 60 63 61 56 62 58 63 64 64
REMARK SMILES IDX 57 65 59 66 60 67 61 68 62 69 5 70 6 71 7 72 8 73 9 74 10 75
REMARK SMILES IDX 23 76 15 77 16 78 11 79 12 80 13 81 14 82 24 83 25 84 26 85
REMARK SMILES IDX 27 86 17 87 18 88 22 89 19 90 21 91 20 92
REMARK H PARENT 84 22 52 33
REMARK Flexibility Score: inf
ROOT
ATOM      1  C   UNL A   1      34.250  34.157  28.217  1.00  0.00     0.275 C 
ENDROOT
BRANCH   1   2
ATOM      2  O   UNL A   1      35.301  33.212  27.952  1.00  0.00    -0.458 OA
BRANCH   2   3
ATOM      3  C   UNL A   1      35.021  31.893  28.012  1.00  0.00     0.338 C 
ATOM      4  O   UNL A   1      33.919  31.390  27.860  1.00  0.00    -0.246 OA
BRANCH   3   5
ATOM      5  C   UNL A   1      36.254  31.166  28.388  1.00  0.00     0.060 A 
ATOM      6  C   UNL A   1      37.407  31.867  28.773  1.00  0.00     0.016 A 
ATOM      7  C   UNL A   1      36.233  29.770  28.434  1.00  0.00     0.016 A 
ATOM      8  C   UNL A   1      38.544  31.177  29.162  1.00  0.00     0.010 A 
ATOM      9  C   UNL A   1      37.372  29.079  28.840  1.00  0.00     0.010 A 
ATOM     10  C   UNL A   1      38.537  29.781  29.177  1.00  0.00    -0.014 A 
BRANCH  10  11
ATOM     11  C   UNL A   1      39.790  29.114  29.522  1.00  0.00     0.031 A 
ATOM     12  C   UNL A   1      40.257  29.146  30.937  1.00  0.00     0.074 A 
ATOM     13  C   UNL A   1      40.497  28.386  28.635  1.00  0.00     0.049 A 
ATOM     14  N   UNL A   1      41.382  29.604  31.393  1.00  0.00    -0.248 NA
ATOM     15  C   UNL A   1      39.371  28.590  31.966  1.00  0.00     0.031 C 
ATOM     16  C   UNL A   1      40.065  27.953  27.305  1.00  0.00     0.029 A 
ATOM     17  N   UNL A   1      41.698  27.755  28.807  1.00  0.00    -0.354 N 
ATOM     18  C   UNL A   1      41.442  29.201  32.728  1.00  0.00     0.074 A 
ATOM     19  C   UNL A   1      40.140  28.674  33.053  1.00  0.00     0.031 C 
ATOM     20  C   UNL A   1      40.854  26.936  26.904  1.00  0.00     0.029 A 
ATOM     21  C   UNL A   1      41.918  26.754  27.877  1.00  0.00     0.049 A 
ATOM     22  H   UNL A   1      42.339  27.989  29.517  1.00  0.00     0.167 HD
ATOM     23  C   UNL A   1      42.608  29.148  33.427  1.00  0.00     0.034 A 
ATOM     24  C   UNL A   1      42.863  25.791  27.920  1.00  0.00     0.034 A 
ATOM     25  C   UNL A   1      43.678  29.877  32.802  1.00  0.00     0.049 A 
ATOM     26  C   UNL A   1      43.959  26.232  28.808  1.00  0.00     0.074 A 
ATOM     27  C   UNL A   1      43.910  31.179  32.415  1.00  0.00     0.029 A 
ATOM     28  N   UNL A   1      44.710  29.140  32.282  1.00  0.00    -0.354 N 
ATOM     29  N   UNL A   1      44.805  27.185  28.522  1.00  0.00    -0.248 NA
ATOM     30  C   UNL A   1      44.007  25.747  30.179  1.00  0.00     0.031 C 
ATOM     31  C   UNL A   1      44.854  31.100  31.347  1.00  0.00     0.029 A 
ATOM     32  C   UNL A   1      45.113  29.747  31.124  1.00  0.00     0.049 A 
ATOM     33  H   UNL A   1      45.095  28.322  32.673  1.00  0.00     0.167 HD
ATOM     34  C   UNL A   1      45.192  27.690  29.753  1.00  0.00     0.074 A 
ATOM     35  C   UNL A   1      44.827  26.653  30.710  1.00  0.00     0.031 C 
ATOM     36  C   UNL A   1      45.471  29.018  29.921  1.00  0.00     0.034 A 
BRANCH  23  37
ATOM     37  C   UNL A   1      42.900  28.187  34.559  1.00  0.00     0.023 A 
ATOM     38  C   UNL A   1      43.293  28.733  35.804  1.00  0.00     0.012 A 
ATOM     39  C   UNL A   1      43.074  26.797  34.389  1.00  0.00     0.148 A 
ATOM     40  C   UNL A   1      43.864  27.945  36.809  1.00  0.00     0.002 A 
ATOM     41  C   UNL A   1      43.564  26.004  35.425  1.00  0.00     0.091 A 
ATOM     42  F   UNL A   1      42.887  26.240  33.185  1.00  0.00    -0.205 F 
ATOM     43  C   UNL A   1      43.988  26.575  36.627  1.00  0.00     0.022 A 
BRANCH  41  44
ATOM     44  S   UNL A   1      43.636  24.220  35.234  1.00  0.00     0.127 S 
ATOM     45  O   UNL A   1      42.222  23.866  35.191  1.00  0.00    -0.237 OA
ATOM     46  O   UNL A   1      44.351  24.064  33.967  1.00  0.00    -0.237 OA
ATOM     47  O   UNL A   1      44.393  23.776  36.399  1.00  0.00    -0.744 OA
ENDBRANCH  41  44
ENDBRANCH  23  37
BRANCH  24  48
ATOM     48  C   UNL A   1      42.837  24.455  27.294  1.00  0.00     0.023 A 
ATOM     49  C   UNL A   1      41.683  23.658  27.393  1.00  0.00     0.012 A 
ATOM     50  C   UNL A   1      43.876  24.026  26.434  1.00  0.00     0.148 A 
ATOM     51  C   UNL A   1      41.564  22.472  26.660  1.00  0.00     0.002 A 
ATOM     52  C   UNL A   1      43.765  22.831  25.732  1.00  0.00     0.091 A 
ATOM     53  F   UNL A   1      44.934  24.826  26.240  1.00  0.00    -0.205 F 
ATOM     54  C   UNL A   1      42.606  22.055  25.834  1.00  0.00     0.022 A 
BRANCH  52  55
ATOM     55  S   UNL A   1      45.106  22.234  24.694  1.00  0.00     0.127 S 
ATOM     56  O   UNL A   1      45.323  23.358  23.781  1.00  0.00    -0.237 OA
ATOM     57  O   UNL A   1      46.176  22.020  25.663  1.00  0.00    -0.237 OA
ATOM     58  O   UNL A   1      44.577  21.041  24.042  1.00  0.00    -0.744 OA
ENDBRANCH  52  55
ENDBRANCH  24  48
BRANCH  36  59
ATOM     59  C   UNL A   1      45.777  29.854  28.702  1.00  0.00     0.023 A 
ATOM     60  C   UNL A   1      44.749  30.434  27.932  1.00  0.00     0.012 A 
ATOM     61  C   UNL A   1      47.111  30.213  28.425  1.00  0.00     0.148 A 
ATOM     62  C   UNL A   1      45.040  31.314  26.888  1.00  0.00     0.002 A 
ATOM     63  C   UNL A   1      47.393  31.131  27.415  1.00  0.00     0.091 A 
ATOM     64  F   UNL A   1      48.090  29.673  29.168  1.00  0.00    -0.205 F 
ATOM     65  C   UNL A   1      46.360  31.673  26.637  1.00  0.00     0.022 A 
BRANCH  63  66
ATOM     66  S   UNL A   1      49.065  31.738  27.160  1.00  0.00     0.127 S 
ATOM     67  O   UNL A   1      49.465  32.132  28.509  1.00  0.00    -0.237 OA
ATOM     68  O   UNL A   1      49.765  30.562  26.637  1.00  0.00    -0.237 OA
ATOM     69  O   UNL A   1      48.933  32.818  26.190  1.00  0.00    -0.744 OA
ENDBRANCH  63  66
ENDBRANCH  36  59
ENDBRANCH  10  11
ENDBRANCH   3   5
ENDBRANCH   2   3
ENDBRANCH   1   2
BRANCH   1  70
ATOM     70  C   UNL A   1      34.093  34.654  29.655  1.00  0.00     0.275 C 
BRANCH  70  71
ATOM     71  O   UNL A   1      35.194  34.207  30.468  1.00  0.00    -0.458 OA
BRANCH  71  72
ATOM     72  C   UNL A   1      34.837  33.331  31.448  1.00  0.00     0.342 C 
ATOM     73  O   UNL A   1      34.056  32.398  31.317  1.00  0.00    -0.246 OA
BRANCH  72  74
ATOM     74  C   UNL A   1      35.326  33.735  32.748  1.00  0.00     0.121 A 
ATOM     75  C   UNL A   1      34.977  34.873  33.522  1.00  0.00     0.181 A 
ATOM     76  C   UNL A   1      36.343  33.106  33.458  1.00  0.00     0.145 A 
ATOM     77  N   UNL A   1      35.656  34.872  34.685  1.00  0.00    -0.162 NA
ATOM     78  N   UNL A   1      36.608  33.927  34.532  1.00  0.00    -0.229 N 
BRANCH  75  79
ATOM     79  C   UNL A   1      34.035  35.988  33.142  1.00  0.00     0.436 C 
ATOM     80  F   UNL A   1      33.774  36.831  34.169  1.00  0.00    -0.164 F 
ATOM     81  F   UNL A   1      34.530  36.734  32.119  1.00  0.00    -0.164 F 
ATOM     82  F   UNL A   1      32.840  35.504  32.713  1.00  0.00    -0.164 F 
ENDBRANCH  75  79
BRANCH  76  83
ATOM     83  C   UNL A   1      37.120  31.867  33.226  1.00  0.00     0.365 C 
ATOM     84  F   UNL A   1      37.417  31.271  34.411  1.00  0.00    -0.181 F 
ATOM     85  F   UNL A   1      36.419  30.951  32.507  1.00  0.00    -0.181 F 
ATOM     86  Cl  UNL A   1      38.640  32.137  32.347  1.00  0.00    -0.040 Cl
ENDBRANCH  76  83
BRANCH  78  87
ATOM     87  C   UNL A   1      37.755  33.954  35.359  1.00  0.00     0.065 A 
ATOM     88  C   UNL A   1      37.678  33.444  36.657  1.00  0.00     0.028 A 
ATOM     89  C   UNL A   1      38.954  34.491  34.873  1.00  0.00     0.028 A 
ATOM     90  C   UNL A   1      38.834  33.393  37.437  1.00  0.00     0.002 A 
ATOM     91  C   UNL A   1      40.096  34.468  35.673  1.00  0.00     0.002 A 
ATOM     92  C   UNL A   1      40.040  33.899  36.945  1.00  0.00     0.000 A 
ENDBRANCH  78  87
ENDBRANCH  72  74
ENDBRANCH  71  72
ENDBRANCH  70  71
ENDBRANCH   1  70
TORSDOF 17
ENDMDL
MODEL 3
REMARK VINA RESULT:     -11.2      4.376      6.764
REMARK SMILES O=C(OCCOC(=O)c1c(C(F)(F)F)nn(-c2ccccc2)c1C(F)(F)Cl)c1ccc(-c2c3nc(c(-c4cccc(S(=O)(=O)[O-])c4F)c4ccc([nH]4)c(-c4cccc(S(=O)(=O)[O-])c4F)c4nc(c(-c5cccc(S(=O)(=O)[O-])c5F)c5ccc2[nH]5)C=C4)C=C3)cc1
REMARK SMILES IDX 4 1 3 2 2 3 1 4 28 5 29 6 90 7 30 8 89 9 31 10 32 11 33 12
REMARK SMILES IDX 83 13 34 14 88 15 82 16 84 17 35 18 87 19 81 20 80 21 36 23
REMARK SMILES IDX 68 24 48 25 67 26 49 27 52 28 66 29 85 30 50 31 51 32 65 34
REMARK SMILES IDX 86 35 53 36 37 37 38 38 46 39 39 40 41 41 47 42 40 43 42 44
REMARK SMILES IDX 43 45 44 46 45 47 69 48 70 49 78 50 71 51 73 52 79 53 72 54
REMARK SMILES IDX 74 55 75 56 76 57 77 58 54 59 55 60 63 61 56 62 58 63 64 64
REMARK SMILES IDX 57 65 59 66 60 67 61 68 62 69 5 70 6 71 7 72 8 73 9 74 10 75
REMARK SMILES IDX 23 76 15 77 16 78 11 79 12 80 13 81 14 82 24 83 25 84 26 85
REMARK SMILES IDX 27 86 17 87 18 88 22 89 19 90 21 91 20 92
REMARK H PARENT 84 22 52 33
REMARK Flexibility Score: inf
ROOT
ATOM      1  C   UNL A   1      33.434  31.383  27.576  1.00  0.00     0.275 C 
ENDROOT
BRANCH   1   2
ATOM      2  O   UNL A   1      34.456  31.621  28.558  1.00  0.00    -0.458 OA
BRANCH   2   3
ATOM      3  C   UNL A   1      35.586  32.256  28.183  1.00  0.00     0.338 C 
ATOM      4  O   UNL A   1      35.643  33.324  27.595  1.00  0.00    -0.246 OA
BRANCH   3   5
ATOM      5  C   UNL A   1      36.743  31.396  28.516  1.00  0.00     0.060 A 
ATOM      6  C   UNL A   1      37.876  31.935  29.147  1.00  0.00     0.016 A 
ATOM      7  C   UNL A   1      36.664  30.022  28.271  1.00  0.00     0.016 A 
ATOM      8  C   UNL A   1      38.937  31.114  29.491  1.00  0.00     0.010 A 
ATOM      9  C   UNL A   1      37.726  29.197  28.632  1.00  0.00     0.010 A 
ATOM     10  C   UNL A   1      38.875  29.746  29.216  1.00  0.00    -0.014 A 
BRANCH  10  11
ATOM     11  C   UNL A   1      40.058  28.951  29.535  1.00  0.00     0.031 A 
ATOM     12  C   UNL A   1      40.420  28.738  30.965  1.00  0.00     0.074 A 
ATOM     13  C   UNL A   1      40.785  28.317  28.594  1.00  0.00     0.049 A 
ATOM     14  N   UNL A   1      41.533  29.043  31.557  1.00  0.00    -0.248 NA
ATOM     15  C   UNL A   1      39.429  28.097  31.837  1.00  0.00     0.031 C 
ATOM     16  C   UNL A   1      40.428  28.119  27.187  1.00  0.00     0.029 A 
ATOM     17  N   UNL A   1      41.931  27.586  28.743  1.00  0.00    -0.354 N 
ATOM     18  C   UNL A   1      41.470  28.442  32.815  1.00  0.00     0.074 A 
ATOM     19  C   UNL A   1      40.119  27.963  32.971  1.00  0.00     0.031 C 
ATOM     20  C   UNL A   1      41.184  27.121  26.686  1.00  0.00     0.029 A 
ATOM     21  C   UNL A   1      42.160  26.723  27.685  1.00  0.00     0.049 A 
ATOM     22  H   UNL A   1      42.530  27.666  29.520  1.00  0.00     0.167 HD
ATOM     23  C   UNL A   1      42.576  28.205  33.572  1.00  0.00     0.034 A 
ATOM     24  C   UNL A   1      43.042  25.701  27.640  1.00  0.00     0.034 A 
ATOM     25  C   UNL A   1      43.730  28.943  33.137  1.00  0.00     0.049 A 
ATOM     26  C   UNL A   1      44.093  25.927  28.654  1.00  0.00     0.074 A 
ATOM     27  C   UNL A   1      44.066  30.270  32.970  1.00  0.00     0.029 A 
ATOM     28  N   UNL A   1      44.753  28.223  32.577  1.00  0.00    -0.354 N 
ATOM     29  N   UNL A   1      45.011  26.851  28.574  1.00  0.00    -0.248 NA
ATOM     30  C   UNL A   1      44.010  25.240  29.934  1.00  0.00     0.031 C 
ATOM     31  C   UNL A   1      45.080  30.286  31.967  1.00  0.00     0.029 A 
ATOM     32  C   UNL A   1      45.275  28.967  31.554  1.00  0.00     0.049 A 
ATOM     33  H   UNL A   1      45.059  27.331  32.861  1.00  0.00     0.167 HD
ATOM     34  C   UNL A   1      45.335  27.138  29.891  1.00  0.00     0.074 A 
ATOM     35  C   UNL A   1      44.841  25.998  30.651  1.00  0.00     0.031 C 
ATOM     36  C   UNL A   1      45.678  28.404  30.279  1.00  0.00     0.034 A 
BRANCH  23  37
ATOM     37  C   UNL A   1      42.727  27.067  34.558  1.00  0.00     0.023 A 
ATOM     38  C   UNL A   1      42.414  27.323  35.914  1.00  0.00     0.012 A 
ATOM     39  C   UNL A   1      43.409  25.864  34.277  1.00  0.00     0.148 A 
ATOM     40  C   UNL A   1      42.794  26.449  36.938  1.00  0.00     0.002 A 
ATOM     41  C   UNL A   1      43.710  24.957  35.292  1.00  0.00     0.091 A 
ATOM     42  F   UNL A   1      43.889  25.637  33.048  1.00  0.00    -0.205 F 
ATOM     43  C   UNL A   1      43.431  25.256  36.627  1.00  0.00     0.022 A 
BRANCH  41  44
ATOM     44  S   UNL A   1      44.445  23.369  34.889  1.00  0.00     0.127 S 
ATOM     45  O   UNL A   1      44.620  22.776  36.209  1.00  0.00    -0.237 OA
ATOM     46  O   UNL A   1      43.415  22.741  34.061  1.00  0.00    -0.237 OA
ATOM     47  O   UNL A   1      45.656  23.724  34.158  1.00  0.00    -0.744 OA
ENDBRANCH  41  44
ENDBRANCH  23  37
BRANCH  24  48
ATOM     48  C   UNL A   1      42.984  24.478  26.815  1.00  0.00     0.023 A 
ATOM     49  C   UNL A   1      44.008  24.210  25.889  1.00  0.00     0.012 A 
ATOM     50  C   UNL A   1      42.024  23.470  27.062  1.00  0.00     0.148 A 
ATOM     51  C   UNL A   1      44.074  22.978  25.229  1.00  0.00     0.002 A 
ATOM     52  C   UNL A   1      42.077  22.259  26.381  1.00  0.00     0.091 A 
ATOM     53  F   UNL A   1      41.108  23.664  28.022  1.00  0.00    -0.205 F 
ATOM     54  C   UNL A   1      43.107  22.005  25.470  1.00  0.00     0.022 A 
BRANCH  52  55
ATOM     55  S   UNL A   1      40.822  20.997  26.628  1.00  0.00     0.127 S 
ATOM     56  O   UNL A   1      40.837  20.815  28.080  1.00  0.00    -0.237 OA
ATOM     57  O   UNL A   1      39.623  21.646  26.108  1.00  0.00    -0.237 OA
ATOM     58  O   UNL A   1      41.301  19.836  25.886  1.00  0.00    -0.744 OA
ENDBRANCH  52  55
ENDBRANCH  24  48
BRANCH  36  59
ATOM     59  C   UNL A   1      46.122  29.390  29.226  1.00  0.00     0.023 A 
ATOM     60  C   UNL A   1      47.458  29.436  28.780  1.00  0.00     0.012 A 
ATOM     61  C   UNL A   1      45.157  30.158  28.545  1.00  0.00     0.148 A 
ATOM     62  C   UNL A   1      47.833  30.256  27.713  1.00  0.00     0.002 A 
ATOM     63  C   UNL A   1      45.527  30.934  27.448  1.00  0.00     0.091 A 
ATOM     64  F   UNL A   1      43.881  30.102  28.959  1.00  0.00    -0.205 F 
ATOM     65  C   UNL A   1      46.866  30.995  27.039  1.00  0.00     0.022 A 
BRANCH  63  66
ATOM     66  S   UNL A   1      44.290  31.780  26.457  1.00  0.00     0.127 S 
ATOM     67  O   UNL A   1      43.814  32.817  27.368  1.00  0.00    -0.237 OA
ATOM     68  O   UNL A   1      45.066  32.280  25.319  1.00  0.00    -0.237 OA
ATOM     69  O   UNL A   1      43.323  30.750  26.097  1.00  0.00    -0.744 OA
ENDBRANCH  63  66
ENDBRANCH  36  59
ENDBRANCH  10  11
ENDBRANCH   3   5
ENDBRANCH   2   3
ENDBRANCH   1   2
BRANCH   1  70
ATOM     70  C   UNL A   1      33.622  30.193  26.634  1.00  0.00     0.275 C 
BRANCH  70  71
ATOM     71  O   UNL A   1      32.476  30.042  25.775  1.00  0.00    -0.458 OA
BRANCH  71  72
ATOM     72  C   UNL A   1      31.764  28.903  25.998  1.00  0.00     0.342 C 
ATOM     73  O   UNL A   1      31.287  28.562  27.073  1.00  0.00    -0.246 OA
BRANCH  72  74
ATOM     74  C   UNL A   1      31.792  28.008  24.863  1.00  0.00     0.121 A 
ATOM     75  C   UNL A   1      31.072  28.089  23.641  1.00  0.00     0.181 A 
ATOM     76  C   UNL A   1      32.483  26.803  24.803  1.00  0.00     0.145 A 
ATOM     77  N   UNL A   1      31.397  27.055  22.840  1.00  0.00    -0.162 NA
ATOM     78  N   UNL A   1      32.077  26.200  23.633  1.00  0.00    -0.229 N 
BRANCH  75  79
ATOM     79  C   UNL A   1      30.043  29.117  23.249  1.00  0.00     0.436 C 
ATOM     80  F   UNL A   1      30.266  29.647  22.023  1.00  0.00    -0.164 F 
ATOM     81  F   UNL A   1      28.789  28.593  23.241  1.00  0.00    -0.164 F 
ATOM     82  F   UNL A   1      30.014  30.152  24.129  1.00  0.00    -0.164 F 
ENDBRANCH  75  79
BRANCH  76  83
ATOM     83  C   UNL A   1      33.430  26.135  25.725  1.00  0.00     0.365 C 
ATOM     84  F   UNL A   1      34.060  27.058  26.500  1.00  0.00    -0.181 F 
ATOM     85  F   UNL A   1      32.799  25.289  26.581  1.00  0.00    -0.181 F 
ATOM     86  Cl  UNL A   1      34.670  25.173  24.893  1.00  0.00    -0.040 Cl
ENDBRANCH  76  83
BRANCH  78  87
ATOM     87  C   UNL A   1      32.187  24.841  23.257  1.00  0.00     0.065 A 
ATOM     88  C   UNL A   1      33.018  24.489  22.191  1.00  0.00     0.028 A 
ATOM     89  C   UNL A   1      31.464  23.862  23.952  1.00  0.00     0.028 A 
ATOM     90  C   UNL A   1      33.191  23.139  21.881  1.00  0.00     0.002 A 
ATOM     91  C   UNL A   1      31.617  22.519  23.612  1.00  0.00     0.002 A 
ATOM     92  C   UNL A   1      32.496  22.157  22.592  1.00  0.00     0.000 A 
ENDBRANCH  78  87
ENDBRANCH  72  74
ENDBRANCH  71  72
ENDBRANCH  70  71
ENDBRANCH   1  70
TORSDOF 17
ENDMDL
