MODEL 1
REMARK VINA RESULT:     -11.9      0.000      0.000
REMARK SMILES Cc1cc(=O)oc2cc(O[C@@H](C)C(=O)N[C@H](CC(C)C)C(=O)OCCOC(=O)c3ccc(-c4c5nc(c(-c6cccc(S(=O)(=O)[O-])c6F)c6ccc([nH]6)c(-c6cccc(S(=O)(=O)[O-])c6F)c6nc(c(-c7cccc(S(=O)(=O)[O-])c7F)c7ccc4[nH]7)C=C6)C=C5)cc3)ccc12
REMARK SMILES IDX 24 1 23 2 21 3 22 4 16 5 15 6 13 7 14 8 11 10 12 11 10 12
REMARK SMILES IDX 9 13 1 14 2 15 3 16 94 17 4 18 7 19 93 20 5 21 6 22 8 23
REMARK SMILES IDX 92 24 17 25 18 26 19 27 20 28 25 29 26 30 27 31 28 32 29 33
REMARK SMILES IDX 30 34 91 35 31 36 90 37 32 38 33 39 34 40 84 41 35 42 89 43
REMARK SMILES IDX 83 44 85 45 36 46 88 47 82 48 81 49 37 51 69 52 49 53 68 54
REMARK SMILES IDX 50 55 53 56 67 57 86 58 51 59 52 60 66 62 87 63 54 64 38 65
REMARK SMILES IDX 39 66 47 67 40 68 42 69 48 70 41 71 43 72 44 73 45 74 46 75
REMARK SMILES IDX 70 76 71 77 79 78 72 79 74 80 80 81 73 82 75 83 76 84 77 85
REMARK SMILES IDX 78 86 55 87 56 88 64 89 57 90 59 91 65 92 58 93 60 94 61 95
REMARK SMILES IDX 62 96 63 97
REMARK H PARENT 15 9 85 50 53 61
REMARK Flexibility Score: inf
ROOT
ATOM      1  C   UNL A   1      31.434  28.576  27.446  1.00  0.00     0.274 C 
ENDROOT
BRANCH   1   2
ATOM      2  O   UNL A   1      31.927  27.146  27.179  1.00  0.00    -0.461 OA
BRANCH   2   3
ATOM      3  C   UNL A   1      32.255  26.297  26.156  1.00  0.00     0.328 C 
ATOM      4  O   UNL A   1      33.391  25.801  26.115  1.00  0.00    -0.250 OA
BRANCH   3   5
ATOM      5  C   UNL A   1      31.290  25.657  25.171  1.00  0.00     0.192 C 
BRANCH   5   6
ATOM      6  N   UNL A   1      30.785  26.592  24.214  1.00  0.00    -0.339 N 
ATOM      7  C   UNL A   1      31.346  26.673  22.961  1.00  0.00     0.261 C 
ATOM      8  O   UNL A   1      30.671  27.248  22.100  1.00  0.00    -0.271 OA
ATOM      9  H   UNL A   1      30.032  27.180  24.452  1.00  0.00     0.164 HD
BRANCH   7  10
ATOM     10  C   UNL A   1      32.866  26.155  22.637  1.00  0.00     0.258 C 
ATOM     11  C   UNL A   1      33.640  27.233  21.881  1.00  0.00     0.064 C 
BRANCH  10  12
ATOM     12  O   UNL A   1      33.464  24.851  22.646  1.00  0.00    -0.481 OA
BRANCH  12  13
ATOM     13  C   UNL A   1      33.599  23.680  23.323  1.00  0.00     0.124 A 
ATOM     14  C   UNL A   1      32.457  18.603  24.290  1.00  0.00     0.045 C 
ATOM     15  C   UNL A   1      33.649  19.512  24.458  1.00  0.00    -0.033 A 
ATOM     16  C   UNL A   1      34.867  19.067  24.782  1.00  0.00     0.098 A 
ATOM     17  C   UNL A   1      33.542  20.946  24.204  1.00  0.00     0.021 A 
ATOM     18  C   UNL A   1      36.032  19.957  24.912  1.00  0.00     0.336 A 
ATOM     19  C   UNL A   1      34.619  21.829  24.437  1.00  0.00     0.142 A 
ATOM     20  C   UNL A   1      32.425  21.465  23.619  1.00  0.00     0.016 A 
ATOM     21  O   UNL A   1      37.168  19.479  24.988  1.00  0.00    -0.246 OA
ATOM     22  O   UNL A   1      35.811  21.319  24.981  1.00  0.00    -0.423 OA
ATOM     23  C   UNL A   1      34.658  23.194  24.035  1.00  0.00     0.094 A 
ATOM     24  C   UNL A   1      32.473  22.797  23.238  1.00  0.00     0.047 A 
ENDBRANCH  12  13
ENDBRANCH  10  12
ENDBRANCH   7  10
ENDBRANCH   5   6
BRANCH   5  25
ATOM     25  C   UNL A   1      30.301  24.873  26.124  1.00  0.00     0.040 C 
BRANCH  25  26
ATOM     26  C   UNL A   1      30.515  23.327  26.362  1.00  0.00    -0.015 C 
ATOM     27  C   UNL A   1      31.838  22.877  26.986  1.00  0.00     0.007 C 
ATOM     28  C   UNL A   1      29.385  22.673  27.194  1.00  0.00     0.007 C 
ENDBRANCH  25  26
ENDBRANCH   5  25
ENDBRANCH   3   5
ENDBRANCH   2   3
ENDBRANCH   1   2
BRANCH   1  29
ATOM     29  C   UNL A   1      31.753  29.868  26.448  1.00  0.00     0.275 C 
BRANCH  29  30
ATOM     30  O   UNL A   1      33.134  30.419  26.366  1.00  0.00    -0.458 OA
BRANCH  30  31
ATOM     31  C   UNL A   1      33.549  31.489  27.161  1.00  0.00     0.338 C 
ATOM     32  O   UNL A   1      32.827  32.426  27.472  1.00  0.00    -0.246 OA
BRANCH  31  33
ATOM     33  C   UNL A   1      34.945  31.296  27.775  1.00  0.00     0.060 A 
ATOM     34  C   UNL A   1      35.274  30.080  28.349  1.00  0.00     0.016 A 
ATOM     35  C   UNL A   1      35.892  32.325  27.949  1.00  0.00     0.016 A 
ATOM     36  C   UNL A   1      36.374  29.930  29.210  1.00  0.00     0.010 A 
ATOM     37  C   UNL A   1      37.130  32.096  28.641  1.00  0.00     0.010 A 
ATOM     38  C   UNL A   1      37.403  30.874  29.277  1.00  0.00    -0.014 A 
BRANCH  38  39
ATOM     39  C   UNL A   1      38.753  30.471  29.851  1.00  0.00     0.031 A 
ATOM     40  C   UNL A   1      39.676  29.459  29.194  1.00  0.00     0.074 A 
ATOM     41  C   UNL A   1      39.150  30.985  31.046  1.00  0.00     0.049 A 
ATOM     42  N   UNL A   1      40.695  28.809  29.708  1.00  0.00    -0.248 NA
ATOM     43  C   UNL A   1      39.430  29.138  27.780  1.00  0.00     0.031 C 
ATOM     44  C   UNL A   1      38.429  31.996  31.827  1.00  0.00     0.029 A 
ATOM     45  N   UNL A   1      40.245  30.709  31.845  1.00  0.00    -0.354 N 
ATOM     46  C   UNL A   1      41.152  27.935  28.722  1.00  0.00     0.074 A 
ATOM     47  C   UNL A   1      40.323  28.177  27.556  1.00  0.00     0.031 C 
ATOM     48  C   UNL A   1      39.088  32.270  32.952  1.00  0.00     0.029 A 
ATOM     49  C   UNL A   1      40.195  31.342  33.071  1.00  0.00     0.049 A 
ATOM     50  H   UNL A   1      40.985  30.122  31.566  1.00  0.00     0.167 HD
ATOM     51  C   UNL A   1      42.151  27.014  28.786  1.00  0.00     0.034 A 
ATOM     52  C   UNL A   1      40.865  31.154  34.224  1.00  0.00     0.034 A 
ATOM     53  C   UNL A   1      43.022  26.823  29.924  1.00  0.00     0.049 A 
ATOM     54  C   UNL A   1      41.928  30.105  34.288  1.00  0.00     0.074 A 
ATOM     55  C   UNL A   1      44.087  25.945  30.059  1.00  0.00     0.029 A 
ATOM     56  N   UNL A   1      42.934  27.516  31.122  1.00  0.00    -0.354 N 
ATOM     57  N   UNL A   1      42.340  29.301  33.344  1.00  0.00    -0.248 NA
ATOM     58  C   UNL A   1      42.627  29.948  35.570  1.00  0.00     0.031 C 
ATOM     59  C   UNL A   1      44.616  26.080  31.348  1.00  0.00     0.029 A 
ATOM     60  C   UNL A   1      43.910  27.073  32.004  1.00  0.00     0.049 A 
ATOM     61  H   UNL A   1      42.275  28.220  31.319  1.00  0.00     0.167 HD
ATOM     62  C   UNL A   1      43.370  28.559  33.906  1.00  0.00     0.074 A 
ATOM     63  C   UNL A   1      43.531  29.028  35.268  1.00  0.00     0.031 C 
ATOM     64  C   UNL A   1      44.102  27.569  33.343  1.00  0.00     0.034 A 
BRANCH  51  65
ATOM     65  C   UNL A   1      42.369  26.102  27.594  1.00  0.00     0.023 A 
ATOM     66  C   UNL A   1      43.140  26.531  26.495  1.00  0.00     0.012 A 
ATOM     67  C   UNL A   1      41.878  24.777  27.609  1.00  0.00     0.148 A 
ATOM     68  C   UNL A   1      43.380  25.675  25.416  1.00  0.00     0.002 A 
ATOM     69  C   UNL A   1      42.157  23.918  26.551  1.00  0.00     0.091 A 
ATOM     70  F   UNL A   1      41.147  24.378  28.661  1.00  0.00    -0.205 F 
ATOM     71  C   UNL A   1      42.896  24.369  25.447  1.00  0.00     0.022 A 
BRANCH  69  72
ATOM     72  S   UNL A   1      41.647  22.192  26.534  1.00  0.00     0.127 S 
ATOM     73  O   UNL A   1      42.255  21.692  27.766  1.00  0.00    -0.237 OA
ATOM     74  O   UNL A   1      40.188  22.299  26.577  1.00  0.00    -0.237 OA
ATOM     75  O   UNL A   1      42.178  21.628  25.301  1.00  0.00    -0.744 OA
ENDBRANCH  69  72
ENDBRANCH  51  65
BRANCH  52  76
ATOM     76  C   UNL A   1      40.502  31.961  35.429  1.00  0.00     0.023 A 
ATOM     77  C   UNL A   1      41.230  33.127  35.728  1.00  0.00     0.012 A 
ATOM     78  C   UNL A   1      39.397  31.612  36.238  1.00  0.00     0.148 A 
ATOM     79  C   UNL A   1      40.878  33.920  36.820  1.00  0.00     0.002 A 
ATOM     80  C   UNL A   1      39.013  32.444  37.282  1.00  0.00     0.091 A 
ATOM     81  F   UNL A   1      38.721  30.493  35.943  1.00  0.00    -0.205 F 
ATOM     82  C   UNL A   1      39.763  33.589  37.587  1.00  0.00     0.022 A 
BRANCH  80  83
ATOM     83  S   UNL A   1      37.502  32.182  38.219  1.00  0.00     0.127 S 
ATOM     84  O   UNL A   1      36.556  33.037  37.506  1.00  0.00    -0.237 OA
ATOM     85  O   UNL A   1      37.286  30.745  38.048  1.00  0.00    -0.237 OA
ATOM     86  O   UNL A   1      37.811  32.581  39.585  1.00  0.00    -0.744 OA
ENDBRANCH  80  83
ENDBRANCH  52  76
BRANCH  64  87
ATOM     87  C   UNL A   1      45.190  26.955  34.183  1.00  0.00     0.023 A 
ATOM     88  C   UNL A   1      46.518  27.416  34.068  1.00  0.00     0.012 A 
ATOM     89  C   UNL A   1      44.887  25.947  35.118  1.00  0.00     0.148 A 
ATOM     90  C   UNL A   1      47.530  26.860  34.848  1.00  0.00     0.002 A 
ATOM     91  C   UNL A   1      45.892  25.434  35.929  1.00  0.00     0.091 A 
ATOM     92  F   UNL A   1      43.624  25.502  35.192  1.00  0.00    -0.205 F 
ATOM     93  C   UNL A   1      47.217  25.879  35.786  1.00  0.00     0.022 A 
BRANCH  91  94
ATOM     94  S   UNL A   1      45.566  24.237  37.227  1.00  0.00     0.127 S 
ATOM     95  O   UNL A   1      45.344  23.014  36.457  1.00  0.00    -0.237 OA
ATOM     96  O   UNL A   1      46.816  24.260  37.988  1.00  0.00    -0.237 OA
ATOM     97  O   UNL A   1      44.406  24.736  37.953  1.00  0.00    -0.744 OA
ENDBRANCH  91  94
ENDBRANCH  64  87
ENDBRANCH  38  39
ENDBRANCH  31  33
ENDBRANCH  30  31
ENDBRANCH  29  30
ENDBRANCH   1  29
TORSDOF 20
ENDMDL
MODEL 2
REMARK VINA RESULT:     -11.8      4.983      9.528
REMARK SMILES Cc1cc(=O)oc2cc(O[C@@H](C)C(=O)N[C@H](CC(C)C)C(=O)OCCOC(=O)c3ccc(-c4c5nc(c(-c6cccc(S(=O)(=O)[O-])c6F)c6ccc([nH]6)c(-c6cccc(S(=O)(=O)[O-])c6F)c6nc(c(-c7cccc(S(=O)(=O)[O-])c7F)c7ccc4[nH]7)C=C6)C=C5)cc3)ccc12
REMARK SMILES IDX 24 1 23 2 21 3 22 4 16 5 15 6 13 7 14 8 11 10 12 11 10 12
REMARK SMILES IDX 9 13 1 14 2 15 3 16 94 17 4 18 7 19 93 20 5 21 6 22 8 23
REMARK SMILES IDX 92 24 17 25 18 26 19 27 20 28 25 29 26 30 27 31 28 32 29 33
REMARK SMILES IDX 30 34 91 35 31 36 90 37 32 38 33 39 34 40 84 41 35 42 89 43
REMARK SMILES IDX 83 44 85 45 36 46 88 47 82 48 81 49 37 51 69 52 49 53 68 54
REMARK SMILES IDX 50 55 53 56 67 57 86 58 51 59 52 60 66 62 87 63 54 64 38 65
REMARK SMILES IDX 39 66 47 67 40 68 42 69 48 70 41 71 43 72 44 73 45 74 46 75
REMARK SMILES IDX 70 76 71 77 79 78 72 79 74 80 80 81 73 82 75 83 76 84 77 85
REMARK SMILES IDX 78 86 55 87 56 88 64 89 57 90 59 91 65 92 58 93 60 94 61 95
REMARK SMILES IDX 62 96 63 97
REMARK H PARENT 15 9 85 50 53 61
REMARK Flexibility Score: inf
ROOT
ATOM      1  C   UNL A   1      35.614  23.223  23.510  1.00  0.00     0.274 C 
ENDROOT
BRANCH   1   2
ATOM      2  O   UNL A   1      34.556  24.301  23.791  1.00  0.00    -0.461 OA
BRANCH   2   3
ATOM      3  C   UNL A   1      33.917  25.358  23.199  1.00  0.00     0.328 C 
ATOM      4  O   UNL A   1      33.671  25.320  21.984  1.00  0.00    -0.250 OA
BRANCH   3   5
ATOM      5  C   UNL A   1      33.214  26.501  23.914  1.00  0.00     0.192 C 
BRANCH   5   6
ATOM      6  N   UNL A   1      33.108  27.673  23.099  1.00  0.00    -0.339 N 
ATOM      7  C   UNL A   1      31.886  28.272  22.903  1.00  0.00     0.261 C 
ATOM      8  O   UNL A   1      31.912  29.432  22.477  1.00  0.00    -0.271 OA
ATOM      9  H   UNL A   1      33.912  28.052  22.677  1.00  0.00     0.164 HD
BRANCH   7  10
ATOM     10  C   UNL A   1      30.468  27.476  23.100  1.00  0.00     0.258 C 
ATOM     11  C   UNL A   1      29.362  28.457  23.483  1.00  0.00     0.064 C 
BRANCH  10  12
ATOM     12  O   UNL A   1      30.157  26.087  23.281  1.00  0.00    -0.481 OA
BRANCH  12  13
ATOM     13  C   UNL A   1      30.462  24.944  23.951  1.00  0.00     0.124 A 
ATOM     14  C   UNL A   1      32.537  20.092  24.353  1.00  0.00     0.045 C 
ATOM     15  C   UNL A   1      32.279  21.256  25.276  1.00  0.00    -0.033 A 
ATOM     16  C   UNL A   1      32.763  21.322  26.521  1.00  0.00     0.098 A 
ATOM     17  C   UNL A   1      31.527  22.423  24.823  1.00  0.00     0.021 A 
ATOM     18  C   UNL A   1      32.533  22.477  27.404  1.00  0.00     0.336 A 
ATOM     19  C   UNL A   1      31.198  23.485  25.693  1.00  0.00     0.142 A 
ATOM     20  C   UNL A   1      31.214  22.577  23.505  1.00  0.00     0.016 A 
ATOM     21  O   UNL A   1      33.183  22.593  28.448  1.00  0.00    -0.246 OA
ATOM     22  O   UNL A   1      31.561  23.390  27.048  1.00  0.00    -0.423 OA
ATOM     23  C   UNL A   1      30.644  24.731  25.288  1.00  0.00     0.094 A 
ATOM     24  C   UNL A   1      30.669  23.793  23.123  1.00  0.00     0.047 A 
ENDBRANCH  12  13
ENDBRANCH  10  12
ENDBRANCH   7  10
ENDBRANCH   5   6
BRANCH   5  25
ATOM     25  C   UNL A   1      33.974  26.555  25.299  1.00  0.00     0.040 C 
BRANCH  25  26
ATOM     26  C   UNL A   1      33.527  27.608  26.388  1.00  0.00    -0.015 C 
ATOM     27  C   UNL A   1      34.099  29.024  26.291  1.00  0.00     0.007 C 
ATOM     28  C   UNL A   1      31.990  27.755  26.502  1.00  0.00     0.007 C 
ENDBRANCH  25  26
ENDBRANCH   5  25
ENDBRANCH   3   5
ENDBRANCH   2   3
ENDBRANCH   1   2
BRANCH   1  29
ATOM     29  C   UNL A   1      35.715  21.785  24.341  1.00  0.00     0.275 C 
BRANCH  29  30
ATOM     30  O   UNL A   1      36.462  21.721  25.627  1.00  0.00    -0.458 OA
BRANCH  30  31
ATOM     31  C   UNL A   1      37.804  21.343  25.681  1.00  0.00     0.338 C 
ATOM     32  O   UNL A   1      38.247  20.326  25.163  1.00  0.00    -0.246 OA
BRANCH  31  33
ATOM     33  C   UNL A   1      38.724  22.413  26.291  1.00  0.00     0.060 A 
ATOM     34  C   UNL A   1      38.409  23.752  26.131  1.00  0.00     0.016 A 
ATOM     35  C   UNL A   1      39.976  22.151  26.881  1.00  0.00     0.016 A 
ATOM     36  C   UNL A   1      39.346  24.774  26.355  1.00  0.00     0.010 A 
ATOM     37  C   UNL A   1      40.835  23.214  27.322  1.00  0.00     0.010 A 
ATOM     38  C   UNL A   1      40.523  24.562  27.078  1.00  0.00    -0.014 A 
BRANCH  38  39
ATOM     39  C   UNL A   1      41.259  25.751  27.679  1.00  0.00     0.031 A 
ATOM     40  C   UNL A   1      40.585  26.808  28.537  1.00  0.00     0.074 A 
ATOM     41  C   UNL A   1      42.577  25.932  27.397  1.00  0.00     0.049 A 
ATOM     42  N   UNL A   1      41.009  28.009  28.860  1.00  0.00    -0.248 NA
ATOM     43  C   UNL A   1      39.273  26.477  29.112  1.00  0.00     0.031 C 
ATOM     44  C   UNL A   1      43.421  25.017  26.619  1.00  0.00     0.029 A 
ATOM     45  N   UNL A   1      43.446  26.965  27.698  1.00  0.00    -0.354 N 
ATOM     46  C   UNL A   1      39.985  28.613  29.588  1.00  0.00     0.074 A 
ATOM     47  C   UNL A   1      38.933  27.620  29.702  1.00  0.00     0.031 C 
ATOM     48  C   UNL A   1      44.660  25.499  26.523  1.00  0.00     0.029 A 
ATOM     49  C   UNL A   1      44.676  26.836  27.082  1.00  0.00     0.049 A 
ATOM     50  H   UNL A   1      43.212  27.714  28.292  1.00  0.00     0.167 HD
ATOM     51  C   UNL A   1      39.922  29.872  30.099  1.00  0.00     0.034 A 
ATOM     52  C   UNL A   1      45.684  27.702  26.867  1.00  0.00     0.034 A 
ATOM     53  C   UNL A   1      40.998  30.836  30.047  1.00  0.00     0.049 A 
ATOM     54  C   UNL A   1      45.576  29.095  27.396  1.00  0.00     0.074 A 
ATOM     55  C   UNL A   1      41.036  32.118  30.576  1.00  0.00     0.029 A 
ATOM     56  N   UNL A   1      42.224  30.632  29.433  1.00  0.00    -0.354 N 
ATOM     57  N   UNL A   1      44.603  29.636  28.082  1.00  0.00    -0.248 NA
ATOM     58  C   UNL A   1      46.708  29.993  27.134  1.00  0.00     0.031 C 
ATOM     59  C   UNL A   1      42.267  32.699  30.249  1.00  0.00     0.029 A 
ATOM     60  C   UNL A   1      43.015  31.765  29.553  1.00  0.00     0.049 A 
ATOM     61  H   UNL A   1      42.495  29.802  28.977  1.00  0.00     0.167 HD
ATOM     62  C   UNL A   1      45.016  30.930  28.363  1.00  0.00     0.074 A 
ATOM     63  C   UNL A   1      46.338  31.084  27.790  1.00  0.00     0.031 C 
ATOM     64  C   UNL A   1      44.348  31.905  29.024  1.00  0.00     0.034 A 
BRANCH  51  65
ATOM     65  C   UNL A   1      38.631  30.320  30.757  1.00  0.00     0.023 A 
ATOM     66  C   UNL A   1      38.425  30.125  32.138  1.00  0.00     0.012 A 
ATOM     67  C   UNL A   1      37.654  31.020  30.013  1.00  0.00     0.148 A 
ATOM     68  C   UNL A   1      37.255  30.578  32.755  1.00  0.00     0.002 A 
ATOM     69  C   UNL A   1      36.512  31.504  30.643  1.00  0.00     0.091 A 
ATOM     70  F   UNL A   1      37.861  31.202  28.700  1.00  0.00    -0.205 F 
ATOM     71  C   UNL A   1      36.304  31.273  32.011  1.00  0.00     0.022 A 
BRANCH  69  72
ATOM     72  S   UNL A   1      35.267  32.482  29.788  1.00  0.00     0.127 S 
ATOM     73  O   UNL A   1      34.346  32.805  30.876  1.00  0.00    -0.237 OA
ATOM     74  O   UNL A   1      36.048  33.618  29.295  1.00  0.00    -0.237 OA
ATOM     75  O   UNL A   1      34.726  31.621  28.745  1.00  0.00    -0.744 OA
ENDBRANCH  69  72
ENDBRANCH  51  65
BRANCH  52  76
ATOM     76  C   UNL A   1      46.869  27.270  26.065  1.00  0.00     0.023 A 
ATOM     77  C   UNL A   1      46.924  27.571  24.692  1.00  0.00     0.012 A 
ATOM     78  C   UNL A   1      47.968  26.622  26.672  1.00  0.00     0.148 A 
ATOM     79  C   UNL A   1      48.042  27.218  23.934  1.00  0.00     0.002 A 
ATOM     80  C   UNL A   1      49.104  26.337  25.925  1.00  0.00     0.091 A 
ATOM     81  F   UNL A   1      47.894  26.336  27.980  1.00  0.00    -0.205 F 
ATOM     82  C   UNL A   1      49.136  26.617  24.551  1.00  0.00     0.022 A 
BRANCH  80  83
ATOM     83  S   UNL A   1      50.616  25.711  26.668  1.00  0.00     0.127 S 
ATOM     84  O   UNL A   1      50.163  24.454  27.257  1.00  0.00    -0.237 OA
ATOM     85  O   UNL A   1      51.489  25.567  25.502  1.00  0.00    -0.237 OA
ATOM     86  O   UNL A   1      51.045  26.735  27.612  1.00  0.00    -0.744 OA
ENDBRANCH  80  83
ENDBRANCH  52  76
BRANCH  64  87
ATOM     87  C   UNL A   1      45.059  33.218  29.215  1.00  0.00     0.023 A 
ATOM     88  C   UNL A   1      45.903  33.410  30.328  1.00  0.00     0.012 A 
ATOM     89  C   UNL A   1      44.920  34.250  28.266  1.00  0.00     0.148 A 
ATOM     90  C   UNL A   1      46.572  34.620  30.508  1.00  0.00     0.002 A 
ATOM     91  C   UNL A   1      45.631  35.433  28.425  1.00  0.00     0.091 A 
ATOM     92  F   UNL A   1      44.090  34.058  27.230  1.00  0.00    -0.205 F 
ATOM     93  C   UNL A   1      46.446  35.626  29.553  1.00  0.00     0.022 A 
BRANCH  91  94
ATOM     94  S   UNL A   1      45.604  36.745  27.200  1.00  0.00     0.127 S 
ATOM     95  O   UNL A   1      46.210  36.087  26.043  1.00  0.00    -0.237 OA
ATOM     96  O   UNL A   1      44.172  37.013  27.068  1.00  0.00    -0.237 OA
ATOM     97  O   UNL A   1      46.375  37.842  27.768  1.00  0.00    -0.744 OA
ENDBRANCH  91  94
ENDBRANCH  64  87
ENDBRANCH  38  39
ENDBRANCH  31  33
ENDBRANCH  30  31
ENDBRANCH  29  30
ENDBRANCH   1  29
TORSDOF 20
ENDMDL
MODEL 3
REMARK VINA RESULT:     -10.9      2.034      7.560
REMARK SMILES Cc1cc(=O)oc2cc(O[C@@H](C)C(=O)N[C@H](CC(C)C)C(=O)OCCOC(=O)c3ccc(-c4c5nc(c(-c6cccc(S(=O)(=O)[O-])c6F)c6ccc([nH]6)c(-c6cccc(S(=O)(=O)[O-])c6F)c6nc(c(-c7cccc(S(=O)(=O)[O-])c7F)c7ccc4[nH]7)C=C6)C=C5)cc3)ccc12
REMARK SMILES IDX 24 1 23 2 21 3 22 4 16 5 15 6 13 7 14 8 11 10 12 11 10 12
REMARK SMILES IDX 9 13 1 14 2 15 3 16 94 17 4 18 7 19 93 20 5 21 6 22 8 23
REMARK SMILES IDX 92 24 17 25 18 26 19 27 20 28 25 29 26 30 27 31 28 32 29 33
REMARK SMILES IDX 30 34 91 35 31 36 90 37 32 38 33 39 34 40 84 41 35 42 89 43
REMARK SMILES IDX 83 44 85 45 36 46 88 47 82 48 81 49 37 51 69 52 49 53 68 54
REMARK SMILES IDX 50 55 53 56 67 57 86 58 51 59 52 60 66 62 87 63 54 64 38 65
REMARK SMILES IDX 39 66 47 67 40 68 42 69 48 70 41 71 43 72 44 73 45 74 46 75
REMARK SMILES IDX 70 76 71 77 79 78 72 79 74 80 80 81 73 82 75 83 76 84 77 85
REMARK SMILES IDX 78 86 55 87 56 88 64 89 57 90 59 91 65 92 58 93 60 94 61 95
REMARK SMILES IDX 62 96 63 97
REMARK H PARENT 15 9 85 50 53 61
REMARK Flexibility Score: inf
ROOT
ATOM      1  C   UNL A   1      31.933  28.899  27.374  1.00  0.00     0.274 C 
ENDROOT
BRANCH   1   2
ATOM      2  O   UNL A   1      32.728  27.652  26.960  1.00  0.00    -0.461 OA
BRANCH   2   3
ATOM      3  C   UNL A   1      32.979  26.848  25.880  1.00  0.00     0.328 C 
ATOM      4  O   UNL A   1      34.127  26.418  25.692  1.00  0.00    -0.250 OA
BRANCH   3   5
ATOM      5  C   UNL A   1      31.940  26.179  24.994  1.00  0.00     0.192 C 
BRANCH   5   6
ATOM      6  N   UNL A   1      31.365  27.083  24.046  1.00  0.00    -0.339 N 
ATOM      7  C   UNL A   1      31.479  26.839  22.697  1.00  0.00     0.261 C 
ATOM      8  O   UNL A   1      30.700  27.460  21.966  1.00  0.00    -0.271 OA
ATOM      9  H   UNL A   1      30.886  27.884  24.360  1.00  0.00     0.164 HD
BRANCH   7  10
ATOM     10  C   UNL A   1      32.647  25.879  22.067  1.00  0.00     0.258 C 
ATOM     11  C   UNL A   1      32.471  25.760  20.554  1.00  0.00     0.064 C 
BRANCH  10  12
ATOM     12  O   UNL A   1      33.551  24.939  22.664  1.00  0.00    -0.481 OA
BRANCH  12  13
ATOM     13  C   UNL A   1      33.669  23.761  23.334  1.00  0.00     0.124 A 
ATOM     14  C   UNL A   1      32.451  18.696  24.270  1.00  0.00     0.045 C 
ATOM     15  C   UNL A   1      33.657  19.586  24.442  1.00  0.00    -0.033 A 
ATOM     16  C   UNL A   1      34.869  19.120  24.761  1.00  0.00     0.098 A 
ATOM     17  C   UNL A   1      33.572  21.023  24.197  1.00  0.00     0.021 A 
ATOM     18  C   UNL A   1      36.047  19.992  24.895  1.00  0.00     0.336 A 
ATOM     19  C   UNL A   1      34.662  21.888  24.434  1.00  0.00     0.142 A 
ATOM     20  C   UNL A   1      32.462  21.563  23.618  1.00  0.00     0.016 A 
ATOM     21  O   UNL A   1      37.176  19.496  24.966  1.00  0.00    -0.246 OA
ATOM     22  O   UNL A   1      35.847  21.356  24.973  1.00  0.00    -0.423 OA
ATOM     23  C   UNL A   1      34.721  23.254  24.041  1.00  0.00     0.094 A 
ATOM     24  C   UNL A   1      32.529  22.896  23.245  1.00  0.00     0.047 A 
ENDBRANCH  12  13
ENDBRANCH  10  12
ENDBRANCH   7  10
ENDBRANCH   5   6
BRANCH   5  25
ATOM     25  C   UNL A   1      31.025  25.432  26.045  1.00  0.00     0.040 C 
BRANCH  25  26
ATOM     26  C   UNL A   1      31.208  23.880  26.269  1.00  0.00    -0.015 C 
ATOM     27  C   UNL A   1      32.442  23.411  27.044  1.00  0.00     0.007 C 
ATOM     28  C   UNL A   1      29.983  23.209  26.935  1.00  0.00     0.007 C 
ENDBRANCH  25  26
ENDBRANCH   5  25
ENDBRANCH   3   5
ENDBRANCH   2   3
ENDBRANCH   1   2
BRANCH   1  29
ATOM     29  C   UNL A   1      32.345  30.449  26.934  1.00  0.00     0.275 C 
BRANCH  29  30
ATOM     30  O   UNL A   1      33.773  30.800  26.702  1.00  0.00    -0.458 OA
BRANCH  30  31
ATOM     31  C   UNL A   1      34.512  31.535  27.630  1.00  0.00     0.338 C 
ATOM     32  O   UNL A   1      34.162  32.621  28.073  1.00  0.00    -0.246 OA
BRANCH  31  33
ATOM     33  C   UNL A   1      35.722  30.775  28.197  1.00  0.00     0.060 A 
ATOM     34  C   UNL A   1      36.901  31.459  28.442  1.00  0.00     0.016 A 
ATOM     35  C   UNL A   1      35.789  29.376  28.350  1.00  0.00     0.016 A 
ATOM     36  C   UNL A   1      38.125  30.796  28.634  1.00  0.00     0.010 A 
ATOM     37  C   UNL A   1      36.996  28.725  28.774  1.00  0.00     0.010 A 
ATOM     38  C   UNL A   1      38.197  29.435  28.942  1.00  0.00    -0.014 A 
BRANCH  38  39
ATOM     39  C   UNL A   1      39.460  28.875  29.578  1.00  0.00     0.031 A 
ATOM     40  C   UNL A   1      40.185  29.545  30.734  1.00  0.00     0.074 A 
ATOM     41  C   UNL A   1      40.025  27.750  29.064  1.00  0.00     0.049 A 
ATOM     42  N   UNL A   1      41.408  29.350  31.170  1.00  0.00    -0.248 NA
ATOM     43  C   UNL A   1      39.444  30.557  31.502  1.00  0.00     0.031 C 
ATOM     44  C   UNL A   1      39.473  26.935  27.976  1.00  0.00     0.029 A 
ATOM     45  N   UNL A   1      41.211  27.103  29.357  1.00  0.00    -0.354 N 
ATOM     46  C   UNL A   1      41.621  30.274  32.193  1.00  0.00     0.074 A 
ATOM     47  C   UNL A   1      40.373  30.999  32.345  1.00  0.00     0.031 C 
ATOM     48  C   UNL A   1      40.281  25.908  27.711  1.00  0.00     0.029 A 
ATOM     49  C   UNL A   1      41.496  26.071  28.485  1.00  0.00     0.049 A 
ATOM     50  H   UNL A   1      41.793  27.352  30.111  1.00  0.00     0.167 HD
ATOM     51  C   UNL A   1      42.745  30.504  32.924  1.00  0.00     0.034 A 
ATOM     52  C   UNL A   1      42.622  25.381  28.222  1.00  0.00     0.034 A 
ATOM     53  C   UNL A   1      43.964  29.734  32.821  1.00  0.00     0.049 A 
ATOM     54  C   UNL A   1      43.861  25.681  29.002  1.00  0.00     0.074 A 
ATOM     55  C   UNL A   1      45.136  29.869  33.551  1.00  0.00     0.029 A 
ATOM     56  N   UNL A   1      44.175  28.686  31.938  1.00  0.00    -0.354 N 
ATOM     57  N   UNL A   1      44.031  26.552  29.963  1.00  0.00    -0.248 NA
ATOM     58  C   UNL A   1      45.057  24.895  28.674  1.00  0.00     0.031 C 
ATOM     59  C   UNL A   1      46.064  28.932  33.083  1.00  0.00     0.029 A 
ATOM     60  C   UNL A   1      45.458  28.181  32.090  1.00  0.00     0.049 A 
ATOM     61  H   UNL A   1      43.510  28.349  31.294  1.00  0.00     0.167 HD
ATOM     62  C   UNL A   1      45.346  26.400  30.378  1.00  0.00     0.074 A 
ATOM     63  C   UNL A   1      45.920  25.337  29.578  1.00  0.00     0.031 C 
ATOM     64  C   UNL A   1      46.017  27.094  31.328  1.00  0.00     0.034 A 
BRANCH  51  65
ATOM     65  C   UNL A   1      42.743  31.659  33.907  1.00  0.00     0.023 A 
ATOM     66  C   UNL A   1      43.127  32.951  33.495  1.00  0.00     0.012 A 
ATOM     67  C   UNL A   1      42.271  31.474  35.226  1.00  0.00     0.148 A 
ATOM     68  C   UNL A   1      43.083  34.026  34.387  1.00  0.00     0.002 A 
ATOM     69  C   UNL A   1      42.190  32.557  36.095  1.00  0.00     0.091 A 
ATOM     70  F   UNL A   1      41.906  30.241  35.607  1.00  0.00    -0.205 F 
ATOM     71  C   UNL A   1      42.608  33.831  35.683  1.00  0.00     0.022 A 
BRANCH  69  72
ATOM     72  S   UNL A   1      41.516  32.425  37.758  1.00  0.00     0.127 S 
ATOM     73  O   UNL A   1      42.339  31.360  38.328  1.00  0.00    -0.237 OA
ATOM     74  O   UNL A   1      41.779  33.756  38.307  1.00  0.00    -0.237 OA
ATOM     75  O   UNL A   1      40.104  32.104  37.596  1.00  0.00    -0.744 OA
ENDBRANCH  69  72
ENDBRANCH  51  65
BRANCH  52  76
ATOM     76  C   UNL A   1      42.627  24.366  27.125  1.00  0.00     0.023 A 
ATOM     77  C   UNL A   1      43.280  24.656  25.913  1.00  0.00     0.012 A 
ATOM     78  C   UNL A   1      42.046  23.091  27.305  1.00  0.00     0.148 A 
ATOM     79  C   UNL A   1      43.337  23.705  24.894  1.00  0.00     0.002 A 
ATOM     80  C   UNL A   1      42.167  22.127  26.312  1.00  0.00     0.091 A 
ATOM     81  F   UNL A   1      41.420  22.835  28.463  1.00  0.00    -0.205 F 
ATOM     82  C   UNL A   1      42.795  22.438  25.098  1.00  0.00     0.022 A 
BRANCH  80  83
ATOM     83  S   UNL A   1      41.642  20.424  26.550  1.00  0.00     0.127 S 
ATOM     84  O   UNL A   1      42.261  20.097  27.832  1.00  0.00    -0.237 OA
ATOM     85  O   UNL A   1      40.186  20.559  26.583  1.00  0.00    -0.237 OA
ATOM     86  O   UNL A   1      42.148  19.692  25.397  1.00  0.00    -0.744 OA
ENDBRANCH  80  83
ENDBRANCH  52  76
BRANCH  64  87
ATOM     87  C   UNL A   1      47.442  26.689  31.598  1.00  0.00     0.023 A 
ATOM     88  C   UNL A   1      48.498  27.321  30.911  1.00  0.00     0.012 A 
ATOM     89  C   UNL A   1      47.733  25.707  32.565  1.00  0.00     0.148 A 
ATOM     90  C   UNL A   1      49.822  26.958  31.161  1.00  0.00     0.002 A 
ATOM     91  C   UNL A   1      49.057  25.389  32.846  1.00  0.00     0.091 A 
ATOM     92  F   UNL A   1      46.713  25.098  33.186  1.00  0.00    -0.205 F 
ATOM     93  C   UNL A   1      50.102  26.002  32.135  1.00  0.00     0.022 A 
BRANCH  91  94
ATOM     94  S   UNL A   1      49.516  24.240  34.147  1.00  0.00     0.127 S 
ATOM     95  O   UNL A   1      49.729  25.140  35.279  1.00  0.00    -0.237 OA
ATOM     96  O   UNL A   1      48.321  23.401  34.251  1.00  0.00    -0.237 OA
ATOM     97  O   UNL A   1      50.703  23.545  33.670  1.00  0.00    -0.744 OA
ENDBRANCH  91  94
ENDBRANCH  64  87
ENDBRANCH  38  39
ENDBRANCH  31  33
ENDBRANCH  30  31
ENDBRANCH  29  30
ENDBRANCH   1  29
TORSDOF 20
ENDMDL
