MODEL 1
REMARK VINA RESULT:     -12.4      0.000      0.000
REMARK SMILES O=C(Nc1c(F)cc(F)cc1F)N[C@H]1C=C[C@H](C(=O)OCCOC(=O)c2ccc(-c3c4nc(c(-c5cccc(S(=O)(=O)[O-])c5F)c5ccc([nH]5)c(-c5cccc(S(=O)(=O)[O-])c5F)c5nc(c(-c6cccc(S(=O)(=O)[O-])c6F)c6ccc3[nH]6)C=C5)C=C4)cc2)C1
REMARK SMILES IDX 22 1 21 2 20 3 18 4 19 5 17 6 14 7 15 8 89 9 16 10 13 11
REMARK SMILES IDX 1 12 2 13 3 14 4 17 5 18 11 19 6 20 7 21 10 22 12 23 8 24
REMARK SMILES IDX 9 25 23 26 24 27 25 28 26 29 27 30 88 31 28 32 87 33 29 34
REMARK SMILES IDX 30 35 31 36 81 37 32 38 86 39 80 40 82 41 33 42 85 43 79 44
REMARK SMILES IDX 78 45 34 47 66 48 46 49 65 50 47 51 50 52 64 53 83 54 48 55
REMARK SMILES IDX 49 56 63 58 84 59 51 60 35 61 36 62 44 63 37 64 39 65 45 66
REMARK SMILES IDX 38 67 40 68 41 69 42 70 43 71 67 72 68 73 76 74 69 75 71 76
REMARK SMILES IDX 77 77 70 78 72 79 73 80 74 81 75 82 52 83 53 84 61 85 54 86
REMARK SMILES IDX 56 87 62 88 55 89 57 90 58 91 59 92 60 93
REMARK H PARENT 3 15 13 16 82 46 50 57
REMARK Flexibility Score: inf
ROOT
ATOM      1  C   UNL A   1      31.492  30.184  26.108  1.00  0.00     0.275 C 
ENDROOT
BRANCH   1   2
ATOM      2  C   UNL A   1      31.032  30.059  24.655  1.00  0.00     0.274 C 
BRANCH   2   3
ATOM      3  O   UNL A   1      31.120  28.693  24.203  1.00  0.00    -0.462 OA
BRANCH   3   4
ATOM      4  C   UNL A   1      32.212  28.368  23.465  1.00  0.00     0.312 C 
ATOM      5  O   UNL A   1      32.642  29.043  22.535  1.00  0.00    -0.252 OA
BRANCH   4   6
ATOM      6  C   UNL A   1      32.839  27.036  23.876  1.00  0.00     0.124 C 
ATOM      7  C   UNL A   1      31.956  25.691  25.764  1.00  0.00     0.107 C 
ATOM      8  C   UNL A   1      33.066  26.598  26.177  1.00  0.00    -0.006 C 
ATOM      9  C   UNL A   1      31.883  25.886  24.238  1.00  0.00     0.048 C 
ATOM     10  C   UNL A   1      33.606  27.252  25.146  1.00  0.00    -0.014 C 
BRANCH   7  11
ATOM     11  N   UNL A   1      32.414  24.366  26.102  1.00  0.00    -0.332 N 
ATOM     12  O   UNL A   1      30.581  23.658  27.233  1.00  0.00    -0.248 OA
ATOM     13  C   UNL A   1      31.697  23.440  26.771  1.00  0.00     0.319 C 
ATOM     14  N   UNL A   1      32.192  22.167  26.806  1.00  0.00    -0.303 N 
ATOM     15  H   UNL A   1      31.599  21.527  27.261  1.00  0.00     0.172 HD
ATOM     16  H   UNL A   1      33.325  24.118  25.821  1.00  0.00     0.165 HD
BRANCH  14  17
ATOM     17  C   UNL A   1      33.387  21.587  26.320  1.00  0.00     0.115 A 
ATOM     18  C   UNL A   1      34.690  22.010  26.605  1.00  0.00     0.152 A 
ATOM     19  C   UNL A   1      33.247  20.491  25.459  1.00  0.00     0.152 A 
ATOM     20  F   UNL A   1      34.923  22.983  27.495  1.00  0.00    -0.204 F 
ATOM     21  C   UNL A   1      35.801  21.427  26.000  1.00  0.00     0.081 A 
ATOM     22  C   UNL A   1      34.342  19.899  24.837  1.00  0.00     0.081 A 
ATOM     23  F   UNL A   1      32.020  20.026  25.173  1.00  0.00    -0.204 F 
ATOM     24  C   UNL A   1      35.613  20.385  25.106  1.00  0.00     0.129 A 
ATOM     25  F   UNL A   1      36.672  19.840  24.497  1.00  0.00    -0.207 F 
ENDBRANCH  14  17
ENDBRANCH   7  11
ENDBRANCH   4   6
ENDBRANCH   3   4
ENDBRANCH   2   3
ENDBRANCH   1   2
BRANCH   1  26
ATOM     26  O   UNL A   1      32.906  30.431  26.174  1.00  0.00    -0.458 OA
BRANCH  26  27
ATOM     27  C   UNL A   1      33.289  31.404  27.032  1.00  0.00     0.338 C 
ATOM     28  O   UNL A   1      32.644  32.374  27.388  1.00  0.00    -0.246 OA
BRANCH  27  29
ATOM     29  C   UNL A   1      34.624  31.092  27.561  1.00  0.00     0.060 A 
ATOM     30  C   UNL A   1      34.910  29.770  27.893  1.00  0.00     0.016 A 
ATOM     31  C   UNL A   1      35.538  32.104  27.850  1.00  0.00     0.016 A 
ATOM     32  C   UNL A   1      36.067  29.460  28.601  1.00  0.00     0.010 A 
ATOM     33  C   UNL A   1      36.743  31.779  28.485  1.00  0.00     0.010 A 
ATOM     34  C   UNL A   1      37.005  30.459  28.902  1.00  0.00    -0.014 A 
BRANCH  34  35
ATOM     35  C   UNL A   1      38.238  30.120  29.666  1.00  0.00     0.031 A 
ATOM     36  C   UNL A   1      39.271  29.197  29.076  1.00  0.00     0.074 A 
ATOM     37  C   UNL A   1      38.438  30.650  30.890  1.00  0.00     0.049 A 
ATOM     38  N   UNL A   1      40.346  28.697  29.632  1.00  0.00    -0.248 NA
ATOM     39  C   UNL A   1      39.072  28.772  27.680  1.00  0.00     0.031 C 
ATOM     40  C   UNL A   1      37.525  31.566  31.577  1.00  0.00     0.029 A 
ATOM     41  N   UNL A   1      39.473  30.491  31.780  1.00  0.00    -0.354 N 
ATOM     42  C   UNL A   1      40.917  27.860  28.680  1.00  0.00     0.074 A 
ATOM     43  C   UNL A   1      40.072  27.920  27.507  1.00  0.00     0.031 C 
ATOM     44  C   UNL A   1      38.046  31.900  32.768  1.00  0.00     0.029 A 
ATOM     45  C   UNL A   1      39.299  31.178  32.959  1.00  0.00     0.049 A 
ATOM     46  H   UNL A   1      40.266  29.937  31.591  1.00  0.00     0.167 HD
ATOM     47  C   UNL A   1      42.050  27.123  28.768  1.00  0.00     0.034 A 
ATOM     48  C   UNL A   1      40.047  31.207  34.080  1.00  0.00     0.034 A 
ATOM     49  C   UNL A   1      42.926  27.112  29.909  1.00  0.00     0.049 A 
ATOM     50  C   UNL A   1      41.309  30.392  34.139  1.00  0.00     0.074 A 
ATOM     51  C   UNL A   1      44.098  26.397  30.088  1.00  0.00     0.029 A 
ATOM     52  N   UNL A   1      42.742  27.868  31.055  1.00  0.00    -0.354 N 
ATOM     53  N   UNL A   1      41.850  29.640  33.211  1.00  0.00    -0.248 NA
ATOM     54  C   UNL A   1      42.074  30.441  35.394  1.00  0.00     0.031 C 
ATOM     55  C   UNL A   1      44.627  26.728  31.339  1.00  0.00     0.029 A 
ATOM     56  C   UNL A   1      43.785  27.650  31.938  1.00  0.00     0.049 A 
ATOM     57  H   UNL A   1      41.982  28.472  31.218  1.00  0.00     0.167 HD
ATOM     58  C   UNL A   1      43.024  29.142  33.763  1.00  0.00     0.074 A 
ATOM     59  C   UNL A   1      43.135  29.704  35.093  1.00  0.00     0.031 C 
ATOM     60  C   UNL A   1      43.915  28.272  33.230  1.00  0.00     0.034 A 
BRANCH  47  61
ATOM     61  C   UNL A   1      42.445  26.296  27.573  1.00  0.00     0.023 A 
ATOM     62  C   UNL A   1      43.286  26.858  26.594  1.00  0.00     0.012 A 
ATOM     63  C   UNL A   1      42.055  24.947  27.460  1.00  0.00     0.148 A 
ATOM     64  C   UNL A   1      43.720  26.096  25.509  1.00  0.00     0.002 A 
ATOM     65  C   UNL A   1      42.519  24.183  26.395  1.00  0.00     0.091 A 
ATOM     66  F   UNL A   1      41.238  24.437  28.393  1.00  0.00    -0.205 F 
ATOM     67  C   UNL A   1      43.346  24.758  25.416  1.00  0.00     0.022 A 
BRANCH  65  68
ATOM     68  S   UNL A   1      42.150  22.434  26.220  1.00  0.00     0.127 S 
ATOM     69  O   UNL A   1      42.870  22.101  24.992  1.00  0.00    -0.237 OA
ATOM     70  O   UNL A   1      42.730  21.871  27.439  1.00  0.00    -0.237 OA
ATOM     71  O   UNL A   1      40.698  22.336  26.138  1.00  0.00    -0.744 OA
ENDBRANCH  65  68
ENDBRANCH  47  61
BRANCH  48  72
ATOM     72  C   UNL A   1      39.637  32.063  35.230  1.00  0.00     0.023 A 
ATOM     73  C   UNL A   1      39.996  33.425  35.240  1.00  0.00     0.012 A 
ATOM     74  C   UNL A   1      38.875  31.550  36.295  1.00  0.00     0.148 A 
ATOM     75  C   UNL A   1      39.626  34.251  36.303  1.00  0.00     0.002 A 
ATOM     76  C   UNL A   1      38.458  32.392  37.321  1.00  0.00     0.091 A 
ATOM     77  F   UNL A   1      38.563  30.246  36.292  1.00  0.00    -0.205 F 
ATOM     78  C   UNL A   1      38.845  33.739  37.336  1.00  0.00     0.022 A 
BRANCH  76  79
ATOM     79  S   UNL A   1      37.329  31.812  38.592  1.00  0.00     0.127 S 
ATOM     80  O   UNL A   1      38.121  31.986  39.805  1.00  0.00    -0.237 OA
ATOM     81  O   UNL A   1      36.198  32.732  38.459  1.00  0.00    -0.237 OA
ATOM     82  O   UNL A   1      37.020  30.439  38.210  1.00  0.00    -0.744 OA
ENDBRANCH  76  79
ENDBRANCH  48  72
BRANCH  60  83
ATOM     83  C   UNL A   1      45.100  27.889  34.072  1.00  0.00     0.023 A 
ATOM     84  C   UNL A   1      46.270  28.670  34.013  1.00  0.00     0.012 A 
ATOM     85  C   UNL A   1      45.037  26.802  34.965  1.00  0.00     0.148 A 
ATOM     86  C   UNL A   1      47.369  28.362  34.813  1.00  0.00     0.002 A 
ATOM     87  C   UNL A   1      46.124  26.521  35.786  1.00  0.00     0.091 A 
ATOM     88  F   UNL A   1      43.923  26.053  34.989  1.00  0.00    -0.205 F 
ATOM     89  C   UNL A   1      47.292  27.295  35.705  1.00  0.00     0.022 A 
BRANCH  87  90
ATOM     90  S   UNL A   1      46.073  25.213  37.016  1.00  0.00     0.127 S 
ATOM     91  O   UNL A   1      44.865  25.555  37.766  1.00  0.00    -0.237 OA
ATOM     92  O   UNL A   1      45.958  24.008  36.194  1.00  0.00    -0.237 OA
ATOM     93  O   UNL A   1      47.325  25.318  37.753  1.00  0.00    -0.744 OA
ENDBRANCH  87  90
ENDBRANCH  60  83
ENDBRANCH  34  35
ENDBRANCH  27  29
ENDBRANCH  26  27
ENDBRANCH   1  26
TORSDOF 16
ENDMDL
MODEL 2
REMARK VINA RESULT:     -12.3      1.276      1.832
REMARK SMILES O=C(Nc1c(F)cc(F)cc1F)N[C@H]1C=C[C@H](C(=O)OCCOC(=O)c2ccc(-c3c4nc(c(-c5cccc(S(=O)(=O)[O-])c5F)c5ccc([nH]5)c(-c5cccc(S(=O)(=O)[O-])c5F)c5nc(c(-c6cccc(S(=O)(=O)[O-])c6F)c6ccc3[nH]6)C=C5)C=C4)cc2)C1
REMARK SMILES IDX 22 1 21 2 20 3 18 4 19 5 17 6 14 7 15 8 89 9 16 10 13 11
REMARK SMILES IDX 1 12 2 13 3 14 4 17 5 18 11 19 6 20 7 21 10 22 12 23 8 24
REMARK SMILES IDX 9 25 23 26 24 27 25 28 26 29 27 30 88 31 28 32 87 33 29 34
REMARK SMILES IDX 30 35 31 36 81 37 32 38 86 39 80 40 82 41 33 42 85 43 79 44
REMARK SMILES IDX 78 45 34 47 66 48 46 49 65 50 47 51 50 52 64 53 83 54 48 55
REMARK SMILES IDX 49 56 63 58 84 59 51 60 35 61 36 62 44 63 37 64 39 65 45 66
REMARK SMILES IDX 38 67 40 68 41 69 42 70 43 71 67 72 68 73 76 74 69 75 71 76
REMARK SMILES IDX 77 77 70 78 72 79 73 80 74 81 75 82 52 83 53 84 61 85 54 86
REMARK SMILES IDX 56 87 62 88 55 89 57 90 58 91 59 92 60 93
REMARK H PARENT 3 15 13 16 82 46 50 57
REMARK Flexibility Score: inf
ROOT
ATOM      1  C   UNL A   1      31.424  29.970  25.853  1.00  0.00     0.275 C 
ENDROOT
BRANCH   1   2
ATOM      2  C   UNL A   1      30.938  29.844  24.408  1.00  0.00     0.274 C 
BRANCH   2   3
ATOM      3  O   UNL A   1      30.254  28.593  24.203  1.00  0.00    -0.462 OA
BRANCH   3   4
ATOM      4  C   UNL A   1      30.566  27.910  23.072  1.00  0.00     0.312 C 
ATOM      5  O   UNL A   1      30.294  28.292  21.938  1.00  0.00    -0.252 OA
BRANCH   4   6
ATOM      6  C   UNL A   1      31.257  26.574  23.348  1.00  0.00     0.124 C 
ATOM      7  C   UNL A   1      31.526  25.680  25.645  1.00  0.00     0.107 C 
ATOM      8  C   UNL A   1      32.715  26.458  25.190  1.00  0.00    -0.006 C 
ATOM      9  C   UNL A   1      30.619  25.652  24.401  1.00  0.00     0.048 C 
ATOM     10  C   UNL A   1      32.612  26.859  23.921  1.00  0.00    -0.014 C 
BRANCH   7  11
ATOM     11  N   UNL A   1      32.037  24.367  25.952  1.00  0.00    -0.332 N 
ATOM     12  O   UNL A   1      30.358  23.662  27.303  1.00  0.00    -0.248 OA
ATOM     13  C   UNL A   1      31.415  23.447  26.717  1.00  0.00     0.319 C 
ATOM     14  N   UNL A   1      31.927  22.180  26.718  1.00  0.00    -0.303 N 
ATOM     15  H   UNL A   1      31.399  21.543  27.251  1.00  0.00     0.172 HD
ATOM     16  H   UNL A   1      32.911  24.122  25.571  1.00  0.00     0.165 HD
BRANCH  14  17
ATOM     17  C   UNL A   1      33.064  21.603  26.106  1.00  0.00     0.115 A 
ATOM     18  C   UNL A   1      33.059  20.634  25.096  1.00  0.00     0.152 A 
ATOM     19  C   UNL A   1      34.313  22.036  26.568  1.00  0.00     0.152 A 
ATOM     20  F   UNL A   1      31.916  20.235  24.524  1.00  0.00    -0.204 F 
ATOM     21  C   UNL A   1      34.237  20.061  24.623  1.00  0.00     0.081 A 
ATOM     22  C   UNL A   1      35.502  21.471  26.116  1.00  0.00     0.081 A 
ATOM     23  F   UNL A   1      34.375  22.984  27.517  1.00  0.00    -0.204 F 
ATOM     24  C   UNL A   1      35.449  20.474  25.152  1.00  0.00     0.129 A 
ATOM     25  F   UNL A   1      36.584  19.907  24.726  1.00  0.00    -0.207 F 
ENDBRANCH  14  17
ENDBRANCH   7  11
ENDBRANCH   4   6
ENDBRANCH   3   4
ENDBRANCH   2   3
ENDBRANCH   1   2
BRANCH   1  26
ATOM     26  O   UNL A   1      32.805  30.367  25.892  1.00  0.00    -0.458 OA
BRANCH  26  27
ATOM     27  C   UNL A   1      33.119  31.299  26.821  1.00  0.00     0.338 C 
ATOM     28  O   UNL A   1      32.430  32.229  27.199  1.00  0.00    -0.246 OA
BRANCH  27  29
ATOM     29  C   UNL A   1      34.436  30.992  27.396  1.00  0.00     0.060 A 
ATOM     30  C   UNL A   1      34.745  29.661  27.665  1.00  0.00     0.016 A 
ATOM     31  C   UNL A   1      35.304  32.009  27.788  1.00  0.00     0.016 A 
ATOM     32  C   UNL A   1      35.875  29.341  28.410  1.00  0.00     0.010 A 
ATOM     33  C   UNL A   1      36.487  31.679  28.462  1.00  0.00     0.010 A 
ATOM     34  C   UNL A   1      36.768  30.345  28.814  1.00  0.00    -0.014 A 
BRANCH  34  35
ATOM     35  C   UNL A   1      37.972  29.995  29.617  1.00  0.00     0.031 A 
ATOM     36  C   UNL A   1      39.033  29.090  29.047  1.00  0.00     0.074 A 
ATOM     37  C   UNL A   1      38.122  30.497  30.860  1.00  0.00     0.049 A 
ATOM     38  N   UNL A   1      40.088  28.582  29.632  1.00  0.00    -0.248 NA
ATOM     39  C   UNL A   1      38.889  28.696  27.635  1.00  0.00     0.031 C 
ATOM     40  C   UNL A   1      37.178  31.393  31.531  1.00  0.00     0.029 A 
ATOM     41  N   UNL A   1      39.124  30.323  31.785  1.00  0.00    -0.354 N 
ATOM     42  C   UNL A   1      40.699  27.771  28.684  1.00  0.00     0.074 A 
ATOM     43  C   UNL A   1      39.900  27.853  27.481  1.00  0.00     0.031 C 
ATOM     44  C   UNL A   1      37.651  31.702  32.749  1.00  0.00     0.029 A 
ATOM     45  C   UNL A   1      38.900  30.982  32.972  1.00  0.00     0.049 A 
ATOM     46  H   UNL A   1      39.926  29.777  31.614  1.00  0.00     0.167 HD
ATOM     47  C   UNL A   1      41.832  27.036  28.799  1.00  0.00     0.034 A 
ATOM     48  C   UNL A   1      39.605  30.989  34.120  1.00  0.00     0.034 A 
ATOM     49  C   UNL A   1      42.664  27.004  29.972  1.00  0.00     0.049 A 
ATOM     50  C   UNL A   1      40.868  30.179  34.210  1.00  0.00     0.074 A 
ATOM     51  C   UNL A   1      43.832  26.291  30.179  1.00  0.00     0.029 A 
ATOM     52  N   UNL A   1      42.433  27.733  31.127  1.00  0.00    -0.354 N 
ATOM     53  N   UNL A   1      41.449  29.451  33.287  1.00  0.00    -0.248 NA
ATOM     54  C   UNL A   1      41.584  30.203  35.494  1.00  0.00     0.031 C 
ATOM     55  C   UNL A   1      44.312  26.595  31.457  1.00  0.00     0.029 A 
ATOM     56  C   UNL A   1      43.442  27.500  32.044  1.00  0.00     0.049 A 
ATOM     57  H   UNL A   1      41.663  28.329  31.274  1.00  0.00     0.167 HD
ATOM     58  C   UNL A   1      42.603  28.946  33.872  1.00  0.00     0.074 A 
ATOM     59  C   UNL A   1      42.660  29.478  35.217  1.00  0.00     0.031 C 
ATOM     60  C   UNL A   1      43.519  28.092  33.353  1.00  0.00     0.034 A 
BRANCH  47  61
ATOM     61  C   UNL A   1      42.278  26.239  27.601  1.00  0.00     0.023 A 
ATOM     62  C   UNL A   1      43.108  26.845  26.639  1.00  0.00     0.012 A 
ATOM     63  C   UNL A   1      41.945  24.876  27.470  1.00  0.00     0.148 A 
ATOM     64  C   UNL A   1      43.588  26.113  25.554  1.00  0.00     0.002 A 
ATOM     65  C   UNL A   1      42.455  24.144  26.404  1.00  0.00     0.091 A 
ATOM     66  F   UNL A   1      41.138  24.323  28.386  1.00  0.00    -0.205 F 
ATOM     67  C   UNL A   1      43.271  24.762  25.442  1.00  0.00     0.022 A 
BRANCH  65  68
ATOM     68  S   UNL A   1      42.161  22.382  26.206  1.00  0.00     0.127 S 
ATOM     69  O   UNL A   1      42.681  21.853  27.466  1.00  0.00    -0.237 OA
ATOM     70  O   UNL A   1      40.705  22.323  26.074  1.00  0.00    -0.237 OA
ATOM     71  O   UNL A   1      42.895  21.984  25.012  1.00  0.00    -0.744 OA
ENDBRANCH  65  68
ENDBRANCH  47  61
BRANCH  48  72
ATOM     72  C   UNL A   1      39.146  31.817  35.273  1.00  0.00     0.023 A 
ATOM     73  C   UNL A   1      38.232  31.271  36.195  1.00  0.00     0.012 A 
ATOM     74  C   UNL A   1      39.624  33.124  35.478  1.00  0.00     0.148 A 
ATOM     75  C   UNL A   1      37.784  32.022  37.283  1.00  0.00     0.002 A 
ATOM     76  C   UNL A   1      39.221  33.844  36.597  1.00  0.00     0.091 A 
ATOM     77  F   UNL A   1      40.471  33.646  34.579  1.00  0.00    -0.205 F 
ATOM     78  C   UNL A   1      38.288  33.303  37.493  1.00  0.00     0.022 A 
BRANCH  76  79
ATOM     79  S   UNL A   1      39.957  35.436  36.988  1.00  0.00     0.127 S 
ATOM     80  O   UNL A   1      39.327  35.757  38.264  1.00  0.00    -0.237 OA
ATOM     81  O   UNL A   1      41.383  35.118  37.068  1.00  0.00    -0.237 OA
ATOM     82  O   UNL A   1      39.605  36.289  35.858  1.00  0.00    -0.744 OA
ENDBRANCH  76  79
ENDBRANCH  48  72
BRANCH  60  83
ATOM     83  C   UNL A   1      44.673  27.696  34.232  1.00  0.00     0.023 A 
ATOM     84  C   UNL A   1      45.842  28.482  34.233  1.00  0.00     0.012 A 
ATOM     85  C   UNL A   1      44.580  26.590  35.100  1.00  0.00     0.148 A 
ATOM     86  C   UNL A   1      46.911  28.160  35.067  1.00  0.00     0.002 A 
ATOM     87  C   UNL A   1      45.637  26.296  35.955  1.00  0.00     0.091 A 
ATOM     88  F   UNL A   1      43.469  25.839  35.067  1.00  0.00    -0.205 F 
ATOM     89  C   UNL A   1      46.805  27.075  35.934  1.00  0.00     0.022 A 
BRANCH  87  90
ATOM     90  S   UNL A   1      45.545  24.964  37.156  1.00  0.00     0.127 S 
ATOM     91  O   UNL A   1      45.499  23.785  36.292  1.00  0.00    -0.237 OA
ATOM     92  O   UNL A   1      46.794  25.123  37.903  1.00  0.00    -0.237 OA
ATOM     93  O   UNL A   1      44.343  25.222  37.938  1.00  0.00    -0.744 OA
ENDBRANCH  87  90
ENDBRANCH  60  83
ENDBRANCH  34  35
ENDBRANCH  27  29
ENDBRANCH  26  27
ENDBRANCH   1  26
TORSDOF 16
ENDMDL
MODEL 3
REMARK VINA RESULT:     -12.3      5.345      7.986
REMARK SMILES O=C(Nc1c(F)cc(F)cc1F)N[C@H]1C=C[C@H](C(=O)OCCOC(=O)c2ccc(-c3c4nc(c(-c5cccc(S(=O)(=O)[O-])c5F)c5ccc([nH]5)c(-c5cccc(S(=O)(=O)[O-])c5F)c5nc(c(-c6cccc(S(=O)(=O)[O-])c6F)c6ccc3[nH]6)C=C5)C=C4)cc2)C1
REMARK SMILES IDX 22 1 21 2 20 3 18 4 19 5 17 6 14 7 15 8 89 9 16 10 13 11
REMARK SMILES IDX 1 12 2 13 3 14 4 17 5 18 11 19 6 20 7 21 10 22 12 23 8 24
REMARK SMILES IDX 9 25 23 26 24 27 25 28 26 29 27 30 88 31 28 32 87 33 29 34
REMARK SMILES IDX 30 35 31 36 81 37 32 38 86 39 80 40 82 41 33 42 85 43 79 44
REMARK SMILES IDX 78 45 34 47 66 48 46 49 65 50 47 51 50 52 64 53 83 54 48 55
REMARK SMILES IDX 49 56 63 58 84 59 51 60 35 61 36 62 44 63 37 64 39 65 45 66
REMARK SMILES IDX 38 67 40 68 41 69 42 70 43 71 67 72 68 73 76 74 69 75 71 76
REMARK SMILES IDX 77 77 70 78 72 79 73 80 74 81 75 82 52 83 53 84 61 85 54 86
REMARK SMILES IDX 56 87 62 88 55 89 57 90 58 91 59 92 60 93
REMARK H PARENT 3 15 13 16 82 46 50 57
REMARK Flexibility Score: inf
ROOT
ATOM      1  C   UNL A   1      37.547  20.020  24.954  1.00  0.00     0.275 C 
ENDROOT
BRANCH   1   2
ATOM      2  C   UNL A   1      36.018  20.059  24.956  1.00  0.00     0.274 C 
BRANCH   2   3
ATOM      3  O   UNL A   1      35.534  21.199  25.694  1.00  0.00    -0.462 OA
BRANCH   3   4
ATOM      4  C   UNL A   1      34.204  21.456  25.608  1.00  0.00     0.312 C 
ATOM      5  O   UNL A   1      33.333  20.593  25.607  1.00  0.00    -0.252 OA
BRANCH   4   6
ATOM      6  C   UNL A   1      33.889  22.946  25.462  1.00  0.00     0.124 C 
ATOM      7  C   UNL A   1      33.993  24.107  23.274  1.00  0.00     0.107 C 
ATOM      8  C   UNL A   1      35.266  24.221  24.044  1.00  0.00    -0.006 C 
ATOM      9  C   UNL A   1      33.050  23.376  24.247  1.00  0.00     0.048 C 
ATOM     10  C   UNL A   1      35.180  23.679  25.261  1.00  0.00    -0.014 C 
BRANCH   7  11
ATOM     11  N   UNL A   1      33.568  25.468  23.055  1.00  0.00    -0.332 N 
ATOM     12  O   UNL A   1      33.259  25.364  20.811  1.00  0.00    -0.248 OA
ATOM     13  C   UNL A   1      33.201  25.989  21.867  1.00  0.00     0.319 C 
ATOM     14  N   UNL A   1      32.612  27.222  21.876  1.00  0.00    -0.303 N 
ATOM     15  H   UNL A   1      32.317  27.524  20.986  1.00  0.00     0.172 HD
ATOM     16  H   UNL A   1      33.545  26.065  23.838  1.00  0.00     0.165 HD
BRANCH  14  17
ATOM     17  C   UNL A   1      32.341  28.149  22.908  1.00  0.00     0.115 A 
ATOM     18  C   UNL A   1      33.280  28.734  23.765  1.00  0.00     0.152 A 
ATOM     19  C   UNL A   1      30.998  28.503  23.097  1.00  0.00     0.152 A 
ATOM     20  F   UNL A   1      34.593  28.534  23.593  1.00  0.00    -0.204 F 
ATOM     21  C   UNL A   1      32.899  29.568  24.813  1.00  0.00     0.081 A 
ATOM     22  C   UNL A   1      30.595  29.326  24.144  1.00  0.00     0.081 A 
ATOM     23  F   UNL A   1      30.058  27.991  22.286  1.00  0.00    -0.204 F 
ATOM     24  C   UNL A   1      31.554  29.842  25.003  1.00  0.00     0.129 A 
ATOM     25  F   UNL A   1      31.176  30.617  26.026  1.00  0.00    -0.207 F 
ENDBRANCH  14  17
ENDBRANCH   7  11
ENDBRANCH   4   6
ENDBRANCH   3   4
ENDBRANCH   2   3
ENDBRANCH   1   2
BRANCH   1  26
ATOM     26  O   UNL A   1      38.087  21.208  25.558  1.00  0.00    -0.458 OA
BRANCH  26  27
ATOM     27  C   UNL A   1      39.308  21.071  26.123  1.00  0.00     0.338 C 
ATOM     28  O   UNL A   1      40.012  20.077  26.136  1.00  0.00    -0.246 OA
BRANCH  27  29
ATOM     29  C   UNL A   1      39.732  22.360  26.689  1.00  0.00     0.060 A 
ATOM     30  C   UNL A   1      39.147  23.522  26.193  1.00  0.00     0.016 A 
ATOM     31  C   UNL A   1      40.784  22.434  27.600  1.00  0.00     0.016 A 
ATOM     32  C   UNL A   1      39.670  24.767  26.530  1.00  0.00     0.010 A 
ATOM     33  C   UNL A   1      41.251  23.690  28.007  1.00  0.00     0.010 A 
ATOM     34  C   UNL A   1      40.725  24.871  27.448  1.00  0.00    -0.014 A 
BRANCH  34  35
ATOM     35  C   UNL A   1      41.283  26.207  27.798  1.00  0.00     0.031 A 
ATOM     36  C   UNL A   1      42.695  26.567  27.416  1.00  0.00     0.074 A 
ATOM     37  C   UNL A   1      40.518  27.106  28.450  1.00  0.00     0.049 A 
ATOM     38  N   UNL A   1      43.391  27.630  27.732  1.00  0.00    -0.248 NA
ATOM     39  C   UNL A   1      43.427  25.605  26.574  1.00  0.00     0.031 C 
ATOM     40  C   UNL A   1      39.132  26.894  28.871  1.00  0.00     0.029 A 
ATOM     41  N   UNL A   1      40.800  28.381  28.880  1.00  0.00    -0.354 N 
ATOM     42  C   UNL A   1      44.652  27.441  27.179  1.00  0.00     0.074 A 
ATOM     43  C   UNL A   1      44.629  26.162  26.504  1.00  0.00     0.031 C 
ATOM     44  C   UNL A   1      38.680  28.000  29.481  1.00  0.00     0.029 A 
ATOM     45  C   UNL A   1      39.759  28.980  29.551  1.00  0.00     0.049 A 
ATOM     46  H   UNL A   1      41.666  28.824  28.724  1.00  0.00     0.167 HD
ATOM     47  C   UNL A   1      45.727  28.265  27.216  1.00  0.00     0.034 A 
ATOM     48  C   UNL A   1      39.684  30.173  30.173  1.00  0.00     0.034 A 
ATOM     49  C   UNL A   1      45.733  29.566  27.830  1.00  0.00     0.049 A 
ATOM     50  C   UNL A   1      40.888  31.073  30.180  1.00  0.00     0.074 A 
ATOM     51  C   UNL A   1      46.775  30.473  27.915  1.00  0.00     0.029 A 
ATOM     52  N   UNL A   1      44.640  30.157  28.443  1.00  0.00    -0.354 N 
ATOM     53  N   UNL A   1      42.057  30.891  29.616  1.00  0.00    -0.248 NA
ATOM     54  C   UNL A   1      40.759  32.351  30.896  1.00  0.00     0.031 C 
ATOM     55  C   UNL A   1      46.310  31.617  28.572  1.00  0.00     0.029 A 
ATOM     56  C   UNL A   1      44.976  31.421  28.895  1.00  0.00     0.049 A 
ATOM     57  H   UNL A   1      43.754  29.739  28.543  1.00  0.00     0.167 HD
ATOM     58  C   UNL A   1      42.794  32.035  29.893  1.00  0.00     0.074 A 
ATOM     59  C   UNL A   1      41.930  32.921  30.645  1.00  0.00     0.031 C 
ATOM     60  C   UNL A   1      44.082  32.316  29.581  1.00  0.00     0.034 A 
BRANCH  47  61
ATOM     61  C   UNL A   1      46.985  27.811  26.525  1.00  0.00     0.023 A 
ATOM     62  C   UNL A   1      47.990  27.171  27.276  1.00  0.00     0.012 A 
ATOM     63  C   UNL A   1      47.138  27.941  25.130  1.00  0.00     0.148 A 
ATOM     64  C   UNL A   1      49.138  26.682  26.652  1.00  0.00     0.002 A 
ATOM     65  C   UNL A   1      48.269  27.421  24.511  1.00  0.00     0.091 A 
ATOM     66  F   UNL A   1      46.178  28.570  24.438  1.00  0.00    -0.205 F 
ATOM     67  C   UNL A   1      49.272  26.797  25.271  1.00  0.00     0.022 A 
BRANCH  65  68
ATOM     68  S   UNL A   1      48.505  27.458  22.730  1.00  0.00     0.127 S 
ATOM     69  O   UNL A   1      49.829  28.068  22.620  1.00  0.00    -0.237 OA
ATOM     70  O   UNL A   1      48.457  26.038  22.382  1.00  0.00    -0.237 OA
ATOM     71  O   UNL A   1      47.406  28.251  22.196  1.00  0.00    -0.744 OA
ENDBRANCH  65  68
ENDBRANCH  47  61
BRANCH  48  72
ATOM     72  C   UNL A   1      38.409  30.599  30.819  1.00  0.00     0.023 A 
ATOM     73  C   UNL A   1      38.185  30.292  32.175  1.00  0.00     0.012 A 
ATOM     74  C   UNL A   1      37.432  31.325  30.114  1.00  0.00     0.148 A 
ATOM     75  C   UNL A   1      37.001  30.677  32.807  1.00  0.00     0.002 A 
ATOM     76  C   UNL A   1      36.282  31.758  30.766  1.00  0.00     0.091 A 
ATOM     77  F   UNL A   1      37.640  31.587  28.815  1.00  0.00    -0.205 F 
ATOM     78  C   UNL A   1      36.056  31.422  32.108  1.00  0.00     0.022 A 
BRANCH  76  79
ATOM     79  S   UNL A   1      35.109  32.846  29.947  1.00  0.00     0.127 S 
ATOM     80  O   UNL A   1      35.980  33.889  29.417  1.00  0.00    -0.237 OA
ATOM     81  O   UNL A   1      34.512  31.970  28.937  1.00  0.00    -0.237 OA
ATOM     82  O   UNL A   1      34.184  33.246  31.001  1.00  0.00    -0.744 OA
ENDBRANCH  76  79
ENDBRANCH  48  72
BRANCH  60  83
ATOM     83  C   UNL A   1      44.632  33.642  30.031  1.00  0.00     0.023 A 
ATOM     84  C   UNL A   1      45.299  33.728  31.269  1.00  0.00     0.012 A 
ATOM     85  C   UNL A   1      44.548  34.781  29.208  1.00  0.00     0.148 A 
ATOM     86  C   UNL A   1      45.853  34.934  31.692  1.00  0.00     0.002 A 
ATOM     87  C   UNL A   1      45.133  35.973  29.621  1.00  0.00     0.091 A 
ATOM     88  F   UNL A   1      43.886  34.686  28.044  1.00  0.00    -0.205 F 
ATOM     89  C   UNL A   1      45.780  36.053  30.865  1.00  0.00     0.022 A 
BRANCH  87  90
ATOM     90  S   UNL A   1      45.150  37.436  28.578  1.00  0.00     0.127 S 
ATOM     91  O   UNL A   1      45.886  38.387  29.409  1.00  0.00    -0.237 OA
ATOM     92  O   UNL A   1      45.875  36.972  27.394  1.00  0.00    -0.237 OA
ATOM     93  O   UNL A   1      43.751  37.760  28.334  1.00  0.00    -0.744 OA
ENDBRANCH  87  90
ENDBRANCH  60  83
ENDBRANCH  34  35
ENDBRANCH  27  29
ENDBRANCH  26  27
ENDBRANCH   1  26
TORSDOF 16
ENDMDL
