MODEL 1
REMARK VINA RESULT:     -10.9      0.000      0.000
REMARK SMILES O=C(CNC(=O)OCc1ccccc1)NCC(=O)OCCOC(=O)c1ccc(-c2c3nc(c(-c4cccc(S(=O)(=O)[O-])c4F)c4ccc([nH]4)c(-c4cccc(S(=O)(=O)[O-])c4F)c4nc(c(-c5cccc(S(=O)(=O)[O-])c5F)c5ccc2[nH]5)C=C4)C=C3)cc1
REMARK SMILES IDX 19 1 17 2 18 3 16 4 15 5 1 6 2 7 3 9 4 10 5 11 6 13 7 14
REMARK SMILES IDX 8 15 9 16 10 17 14 18 11 19 13 20 12 21 20 22 21 23 22 24
REMARK SMILES IDX 23 25 24 26 25 27 26 28 87 29 27 30 86 31 28 32 29 33 30 34
REMARK SMILES IDX 80 35 31 36 85 37 79 38 81 39 32 40 84 41 78 42 77 43 33 45
REMARK SMILES IDX 65 46 45 47 64 48 46 49 49 50 63 51 82 52 47 53 48 54 62 56
REMARK SMILES IDX 83 57 50 58 34 59 35 60 43 61 36 62 38 63 44 64 37 65 39 66
REMARK SMILES IDX 40 67 41 68 42 69 66 70 67 71 75 72 68 73 70 74 76 75 69 76
REMARK SMILES IDX 71 77 72 78 73 79 74 80 51 81 52 82 60 83 53 84 55 85 61 86
REMARK SMILES IDX 54 87 56 88 57 89 58 90 59 91
REMARK H PARENT 15 8 4 12 81 44 49 55
REMARK Flexibility Score: inf
ROOT
ATOM      1  O   UNL A   1      34.575  20.149  24.894  1.00  0.00    -0.461 OA
ENDROOT
BRANCH   1   2
ATOM      2  C   UNL A   1      33.410  20.257  25.590  1.00  0.00     0.325 C 
ATOM      3  O   UNL A   1      32.370  19.673  25.307  1.00  0.00    -0.250 OA
BRANCH   2   4
ATOM      4  C   UNL A   1      33.513  21.230  26.760  1.00  0.00     0.238 C 
BRANCH   4   5
ATOM      5  N   UNL A   1      32.361  22.089  26.968  1.00  0.00    -0.344 N 
ATOM      6  O   UNL A   1      33.392  24.039  26.348  1.00  0.00    -0.273 OA
ATOM      7  C   UNL A   1      32.375  23.430  26.667  1.00  0.00     0.240 C 
ATOM      8  H   UNL A   1      31.538  21.696  27.339  1.00  0.00     0.164 HD
BRANCH   7   9
ATOM      9  C   UNL A   1      31.035  24.133  26.865  1.00  0.00     0.219 C 
BRANCH   9  10
ATOM     10  N   UNL A   1      31.219  25.565  26.713  1.00  0.00    -0.312 N 
ATOM     11  C   UNL A   1      30.729  26.346  25.719  1.00  0.00     0.407 C 
ATOM     12  H   UNL A   1      31.756  26.016  27.404  1.00  0.00     0.167 HD
ATOM     13  O   UNL A   1      30.983  27.542  25.669  1.00  0.00    -0.225 OA
BRANCH  11  14
ATOM     14  O   UNL A   1      29.924  25.670  24.866  1.00  0.00    -0.445 OA
BRANCH  14  15
ATOM     15  C   UNL A   1      30.377  25.629  23.507  1.00  0.00     0.270 C 
BRANCH  15  16
ATOM     16  C   UNL A   1      31.527  24.672  23.275  1.00  0.00    -0.011 A 
ATOM     17  C   UNL A   1      32.813  25.199  23.077  1.00  0.00     0.007 A 
ATOM     18  C   UNL A   1      31.355  23.282  23.192  1.00  0.00     0.007 A 
ATOM     19  C   UNL A   1      33.891  24.359  22.786  1.00  0.00     0.000 A 
ATOM     20  C   UNL A   1      32.432  22.445  22.892  1.00  0.00     0.000 A 
ATOM     21  C   UNL A   1      33.698  22.984  22.686  1.00  0.00     0.000 A 
ENDBRANCH  15  16
ENDBRANCH  14  15
ENDBRANCH  11  14
ENDBRANCH   9  10
ENDBRANCH   7   9
ENDBRANCH   4   5
ENDBRANCH   2   4
ENDBRANCH   1   2
BRANCH   1  22
ATOM     22  C   UNL A   1      35.641  21.032  25.286  1.00  0.00     0.274 C 
BRANCH  22  23
ATOM     23  C   UNL A   1      36.997  20.335  25.139  1.00  0.00     0.275 C 
BRANCH  23  24
ATOM     24  O   UNL A   1      38.087  21.274  25.082  1.00  0.00    -0.458 OA
BRANCH  24  25
ATOM     25  C   UNL A   1      39.117  21.015  25.922  1.00  0.00     0.338 C 
ATOM     26  O   UNL A   1      39.659  19.938  26.122  1.00  0.00    -0.246 OA
BRANCH  25  27
ATOM     27  C   UNL A   1      39.637  22.270  26.484  1.00  0.00     0.060 A 
ATOM     28  C   UNL A   1      39.018  23.455  26.080  1.00  0.00     0.016 A 
ATOM     29  C   UNL A   1      40.770  22.303  27.296  1.00  0.00     0.016 A 
ATOM     30  C   UNL A   1      39.557  24.682  26.440  1.00  0.00     0.010 A 
ATOM     31  C   UNL A   1      41.296  23.542  27.683  1.00  0.00     0.010 A 
ATOM     32  C   UNL A   1      40.709  24.739  27.234  1.00  0.00    -0.014 A 
BRANCH  32  33
ATOM     33  C   UNL A   1      41.306  26.062  27.549  1.00  0.00     0.031 A 
ATOM     34  C   UNL A   1      42.701  26.391  27.096  1.00  0.00     0.074 A 
ATOM     35  C   UNL A   1      40.579  26.976  28.221  1.00  0.00     0.049 A 
ATOM     36  N   UNL A   1      43.402  27.475  27.305  1.00  0.00    -0.248 NA
ATOM     37  C   UNL A   1      43.406  25.364  26.311  1.00  0.00     0.031 C 
ATOM     38  C   UNL A   1      39.212  26.776  28.705  1.00  0.00     0.029 A 
ATOM     39  N   UNL A   1      40.893  28.249  28.625  1.00  0.00    -0.354 N 
ATOM     40  C   UNL A   1      44.642  27.246  26.720  1.00  0.00     0.074 A 
ATOM     41  C   UNL A   1      44.600  25.916  26.153  1.00  0.00     0.031 C 
ATOM     42  C   UNL A   1      38.808  27.883  29.348  1.00  0.00     0.029 A 
ATOM     43  C   UNL A   1      39.901  28.849  29.364  1.00  0.00     0.049 A 
ATOM     44  H   UNL A   1      41.746  28.690  28.407  1.00  0.00     0.167 HD
ATOM     45  C   UNL A   1      45.714  28.073  26.656  1.00  0.00     0.034 A 
ATOM     46  C   UNL A   1      39.885  30.030  30.011  1.00  0.00     0.034 A 
ATOM     47  C   UNL A   1      45.737  29.407  27.197  1.00  0.00     0.049 A 
ATOM     48  C   UNL A   1      41.092  30.922  29.932  1.00  0.00     0.074 A 
ATOM     49  C   UNL A   1      46.757  30.340  27.138  1.00  0.00     0.029 A 
ATOM     50  N   UNL A   1      44.701  29.994  27.907  1.00  0.00    -0.354 N 
ATOM     51  N   UNL A   1      42.222  30.728  29.295  1.00  0.00    -0.248 NA
ATOM     52  C   UNL A   1      41.011  32.210  30.632  1.00  0.00     0.031 C 
ATOM     53  C   UNL A   1      46.352  31.476  27.847  1.00  0.00     0.029 A 
ATOM     54  C   UNL A   1      45.062  31.270  28.305  1.00  0.00     0.049 A 
ATOM     55  H   UNL A   1      43.835  29.565  28.099  1.00  0.00     0.167 HD
ATOM     56  C   UNL A   1      42.971  31.883  29.488  1.00  0.00     0.074 A 
ATOM     57  C   UNL A   1      42.156  32.780  30.280  1.00  0.00     0.031 C 
ATOM     58  C   UNL A   1      44.224  32.171  29.056  1.00  0.00     0.034 A 
BRANCH  45  59
ATOM     59  C   UNL A   1      46.957  27.562  25.973  1.00  0.00     0.023 A 
ATOM     60  C   UNL A   1      47.882  26.772  26.685  1.00  0.00     0.012 A 
ATOM     61  C   UNL A   1      47.177  27.817  24.604  1.00  0.00     0.148 A 
ATOM     62  C   UNL A   1      49.023  26.273  26.055  1.00  0.00     0.002 A 
ATOM     63  C   UNL A   1      48.290  27.276  23.972  1.00  0.00     0.091 A 
ATOM     64  F   UNL A   1      46.297  28.587  23.949  1.00  0.00    -0.205 F 
ATOM     65  C   UNL A   1      49.221  26.516  24.698  1.00  0.00     0.022 A 
BRANCH  63  66
ATOM     66  S   UNL A   1      48.591  27.462  22.211  1.00  0.00     0.127 S 
ATOM     67  O   UNL A   1      49.878  28.156  22.203  1.00  0.00    -0.237 OA
ATOM     68  O   UNL A   1      48.645  26.072  21.760  1.00  0.00    -0.237 OA
ATOM     69  O   UNL A   1      47.469  28.229  21.688  1.00  0.00    -0.744 OA
ENDBRANCH  63  66
ENDBRANCH  45  59
BRANCH  46  70
ATOM     70  C   UNL A   1      38.677  30.440  30.782  1.00  0.00     0.023 A 
ATOM     71  C   UNL A   1      38.566  30.096  32.143  1.00  0.00     0.012 A 
ATOM     72  C   UNL A   1      37.645  31.181  30.174  1.00  0.00     0.148 A 
ATOM     73  C   UNL A   1      37.433  30.452  32.875  1.00  0.00     0.002 A 
ATOM     74  C   UNL A   1      36.548  31.585  30.924  1.00  0.00     0.091 A 
ATOM     75  F   UNL A   1      37.764  31.488  28.875  1.00  0.00    -0.205 F 
ATOM     76  C   UNL A   1      36.430  31.205  32.269  1.00  0.00     0.022 A 
BRANCH  74  77
ATOM     77  S   UNL A   1      35.274  32.664  30.263  1.00  0.00     0.127 S 
ATOM     78  O   UNL A   1      34.375  32.799  31.406  1.00  0.00    -0.237 OA
ATOM     79  O   UNL A   1      36.040  33.867  29.934  1.00  0.00    -0.237 OA
ATOM     80  O   UNL A   1      34.725  31.966  29.108  1.00  0.00    -0.744 OA
ENDBRANCH  74  77
ENDBRANCH  46  70
BRANCH  58  81
ATOM     81  C   UNL A   1      44.776  33.535  29.384  1.00  0.00     0.023 A 
ATOM     82  C   UNL A   1      45.584  33.718  30.523  1.00  0.00     0.012 A 
ATOM     83  C   UNL A   1      44.529  34.628  28.529  1.00  0.00     0.148 A 
ATOM     84  C   UNL A   1      46.102  34.977  30.830  1.00  0.00     0.002 A 
ATOM     85  C   UNL A   1      45.094  35.865  28.810  1.00  0.00     0.091 A 
ATOM     86  F   UNL A   1      43.743  34.439  27.459  1.00  0.00    -0.205 F 
ATOM     87  C   UNL A   1      45.866  36.046  29.969  1.00  0.00     0.022 A 
BRANCH  85  88
ATOM     88  S   UNL A   1      44.928  37.272  27.706  1.00  0.00     0.127 S 
ATOM     89  O   UNL A   1      43.515  37.197  27.339  1.00  0.00    -0.237 OA
ATOM     90  O   UNL A   1      45.273  38.394  28.580  1.00  0.00    -0.237 OA
ATOM     91  O   UNL A   1      45.869  37.042  26.619  1.00  0.00    -0.744 OA
ENDBRANCH  85  88
ENDBRANCH  58  81
ENDBRANCH  32  33
ENDBRANCH  25  27
ENDBRANCH  24  25
ENDBRANCH  23  24
ENDBRANCH  22  23
ENDBRANCH   1  22
TORSDOF 20
ENDMDL
MODEL 2
REMARK VINA RESULT:     -10.8      5.820      9.877
REMARK SMILES O=C(CNC(=O)OCc1ccccc1)NCC(=O)OCCOC(=O)c1ccc(-c2c3nc(c(-c4cccc(S(=O)(=O)[O-])c4F)c4ccc([nH]4)c(-c4cccc(S(=O)(=O)[O-])c4F)c4nc(c(-c5cccc(S(=O)(=O)[O-])c5F)c5ccc2[nH]5)C=C4)C=C3)cc1
REMARK SMILES IDX 19 1 17 2 18 3 16 4 15 5 1 6 2 7 3 9 4 10 5 11 6 13 7 14
REMARK SMILES IDX 8 15 9 16 10 17 14 18 11 19 13 20 12 21 20 22 21 23 22 24
REMARK SMILES IDX 23 25 24 26 25 27 26 28 87 29 27 30 86 31 28 32 29 33 30 34
REMARK SMILES IDX 80 35 31 36 85 37 79 38 81 39 32 40 84 41 78 42 77 43 33 45
REMARK SMILES IDX 65 46 45 47 64 48 46 49 49 50 63 51 82 52 47 53 48 54 62 56
REMARK SMILES IDX 83 57 50 58 34 59 35 60 43 61 36 62 38 63 44 64 37 65 39 66
REMARK SMILES IDX 40 67 41 68 42 69 66 70 67 71 75 72 68 73 70 74 76 75 69 76
REMARK SMILES IDX 71 77 72 78 73 79 74 80 51 81 52 82 60 83 53 84 55 85 61 86
REMARK SMILES IDX 54 87 56 88 57 89 58 90 59 91
REMARK H PARENT 15 8 4 12 81 44 49 55
REMARK Flexibility Score: inf
ROOT
ATOM      1  O   UNL A   1      33.306  34.686  29.215  1.00  0.00    -0.461 OA
ENDROOT
BRANCH   1   2
ATOM      2  C   UNL A   1      33.611  35.997  29.012  1.00  0.00     0.325 C 
ATOM      3  O   UNL A   1      34.295  36.420  28.087  1.00  0.00    -0.250 OA
BRANCH   2   4
ATOM      4  C   UNL A   1      33.037  36.907  30.093  1.00  0.00     0.238 C 
BRANCH   4   5
ATOM      5  N   UNL A   1      33.775  36.942  31.343  1.00  0.00    -0.344 N 
ATOM      6  O   UNL A   1      31.946  36.783  32.714  1.00  0.00    -0.273 OA
ATOM      7  C   UNL A   1      33.165  36.797  32.566  1.00  0.00     0.240 C 
ATOM      8  H   UNL A   1      34.751  37.074  31.314  1.00  0.00     0.164 HD
BRANCH   7   9
ATOM      9  C   UNL A   1      34.128  36.763  33.749  1.00  0.00     0.219 C 
BRANCH   9  10
ATOM     10  N   UNL A   1      34.258  35.395  34.219  1.00  0.00    -0.312 N 
ATOM     11  C   UNL A   1      35.302  34.557  34.000  1.00  0.00     0.407 C 
ATOM     12  H   UNL A   1      33.511  35.039  34.752  1.00  0.00     0.167 HD
ATOM     13  O   UNL A   1      35.286  33.405  34.412  1.00  0.00    -0.225 OA
BRANCH  11  14
ATOM     14  O   UNL A   1      36.326  35.152  33.345  1.00  0.00    -0.445 OA
BRANCH  14  15
ATOM     15  C   UNL A   1      37.506  34.351  33.208  1.00  0.00     0.270 C 
BRANCH  15  16
ATOM     16  C   UNL A   1      37.960  34.171  31.775  1.00  0.00    -0.011 A 
ATOM     17  C   UNL A   1      37.168  33.402  30.908  1.00  0.00     0.007 A 
ATOM     18  C   UNL A   1      39.169  34.692  31.289  1.00  0.00     0.007 A 
ATOM     19  C   UNL A   1      37.584  33.146  29.599  1.00  0.00     0.000 A 
ATOM     20  C   UNL A   1      39.587  34.430  29.982  1.00  0.00     0.000 A 
ATOM     21  C   UNL A   1      38.796  33.654  29.140  1.00  0.00     0.000 A 
ENDBRANCH  15  16
ENDBRANCH  14  15
ENDBRANCH  11  14
ENDBRANCH   9  10
ENDBRANCH   7   9
ENDBRANCH   4   5
ENDBRANCH   2   4
ENDBRANCH   1   2
BRANCH   1  22
ATOM     22  C   UNL A   1      33.284  33.843  28.049  1.00  0.00     0.274 C 
BRANCH  22  23
ATOM     23  C   UNL A   1      34.563  33.005  27.968  1.00  0.00     0.275 C 
BRANCH  23  24
ATOM     24  O   UNL A   1      34.460  31.783  28.725  1.00  0.00    -0.458 OA
BRANCH  24  25
ATOM     25  C   UNL A   1      34.620  30.645  28.009  1.00  0.00     0.338 C 
ATOM     26  O   UNL A   1      33.857  30.180  27.175  1.00  0.00    -0.246 OA
BRANCH  25  27
ATOM     27  C   UNL A   1      35.956  30.082  28.250  1.00  0.00     0.060 A 
ATOM     28  C   UNL A   1      36.191  29.511  29.502  1.00  0.00     0.016 A 
ATOM     29  C   UNL A   1      36.989  30.205  27.321  1.00  0.00     0.016 A 
ATOM     30  C   UNL A   1      37.471  29.107  29.857  1.00  0.00     0.010 A 
ATOM     31  C   UNL A   1      38.274  29.771  27.670  1.00  0.00     0.010 A 
ATOM     32  C   UNL A   1      38.529  29.246  28.950  1.00  0.00    -0.014 A 
BRANCH  32  33
ATOM     33  C   UNL A   1      39.901  28.871  29.376  1.00  0.00     0.031 A 
ATOM     34  C   UNL A   1      40.597  27.698  28.745  1.00  0.00     0.074 A 
ATOM     35  C   UNL A   1      40.529  29.605  30.315  1.00  0.00     0.049 A 
ATOM     36  N   UNL A   1      41.776  27.199  29.010  1.00  0.00    -0.248 NA
ATOM     37  C   UNL A   1      39.870  26.986  27.681  1.00  0.00     0.031 C 
ATOM     38  C   UNL A   1      39.959  30.771  30.994  1.00  0.00     0.029 A 
ATOM     39  N   UNL A   1      41.776  29.473  30.871  1.00  0.00    -0.354 N 
ATOM     40  C   UNL A   1      41.916  26.090  28.182  1.00  0.00     0.074 A 
ATOM     41  C   UNL A   1      40.697  25.986  27.410  1.00  0.00     0.031 C 
ATOM     42  C   UNL A   1      40.850  31.241  31.880  1.00  0.00     0.029 A 
ATOM     43  C   UNL A   1      42.031  30.384  31.868  1.00  0.00     0.049 A 
ATOM     44  H   UNL A   1      42.426  28.791  30.583  1.00  0.00     0.167 HD
ATOM     45  C   UNL A   1      42.968  25.243  28.071  1.00  0.00     0.034 A 
ATOM     46  C   UNL A   1      43.083  30.498  32.701  1.00  0.00     0.034 A 
ATOM     47  C   UNL A   1      44.190  25.372  28.822  1.00  0.00     0.049 A 
ATOM     48  C   UNL A   1      44.231  29.537  32.563  1.00  0.00     0.074 A 
ATOM     49  C   UNL A   1      45.332  24.594  28.743  1.00  0.00     0.029 A 
ATOM     50  N   UNL A   1      44.426  26.329  29.795  1.00  0.00    -0.354 N 
ATOM     51  N   UNL A   1      44.385  28.552  31.711  1.00  0.00    -0.248 NA
ATOM     52  C   UNL A   1      45.364  29.722  33.479  1.00  0.00     0.031 C 
ATOM     53  C   UNL A   1      46.242  25.057  29.699  1.00  0.00     0.029 A 
ATOM     54  C   UNL A   1      45.689  26.153  30.338  1.00  0.00     0.049 A 
ATOM     55  H   UNL A   1      43.789  27.031  30.063  1.00  0.00     0.167 HD
ATOM     56  C   UNL A   1      45.646  28.025  31.963  1.00  0.00     0.074 A 
ATOM     57  C   UNL A   1      46.221  28.815  33.032  1.00  0.00     0.031 C 
ATOM     58  C   UNL A   1      46.268  26.975  31.370  1.00  0.00     0.034 A 
BRANCH  45  59
ATOM     59  C   UNL A   1      42.849  24.097  27.099  1.00  0.00     0.023 A 
ATOM     60  C   UNL A   1      43.380  24.213  25.799  1.00  0.00     0.012 A 
ATOM     61  C   UNL A   1      42.263  22.878  27.498  1.00  0.00     0.148 A 
ATOM     62  C   UNL A   1      43.298  23.150  24.900  1.00  0.00     0.002 A 
ATOM     63  C   UNL A   1      42.228  21.807  26.613  1.00  0.00     0.091 A 
ATOM     64  F   UNL A   1      41.745  22.792  28.732  1.00  0.00    -0.205 F 
ATOM     65  C   UNL A   1      42.733  21.944  25.310  1.00  0.00     0.022 A 
BRANCH  63  66
ATOM     66  S   UNL A   1      41.597  20.190  27.073  1.00  0.00     0.127 S 
ATOM     67  O   UNL A   1      40.453  20.547  27.912  1.00  0.00    -0.237 OA
ATOM     68  O   UNL A   1      41.245  19.617  25.774  1.00  0.00    -0.237 OA
ATOM     69  O   UNL A   1      42.685  19.512  27.763  1.00  0.00    -0.744 OA
ENDBRANCH  63  66
ENDBRANCH  45  59
BRANCH  46  70
ATOM     70  C   UNL A   1      43.101  31.571  33.736  1.00  0.00     0.023 A 
ATOM     71  C   UNL A   1      43.652  32.829  33.429  1.00  0.00     0.012 A 
ATOM     72  C   UNL A   1      42.562  31.351  35.019  1.00  0.00     0.148 A 
ATOM     73  C   UNL A   1      43.699  33.838  34.392  1.00  0.00     0.002 A 
ATOM     74  C   UNL A   1      42.556  32.378  35.953  1.00  0.00     0.091 A 
ATOM     75  F   UNL A   1      42.053  30.141  35.295  1.00  0.00    -0.205 F 
ATOM     76  C   UNL A   1      43.142  33.616  35.649  1.00  0.00     0.022 A 
BRANCH  74  77
ATOM     77  S   UNL A   1      41.746  32.225  37.548  1.00  0.00     0.127 S 
ATOM     78  O   UNL A   1      40.393  31.836  37.160  1.00  0.00    -0.237 OA
ATOM     79  O   UNL A   1      42.533  31.168  38.184  1.00  0.00    -0.237 OA
ATOM     80  O   UNL A   1      41.870  33.532  38.181  1.00  0.00    -0.744 OA
ENDBRANCH  74  77
ENDBRANCH  46  70
BRANCH  58  81
ATOM     81  C   UNL A   1      47.667  26.649  31.825  1.00  0.00     0.023 A 
ATOM     82  C   UNL A   1      47.878  25.716  32.859  1.00  0.00     0.012 A 
ATOM     83  C   UNL A   1      48.779  27.236  31.188  1.00  0.00     0.148 A 
ATOM     84  C   UNL A   1      49.171  25.406  33.282  1.00  0.00     0.002 A 
ATOM     85  C   UNL A   1      50.064  26.881  31.576  1.00  0.00     0.091 A 
ATOM     86  F   UNL A   1      48.559  28.135  30.218  1.00  0.00    -0.205 F 
ATOM     87  C   UNL A   1      50.263  25.980  32.634  1.00  0.00     0.022 A 
BRANCH  85  88
ATOM     88  S   UNL A   1      51.527  27.491  30.731  1.00  0.00     0.127 S 
ATOM     89  O   UNL A   1      51.278  27.061  29.357  1.00  0.00    -0.237 OA
ATOM     90  O   UNL A   1      51.428  28.936  30.946  1.00  0.00    -0.237 OA
ATOM     91  O   UNL A   1      52.663  26.860  31.388  1.00  0.00    -0.744 OA
ENDBRANCH  85  88
ENDBRANCH  58  81
ENDBRANCH  32  33
ENDBRANCH  25  27
ENDBRANCH  24  25
ENDBRANCH  23  24
ENDBRANCH  22  23
ENDBRANCH   1  22
TORSDOF 20
ENDMDL
MODEL 3
REMARK VINA RESULT:     -10.6      4.307      7.410
REMARK SMILES O=C(CNC(=O)OCc1ccccc1)NCC(=O)OCCOC(=O)c1ccc(-c2c3nc(c(-c4cccc(S(=O)(=O)[O-])c4F)c4ccc([nH]4)c(-c4cccc(S(=O)(=O)[O-])c4F)c4nc(c(-c5cccc(S(=O)(=O)[O-])c5F)c5ccc2[nH]5)C=C4)C=C3)cc1
REMARK SMILES IDX 19 1 17 2 18 3 16 4 15 5 1 6 2 7 3 9 4 10 5 11 6 13 7 14
REMARK SMILES IDX 8 15 9 16 10 17 14 18 11 19 13 20 12 21 20 22 21 23 22 24
REMARK SMILES IDX 23 25 24 26 25 27 26 28 87 29 27 30 86 31 28 32 29 33 30 34
REMARK SMILES IDX 80 35 31 36 85 37 79 38 81 39 32 40 84 41 78 42 77 43 33 45
REMARK SMILES IDX 65 46 45 47 64 48 46 49 49 50 63 51 82 52 47 53 48 54 62 56
REMARK SMILES IDX 83 57 50 58 34 59 35 60 43 61 36 62 38 63 44 64 37 65 39 66
REMARK SMILES IDX 40 67 41 68 42 69 66 70 67 71 75 72 68 73 70 74 76 75 69 76
REMARK SMILES IDX 71 77 72 78 73 79 74 80 51 81 52 82 60 83 53 84 55 85 61 86
REMARK SMILES IDX 54 87 56 88 57 89 58 90 59 91
REMARK H PARENT 15 8 4 12 81 44 49 55
REMARK Flexibility Score: inf
ROOT
ATOM      1  O   UNL A   1      42.958  19.692  25.646  1.00  0.00    -0.461 OA
ENDROOT
BRANCH   1   2
ATOM      2  C   UNL A   1      43.943  18.784  25.407  1.00  0.00     0.325 C 
ATOM      3  O   UNL A   1      44.143  17.778  26.077  1.00  0.00    -0.250 OA
BRANCH   2   4
ATOM      4  C   UNL A   1      44.820  19.168  24.219  1.00  0.00     0.238 C 
BRANCH   4   5
ATOM      5  N   UNL A   1      44.805  20.574  23.855  1.00  0.00    -0.344 N 
ATOM      6  O   UNL A   1      46.380  21.240  25.381  1.00  0.00    -0.273 OA
ATOM      7  C   UNL A   1      45.655  21.493  24.422  1.00  0.00     0.240 C 
ATOM      8  H   UNL A   1      44.162  20.880  23.175  1.00  0.00     0.164 HD
BRANCH   7   9
ATOM      9  C   UNL A   1      45.549  22.895  23.831  1.00  0.00     0.219 C 
BRANCH   9  10
ATOM     10  N   UNL A   1      44.330  23.525  24.310  1.00  0.00    -0.312 N 
ATOM     11  C   UNL A   1      44.225  24.739  24.906  1.00  0.00     0.407 C 
ATOM     12  H   UNL A   1      43.496  23.018  24.189  1.00  0.00     0.167 HD
ATOM     13  O   UNL A   1      43.146  25.154  25.309  1.00  0.00    -0.225 OA
BRANCH  11  14
ATOM     14  O   UNL A   1      45.398  25.411  24.946  1.00  0.00    -0.445 OA
BRANCH  14  15
ATOM     15  C   UNL A   1      46.165  25.223  26.141  1.00  0.00     0.270 C 
BRANCH  15  16
ATOM     16  C   UNL A   1      47.649  25.469  25.960  1.00  0.00    -0.011 A 
ATOM     17  C   UNL A   1      48.520  25.137  27.009  1.00  0.00     0.007 A 
ATOM     18  C   UNL A   1      48.186  26.069  24.811  1.00  0.00     0.007 A 
ATOM     19  C   UNL A   1      49.887  25.415  26.917  1.00  0.00     0.000 A 
ATOM     20  C   UNL A   1      49.550  26.354  24.724  1.00  0.00     0.000 A 
ATOM     21  C   UNL A   1      50.398  26.030  25.778  1.00  0.00     0.000 A 
ENDBRANCH  15  16
ENDBRANCH  14  15
ENDBRANCH  11  14
ENDBRANCH   9  10
ENDBRANCH   7   9
ENDBRANCH   4   5
ENDBRANCH   2   4
ENDBRANCH   1   2
BRANCH   1  22
ATOM     22  C   UNL A   1      41.957  19.315  26.609  1.00  0.00     0.274 C 
BRANCH  22  23
ATOM     23  C   UNL A   1      40.697  20.169  26.436  1.00  0.00     0.275 C 
BRANCH  23  24
ATOM     24  O   UNL A   1      40.929  21.552  26.766  1.00  0.00    -0.458 OA
BRANCH  24  25
ATOM     25  C   UNL A   1      39.896  22.388  26.505  1.00  0.00     0.338 C 
ATOM     26  O   UNL A   1      38.838  22.112  25.960  1.00  0.00    -0.246 OA
BRANCH  25  27
ATOM     27  C   UNL A   1      40.143  23.700  27.120  1.00  0.00     0.060 A 
ATOM     28  C   UNL A   1      39.587  24.815  26.489  1.00  0.00     0.016 A 
ATOM     29  C   UNL A   1      40.987  23.855  28.219  1.00  0.00     0.016 A 
ATOM     30  C   UNL A   1      39.911  26.094  26.919  1.00  0.00     0.010 A 
ATOM     31  C   UNL A   1      41.291  25.146  28.669  1.00  0.00     0.010 A 
ATOM     32  C   UNL A   1      40.777  26.274  28.004  1.00  0.00    -0.014 A 
BRANCH  32  33
ATOM     33  C   UNL A   1      41.164  27.652  28.401  1.00  0.00     0.031 A 
ATOM     34  C   UNL A   1      42.604  28.080  28.345  1.00  0.00     0.074 A 
ATOM     35  C   UNL A   1      40.213  28.525  28.786  1.00  0.00     0.049 A 
ATOM     36  N   UNL A   1      43.137  29.225  28.684  1.00  0.00    -0.248 NA
ATOM     37  C   UNL A   1      43.575  27.089  27.852  1.00  0.00     0.031 C 
ATOM     38  C   UNL A   1      38.781  28.227  28.872  1.00  0.00     0.029 A 
ATOM     39  N   UNL A   1      40.307  29.832  29.191  1.00  0.00    -0.354 N 
ATOM     40  C   UNL A   1      44.506  29.081  28.490  1.00  0.00     0.074 A 
ATOM     41  C   UNL A   1      44.723  27.733  28.009  1.00  0.00     0.031 C 
ATOM     42  C   UNL A   1      38.133  29.317  29.310  1.00  0.00     0.029 A 
ATOM     43  C   UNL A   1      39.104  30.372  29.583  1.00  0.00     0.049 A 
ATOM     44  H   UNL A   1      41.153  30.335  29.200  1.00  0.00     0.167 HD
ATOM     45  C   UNL A   1      45.490  29.991  28.687  1.00  0.00     0.034 A 
ATOM     46  C   UNL A   1      38.820  31.568  30.131  1.00  0.00     0.034 A 
ATOM     47  C   UNL A   1      45.263  31.340  29.136  1.00  0.00     0.049 A 
ATOM     48  C   UNL A   1      39.933  32.554  30.348  1.00  0.00     0.074 A 
ATOM     49  C   UNL A   1      46.189  32.353  29.317  1.00  0.00     0.029 A 
ATOM     50  N   UNL A   1      44.028  31.862  29.488  1.00  0.00    -0.354 N 
ATOM     51  N   UNL A   1      41.210  32.434  30.071  1.00  0.00    -0.248 NA
ATOM     52  C   UNL A   1      39.564  33.854  30.924  1.00  0.00     0.031 C 
ATOM     53  C   UNL A   1      45.518  33.474  29.817  1.00  0.00     0.029 A 
ATOM     54  C   UNL A   1      44.169  33.177  29.900  1.00  0.00     0.049 A 
ATOM     55  H   UNL A   1      43.176  31.370  29.450  1.00  0.00     0.167 HD
ATOM     56  C   UNL A   1      41.788  33.653  30.403  1.00  0.00     0.074 A 
ATOM     57  C   UNL A   1      40.719  34.505  30.880  1.00  0.00     0.031 C 
ATOM     58  C   UNL A   1      43.089  34.030  30.330  1.00  0.00     0.034 A 
BRANCH  45  59
ATOM     59  C   UNL A   1      46.910  29.563  28.415  1.00  0.00     0.023 A 
ATOM     60  C   UNL A   1      47.495  29.807  27.157  1.00  0.00     0.012 A 
ATOM     61  C   UNL A   1      47.686  28.972  29.433  1.00  0.00     0.148 A 
ATOM     62  C   UNL A   1      48.816  29.438  26.903  1.00  0.00     0.002 A 
ATOM     63  C   UNL A   1      49.016  28.651  29.189  1.00  0.00     0.091 A 
ATOM     64  F   UNL A   1      47.108  28.729  30.618  1.00  0.00    -0.205 F 
ATOM     65  C   UNL A   1      49.579  28.871  27.921  1.00  0.00     0.022 A 
BRANCH  63  66
ATOM     66  S   UNL A   1      50.104  27.994  30.457  1.00  0.00     0.127 S 
ATOM     67  O   UNL A   1      49.325  26.861  30.956  1.00  0.00    -0.237 OA
ATOM     68  O   UNL A   1      51.289  27.625  29.684  1.00  0.00    -0.237 OA
ATOM     69  O   UNL A   1      50.311  29.074  31.412  1.00  0.00    -0.744 OA
ENDBRANCH  63  66
ENDBRANCH  45  59
BRANCH  46  70
ATOM     70  C   UNL A   1      37.416  31.902  30.503  1.00  0.00     0.023 A 
ATOM     71  C   UNL A   1      36.927  31.550  31.775  1.00  0.00     0.012 A 
ATOM     72  C   UNL A   1      36.568  32.579  29.604  1.00  0.00     0.148 A 
ATOM     73  C   UNL A   1      35.608  31.835  32.133  1.00  0.00     0.002 A 
ATOM     74  C   UNL A   1      35.277  32.913  29.988  1.00  0.00     0.091 A 
ATOM     75  F   UNL A   1      37.050  32.894  28.393  1.00  0.00    -0.205 F 
ATOM     76  C   UNL A   1      34.788  32.524  31.244  1.00  0.00     0.022 A 
BRANCH  74  77
ATOM     77  S   UNL A   1      34.194  33.912  28.961  1.00  0.00     0.127 S 
ATOM     78  O   UNL A   1      33.255  34.443  29.946  1.00  0.00    -0.237 OA
ATOM     79  O   UNL A   1      35.128  34.893  28.407  1.00  0.00    -0.237 OA
ATOM     80  O   UNL A   1      33.628  32.998  27.978  1.00  0.00    -0.744 OA
ENDBRANCH  74  77
ENDBRANCH  46  70
BRANCH  58  81
ATOM     81  C   UNL A   1      43.426  35.445  30.724  1.00  0.00     0.023 A 
ATOM     82  C   UNL A   1      43.817  35.740  32.045  1.00  0.00     0.012 A 
ATOM     83  C   UNL A   1      43.401  36.477  29.765  1.00  0.00     0.148 A 
ATOM     84  C   UNL A   1      44.135  37.047  32.416  1.00  0.00     0.002 A 
ATOM     85  C   UNL A   1      43.772  37.765  30.127  1.00  0.00     0.091 A 
ATOM     86  F   UNL A   1      43.009  36.182  28.517  1.00  0.00    -0.205 F 
ATOM     87  C   UNL A   1      44.123  38.056  31.456  1.00  0.00     0.022 A 
BRANCH  85  88
ATOM     88  S   UNL A   1      43.885  39.105  28.937  1.00  0.00     0.127 S 
ATOM     89  O   UNL A   1      44.823  38.557  27.959  1.00  0.00    -0.237 OA
ATOM     90  O   UNL A   1      42.504  39.214  28.463  1.00  0.00    -0.237 OA
ATOM     91  O   UNL A   1      44.361  40.264  29.679  1.00  0.00    -0.744 OA
ENDBRANCH  85  88
ENDBRANCH  58  81
ENDBRANCH  32  33
ENDBRANCH  25  27
ENDBRANCH  24  25
ENDBRANCH  23  24
ENDBRANCH  22  23
ENDBRANCH   1  22
TORSDOF 20
ENDMDL
