MODEL 1
REMARK VINA RESULT:     -11.8      0.000      0.000
REMARK SMILES Cc1ccnc(C(=O)c2[nH]c3ccc(F)cc3c2CC(=O)OCCOC(=O)c2ccc(-c3c4nc(c(-c5cccc(S(=O)(=O)[O-])c5F)c5ccc([nH]5)c(-c5cccc(S(=O)(=O)[O-])c5F)c5nc(c(-c6cccc(S(=O)(=O)[O-])c6F)c6ccc3[nH]6)C=C5)C=C4)cc2)c1
REMARK SMILES IDX 23 1 22 2 20 3 21 4 19 5 18 6 9 7 10 8 11 9 17 11 12 12
REMARK SMILES IDX 16 13 13 14 14 15 15 16 7 17 8 18 6 19 1 20 2 21 3 22 91 23
REMARK SMILES IDX 4 24 5 25 24 26 25 27 26 28 27 29 28 30 29 31 90 32 30 33
REMARK SMILES IDX 89 34 31 35 32 36 33 37 83 38 34 39 88 40 82 41 84 42 35 43
REMARK SMILES IDX 87 44 81 45 80 46 36 48 68 49 48 50 67 51 49 52 52 53 66 54
REMARK SMILES IDX 85 55 50 56 51 57 65 59 86 60 53 61 37 62 38 63 46 64 39 65
REMARK SMILES IDX 41 66 47 67 40 68 42 69 43 70 44 71 45 72 69 73 70 74 78 75
REMARK SMILES IDX 71 76 73 77 79 78 72 79 74 80 75 81 76 82 77 83 54 84 55 85
REMARK SMILES IDX 63 86 56 87 58 88 64 89 57 90 59 91 60 92 61 93 62 94
REMARK H PARENT 10 10 84 47 52 58
REMARK Flexibility Score: inf
ROOT
ATOM      1  C   UNL A   1      31.410  29.306  25.974  1.00  0.00     0.274 C 
ENDROOT
BRANCH   1   2
ATOM      2  O   UNL A   1      31.683  28.352  27.023  1.00  0.00    -0.462 OA
BRANCH   2   3
ATOM      3  C   UNL A   1      32.271  27.192  26.626  1.00  0.00     0.310 C 
ATOM      4  O   UNL A   1      31.747  26.087  26.749  1.00  0.00    -0.252 OA
BRANCH   3   5
ATOM      5  C   UNL A   1      33.571  27.370  25.870  1.00  0.00     0.161 C 
BRANCH   5   6
ATOM      6  C   UNL A   1      33.780  26.567  24.621  1.00  0.00     0.000 A 
ATOM      7  C   UNL A   1      33.277  26.808  23.337  1.00  0.00     0.093 A 
ATOM      8  N   UNL A   1      33.439  25.635  22.630  1.00  0.00    -0.352 N 
ATOM      9  C   UNL A   1      34.003  24.655  23.410  1.00  0.00     0.046 A 
ATOM     10  H   UNL A   1      33.183  25.515  21.687  1.00  0.00     0.167 HD
ATOM     11  C   UNL A   1      34.312  25.236  24.635  1.00  0.00     0.007 A 
ATOM     12  C   UNL A   1      34.199  23.292  23.147  1.00  0.00     0.030 A 
ATOM     13  C   UNL A   1      34.899  24.436  25.638  1.00  0.00     0.049 A 
ATOM     14  C   UNL A   1      34.755  22.513  24.165  1.00  0.00     0.041 A 
ATOM     15  C   UNL A   1      35.112  23.085  25.379  1.00  0.00     0.123 A 
ATOM     16  F   UNL A   1      35.642  22.311  26.337  1.00  0.00    -0.207 F 
BRANCH   7  17
ATOM     17  C   UNL A   1      32.398  27.856  22.820  1.00  0.00     0.227 C 
ATOM     18  O   UNL A   1      32.907  28.885  22.377  1.00  0.00    -0.285 OA
BRANCH  17  19
ATOM     19  C   UNL A   1      30.885  27.770  22.914  1.00  0.00     0.113 A 
ATOM     20  C   UNL A   1      27.716  29.851  22.646  1.00  0.00     0.044 C 
ATOM     21  C   UNL A   1      28.660  28.702  22.851  1.00  0.00    -0.047 A 
ATOM     22  C   UNL A   1      28.207  27.567  23.527  1.00  0.00     0.023 A 
ATOM     23  C   UNL A   1      30.021  28.791  22.506  1.00  0.00     0.036 A 
ATOM     24  C   UNL A   1      29.115  26.567  23.821  1.00  0.00     0.112 A 
ATOM     25  N   UNL A   1      30.427  26.641  23.526  1.00  0.00    -0.253 NA
ENDBRANCH  17  19
ENDBRANCH   7  17
ENDBRANCH   5   6
ENDBRANCH   3   5
ENDBRANCH   2   3
ENDBRANCH   1   2
BRANCH   1  26
ATOM     26  C   UNL A   1      31.702  30.743  26.438  1.00  0.00     0.275 C 
BRANCH  26  27
ATOM     27  O   UNL A   1      33.073  31.156  26.224  1.00  0.00    -0.458 OA
BRANCH  27  28
ATOM     28  C   UNL A   1      33.532  31.965  27.202  1.00  0.00     0.338 C 
ATOM     29  O   UNL A   1      33.025  33.020  27.529  1.00  0.00    -0.246 OA
BRANCH  28  30
ATOM     30  C   UNL A   1      34.664  31.479  27.978  1.00  0.00     0.060 A 
ATOM     31  C   UNL A   1      35.744  32.344  28.163  1.00  0.00     0.016 A 
ATOM     32  C   UNL A   1      34.792  30.106  28.209  1.00  0.00     0.016 A 
ATOM     33  C   UNL A   1      36.966  31.832  28.583  1.00  0.00     0.010 A 
ATOM     34  C   UNL A   1      36.003  29.603  28.688  1.00  0.00     0.010 A 
ATOM     35  C   UNL A   1      37.094  30.464  28.883  1.00  0.00    -0.014 A 
BRANCH  35  36
ATOM     36  C   UNL A   1      38.282  30.011  29.641  1.00  0.00     0.031 A 
ATOM     37  C   UNL A   1      39.277  29.033  29.099  1.00  0.00     0.074 A 
ATOM     38  C   UNL A   1      38.409  30.507  30.886  1.00  0.00     0.049 A 
ATOM     39  N   UNL A   1      40.364  28.583  29.672  1.00  0.00    -0.248 NA
ATOM     40  C   UNL A   1      39.027  28.479  27.761  1.00  0.00     0.031 C 
ATOM     41  C   UNL A   1      37.455  31.426  31.517  1.00  0.00     0.029 A 
ATOM     42  N   UNL A   1      39.367  30.312  31.843  1.00  0.00    -0.354 N 
ATOM     43  C   UNL A   1      40.925  27.678  28.780  1.00  0.00     0.074 A 
ATOM     44  C   UNL A   1      40.049  27.638  27.624  1.00  0.00     0.031 C 
ATOM     45  C   UNL A   1      37.881  31.720  32.752  1.00  0.00     0.029 A 
ATOM     46  C   UNL A   1      39.111  30.985  33.012  1.00  0.00     0.049 A 
ATOM     47  H   UNL A   1      40.161  29.745  31.708  1.00  0.00     0.167 HD
ATOM     48  C   UNL A   1      42.071  26.967  28.915  1.00  0.00     0.034 A 
ATOM     49  C   UNL A   1      39.783  31.008  34.177  1.00  0.00     0.034 A 
ATOM     50  C   UNL A   1      42.944  27.049  30.062  1.00  0.00     0.049 A 
ATOM     51  C   UNL A   1      41.064  30.241  34.279  1.00  0.00     0.074 A 
ATOM     52  C   UNL A   1      44.168  26.430  30.258  1.00  0.00     0.029 A 
ATOM     53  N   UNL A   1      42.686  27.786  31.209  1.00  0.00    -0.354 N 
ATOM     54  N   UNL A   1      41.653  29.506  33.368  1.00  0.00    -0.248 NA
ATOM     55  C   UNL A   1      41.790  30.331  35.551  1.00  0.00     0.031 C 
ATOM     56  C   UNL A   1      44.641  26.781  31.528  1.00  0.00     0.029 A 
ATOM     57  C   UNL A   1      43.717  27.627  32.122  1.00  0.00     0.049 A 
ATOM     58  H   UNL A   1      41.886  28.341  31.354  1.00  0.00     0.167 HD
ATOM     59  C   UNL A   1      42.829  29.054  33.947  1.00  0.00     0.074 A 
ATOM     60  C   UNL A   1      42.882  29.626  35.281  1.00  0.00     0.031 C 
ATOM     61  C   UNL A   1      43.770  28.226  33.431  1.00  0.00     0.034 A 
BRANCH  48  62
ATOM     62  C   UNL A   1      42.497  26.074  27.776  1.00  0.00     0.023 A 
ATOM     63  C   UNL A   1      43.475  26.532  26.870  1.00  0.00     0.012 A 
ATOM     64  C   UNL A   1      42.020  24.751  27.665  1.00  0.00     0.148 A 
ATOM     65  C   UNL A   1      43.962  25.695  25.866  1.00  0.00     0.002 A 
ATOM     66  C   UNL A   1      42.534  23.913  26.680  1.00  0.00     0.091 A 
ATOM     67  F   UNL A   1      41.074  24.337  28.521  1.00  0.00    -0.205 F 
ATOM     68  C   UNL A   1      43.501  24.384  25.777  1.00  0.00     0.022 A 
BRANCH  66  69
ATOM     69  S   UNL A   1      42.053  22.185  26.541  1.00  0.00     0.127 S 
ATOM     70  O   UNL A   1      40.624  22.297  26.251  1.00  0.00    -0.237 OA
ATOM     71  O   UNL A   1      42.866  21.721  25.416  1.00  0.00    -0.237 OA
ATOM     72  O   UNL A   1      42.391  21.576  27.819  1.00  0.00    -0.744 OA
ENDBRANCH  66  69
ENDBRANCH  48  62
BRANCH  49  73
ATOM     73  C   UNL A   1      39.267  31.854  35.285  1.00  0.00     0.023 A 
ATOM     74  C   UNL A   1      38.462  31.270  36.278  1.00  0.00     0.012 A 
ATOM     75  C   UNL A   1      39.681  33.193  35.428  1.00  0.00     0.148 A 
ATOM     76  C   UNL A   1      38.070  32.009  37.395  1.00  0.00     0.002 A 
ATOM     77  C   UNL A   1      39.339  33.904  36.572  1.00  0.00     0.091 A 
ATOM     78  F   UNL A   1      40.438  33.733  34.462  1.00  0.00    -0.205 F 
ATOM     79  C   UNL A   1      38.523  33.318  37.551  1.00  0.00     0.022 A 
BRANCH  77  80
ATOM     80  S   UNL A   1      40.031  35.526  36.916  1.00  0.00     0.127 S 
ATOM     81  O   UNL A   1      39.526  36.312  35.794  1.00  0.00    -0.237 OA
ATOM     82  O   UNL A   1      39.435  35.851  38.213  1.00  0.00    -0.237 OA
ATOM     83  O   UNL A   1      41.474  35.325  36.961  1.00  0.00    -0.744 OA
ENDBRANCH  77  80
ENDBRANCH  49  73
BRANCH  61  84
ATOM     84  C   UNL A   1      44.932  27.881  34.321  1.00  0.00     0.023 A 
ATOM     85  C   UNL A   1      46.073  28.709  34.313  1.00  0.00     0.012 A 
ATOM     86  C   UNL A   1      44.887  26.770  35.183  1.00  0.00     0.148 A 
ATOM     87  C   UNL A   1      47.165  28.418  35.129  1.00  0.00     0.002 A 
ATOM     88  C   UNL A   1      45.965  26.508  36.023  1.00  0.00     0.091 A 
ATOM     89  F   UNL A   1      43.804  25.979  35.157  1.00  0.00    -0.205 F 
ATOM     90  C   UNL A   1      47.107  27.325  35.991  1.00  0.00     0.022 A 
BRANCH  88  91
ATOM     91  S   UNL A   1      45.943  25.163  37.214  1.00  0.00     0.127 S 
ATOM     92  O   UNL A   1      45.829  23.995  36.343  1.00  0.00    -0.237 OA
ATOM     93  O   UNL A   1      47.242  25.306  37.874  1.00  0.00    -0.237 OA
ATOM     94  O   UNL A   1      44.799  25.420  38.079  1.00  0.00    -0.744 OA
ENDBRANCH  88  91
ENDBRANCH  61  84
ENDBRANCH  35  36
ENDBRANCH  28  30
ENDBRANCH  27  28
ENDBRANCH  26  27
ENDBRANCH   1  26
TORSDOF 17
ENDMDL
MODEL 2
REMARK VINA RESULT:     -11.8      4.904     10.048
REMARK SMILES Cc1ccnc(C(=O)c2[nH]c3ccc(F)cc3c2CC(=O)OCCOC(=O)c2ccc(-c3c4nc(c(-c5cccc(S(=O)(=O)[O-])c5F)c5ccc([nH]5)c(-c5cccc(S(=O)(=O)[O-])c5F)c5nc(c(-c6cccc(S(=O)(=O)[O-])c6F)c6ccc3[nH]6)C=C5)C=C4)cc2)c1
REMARK SMILES IDX 23 1 22 2 20 3 21 4 19 5 18 6 9 7 10 8 11 9 17 11 12 12
REMARK SMILES IDX 16 13 13 14 14 15 15 16 7 17 8 18 6 19 1 20 2 21 3 22 91 23
REMARK SMILES IDX 4 24 5 25 24 26 25 27 26 28 27 29 28 30 29 31 90 32 30 33
REMARK SMILES IDX 89 34 31 35 32 36 33 37 83 38 34 39 88 40 82 41 84 42 35 43
REMARK SMILES IDX 87 44 81 45 80 46 36 48 68 49 48 50 67 51 49 52 52 53 66 54
REMARK SMILES IDX 85 55 50 56 51 57 65 59 86 60 53 61 37 62 38 63 46 64 39 65
REMARK SMILES IDX 41 66 47 67 40 68 42 69 43 70 44 71 45 72 69 73 70 74 78 75
REMARK SMILES IDX 71 76 73 77 79 78 72 79 74 80 75 81 76 82 77 83 54 84 55 85
REMARK SMILES IDX 63 86 56 87 58 88 64 89 57 90 59 91 60 92 61 93 62 94
REMARK H PARENT 10 10 84 47 52 58
REMARK Flexibility Score: inf
ROOT
ATOM      1  C   UNL A   1      36.146  21.442  24.306  1.00  0.00     0.274 C 
ENDROOT
BRANCH   1   2
ATOM      2  O   UNL A   1      36.477  22.752  23.796  1.00  0.00    -0.462 OA
BRANCH   2   3
ATOM      3  C   UNL A   1      35.528  23.709  23.972  1.00  0.00     0.310 C 
ATOM      4  O   UNL A   1      34.768  24.084  23.082  1.00  0.00    -0.252 OA
BRANCH   3   5
ATOM      5  C   UNL A   1      35.365  24.182  25.401  1.00  0.00     0.161 C 
BRANCH   5   6
ATOM      6  C   UNL A   1      33.974  24.372  25.930  1.00  0.00     0.000 A 
ATOM      7  C   UNL A   1      33.026  23.395  26.258  1.00  0.00     0.093 A 
ATOM      8  N   UNL A   1      31.814  24.045  26.352  1.00  0.00    -0.352 N 
ATOM      9  C   UNL A   1      31.943  25.385  26.080  1.00  0.00     0.046 A 
ATOM     10  H   UNL A   1      30.965  23.605  26.585  1.00  0.00     0.167 HD
ATOM     11  C   UNL A   1      33.300  25.637  25.901  1.00  0.00     0.007 A 
ATOM     12  C   UNL A   1      30.962  26.372  25.913  1.00  0.00     0.030 A 
ATOM     13  C   UNL A   1      33.713  26.950  25.595  1.00  0.00     0.049 A 
ATOM     14  C   UNL A   1      31.392  27.660  25.581  1.00  0.00     0.041 A 
ATOM     15  C   UNL A   1      32.745  27.940  25.444  1.00  0.00     0.123 A 
ATOM     16  F   UNL A   1      33.127  29.184  25.123  1.00  0.00    -0.207 F 
BRANCH   7  17
ATOM     17  C   UNL A   1      33.067  21.936  26.170  1.00  0.00     0.227 C 
ATOM     18  O   UNL A   1      33.556  21.303  27.105  1.00  0.00    -0.285 OA
BRANCH  17  19
ATOM     19  C   UNL A   1      32.635  21.183  24.925  1.00  0.00     0.113 A 
ATOM     20  C   UNL A   1      32.858  17.800  23.206  1.00  0.00     0.044 C 
ATOM     21  C   UNL A   1      32.539  19.237  23.500  1.00  0.00    -0.047 A 
ATOM     22  C   UNL A   1      32.152  20.072  22.450  1.00  0.00     0.023 A 
ATOM     23  C   UNL A   1      32.751  19.798  24.773  1.00  0.00     0.036 A 
ATOM     24  C   UNL A   1      31.981  21.420  22.706  1.00  0.00     0.112 A 
ATOM     25  N   UNL A   1      32.205  21.984  23.908  1.00  0.00    -0.253 NA
ENDBRANCH  17  19
ENDBRANCH   7  17
ENDBRANCH   5   6
ENDBRANCH   3   5
ENDBRANCH   2   3
ENDBRANCH   1   2
BRANCH   1  26
ATOM     26  C   UNL A   1      37.405  20.687  24.766  1.00  0.00     0.275 C 
BRANCH  26  27
ATOM     27  O   UNL A   1      37.817  21.012  26.115  1.00  0.00    -0.458 OA
BRANCH  27  28
ATOM     28  C   UNL A   1      39.158  21.071  26.250  1.00  0.00     0.338 C 
ATOM     29  O   UNL A   1      39.915  20.130  26.112  1.00  0.00    -0.246 OA
BRANCH  28  30
ATOM     30  C   UNL A   1      39.736  22.387  26.486  1.00  0.00     0.060 A 
ATOM     31  C   UNL A   1      40.766  22.484  27.423  1.00  0.00     0.016 A 
ATOM     32  C   UNL A   1      39.045  23.521  26.054  1.00  0.00     0.016 A 
ATOM     33  C   UNL A   1      41.110  23.730  27.935  1.00  0.00     0.010 A 
ATOM     34  C   UNL A   1      39.432  24.778  26.524  1.00  0.00     0.010 A 
ATOM     35  C   UNL A   1      40.469  24.889  27.462  1.00  0.00    -0.014 A 
BRANCH  35  36
ATOM     36  C   UNL A   1      41.074  26.207  27.760  1.00  0.00     0.031 A 
ATOM     37  C   UNL A   1      40.375  27.271  28.547  1.00  0.00     0.074 A 
ATOM     38  C   UNL A   1      42.300  26.422  27.247  1.00  0.00     0.049 A 
ATOM     39  N   UNL A   1      40.822  28.454  28.884  1.00  0.00    -0.248 NA
ATOM     40  C   UNL A   1      39.008  26.989  29.009  1.00  0.00     0.031 C 
ATOM     41  C   UNL A   1      43.035  25.458  26.420  1.00  0.00     0.029 A 
ATOM     42  N   UNL A   1      43.138  27.499  27.328  1.00  0.00    -0.354 N 
ATOM     43  C   UNL A   1      39.792  29.073  29.579  1.00  0.00     0.074 A 
ATOM     44  C   UNL A   1      38.689  28.132  29.611  1.00  0.00     0.031 C 
ATOM     45  C   UNL A   1      44.216  25.986  26.077  1.00  0.00     0.029 A 
ATOM     46  C   UNL A   1      44.306  27.332  26.626  1.00  0.00     0.049 A 
ATOM     47  H   UNL A   1      42.925  28.314  27.838  1.00  0.00     0.167 HD
ATOM     48  C   UNL A   1      39.783  30.304  30.148  1.00  0.00     0.034 A 
ATOM     49  C   UNL A   1      45.340  28.170  26.432  1.00  0.00     0.034 A 
ATOM     50  C   UNL A   1      40.906  31.211  30.131  1.00  0.00     0.049 A 
ATOM     51  C   UNL A   1      45.315  29.506  27.105  1.00  0.00     0.074 A 
ATOM     52  C   UNL A   1      41.024  32.446  30.747  1.00  0.00     0.029 A 
ATOM     53  N   UNL A   1      42.099  30.989  29.458  1.00  0.00    -0.354 N 
ATOM     54  N   UNL A   1      44.390  30.015  27.881  1.00  0.00    -0.248 NA
ATOM     55  C   UNL A   1      46.484  30.370  26.904  1.00  0.00     0.031 C 
ATOM     56  C   UNL A   1      42.281  32.976  30.434  1.00  0.00     0.029 A 
ATOM     57  C   UNL A   1      42.953  32.068  29.631  1.00  0.00     0.049 A 
ATOM     58  H   UNL A   1      42.309  30.183  28.934  1.00  0.00     0.167 HD
ATOM     59  C   UNL A   1      44.868  31.254  28.278  1.00  0.00     0.074 A 
ATOM     60  C   UNL A   1      46.181  31.405  27.678  1.00  0.00     0.031 C 
ATOM     61  C   UNL A   1      44.267  32.190  29.053  1.00  0.00     0.034 A 
BRANCH  48  62
ATOM     62  C   UNL A   1      38.546  30.738  30.895  1.00  0.00     0.023 A 
ATOM     63  C   UNL A   1      38.507  30.606  32.298  1.00  0.00     0.012 A 
ATOM     64  C   UNL A   1      37.477  31.375  30.233  1.00  0.00     0.148 A 
ATOM     65  C   UNL A   1      37.420  31.087  33.028  1.00  0.00     0.002 A 
ATOM     66  C   UNL A   1      36.411  31.881  30.972  1.00  0.00     0.091 A 
ATOM     67  F   UNL A   1      37.518  31.475  28.897  1.00  0.00    -0.205 F 
ATOM     68  C   UNL A   1      36.379  31.734  32.368  1.00  0.00     0.022 A 
BRANCH  66  69
ATOM     69  S   UNL A   1      35.062  32.796  30.211  1.00  0.00     0.127 S 
ATOM     70  O   UNL A   1      34.149  32.973  31.339  1.00  0.00    -0.237 OA
ATOM     71  O   UNL A   1      35.724  34.024  29.768  1.00  0.00    -0.237 OA
ATOM     72  O   UNL A   1      34.572  31.954  29.130  1.00  0.00    -0.744 OA
ENDBRANCH  66  69
ENDBRANCH  48  62
BRANCH  49  73
ATOM     73  C   UNL A   1      46.497  27.703  25.622  1.00  0.00     0.023 A 
ATOM     74  C   UNL A   1      46.543  28.008  24.250  1.00  0.00     0.012 A 
ATOM     75  C   UNL A   1      47.606  27.083  26.231  1.00  0.00     0.148 A 
ATOM     76  C   UNL A   1      47.674  27.695  23.495  1.00  0.00     0.002 A 
ATOM     77  C   UNL A   1      48.751  26.830  25.487  1.00  0.00     0.091 A 
ATOM     78  F   UNL A   1      47.534  26.791  27.538  1.00  0.00    -0.205 F 
ATOM     79  C   UNL A   1      48.783  27.124  24.116  1.00  0.00     0.022 A 
BRANCH  77  80
ATOM     80  S   UNL A   1      50.270  26.261  26.260  1.00  0.00     0.127 S 
ATOM     81  O   UNL A   1      50.563  27.350  27.186  1.00  0.00    -0.237 OA
ATOM     82  O   UNL A   1      49.848  25.010  26.893  1.00  0.00    -0.237 OA
ATOM     83  O   UNL A   1      51.214  26.079  25.163  1.00  0.00    -0.744 OA
ENDBRANCH  77  80
ENDBRANCH  49  73
BRANCH  61  84
ATOM     84  C   UNL A   1      45.026  33.468  29.283  1.00  0.00     0.023 A 
ATOM     85  C   UNL A   1      45.825  33.594  30.438  1.00  0.00     0.012 A 
ATOM     86  C   UNL A   1      44.978  34.523  28.354  1.00  0.00     0.148 A 
ATOM     87  C   UNL A   1      46.544  34.765  30.678  1.00  0.00     0.002 A 
ATOM     88  C   UNL A   1      45.728  35.674  28.581  1.00  0.00     0.091 A 
ATOM     89  F   UNL A   1      44.190  34.396  27.276  1.00  0.00    -0.205 F 
ATOM     90  C   UNL A   1      46.503  35.799  29.746  1.00  0.00     0.022 A 
BRANCH  88  91
ATOM     91  S   UNL A   1      45.788  37.024  27.398  1.00  0.00     0.127 S 
ATOM     92  O   UNL A   1      46.930  37.795  27.883  1.00  0.00    -0.237 OA
ATOM     93  O   UNL A   1      46.019  36.324  26.133  1.00  0.00    -0.237 OA
ATOM     94  O   UNL A   1      44.494  37.687  27.488  1.00  0.00    -0.744 OA
ENDBRANCH  88  91
ENDBRANCH  61  84
ENDBRANCH  35  36
ENDBRANCH  28  30
ENDBRANCH  27  28
ENDBRANCH  26  27
ENDBRANCH   1  26
TORSDOF 17
ENDMDL
MODEL 3
REMARK VINA RESULT:     -11.8      1.421      7.619
REMARK SMILES Cc1ccnc(C(=O)c2[nH]c3ccc(F)cc3c2CC(=O)OCCOC(=O)c2ccc(-c3c4nc(c(-c5cccc(S(=O)(=O)[O-])c5F)c5ccc([nH]5)c(-c5cccc(S(=O)(=O)[O-])c5F)c5nc(c(-c6cccc(S(=O)(=O)[O-])c6F)c6ccc3[nH]6)C=C5)C=C4)cc2)c1
REMARK SMILES IDX 23 1 22 2 20 3 21 4 19 5 18 6 9 7 10 8 11 9 17 11 12 12
REMARK SMILES IDX 16 13 13 14 14 15 15 16 7 17 8 18 6 19 1 20 2 21 3 22 91 23
REMARK SMILES IDX 4 24 5 25 24 26 25 27 26 28 27 29 28 30 29 31 90 32 30 33
REMARK SMILES IDX 89 34 31 35 32 36 33 37 83 38 34 39 88 40 82 41 84 42 35 43
REMARK SMILES IDX 87 44 81 45 80 46 36 48 68 49 48 50 67 51 49 52 52 53 66 54
REMARK SMILES IDX 85 55 50 56 51 57 65 59 86 60 53 61 37 62 38 63 46 64 39 65
REMARK SMILES IDX 41 66 47 67 40 68 42 69 43 70 44 71 45 72 69 73 70 74 78 75
REMARK SMILES IDX 71 76 73 77 79 78 72 79 74 80 75 81 76 82 77 83 54 84 55 85
REMARK SMILES IDX 63 86 56 87 58 88 64 89 57 90 59 91 60 92 61 93 62 94
REMARK H PARENT 10 10 84 47 52 58
REMARK Flexibility Score: inf
ROOT
ATOM      1  C   UNL A   1      31.840  28.770  25.848  1.00  0.00     0.274 C 
ENDROOT
BRANCH   1   2
ATOM      2  O   UNL A   1      31.536  27.744  26.818  1.00  0.00    -0.462 OA
BRANCH   2   3
ATOM      3  C   UNL A   1      32.010  26.503  26.530  1.00  0.00     0.310 C 
ATOM      4  O   UNL A   1      31.344  25.477  26.649  1.00  0.00    -0.252 OA
BRANCH   3   5
ATOM      5  C   UNL A   1      33.384  26.483  25.896  1.00  0.00     0.161 C 
BRANCH   5   6
ATOM      6  C   UNL A   1      33.702  25.385  24.925  1.00  0.00     0.000 A 
ATOM      7  C   UNL A   1      33.499  25.362  23.540  1.00  0.00     0.093 A 
ATOM      8  N   UNL A   1      33.608  24.043  23.153  1.00  0.00    -0.352 N 
ATOM      9  C   UNL A   1      33.850  23.224  24.229  1.00  0.00     0.046 A 
ATOM     10  H   UNL A   1      33.523  23.728  22.224  1.00  0.00     0.167 HD
ATOM     11  C   UNL A   1      34.005  24.046  25.341  1.00  0.00     0.007 A 
ATOM     12  C   UNL A   1      33.876  21.826  24.313  1.00  0.00     0.030 A 
ATOM     13  C   UNL A   1      34.254  23.453  26.596  1.00  0.00     0.049 A 
ATOM     14  C   UNL A   1      34.096  21.259  25.571  1.00  0.00     0.041 A 
ATOM     15  C   UNL A   1      34.298  22.064  26.684  1.00  0.00     0.123 A 
ATOM     16  F   UNL A   1      34.505  21.492  27.878  1.00  0.00    -0.207 F 
BRANCH   7  17
ATOM     17  C   UNL A   1      32.913  26.344  22.629  1.00  0.00     0.227 C 
ATOM     18  O   UNL A   1      33.639  26.879  21.792  1.00  0.00    -0.285 OA
BRANCH  17  19
ATOM     19  C   UNL A   1      31.472  26.809  22.751  1.00  0.00     0.113 A 
ATOM     20  C   UNL A   1      29.269  29.901  22.581  1.00  0.00     0.044 C 
ATOM     21  C   UNL A   1      29.736  28.485  22.747  1.00  0.00    -0.047 A 
ATOM     22  C   UNL A   1      28.910  27.575  23.413  1.00  0.00     0.023 A 
ATOM     23  C   UNL A   1      31.032  28.082  22.378  1.00  0.00     0.036 A 
ATOM     24  C   UNL A   1      29.397  26.308  23.672  1.00  0.00     0.112 A 
ATOM     25  N   UNL A   1      30.643  25.909  23.353  1.00  0.00    -0.253 NA
ENDBRANCH  17  19
ENDBRANCH   7  17
ENDBRANCH   5   6
ENDBRANCH   3   5
ENDBRANCH   2   3
ENDBRANCH   1   2
BRANCH   1  26
ATOM     26  C   UNL A   1      32.005  30.143  26.522  1.00  0.00     0.275 C 
BRANCH  26  27
ATOM     27  O   UNL A   1      33.291  30.761  26.276  1.00  0.00    -0.458 OA
BRANCH  27  28
ATOM     28  C   UNL A   1      33.682  31.569  27.283  1.00  0.00     0.338 C 
ATOM     29  O   UNL A   1      33.095  32.572  27.641  1.00  0.00    -0.246 OA
BRANCH  28  30
ATOM     30  C   UNL A   1      34.844  31.145  28.051  1.00  0.00     0.060 A 
ATOM     31  C   UNL A   1      35.935  32.013  28.111  1.00  0.00     0.016 A 
ATOM     32  C   UNL A   1      34.975  29.798  28.399  1.00  0.00     0.016 A 
ATOM     33  C   UNL A   1      37.172  31.531  28.523  1.00  0.00     0.010 A 
ATOM     34  C   UNL A   1      36.203  29.329  28.870  1.00  0.00     0.010 A 
ATOM     35  C   UNL A   1      37.306  30.194  28.940  1.00  0.00    -0.014 A 
BRANCH  35  36
ATOM     36  C   UNL A   1      38.523  29.801  29.684  1.00  0.00     0.031 A 
ATOM     37  C   UNL A   1      38.878  30.354  31.028  1.00  0.00     0.074 A 
ATOM     38  C   UNL A   1      39.335  28.924  29.062  1.00  0.00     0.049 A 
ATOM     39  N   UNL A   1      39.911  30.062  31.777  1.00  0.00    -0.248 NA
ATOM     40  C   UNL A   1      37.980  31.363  31.608  1.00  0.00     0.031 C 
ATOM     41  C   UNL A   1      39.094  28.373  27.724  1.00  0.00     0.029 A 
ATOM     42  N   UNL A   1      40.514  28.352  29.451  1.00  0.00    -0.354 N 
ATOM     43  C   UNL A   1      39.807  30.861  32.908  1.00  0.00     0.074 A 
ATOM     44  C   UNL A   1      38.606  31.658  32.744  1.00  0.00     0.031 C 
ATOM     45  C   UNL A   1      40.090  27.537  27.408  1.00  0.00     0.029 A 
ATOM     46  C   UNL A   1      41.054  27.521  28.500  1.00  0.00     0.049 A 
ATOM     47  H   UNL A   1      40.935  28.518  30.326  1.00  0.00     0.167 HD
ATOM     48  C   UNL A   1      40.630  30.904  33.984  1.00  0.00     0.034 A 
ATOM     49  C   UNL A   1      42.205  26.826  28.494  1.00  0.00     0.034 A 
ATOM     50  C   UNL A   1      41.803  30.076  34.140  1.00  0.00     0.049 A 
ATOM     51  C   UNL A   1      43.072  26.866  29.713  1.00  0.00     0.074 A 
ATOM     52  C   UNL A   1      42.656  29.988  35.228  1.00  0.00     0.029 A 
ATOM     53  N   UNL A   1      42.294  29.201  33.181  1.00  0.00    -0.354 N 
ATOM     54  N   UNL A   1      42.879  27.517  30.834  1.00  0.00    -0.248 NA
ATOM     55  C   UNL A   1      44.295  26.056  29.683  1.00  0.00     0.031 C 
ATOM     56  C   UNL A   1      43.669  29.072  34.920  1.00  0.00     0.029 A 
ATOM     57  C   UNL A   1      43.443  28.580  33.645  1.00  0.00     0.049 A 
ATOM     58  H   UNL A   1      41.884  29.044  32.300  1.00  0.00     0.167 HD
ATOM     59  C   UNL A   1      43.947  27.185  31.654  1.00  0.00     0.074 A 
ATOM     60  C   UNL A   1      44.769  26.251  30.908  1.00  0.00     0.031 C 
ATOM     61  C   UNL A   1      44.232  27.629  32.903  1.00  0.00     0.034 A 
BRANCH  48  62
ATOM     62  C   UNL A   1      40.276  31.833  35.119  1.00  0.00     0.023 A 
ATOM     63  C   UNL A   1      40.836  33.126  35.151  1.00  0.00     0.012 A 
ATOM     64  C   UNL A   1      39.311  31.476  36.083  1.00  0.00     0.148 A 
ATOM     65  C   UNL A   1      40.453  34.043  36.130  1.00  0.00     0.002 A 
ATOM     66  C   UNL A   1      38.912  32.407  37.038  1.00  0.00     0.091 A 
ATOM     67  F   UNL A   1      38.803  30.235  36.053  1.00  0.00    -0.205 F 
ATOM     68  C   UNL A   1      39.485  33.689  37.065  1.00  0.00     0.022 A 
BRANCH  66  69
ATOM     69  S   UNL A   1      37.614  32.062  38.234  1.00  0.00     0.127 S 
ATOM     70  O   UNL A   1      36.556  32.970  37.796  1.00  0.00    -0.237 OA
ATOM     71  O   UNL A   1      37.336  30.645  37.998  1.00  0.00    -0.237 OA
ATOM     72  O   UNL A   1      38.192  32.351  39.539  1.00  0.00    -0.744 OA
ENDBRANCH  66  69
ENDBRANCH  48  62
BRANCH  49  73
ATOM     73  C   UNL A   1      42.528  25.986  27.311  1.00  0.00     0.023 A 
ATOM     74  C   UNL A   1      43.399  26.489  26.328  1.00  0.00     0.012 A 
ATOM     75  C   UNL A   1      42.086  24.651  27.226  1.00  0.00     0.148 A 
ATOM     76  C   UNL A   1      43.819  25.677  25.274  1.00  0.00     0.002 A 
ATOM     77  C   UNL A   1      42.557  23.830  26.209  1.00  0.00     0.091 A 
ATOM     78  F   UNL A   1      41.246  24.197  28.168  1.00  0.00    -0.205 F 
ATOM     79  C   UNL A   1      43.414  24.344  25.225  1.00  0.00     0.022 A 
BRANCH  77  80
ATOM     80  S   UNL A   1      42.215  22.066  26.187  1.00  0.00     0.127 S 
ATOM     81  O   UNL A   1      43.040  21.614  25.071  1.00  0.00    -0.237 OA
ATOM     82  O   UNL A   1      42.679  21.641  27.509  1.00  0.00    -0.237 OA
ATOM     83  O   UNL A   1      40.772  21.958  26.003  1.00  0.00    -0.744 OA
ENDBRANCH  77  80
ENDBRANCH  49  73
BRANCH  61  84
ATOM     84  C   UNL A   1      45.496  27.113  33.534  1.00  0.00     0.023 A 
ATOM     85  C   UNL A   1      46.682  27.866  33.411  1.00  0.00     0.012 A 
ATOM     86  C   UNL A   1      45.508  25.914  34.270  1.00  0.00     0.148 A 
ATOM     87  C   UNL A   1      47.869  27.417  33.988  1.00  0.00     0.002 A 
ATOM     88  C   UNL A   1      46.688  25.491  34.875  1.00  0.00     0.091 A 
ATOM     89  F   UNL A   1      44.377  25.199  34.351  1.00  0.00    -0.205 F 
ATOM     90  C   UNL A   1      47.870  26.236  34.727  1.00  0.00     0.022 A 
BRANCH  88  91
ATOM     91  S   UNL A   1      46.760  24.020  35.903  1.00  0.00     0.127 S 
ATOM     92  O   UNL A   1      45.742  24.311  36.911  1.00  0.00    -0.237 OA
ATOM     93  O   UNL A   1      46.398  22.960  34.962  1.00  0.00    -0.237 OA
ATOM     94  O   UNL A   1      48.130  23.947  36.392  1.00  0.00    -0.744 OA
ENDBRANCH  88  91
ENDBRANCH  61  84
ENDBRANCH  35  36
ENDBRANCH  28  30
ENDBRANCH  27  28
ENDBRANCH  26  27
ENDBRANCH   1  26
TORSDOF 17
ENDMDL
