MODEL 1
REMARK VINA RESULT:     -11.9      0.000      0.000
REMARK SMILES CC(C)(C)c1n[nH]c2c1CC[C@@H](C(=O)OCCOC(=O)c1ccc(-c3c4nc(c(-c5cccc(S(=O)(=O)[O-])c5F)c5ccc([nH]5)c(-c5cccc(S(=O)(=O)[O-])c5F)c5nc(c(-c6cccc(S(=O)(=O)[O-])c6F)c6ccc3[nH]6)C=C5)C=C4)cc1)C2
REMARK SMILES IDX 17 1 16 2 15 3 13 4 14 5 12 6 5 7 6 8 9 9 7 10 8 11 10 12
REMARK SMILES IDX 84 14 11 15 2 16 1 17 3 18 4 19 18 20 19 21 20 22 21 23
REMARK SMILES IDX 22 24 83 25 23 26 82 27 24 28 25 29 26 30 76 31 27 32 81 33
REMARK SMILES IDX 75 34 77 35 28 36 80 37 74 38 73 39 29 41 61 42 41 43 60 44
REMARK SMILES IDX 42 45 45 46 59 47 78 48 43 49 44 50 58 52 79 53 46 54 30 55
REMARK SMILES IDX 31 56 39 57 32 58 34 59 40 60 33 61 35 62 36 63 37 64 38 65
REMARK SMILES IDX 62 66 63 67 71 68 64 69 66 70 72 71 65 72 67 73 68 74 69 75
REMARK SMILES IDX 70 76 47 77 48 78 56 79 49 80 51 81 57 82 50 83 52 84 53 85
REMARK SMILES IDX 54 86 55 87
REMARK H PARENT 7 13 77 40 45 51
REMARK Flexibility Score: inf
ROOT
ATOM      1  C   UNL A   1      37.532  20.051  24.845  1.00  0.00     0.275 C 
ENDROOT
BRANCH   1   2
ATOM      2  C   UNL A   1      36.008  20.080  24.997  1.00  0.00     0.274 C 
BRANCH   2   3
ATOM      3  O   UNL A   1      35.464  21.383  24.707  1.00  0.00    -0.462 OA
BRANCH   3   4
ATOM      4  C   UNL A   1      34.118  21.494  24.838  1.00  0.00     0.309 C 
ATOM      5  O   UNL A   1      33.335  20.554  24.768  1.00  0.00    -0.252 OA
BRANCH   4   6
ATOM      6  C   UNL A   1      33.640  22.911  25.067  1.00  0.00     0.105 C 
ATOM      7  C   UNL A   1      32.456  26.766  26.299  1.00  0.00     0.071 A 
ATOM      8  N   UNL A   1      31.290  26.475  26.904  1.00  0.00    -0.180 NA
ATOM      9  C   UNL A   1      33.135  25.571  25.930  1.00  0.00    -0.003 A 
ATOM     10  N   UNL A   1      31.197  25.135  26.860  1.00  0.00    -0.282 N 
ATOM     11  C   UNL A   1      32.288  24.550  26.302  1.00  0.00     0.040 A 
ATOM     12  C   UNL A   1      34.431  25.316  25.242  1.00  0.00     0.040 C 
ATOM     13  H   UNL A   1      30.422  24.632  27.196  1.00  0.00     0.190 HD
ATOM     14  C   UNL A   1      32.516  23.090  26.112  1.00  0.00     0.071 C 
ATOM     15  C   UNL A   1      34.840  23.835  25.372  1.00  0.00     0.020 C 
BRANCH   7  16
ATOM     16  C   UNL A   1      32.901  28.214  26.120  1.00  0.00     0.006 C 
ATOM     17  C   UNL A   1      33.144  28.565  24.634  1.00  0.00     0.017 C 
ATOM     18  C   UNL A   1      34.223  28.487  26.868  1.00  0.00     0.017 C 
ATOM     19  C   UNL A   1      31.810  29.159  26.658  1.00  0.00     0.017 C 
ENDBRANCH   7  16
ENDBRANCH   4   6
ENDBRANCH   3   4
ENDBRANCH   2   3
ENDBRANCH   1   2
BRANCH   1  20
ATOM     20  O   UNL A   1      38.162  21.245  25.346  1.00  0.00    -0.458 OA
BRANCH  20  21
ATOM     21  C   UNL A   1      39.273  21.032  26.091  1.00  0.00     0.338 C 
ATOM     22  O   UNL A   1      39.880  19.981  26.211  1.00  0.00    -0.246 OA
BRANCH  21  23
ATOM     23  C   UNL A   1      39.757  22.295  26.672  1.00  0.00     0.060 A 
ATOM     24  C   UNL A   1      39.218  23.487  26.179  1.00  0.00     0.016 A 
ATOM     25  C   UNL A   1      40.797  22.325  27.604  1.00  0.00     0.016 A 
ATOM     26  C   UNL A   1      39.716  24.713  26.607  1.00  0.00     0.010 A 
ATOM     27  C   UNL A   1      41.304  23.560  28.027  1.00  0.00     0.010 A 
ATOM     28  C   UNL A   1      40.777  24.761  27.518  1.00  0.00    -0.014 A 
BRANCH  28  29
ATOM     29  C   UNL A   1      41.369  26.074  27.874  1.00  0.00     0.031 A 
ATOM     30  C   UNL A   1      42.775  26.399  27.453  1.00  0.00     0.074 A 
ATOM     31  C   UNL A   1      40.634  26.983  28.539  1.00  0.00     0.049 A 
ATOM     32  N   UNL A   1      43.475  27.482  27.678  1.00  0.00    -0.248 NA
ATOM     33  C   UNL A   1      43.489  25.374  26.674  1.00  0.00     0.031 C 
ATOM     34  C   UNL A   1      39.253  26.788  28.984  1.00  0.00     0.029 A 
ATOM     35  N   UNL A   1      40.946  28.250  28.962  1.00  0.00    -0.354 N 
ATOM     36  C   UNL A   1      44.717  27.259  27.097  1.00  0.00     0.074 A 
ATOM     37  C   UNL A   1      44.679  25.935  26.513  1.00  0.00     0.031 C 
ATOM     38  C   UNL A   1      38.839  27.895  29.624  1.00  0.00     0.029 A 
ATOM     39  C   UNL A   1      39.931  28.865  29.657  1.00  0.00     0.049 A 
ATOM     40  H   UNL A   1      41.815  28.678  28.785  1.00  0.00     0.167 HD
ATOM     41  C   UNL A   1      45.785  28.089  27.038  1.00  0.00     0.034 A 
ATOM     42  C   UNL A   1      39.890  30.070  30.259  1.00  0.00     0.034 A 
ATOM     43  C   UNL A   1      45.810  29.419  27.589  1.00  0.00     0.049 A 
ATOM     44  C   UNL A   1      41.094  30.971  30.176  1.00  0.00     0.074 A 
ATOM     45  C   UNL A   1      46.846  30.335  27.580  1.00  0.00     0.029 A 
ATOM     46  N   UNL A   1      44.745  30.025  28.235  1.00  0.00    -0.354 N 
ATOM     47  N   UNL A   1      42.234  30.772  29.557  1.00  0.00    -0.248 NA
ATOM     48  C   UNL A   1      40.994  32.276  30.843  1.00  0.00     0.031 C 
ATOM     49  C   UNL A   1      46.407  31.498  28.223  1.00  0.00     0.029 A 
ATOM     50  C   UNL A   1      45.095  31.308  28.622  1.00  0.00     0.049 A 
ATOM     51  H   UNL A   1      43.869  29.606  28.397  1.00  0.00     0.167 HD
ATOM     52  C   UNL A   1      42.970  31.938  29.730  1.00  0.00     0.074 A 
ATOM     53  C   UNL A   1      42.138  32.848  30.493  1.00  0.00     0.031 C 
ATOM     54  C   UNL A   1      44.228  32.225  29.317  1.00  0.00     0.034 A 
BRANCH  41  55
ATOM     55  C   UNL A   1      47.011  27.600  26.313  1.00  0.00     0.023 A 
ATOM     56  C   UNL A   1      47.955  26.815  27.006  1.00  0.00     0.012 A 
ATOM     57  C   UNL A   1      47.199  27.860  24.942  1.00  0.00     0.148 A 
ATOM     58  C   UNL A   1      49.079  26.315  26.351  1.00  0.00     0.002 A 
ATOM     59  C   UNL A   1      48.305  27.328  24.287  1.00  0.00     0.091 A 
ATOM     60  F   UNL A   1      46.303  28.629  24.307  1.00  0.00    -0.205 F 
ATOM     61  C   UNL A   1      49.248  26.561  24.991  1.00  0.00     0.022 A 
BRANCH  59  62
ATOM     62  S   UNL A   1      48.576  27.537  22.522  1.00  0.00     0.127 S 
ATOM     63  O   UNL A   1      49.849  28.255  22.503  1.00  0.00    -0.237 OA
ATOM     64  O   UNL A   1      48.651  26.153  22.054  1.00  0.00    -0.237 OA
ATOM     65  O   UNL A   1      47.428  28.282  22.027  1.00  0.00    -0.744 OA
ENDBRANCH  59  62
ENDBRANCH  41  55
BRANCH  42  66
ATOM     66  C   UNL A   1      38.648  30.519  30.949  1.00  0.00     0.023 A 
ATOM     67  C   UNL A   1      38.507  30.294  32.332  1.00  0.00     0.012 A 
ATOM     68  C   UNL A   1      37.617  31.178  30.254  1.00  0.00     0.148 A 
ATOM     69  C   UNL A   1      37.349  30.689  33.004  1.00  0.00     0.002 A 
ATOM     70  C   UNL A   1      36.490  31.618  30.939  1.00  0.00     0.091 A 
ATOM     71  F   UNL A   1      37.754  31.362  28.933  1.00  0.00    -0.205 F 
ATOM     72  C   UNL A   1      36.346  31.361  32.311  1.00  0.00     0.022 A 
BRANCH  70  73
ATOM     73  S   UNL A   1      35.222  32.604  30.135  1.00  0.00     0.127 S 
ATOM     74  O   UNL A   1      34.299  32.864  31.236  1.00  0.00    -0.237 OA
ATOM     75  O   UNL A   1      35.978  33.771  29.677  1.00  0.00    -0.237 OA
ATOM     76  O   UNL A   1      34.716  31.766  29.056  1.00  0.00    -0.744 OA
ENDBRANCH  70  73
ENDBRANCH  42  66
BRANCH  54  77
ATOM     77  C   UNL A   1      44.773  33.591  29.641  1.00  0.00     0.023 A 
ATOM     78  C   UNL A   1      45.475  33.792  30.846  1.00  0.00     0.012 A 
ATOM     79  C   UNL A   1      44.643  34.656  28.729  1.00  0.00     0.148 A 
ATOM     80  C   UNL A   1      46.012  35.042  31.153  1.00  0.00     0.002 A 
ATOM     81  C   UNL A   1      45.216  35.888  29.023  1.00  0.00     0.091 A 
ATOM     82  F   UNL A   1      43.951  34.454  27.598  1.00  0.00    -0.205 F 
ATOM     83  C   UNL A   1      45.891  36.086  30.238  1.00  0.00     0.022 A 
BRANCH  81  84
ATOM     84  S   UNL A   1      45.177  37.254  27.855  1.00  0.00     0.127 S 
ATOM     85  O   UNL A   1      45.903  36.695  26.716  1.00  0.00    -0.237 OA
ATOM     86  O   UNL A   1      43.743  37.442  27.631  1.00  0.00    -0.237 OA
ATOM     87  O   UNL A   1      45.826  38.366  28.537  1.00  0.00    -0.744 OA
ENDBRANCH  81  84
ENDBRANCH  54  77
ENDBRANCH  28  29
ENDBRANCH  21  23
ENDBRANCH  20  21
ENDBRANCH   1  20
TORSDOF 15
ENDMDL
MODEL 2
REMARK VINA RESULT:     -11.6      1.373      1.840
REMARK SMILES CC(C)(C)c1n[nH]c2c1CC[C@@H](C(=O)OCCOC(=O)c1ccc(-c3c4nc(c(-c5cccc(S(=O)(=O)[O-])c5F)c5ccc([nH]5)c(-c5cccc(S(=O)(=O)[O-])c5F)c5nc(c(-c6cccc(S(=O)(=O)[O-])c6F)c6ccc3[nH]6)C=C5)C=C4)cc1)C2
REMARK SMILES IDX 17 1 16 2 15 3 13 4 14 5 12 6 5 7 6 8 9 9 7 10 8 11 10 12
REMARK SMILES IDX 84 14 11 15 2 16 1 17 3 18 4 19 18 20 19 21 20 22 21 23
REMARK SMILES IDX 22 24 83 25 23 26 82 27 24 28 25 29 26 30 76 31 27 32 81 33
REMARK SMILES IDX 75 34 77 35 28 36 80 37 74 38 73 39 29 41 61 42 41 43 60 44
REMARK SMILES IDX 42 45 45 46 59 47 78 48 43 49 44 50 58 52 79 53 46 54 30 55
REMARK SMILES IDX 31 56 39 57 32 58 34 59 40 60 33 61 35 62 36 63 37 64 38 65
REMARK SMILES IDX 62 66 63 67 71 68 64 69 66 70 72 71 65 72 67 73 68 74 69 75
REMARK SMILES IDX 70 76 47 77 48 78 56 79 49 80 51 81 57 82 50 83 52 84 53 85
REMARK SMILES IDX 54 86 55 87
REMARK H PARENT 7 13 77 40 45 51
REMARK Flexibility Score: inf
ROOT
ATOM      1  C   UNL A   1      36.658  20.324  24.969  1.00  0.00     0.275 C 
ENDROOT
BRANCH   1   2
ATOM      2  C   UNL A   1      35.252  20.785  25.367  1.00  0.00     0.274 C 
BRANCH   2   3
ATOM      3  O   UNL A   1      34.249  20.299  24.453  1.00  0.00    -0.462 OA
BRANCH   3   4
ATOM      4  C   UNL A   1      32.971  20.634  24.760  1.00  0.00     0.309 C 
ATOM      5  O   UNL A   1      32.155  19.870  25.262  1.00  0.00    -0.252 OA
BRANCH   4   6
ATOM      6  C   UNL A   1      32.611  22.061  24.408  1.00  0.00     0.105 C 
ATOM      7  C   UNL A   1      31.187  25.789  23.045  1.00  0.00     0.071 A 
ATOM      8  N   UNL A   1      31.755  25.830  21.827  1.00  0.00    -0.180 NA
ATOM      9  C   UNL A   1      31.403  24.519  23.650  1.00  0.00    -0.003 A 
ATOM     10  N   UNL A   1      32.373  24.645  21.688  1.00  0.00    -0.282 N 
ATOM     11  C   UNL A   1      32.174  23.820  22.748  1.00  0.00     0.040 A 
ATOM     12  C   UNL A   1      31.007  23.946  24.967  1.00  0.00     0.040 C 
ATOM     13  H   UNL A   1      32.913  24.401  20.902  1.00  0.00     0.190 HD
ATOM     14  C   UNL A   1      32.703  22.436  22.912  1.00  0.00     0.071 C 
ATOM     15  C   UNL A   1      31.227  22.421  24.991  1.00  0.00     0.020 C 
BRANCH   7  16
ATOM     16  C   UNL A   1      30.414  26.987  23.585  1.00  0.00     0.006 C 
ATOM     17  C   UNL A   1      30.991  27.491  24.928  1.00  0.00     0.017 C 
ATOM     18  C   UNL A   1      28.934  26.628  23.839  1.00  0.00     0.017 C 
ATOM     19  C   UNL A   1      30.486  28.147  22.573  1.00  0.00     0.017 C 
ENDBRANCH   7  16
ENDBRANCH   4   6
ENDBRANCH   3   4
ENDBRANCH   2   3
ENDBRANCH   1   2
BRANCH   1  20
ATOM     20  O   UNL A   1      37.633  21.380  25.057  1.00  0.00    -0.458 OA
BRANCH  20  21
ATOM     21  C   UNL A   1      38.735  21.077  25.784  1.00  0.00     0.338 C 
ATOM     22  O   UNL A   1      39.276  19.988  25.869  1.00  0.00    -0.246 OA
BRANCH  21  23
ATOM     23  C   UNL A   1      39.302  22.291  26.396  1.00  0.00     0.060 A 
ATOM     24  C   UNL A   1      38.721  23.518  26.063  1.00  0.00     0.016 A 
ATOM     25  C   UNL A   1      40.447  22.246  27.194  1.00  0.00     0.016 A 
ATOM     26  C   UNL A   1      39.281  24.706  26.519  1.00  0.00     0.010 A 
ATOM     27  C   UNL A   1      41.016  23.444  27.644  1.00  0.00     0.010 A 
ATOM     28  C   UNL A   1      40.446  24.682  27.295  1.00  0.00    -0.014 A 
BRANCH  28  29
ATOM     29  C   UNL A   1      41.092  25.962  27.675  1.00  0.00     0.031 A 
ATOM     30  C   UNL A   1      42.510  26.237  27.256  1.00  0.00     0.074 A 
ATOM     31  C   UNL A   1      40.397  26.887  28.360  1.00  0.00     0.049 A 
ATOM     32  N   UNL A   1      43.254  27.285  27.500  1.00  0.00    -0.248 NA
ATOM     33  C   UNL A   1      43.179  25.199  26.456  1.00  0.00     0.031 C 
ATOM     34  C   UNL A   1      39.010  26.741  28.804  1.00  0.00     0.029 A 
ATOM     35  N   UNL A   1      40.762  28.132  28.806  1.00  0.00    -0.354 N 
ATOM     36  C   UNL A   1      44.485  27.022  26.911  1.00  0.00     0.074 A 
ATOM     37  C   UNL A   1      44.391  25.712  26.303  1.00  0.00     0.031 C 
ATOM     38  C   UNL A   1      38.644  27.852  29.467  1.00  0.00     0.029 A 
ATOM     39  C   UNL A   1      39.775  28.775  29.515  1.00  0.00     0.049 A 
ATOM     40  H   UNL A   1      41.648  28.528  28.635  1.00  0.00     0.167 HD
ATOM     41  C   UNL A   1      45.587  27.809  26.865  1.00  0.00     0.034 A 
ATOM     42  C   UNL A   1      39.786  29.969  30.141  1.00  0.00     0.034 A 
ATOM     43  C   UNL A   1      45.667  29.125  27.442  1.00  0.00     0.049 A 
ATOM     44  C   UNL A   1      41.026  30.821  30.071  1.00  0.00     0.074 A 
ATOM     45  C   UNL A   1      46.741  29.998  27.448  1.00  0.00     0.029 A 
ATOM     46  N   UNL A   1      44.630  29.763  28.103  1.00  0.00    -0.354 N 
ATOM     47  N   UNL A   1      42.155  30.587  29.446  1.00  0.00    -0.248 NA
ATOM     48  C   UNL A   1      40.981  32.116  30.765  1.00  0.00     0.031 C 
ATOM     49  C   UNL A   1      46.352  31.166  28.114  1.00  0.00     0.029 A 
ATOM     50  C   UNL A   1      45.033  31.022  28.514  1.00  0.00     0.049 A 
ATOM     51  H   UNL A   1      43.738  29.377  28.259  1.00  0.00     0.167 HD
ATOM     52  C   UNL A   1      42.939  31.718  29.640  1.00  0.00     0.074 A 
ATOM     53  C   UNL A   1      42.147  32.647  30.422  1.00  0.00     0.031 C 
ATOM     54  C   UNL A   1      44.207  31.960  29.228  1.00  0.00     0.034 A 
BRANCH  41  55
ATOM     55  C   UNL A   1      46.790  27.283  26.127  1.00  0.00     0.023 A 
ATOM     56  C   UNL A   1      47.611  26.320  26.746  1.00  0.00     0.012 A 
ATOM     57  C   UNL A   1      47.072  27.690  24.809  1.00  0.00     0.148 A 
ATOM     58  C   UNL A   1      48.709  25.786  26.073  1.00  0.00     0.002 A 
ATOM     59  C   UNL A   1      48.147  27.128  24.131  1.00  0.00     0.091 A 
ATOM     60  F   UNL A   1      46.292  28.626  24.248  1.00  0.00    -0.205 F 
ATOM     61  C   UNL A   1      48.970  26.181  24.763  1.00  0.00     0.022 A 
BRANCH  59  62
ATOM     62  S   UNL A   1      48.526  27.524  22.420  1.00  0.00     0.127 S 
ATOM     63  O   UNL A   1      48.659  26.192  21.832  1.00  0.00    -0.237 OA
ATOM     64  O   UNL A   1      47.332  28.259  22.000  1.00  0.00    -0.237 OA
ATOM     65  O   UNL A   1      49.744  28.319  22.454  1.00  0.00    -0.744 OA
ENDBRANCH  59  62
ENDBRANCH  41  55
BRANCH  42  66
ATOM     66  C   UNL A   1      38.565  30.456  30.843  1.00  0.00     0.023 A 
ATOM     67  C   UNL A   1      38.420  30.215  32.223  1.00  0.00     0.012 A 
ATOM     68  C   UNL A   1      37.557  31.165  30.163  1.00  0.00     0.148 A 
ATOM     69  C   UNL A   1      37.281  30.645  32.906  1.00  0.00     0.002 A 
ATOM     70  C   UNL A   1      36.450  31.638  30.859  1.00  0.00     0.091 A 
ATOM     71  F   UNL A   1      37.696  31.363  28.843  1.00  0.00    -0.205 F 
ATOM     72  C   UNL A   1      36.302  31.366  32.227  1.00  0.00     0.022 A 
BRANCH  70  73
ATOM     73  S   UNL A   1      35.219  32.685  30.075  1.00  0.00     0.127 S 
ATOM     74  O   UNL A   1      34.679  31.798  29.048  1.00  0.00    -0.237 OA
ATOM     75  O   UNL A   1      34.305  32.973  31.183  1.00  0.00    -0.237 OA
ATOM     76  O   UNL A   1      35.956  33.847  29.599  1.00  0.00    -0.744 OA
ENDBRANCH  70  73
ENDBRANCH  42  66
BRANCH  54  77
ATOM     77  C   UNL A   1      44.809  33.296  29.577  1.00  0.00     0.023 A 
ATOM     78  C   UNL A   1      45.536  33.440  30.775  1.00  0.00     0.012 A 
ATOM     79  C   UNL A   1      44.706  34.388  28.694  1.00  0.00     0.148 A 
ATOM     80  C   UNL A   1      46.125  34.661  31.104  1.00  0.00     0.002 A 
ATOM     81  C   UNL A   1      45.330  35.590  29.009  1.00  0.00     0.091 A 
ATOM     82  F   UNL A   1      43.990  34.241  27.570  1.00  0.00    -0.205 F 
ATOM     83  C   UNL A   1      46.031  35.731  30.217  1.00  0.00     0.022 A 
BRANCH  81  84
ATOM     84  S   UNL A   1      45.326  36.985  27.876  1.00  0.00     0.127 S 
ATOM     85  O   UNL A   1      43.904  37.318  27.814  1.00  0.00    -0.237 OA
ATOM     86  O   UNL A   1      46.153  37.968  28.577  1.00  0.00    -0.237 OA
ATOM     87  O   UNL A   1      45.914  36.483  26.641  1.00  0.00    -0.744 OA
ENDBRANCH  81  84
ENDBRANCH  54  77
ENDBRANCH  28  29
ENDBRANCH  21  23
ENDBRANCH  20  21
ENDBRANCH   1  20
TORSDOF 15
ENDMDL
MODEL 3
REMARK VINA RESULT:     -11.6      1.245      7.898
REMARK SMILES CC(C)(C)c1n[nH]c2c1CC[C@@H](C(=O)OCCOC(=O)c1ccc(-c3c4nc(c(-c5cccc(S(=O)(=O)[O-])c5F)c5ccc([nH]5)c(-c5cccc(S(=O)(=O)[O-])c5F)c5nc(c(-c6cccc(S(=O)(=O)[O-])c6F)c6ccc3[nH]6)C=C5)C=C4)cc1)C2
REMARK SMILES IDX 17 1 16 2 15 3 13 4 14 5 12 6 5 7 6 8 9 9 7 10 8 11 10 12
REMARK SMILES IDX 84 14 11 15 2 16 1 17 3 18 4 19 18 20 19 21 20 22 21 23
REMARK SMILES IDX 22 24 83 25 23 26 82 27 24 28 25 29 26 30 76 31 27 32 81 33
REMARK SMILES IDX 75 34 77 35 28 36 80 37 74 38 73 39 29 41 61 42 41 43 60 44
REMARK SMILES IDX 42 45 45 46 59 47 78 48 43 49 44 50 58 52 79 53 46 54 30 55
REMARK SMILES IDX 31 56 39 57 32 58 34 59 40 60 33 61 35 62 36 63 37 64 38 65
REMARK SMILES IDX 62 66 63 67 71 68 64 69 66 70 72 71 65 72 67 73 68 74 69 75
REMARK SMILES IDX 70 76 47 77 48 78 56 79 49 80 51 81 57 82 50 83 52 84 53 85
REMARK SMILES IDX 54 86 55 87
REMARK H PARENT 7 13 77 40 45 51
REMARK Flexibility Score: inf
ROOT
ATOM      1  C   UNL A   1      37.154  20.062  24.866  1.00  0.00     0.275 C 
ENDROOT
BRANCH   1   2
ATOM      2  C   UNL A   1      35.630  19.995  25.001  1.00  0.00     0.274 C 
BRANCH   2   3
ATOM      3  O   UNL A   1      35.113  21.081  25.796  1.00  0.00    -0.462 OA
BRANCH   3   4
ATOM      4  C   UNL A   1      33.779  21.301  25.684  1.00  0.00     0.309 C 
ATOM      5  O   UNL A   1      32.936  20.415  25.602  1.00  0.00    -0.252 OA
BRANCH   4   6
ATOM      6  C   UNL A   1      33.401  22.765  25.649  1.00  0.00     0.105 C 
ATOM      7  C   UNL A   1      32.444  26.839  26.165  1.00  0.00     0.071 A 
ATOM      8  N   UNL A   1      31.221  26.730  26.713  1.00  0.00    -0.180 NA
ATOM      9  C   UNL A   1      33.050  25.558  26.043  1.00  0.00    -0.003 A 
ATOM     10  N   UNL A   1      31.025  25.410  26.873  1.00  0.00    -0.282 N 
ATOM     11  C   UNL A   1      32.101  24.669  26.502  1.00  0.00     0.040 A 
ATOM     12  C   UNL A   1      34.366  25.108  25.509  1.00  0.00     0.040 C 
ATOM     13  H   UNL A   1      30.191  25.021  27.220  1.00  0.00     0.190 HD
ATOM     14  C   UNL A   1      32.226  23.186  26.561  1.00  0.00     0.071 C 
ATOM     15  C   UNL A   1      34.646  23.644  25.901  1.00  0.00     0.020 C 
BRANCH   7  16
ATOM     16  C   UNL A   1      33.013  28.206  25.798  1.00  0.00     0.006 C 
ATOM     17  C   UNL A   1      34.230  28.581  26.675  1.00  0.00     0.017 C 
ATOM     18  C   UNL A   1      31.961  29.318  25.990  1.00  0.00     0.017 C 
ATOM     19  C   UNL A   1      33.475  28.194  24.328  1.00  0.00     0.017 C 
ENDBRANCH   7  16
ENDBRANCH   4   6
ENDBRANCH   3   4
ENDBRANCH   2   3
ENDBRANCH   1   2
BRANCH   1  20
ATOM     20  O   UNL A   1      37.723  21.191  25.556  1.00  0.00    -0.458 OA
BRANCH  20  21
ATOM     21  C   UNL A   1      38.951  20.973  26.086  1.00  0.00     0.338 C 
ATOM     22  O   UNL A   1      39.569  19.921  26.088  1.00  0.00    -0.246 OA
BRANCH  21  23
ATOM     23  C   UNL A   1      39.534  22.232  26.578  1.00  0.00     0.060 A 
ATOM     24  C   UNL A   1      38.965  23.429  26.132  1.00  0.00     0.016 A 
ATOM     25  C   UNL A   1      40.682  22.250  27.372  1.00  0.00     0.016 A 
ATOM     26  C   UNL A   1      39.542  24.649  26.470  1.00  0.00     0.010 A 
ATOM     27  C   UNL A   1      41.267  23.479  27.703  1.00  0.00     0.010 A 
ATOM     28  C   UNL A   1      40.710  24.685  27.241  1.00  0.00    -0.014 A 
BRANCH  28  29
ATOM     29  C   UNL A   1      41.372  25.987  27.494  1.00  0.00     0.031 A 
ATOM     30  C   UNL A   1      40.664  27.043  28.296  1.00  0.00     0.074 A 
ATOM     31  C   UNL A   1      42.619  26.206  27.038  1.00  0.00     0.049 A 
ATOM     32  N   UNL A   1      41.066  28.247  28.614  1.00  0.00    -0.248 NA
ATOM     33  C   UNL A   1      39.329  26.701  28.812  1.00  0.00     0.031 C 
ATOM     34  C   UNL A   1      43.413  25.251  26.265  1.00  0.00     0.029 A 
ATOM     35  N   UNL A   1      43.434  27.303  27.154  1.00  0.00    -0.354 N 
ATOM     36  C   UNL A   1      40.026  28.816  29.339  1.00  0.00     0.074 A 
ATOM     37  C   UNL A   1      38.970  27.828  29.410  1.00  0.00     0.031 C 
ATOM     38  C   UNL A   1      44.600  25.807  25.969  1.00  0.00     0.029 A 
ATOM     39  C   UNL A   1      44.641  27.163  26.509  1.00  0.00     0.049 A 
ATOM     40  H   UNL A   1      43.180  28.114  27.651  1.00  0.00     0.167 HD
ATOM     41  C   UNL A   1      39.964  30.043  29.910  1.00  0.00     0.034 A 
ATOM     42  C   UNL A   1      45.659  28.034  26.363  1.00  0.00     0.034 A 
ATOM     43  C   UNL A   1      41.027  31.012  29.867  1.00  0.00     0.049 A 
ATOM     44  C   UNL A   1      45.560  29.391  27.010  1.00  0.00     0.074 A 
ATOM     45  C   UNL A   1      41.058  32.282  30.415  1.00  0.00     0.029 A 
ATOM     46  N   UNL A   1      42.253  30.812  29.253  1.00  0.00    -0.354 N 
ATOM     47  N   UNL A   1      44.599  29.883  27.755  1.00  0.00    -0.248 NA
ATOM     48  C   UNL A   1      46.701  30.299  26.825  1.00  0.00     0.031 C 
ATOM     49  C   UNL A   1      42.304  32.851  30.130  1.00  0.00     0.029 A 
ATOM     50  C   UNL A   1      43.052  31.932  29.415  1.00  0.00     0.049 A 
ATOM     51  H   UNL A   1      42.517  29.995  28.771  1.00  0.00     0.167 HD
ATOM     52  C   UNL A   1      45.034  31.140  28.156  1.00  0.00     0.074 A 
ATOM     53  C   UNL A   1      46.356  31.326  27.591  1.00  0.00     0.031 C 
ATOM     54  C   UNL A   1      44.392  32.069  28.906  1.00  0.00     0.034 A 
BRANCH  41  55
ATOM     55  C   UNL A   1      38.713  30.396  30.671  1.00  0.00     0.023 A 
ATOM     56  C   UNL A   1      38.592  30.001  32.019  1.00  0.00     0.012 A 
ATOM     57  C   UNL A   1      37.692  31.164  30.080  1.00  0.00     0.148 A 
ATOM     58  C   UNL A   1      37.463  30.347  32.760  1.00  0.00     0.002 A 
ATOM     59  C   UNL A   1      36.585  31.535  30.836  1.00  0.00     0.091 A 
ATOM     60  F   UNL A   1      37.815  31.508  28.789  1.00  0.00    -0.205 F 
ATOM     61  C   UNL A   1      36.466  31.122  32.173  1.00  0.00     0.022 A 
BRANCH  59  62
ATOM     62  S   UNL A   1      35.280  32.587  30.188  1.00  0.00     0.127 S 
ATOM     63  O   UNL A   1      34.399  32.710  31.348  1.00  0.00    -0.237 OA
ATOM     64  O   UNL A   1      36.008  33.809  29.844  1.00  0.00    -0.237 OA
ATOM     65  O   UNL A   1      34.721  31.874  29.049  1.00  0.00    -0.744 OA
ENDBRANCH  59  62
ENDBRANCH  41  55
BRANCH  42  66
ATOM     66  C   UNL A   1      46.885  27.633  25.617  1.00  0.00     0.023 A 
ATOM     67  C   UNL A   1      46.943  27.839  24.224  1.00  0.00     0.012 A 
ATOM     68  C   UNL A   1      47.994  27.066  26.272  1.00  0.00     0.148 A 
ATOM     69  C   UNL A   1      48.071  27.460  23.495  1.00  0.00     0.002 A 
ATOM     70  C   UNL A   1      49.135  26.740  25.548  1.00  0.00     0.091 A 
ATOM     71  F   UNL A   1      47.913  26.852  27.593  1.00  0.00    -0.205 F 
ATOM     72  C   UNL A   1      49.171  26.922  24.157  1.00  0.00     0.022 A 
BRANCH  70  73
ATOM     73  S   UNL A   1      50.634  26.167  26.356  1.00  0.00     0.127 S 
ATOM     74  O   UNL A   1      51.580  26.129  25.245  1.00  0.00    -0.237 OA
ATOM     75  O   UNL A   1      50.881  27.223  27.340  1.00  0.00    -0.237 OA
ATOM     76  O   UNL A   1      50.280  24.882  26.944  1.00  0.00    -0.744 OA
ENDBRANCH  70  73
ENDBRANCH  42  66
BRANCH  54  77
ATOM     77  C   UNL A   1      45.121  33.355  29.197  1.00  0.00     0.023 A 
ATOM     78  C   UNL A   1      45.913  33.458  30.357  1.00  0.00     0.012 A 
ATOM     79  C   UNL A   1      45.070  34.434  28.294  1.00  0.00     0.148 A 
ATOM     80  C   UNL A   1      46.618  34.630  30.631  1.00  0.00     0.002 A 
ATOM     81  C   UNL A   1      45.807  35.583  28.553  1.00  0.00     0.091 A 
ATOM     82  F   UNL A   1      44.292  34.327  27.207  1.00  0.00    -0.205 F 
ATOM     83  C   UNL A   1      46.574  35.687  29.724  1.00  0.00     0.022 A 
BRANCH  81  84
ATOM     84  S   UNL A   1      45.868  36.952  27.389  1.00  0.00     0.127 S 
ATOM     85  O   UNL A   1      44.477  37.398  27.377  1.00  0.00    -0.237 OA
ATOM     86  O   UNL A   1      46.800  37.878  28.035  1.00  0.00    -0.237 OA
ATOM     87  O   UNL A   1      46.362  36.380  26.143  1.00  0.00    -0.744 OA
ENDBRANCH  81  84
ENDBRANCH  54  77
ENDBRANCH  28  29
ENDBRANCH  21  23
ENDBRANCH  20  21
ENDBRANCH   1  20
TORSDOF 15
ENDMDL
