MODEL 1
REMARK VINA RESULT:     -11.7      0.000      0.000
REMARK SMILES Nc1nonc1C(=O)N1[C@@H]2CC[C@H]1C[C@H](CC(=O)OCCOC(=O)c1ccc(-c3c4nc(c(-c5cccc(S(=O)(=O)[O-])c5F)c5ccc([nH]5)c(-c5cccc(S(=O)(=O)[O-])c5F)c5nc(c(-c6cccc(S(=O)(=O)[O-])c6F)c6ccc3[nH]6)C=C5)C=C4)cc1)C2
REMARK SMILES IDX 20 1 19 2 17 3 18 4 16 5 15 6 9 7 10 8 13 9 11 10 88 11
REMARK SMILES IDX 12 12 14 13 7 14 8 15 6 16 2 17 3 18 4 19 5 20 1 21 21 24
REMARK SMILES IDX 22 25 23 26 24 27 25 28 26 29 87 30 27 31 86 32 28 33 29 34
REMARK SMILES IDX 30 35 80 36 31 37 85 38 79 39 81 40 32 41 84 42 78 43 77 44
REMARK SMILES IDX 33 46 65 47 45 48 64 49 46 50 49 51 63 52 82 53 47 54 48 55
REMARK SMILES IDX 62 57 83 58 50 59 34 60 35 61 43 62 36 63 38 64 44 65 37 66
REMARK SMILES IDX 39 67 40 68 41 69 42 70 66 71 67 72 75 73 68 74 70 75 76 76
REMARK SMILES IDX 69 77 71 78 72 79 73 80 74 81 51 82 52 83 60 84 53 85 55 86
REMARK SMILES IDX 61 87 54 88 56 89 57 90 58 91 59 92
REMARK H PARENT 1 22 1 23 81 45 49 56
REMARK Flexibility Score: inf
ROOT
ATOM      1  C   UNL A   1      35.547  21.618  26.584  1.00  0.00     0.274 C 
ENDROOT
BRANCH   1   2
ATOM      2  O   UNL A   1      34.108  21.627  26.573  1.00  0.00    -0.462 OA
BRANCH   2   3
ATOM      3  C   UNL A   1      33.512  22.671  27.195  1.00  0.00     0.306 C 
ATOM      4  O   UNL A   1      32.703  22.577  28.107  1.00  0.00    -0.252 OA
BRANCH   3   5
ATOM      5  C   UNL A   1      33.880  24.001  26.578  1.00  0.00     0.126 C 
BRANCH   5   6
ATOM      6  C   UNL A   1      33.334  24.314  25.165  1.00  0.00     0.004 C 
ATOM      7  N   UNL A   1      32.503  22.305  23.353  1.00  0.00    -0.331 N 
ATOM      8  C   UNL A   1      31.468  23.258  23.708  1.00  0.00     0.086 C 
ATOM      9  C   UNL A   1      33.602  23.114  22.855  1.00  0.00     0.086 C 
ATOM     10  C   UNL A   1      31.528  24.334  22.616  1.00  0.00     0.027 C 
ATOM     11  C   UNL A   1      31.867  23.799  25.081  1.00  0.00     0.029 C 
ATOM     12  C   UNL A   1      32.900  24.150  21.968  1.00  0.00     0.027 C 
ATOM     13  C   UNL A   1      34.288  23.793  24.048  1.00  0.00     0.029 C 
BRANCH   7  14
ATOM     14  C   UNL A   1      32.154  21.106  22.736  1.00  0.00     0.280 C 
ATOM     15  O   UNL A   1      31.795  21.084  21.559  1.00  0.00    -0.267 OA
BRANCH  14  16
ATOM     16  C   UNL A   1      32.150  19.911  23.588  1.00  0.00     0.216 A 
ATOM     17  C   UNL A   1      32.153  18.526  23.270  1.00  0.00     0.201 A 
ATOM     18  N   UNL A   1      32.190  17.806  24.387  1.00  0.00    -0.032 NA
ATOM     19  O   UNL A   1      32.254  18.733  25.414  1.00  0.00    -0.242 OA
ATOM     20  N   UNL A   1      32.219  20.029  24.924  1.00  0.00    -0.042 NA
BRANCH  17  21
ATOM     21  N   UNL A   1      32.152  17.980  22.046  1.00  0.00    -0.379 N 
ATOM     22  H   UNL A   1      31.663  18.418  21.312  1.00  0.00     0.158 HD
ATOM     23  H   UNL A   1      32.639  17.141  21.881  1.00  0.00     0.158 HD
ENDBRANCH  17  21
ENDBRANCH  14  16
ENDBRANCH   7  14
ENDBRANCH   5   6
ENDBRANCH   3   5
ENDBRANCH   2   3
ENDBRANCH   1   2
BRANCH   1  24
ATOM     24  C   UNL A   1      36.088  20.951  25.318  1.00  0.00     0.275 C 
BRANCH  24  25
ATOM     25  O   UNL A   1      37.348  21.526  24.932  1.00  0.00    -0.458 OA
BRANCH  25  26
ATOM     26  C   UNL A   1      38.427  21.108  25.634  1.00  0.00     0.338 C 
ATOM     27  O   UNL A   1      38.821  19.964  25.776  1.00  0.00    -0.246 OA
BRANCH  26  28
ATOM     28  C   UNL A   1      39.162  22.286  26.119  1.00  0.00     0.060 A 
ATOM     29  C   UNL A   1      38.710  23.559  25.759  1.00  0.00     0.016 A 
ATOM     30  C   UNL A   1      40.311  22.132  26.892  1.00  0.00     0.016 A 
ATOM     31  C   UNL A   1      39.399  24.692  26.183  1.00  0.00     0.010 A 
ATOM     32  C   UNL A   1      40.997  23.269  27.323  1.00  0.00     0.010 A 
ATOM     33  C   UNL A   1      40.547  24.554  26.971  1.00  0.00    -0.014 A 
BRANCH  33  34
ATOM     34  C   UNL A   1      41.289  25.751  27.429  1.00  0.00     0.031 A 
ATOM     35  C   UNL A   1      40.586  26.802  28.235  1.00  0.00     0.074 A 
ATOM     36  C   UNL A   1      42.578  25.909  27.075  1.00  0.00     0.049 A 
ATOM     37  N   UNL A   1      41.015  27.977  28.612  1.00  0.00    -0.248 NA
ATOM     38  C   UNL A   1      39.214  26.492  28.669  1.00  0.00     0.031 C 
ATOM     39  C   UNL A   1      43.364  24.949  26.298  1.00  0.00     0.029 A 
ATOM     40  N   UNL A   1      43.442  26.954  27.289  1.00  0.00    -0.354 N 
ATOM     41  C   UNL A   1      39.956  28.566  29.289  1.00  0.00     0.074 A 
ATOM     42  C   UNL A   1      38.863  27.618  29.274  1.00  0.00     0.031 C 
ATOM     43  C   UNL A   1      44.582  25.464  26.071  1.00  0.00     0.029 A 
ATOM     44  C   UNL A   1      44.649  26.803  26.648  1.00  0.00     0.049 A 
ATOM     45  H   UNL A   1      43.219  27.734  27.847  1.00  0.00     0.167 HD
ATOM     46  C   UNL A   1      39.905  29.785  29.878  1.00  0.00     0.034 A 
ATOM     47  C   UNL A   1      45.676  27.663  26.507  1.00  0.00     0.034 A 
ATOM     48  C   UNL A   1      41.007  30.710  29.912  1.00  0.00     0.049 A 
ATOM     49  C   UNL A   1      45.587  29.019  27.153  1.00  0.00     0.074 A 
ATOM     50  C   UNL A   1      41.071  31.949  30.523  1.00  0.00     0.029 A 
ATOM     51  N   UNL A   1      42.234  30.500  29.302  1.00  0.00    -0.354 N 
ATOM     52  N   UNL A   1      44.618  29.525  27.878  1.00  0.00    -0.248 NA
ATOM     53  C   UNL A   1      46.739  29.916  26.982  1.00  0.00     0.031 C 
ATOM     54  C   UNL A   1      42.333  32.497  30.268  1.00  0.00     0.029 A 
ATOM     55  C   UNL A   1      43.061  31.591  29.512  1.00  0.00     0.049 A 
ATOM     56  H   UNL A   1      42.482  29.694  28.794  1.00  0.00     0.167 HD
ATOM     57  C   UNL A   1      45.051  30.786  28.269  1.00  0.00     0.074 A 
ATOM     58  C   UNL A   1      46.382  30.957  27.721  1.00  0.00     0.031 C 
ATOM     59  C   UNL A   1      44.401  31.724  29.000  1.00  0.00     0.034 A 
BRANCH  46  60
ATOM     60  C   UNL A   1      38.622  30.177  30.559  1.00  0.00     0.023 A 
ATOM     61  C   UNL A   1      38.400  29.789  31.897  1.00  0.00     0.012 A 
ATOM     62  C   UNL A   1      37.661  30.963  29.898  1.00  0.00     0.148 A 
ATOM     63  C   UNL A   1      37.226  30.155  32.555  1.00  0.00     0.002 A 
ATOM     64  C   UNL A   1      36.510  31.356  30.573  1.00  0.00     0.091 A 
ATOM     65  F   UNL A   1      37.878  31.299  28.618  1.00  0.00    -0.205 F 
ATOM     66  C   UNL A   1      36.287  30.946  31.897  1.00  0.00     0.022 A 
BRANCH  64  67
ATOM     67  S   UNL A   1      35.276  32.429  29.830  1.00  0.00     0.127 S 
ATOM     68  O   UNL A   1      34.398  32.700  30.966  1.00  0.00    -0.237 OA
ATOM     69  O   UNL A   1      36.081  33.573  29.396  1.00  0.00    -0.237 OA
ATOM     70  O   UNL A   1      34.682  31.663  28.744  1.00  0.00    -0.744 OA
ENDBRANCH  64  67
ENDBRANCH  46  60
BRANCH  47  71
ATOM     71  C   UNL A   1      46.882  27.254  25.734  1.00  0.00     0.023 A 
ATOM     72  C   UNL A   1      47.816  26.379  26.320  1.00  0.00     0.012 A 
ATOM     73  C   UNL A   1      47.085  27.690  24.409  1.00  0.00     0.148 A 
ATOM     74  C   UNL A   1      48.941  25.961  25.608  1.00  0.00     0.002 A 
ATOM     75  C   UNL A   1      48.178  27.226  23.687  1.00  0.00     0.091 A 
ATOM     76  F   UNL A   1      46.196  28.540  23.876  1.00  0.00    -0.205 F 
ATOM     77  C   UNL A   1      49.116  26.373  24.290  1.00  0.00     0.022 A 
BRANCH  75  78
ATOM     78  S   UNL A   1      48.404  27.599  21.944  1.00  0.00     0.127 S 
ATOM     79  O   UNL A   1      49.566  28.484  21.975  1.00  0.00    -0.237 OA
ATOM     80  O   UNL A   1      48.657  26.272  21.379  1.00  0.00    -0.237 OA
ATOM     81  O   UNL A   1      47.154  28.206  21.509  1.00  0.00    -0.744 OA
ENDBRANCH  75  78
ENDBRANCH  47  71
BRANCH  59  82
ATOM     82  C   UNL A   1      45.121  33.019  29.274  1.00  0.00     0.023 A 
ATOM     83  C   UNL A   1      45.985  33.111  30.382  1.00  0.00     0.012 A 
ATOM     84  C   UNL A   1      45.007  34.108  28.388  1.00  0.00     0.148 A 
ATOM     85  C   UNL A   1      46.708  34.281  30.619  1.00  0.00     0.002 A 
ATOM     86  C   UNL A   1      45.765  35.253  28.607  1.00  0.00     0.091 A 
ATOM     87  F   UNL A   1      44.164  34.004  27.351  1.00  0.00    -0.205 F 
ATOM     88  C   UNL A   1      46.608  35.345  29.726  1.00  0.00     0.022 A 
BRANCH  86  89
ATOM     89  S   UNL A   1      45.769  36.636  27.461  1.00  0.00     0.127 S 
ATOM     90  O   UNL A   1      44.365  37.042  27.478  1.00  0.00    -0.237 OA
ATOM     91  O   UNL A   1      46.683  37.577  28.111  1.00  0.00    -0.237 OA
ATOM     92  O   UNL A   1      46.252  36.107  26.192  1.00  0.00    -0.744 OA
ENDBRANCH  86  89
ENDBRANCH  59  82
ENDBRANCH  33  34
ENDBRANCH  26  28
ENDBRANCH  25  26
ENDBRANCH  24  25
ENDBRANCH   1  24
TORSDOF 18
ENDMDL
MODEL 2
REMARK VINA RESULT:     -11.7      4.646      9.959
REMARK SMILES Nc1nonc1C(=O)N1[C@@H]2CC[C@H]1C[C@H](CC(=O)OCCOC(=O)c1ccc(-c3c4nc(c(-c5cccc(S(=O)(=O)[O-])c5F)c5ccc([nH]5)c(-c5cccc(S(=O)(=O)[O-])c5F)c5nc(c(-c6cccc(S(=O)(=O)[O-])c6F)c6ccc3[nH]6)C=C5)C=C4)cc1)C2
REMARK SMILES IDX 20 1 19 2 17 3 18 4 16 5 15 6 9 7 10 8 13 9 11 10 88 11
REMARK SMILES IDX 12 12 14 13 7 14 8 15 6 16 2 17 3 18 4 19 5 20 1 21 21 24
REMARK SMILES IDX 22 25 23 26 24 27 25 28 26 29 87 30 27 31 86 32 28 33 29 34
REMARK SMILES IDX 30 35 80 36 31 37 85 38 79 39 81 40 32 41 84 42 78 43 77 44
REMARK SMILES IDX 33 46 65 47 45 48 64 49 46 50 49 51 63 52 82 53 47 54 48 55
REMARK SMILES IDX 62 57 83 58 50 59 34 60 35 61 43 62 36 63 38 64 44 65 37 66
REMARK SMILES IDX 39 67 40 68 41 69 42 70 66 71 67 72 75 73 68 74 70 75 76 76
REMARK SMILES IDX 69 77 71 78 72 79 73 80 74 81 51 82 52 83 60 84 53 85 55 86
REMARK SMILES IDX 61 87 54 88 56 89 57 90 58 91 59 92
REMARK H PARENT 1 22 1 23 81 45 49 56
REMARK Flexibility Score: inf
ROOT
ATOM      1  C   UNL A   1      42.231  21.374  27.370  1.00  0.00     0.274 C 
ENDROOT
BRANCH   1   2
ATOM      2  O   UNL A   1      41.970  22.006  28.636  1.00  0.00    -0.462 OA
BRANCH   2   3
ATOM      3  C   UNL A   1      42.915  22.868  29.080  1.00  0.00     0.306 C 
ATOM      4  O   UNL A   1      43.646  22.676  30.042  1.00  0.00    -0.252 OA
BRANCH   3   5
ATOM      5  C   UNL A   1      42.922  24.168  28.310  1.00  0.00     0.126 C 
BRANCH   5   6
ATOM      6  C   UNL A   1      44.124  24.445  27.376  1.00  0.00     0.004 C 
ATOM      7  N   UNL A   1      44.839  22.735  25.237  1.00  0.00    -0.331 N 
ATOM      8  C   UNL A   1      44.518  24.093  24.838  1.00  0.00     0.086 C 
ATOM      9  C   UNL A   1      45.882  22.875  26.238  1.00  0.00     0.086 C 
ATOM     10  C   UNL A   1      45.864  24.827  24.810  1.00  0.00     0.027 C 
ATOM     11  C   UNL A   1      43.586  24.626  25.925  1.00  0.00     0.029 C 
ATOM     12  C   UNL A   1      46.801  23.947  25.638  1.00  0.00     0.027 C 
ATOM     13  C   UNL A   1      45.244  23.374  27.541  1.00  0.00     0.029 C 
BRANCH   7  14
ATOM     14  C   UNL A   1      44.895  21.728  24.275  1.00  0.00     0.280 C 
ATOM     15  O   UNL A   1      44.521  21.937  23.122  1.00  0.00    -0.267 OA
BRANCH  14  16
ATOM     16  C   UNL A   1      45.329  20.406  24.741  1.00  0.00     0.216 A 
ATOM     17  C   UNL A   1      44.596  19.228  25.049  1.00  0.00     0.201 A 
ATOM     18  N   UNL A   1      45.431  18.254  25.397  1.00  0.00    -0.032 NA
ATOM     19  O   UNL A   1      46.697  18.800  25.268  1.00  0.00    -0.242 OA
ATOM     20  N   UNL A   1      46.636  20.127  24.876  1.00  0.00    -0.042 NA
BRANCH  17  21
ATOM     21  N   UNL A   1      43.267  19.064  24.982  1.00  0.00    -0.379 N 
ATOM     22  H   UNL A   1      42.876  18.494  24.281  1.00  0.00     0.158 HD
ATOM     23  H   UNL A   1      42.682  19.515  25.633  1.00  0.00     0.158 HD
ENDBRANCH  17  21
ENDBRANCH  14  16
ENDBRANCH   7  14
ENDBRANCH   5   6
ENDBRANCH   3   5
ENDBRANCH   2   3
ENDBRANCH   1   2
BRANCH   1  24
ATOM     24  C   UNL A   1      41.082  21.635  26.395  1.00  0.00     0.275 C 
BRANCH  24  25
ATOM     25  O   UNL A   1      39.897  22.049  27.095  1.00  0.00    -0.458 OA
BRANCH  25  26
ATOM     26  C   UNL A   1      39.120  22.955  26.457  1.00  0.00     0.338 C 
ATOM     27  O   UNL A   1      38.185  22.733  25.708  1.00  0.00    -0.246 OA
BRANCH  26  28
ATOM     28  C   UNL A   1      39.497  24.303  26.908  1.00  0.00     0.060 A 
ATOM     29  C   UNL A   1      40.082  25.182  25.991  1.00  0.00     0.016 A 
ATOM     30  C   UNL A   1      39.310  24.682  28.235  1.00  0.00     0.016 A 
ATOM     31  C   UNL A   1      40.471  26.456  26.394  1.00  0.00     0.010 A 
ATOM     32  C   UNL A   1      39.694  25.963  28.637  1.00  0.00     0.010 A 
ATOM     33  C   UNL A   1      40.277  26.857  27.721  1.00  0.00    -0.014 A 
BRANCH  33  34
ATOM     34  C   UNL A   1      40.687  28.209  28.164  1.00  0.00     0.031 A 
ATOM     35  C   UNL A   1      42.142  28.565  28.224  1.00  0.00     0.074 A 
ATOM     36  C   UNL A   1      39.750  29.092  28.556  1.00  0.00     0.049 A 
ATOM     37  N   UNL A   1      42.709  29.637  28.708  1.00  0.00    -0.248 NA
ATOM     38  C   UNL A   1      43.085  27.580  27.670  1.00  0.00     0.031 C 
ATOM     39  C   UNL A   1      38.305  28.855  28.535  1.00  0.00     0.029 A 
ATOM     40  N   UNL A   1      39.876  30.351  29.087  1.00  0.00    -0.354 N 
ATOM     41  C   UNL A   1      44.076  29.441  28.560  1.00  0.00     0.074 A 
ATOM     42  C   UNL A   1      44.253  28.147  27.937  1.00  0.00     0.031 C 
ATOM     43  C   UNL A   1      37.680  29.920  29.062  1.00  0.00     0.029 A 
ATOM     44  C   UNL A   1      38.679  30.892  29.495  1.00  0.00     0.049 A 
ATOM     45  H   UNL A   1      40.737  30.821  29.167  1.00  0.00     0.167 HD
ATOM     46  C   UNL A   1      45.089  30.272  28.904  1.00  0.00     0.034 A 
ATOM     47  C   UNL A   1      38.420  32.024  30.179  1.00  0.00     0.034 A 
ATOM     48  C   UNL A   1      44.902  31.568  29.498  1.00  0.00     0.049 A 
ATOM     49  C   UNL A   1      39.565  32.919  30.569  1.00  0.00     0.074 A 
ATOM     50  C   UNL A   1      45.860  32.505  29.840  1.00  0.00     0.029 A 
ATOM     51  N   UNL A   1      43.673  32.109  29.845  1.00  0.00    -0.354 N 
ATOM     52  N   UNL A   1      40.846  32.769  30.331  1.00  0.00    -0.248 NA
ATOM     53  C   UNL A   1      39.230  34.149  31.300  1.00  0.00     0.031 C 
ATOM     54  C   UNL A   1      45.212  33.605  30.411  1.00  0.00     0.029 A 
ATOM     55  C   UNL A   1      43.847  33.362  30.408  1.00  0.00     0.049 A 
ATOM     56  H   UNL A   1      42.804  31.667  29.711  1.00  0.00     0.167 HD
ATOM     57  C   UNL A   1      41.467  33.894  30.861  1.00  0.00     0.074 A 
ATOM     58  C   UNL A   1      40.418  34.730  31.410  1.00  0.00     0.031 C 
ATOM     59  C   UNL A   1      42.787  34.201  30.905  1.00  0.00     0.034 A 
BRANCH  46  60
ATOM     60  C   UNL A   1      46.493  29.812  28.620  1.00  0.00     0.023 A 
ATOM     61  C   UNL A   1      47.117  30.189  27.413  1.00  0.00     0.012 A 
ATOM     62  C   UNL A   1      47.210  29.050  29.561  1.00  0.00     0.148 A 
ATOM     63  C   UNL A   1      48.424  29.790  27.136  1.00  0.00     0.002 A 
ATOM     64  C   UNL A   1      48.526  28.687  29.294  1.00  0.00     0.091 A 
ATOM     65  F   UNL A   1      46.591  28.678  30.691  1.00  0.00    -0.205 F 
ATOM     66  C   UNL A   1      49.131  29.048  28.080  1.00  0.00     0.022 A 
BRANCH  64  67
ATOM     67  S   UNL A   1      49.538  27.789  30.476  1.00  0.00     0.127 S 
ATOM     68  O   UNL A   1      48.831  26.513  30.560  1.00  0.00    -0.237 OA
ATOM     69  O   UNL A   1      50.831  27.726  29.794  1.00  0.00    -0.237 OA
ATOM     70  O   UNL A   1      49.535  28.590  31.692  1.00  0.00    -0.744 OA
ENDBRANCH  64  67
ENDBRANCH  46  60
BRANCH  47  71
ATOM     71  C   UNL A   1      37.013  32.377  30.519  1.00  0.00     0.023 A 
ATOM     72  C   UNL A   1      36.533  32.130  31.818  1.00  0.00     0.012 A 
ATOM     73  C   UNL A   1      36.166  32.997  29.578  1.00  0.00     0.148 A 
ATOM     74  C   UNL A   1      35.227  32.475  32.169  1.00  0.00     0.002 A 
ATOM     75  C   UNL A   1      34.886  33.388  29.951  1.00  0.00     0.091 A 
ATOM     76  F   UNL A   1      36.636  33.205  28.340  1.00  0.00    -0.205 F 
ATOM     77  C   UNL A   1      34.409  33.114  31.242  1.00  0.00     0.022 A 
BRANCH  75  78
ATOM     78  S   UNL A   1      33.818  34.337  28.861  1.00  0.00     0.127 S 
ATOM     79  O   UNL A   1      33.377  33.318  27.912  1.00  0.00    -0.237 OA
ATOM     80  O   UNL A   1      32.783  34.808  29.783  1.00  0.00    -0.237 OA
ATOM     81  O   UNL A   1      34.657  35.394  28.314  1.00  0.00    -0.744 OA
ENDBRANCH  75  78
ENDBRANCH  47  71
BRANCH  59  82
ATOM     82  C   UNL A   1      43.179  35.504  31.551  1.00  0.00     0.023 A 
ATOM     83  C   UNL A   1      43.328  35.568  32.950  1.00  0.00     0.012 A 
ATOM     84  C   UNL A   1      43.480  36.636  30.768  1.00  0.00     0.148 A 
ATOM     85  C   UNL A   1      43.749  36.748  33.563  1.00  0.00     0.002 A 
ATOM     86  C   UNL A   1      43.942  37.793  31.383  1.00  0.00     0.091 A 
ATOM     87  F   UNL A   1      43.312  36.558  29.439  1.00  0.00    -0.205 F 
ATOM     88  C   UNL A   1      44.068  37.855  32.779  1.00  0.00     0.022 A 
BRANCH  86  89
ATOM     89  S   UNL A   1      44.461  39.237  30.447  1.00  0.00     0.127 S 
ATOM     90  O   UNL A   1      44.068  40.327  31.338  1.00  0.00    -0.237 OA
ATOM     91  O   UNL A   1      45.907  39.032  30.336  1.00  0.00    -0.237 OA
ATOM     92  O   UNL A   1      43.745  39.174  29.180  1.00  0.00    -0.744 OA
ENDBRANCH  86  89
ENDBRANCH  59  82
ENDBRANCH  33  34
ENDBRANCH  26  28
ENDBRANCH  25  26
ENDBRANCH  24  25
ENDBRANCH   1  24
TORSDOF 18
ENDMDL
MODEL 3
REMARK VINA RESULT:     -11.7      6.528     11.999
REMARK SMILES Nc1nonc1C(=O)N1[C@@H]2CC[C@H]1C[C@H](CC(=O)OCCOC(=O)c1ccc(-c3c4nc(c(-c5cccc(S(=O)(=O)[O-])c5F)c5ccc([nH]5)c(-c5cccc(S(=O)(=O)[O-])c5F)c5nc(c(-c6cccc(S(=O)(=O)[O-])c6F)c6ccc3[nH]6)C=C5)C=C4)cc1)C2
REMARK SMILES IDX 20 1 19 2 17 3 18 4 16 5 15 6 9 7 10 8 13 9 11 10 88 11
REMARK SMILES IDX 12 12 14 13 7 14 8 15 6 16 2 17 3 18 4 19 5 20 1 21 21 24
REMARK SMILES IDX 22 25 23 26 24 27 25 28 26 29 87 30 27 31 86 32 28 33 29 34
REMARK SMILES IDX 30 35 80 36 31 37 85 38 79 39 81 40 32 41 84 42 78 43 77 44
REMARK SMILES IDX 33 46 65 47 45 48 64 49 46 50 49 51 63 52 82 53 47 54 48 55
REMARK SMILES IDX 62 57 83 58 50 59 34 60 35 61 43 62 36 63 38 64 44 65 37 66
REMARK SMILES IDX 39 67 40 68 41 69 42 70 66 71 67 72 75 73 68 74 70 75 76 76
REMARK SMILES IDX 69 77 71 78 72 79 73 80 74 81 51 82 52 83 60 84 53 85 55 86
REMARK SMILES IDX 61 87 54 88 56 89 57 90 58 91 59 92
REMARK H PARENT 1 22 1 23 81 45 49 56
REMARK Flexibility Score: inf
ROOT
ATOM      1  C   UNL A   1      33.285  33.527  27.773  1.00  0.00     0.274 C 
ENDROOT
BRANCH   1   2
ATOM      2  O   UNL A   1      34.688  33.739  27.530  1.00  0.00    -0.462 OA
BRANCH   2   3
ATOM      3  C   UNL A   1      35.399  34.265  28.555  1.00  0.00     0.306 C 
ATOM      4  O   UNL A   1      35.130  35.306  29.138  1.00  0.00    -0.252 OA
BRANCH   3   5
ATOM      5  C   UNL A   1      36.648  33.470  28.863  1.00  0.00     0.126 C 
BRANCH   5   6
ATOM      6  C   UNL A   1      36.908  33.080  30.337  1.00  0.00     0.004 C 
ATOM      7  N   UNL A   1      35.726  34.437  32.521  1.00  0.00    -0.331 N 
ATOM      8  C   UNL A   1      35.407  33.023  32.450  1.00  0.00     0.086 C 
ATOM      9  C   UNL A   1      37.177  34.494  32.522  1.00  0.00     0.086 C 
ATOM     10  C   UNL A   1      36.452  32.335  33.336  1.00  0.00     0.027 C 
ATOM     11  C   UNL A   1      35.555  32.648  30.976  1.00  0.00     0.029 C 
ATOM     12  C   UNL A   1      37.571  33.367  33.485  1.00  0.00     0.027 C 
ATOM     13  C   UNL A   1      37.679  34.197  31.103  1.00  0.00     0.029 C 
BRANCH   7  14
ATOM     14  C   UNL A   1      34.972  35.274  33.341  1.00  0.00     0.280 C 
ATOM     15  O   UNL A   1      34.988  35.138  34.565  1.00  0.00    -0.267 OA
BRANCH  14  16
ATOM     16  C   UNL A   1      34.104  36.242  32.662  1.00  0.00     0.216 A 
ATOM     17  C   UNL A   1      33.132  36.081  31.638  1.00  0.00     0.201 A 
ATOM     18  N   UNL A   1      32.563  37.251  31.367  1.00  0.00    -0.032 NA
ATOM     19  O   UNL A   1      33.142  38.149  32.248  1.00  0.00    -0.242 OA
ATOM     20  N   UNL A   1      34.098  37.532  33.038  1.00  0.00    -0.042 NA
BRANCH  17  21
ATOM     21  N   UNL A   1      32.783  34.938  31.030  1.00  0.00    -0.379 N 
ATOM     22  H   UNL A   1      33.140  34.727  30.137  1.00  0.00     0.158 HD
ATOM     23  H   UNL A   1      32.169  34.312  31.475  1.00  0.00     0.158 HD
ENDBRANCH  17  21
ENDBRANCH  14  16
ENDBRANCH   7  14
ENDBRANCH   5   6
ENDBRANCH   3   5
ENDBRANCH   2   3
ENDBRANCH   1   2
BRANCH   1  24
ATOM     24  C   UNL A   1      32.927  32.052  27.591  1.00  0.00     0.275 C 
BRANCH  24  25
ATOM     25  O   UNL A   1      33.906  31.204  28.214  1.00  0.00    -0.458 OA
BRANCH  25  26
ATOM     26  C   UNL A   1      34.469  30.267  27.416  1.00  0.00     0.338 C 
ATOM     27  O   UNL A   1      34.045  29.846  26.354  1.00  0.00    -0.246 OA
BRANCH  26  28
ATOM     28  C   UNL A   1      35.781  29.900  27.968  1.00  0.00     0.060 A 
ATOM     29  C   UNL A   1      36.922  30.098  27.185  1.00  0.00     0.016 A 
ATOM     30  C   UNL A   1      35.880  29.330  29.235  1.00  0.00     0.016 A 
ATOM     31  C   UNL A   1      38.176  29.739  27.672  1.00  0.00     0.010 A 
ATOM     32  C   UNL A   1      37.138  28.976  29.726  1.00  0.00     0.010 A 
ATOM     33  C   UNL A   1      38.293  29.177  28.948  1.00  0.00    -0.014 A 
BRANCH  33  34
ATOM     34  C   UNL A   1      39.621  28.790  29.478  1.00  0.00     0.031 A 
ATOM     35  C   UNL A   1      40.357  27.633  28.872  1.00  0.00     0.074 A 
ATOM     36  C   UNL A   1      40.132  29.449  30.534  1.00  0.00     0.049 A 
ATOM     37  N   UNL A   1      41.457  27.054  29.273  1.00  0.00    -0.248 NA
ATOM     38  C   UNL A   1      39.775  27.047  27.654  1.00  0.00     0.031 C 
ATOM     39  C   UNL A   1      39.506  30.592  31.200  1.00  0.00     0.029 A 
ATOM     40  N   UNL A   1      41.278  29.227  31.256  1.00  0.00    -0.354 N 
ATOM     41  C   UNL A   1      41.678  26.008  28.388  1.00  0.00     0.074 A 
ATOM     42  C   UNL A   1      40.599  26.034  27.423  1.00  0.00     0.031 C 
ATOM     43  C   UNL A   1      40.256  30.950  32.253  1.00  0.00     0.029 A 
ATOM     44  C   UNL A   1      41.391  30.037  32.361  1.00  0.00     0.049 A 
ATOM     45  H   UNL A   1      41.953  28.555  31.006  1.00  0.00     0.167 HD
ATOM     46  C   UNL A   1      42.696  25.115  28.375  1.00  0.00     0.034 A 
ATOM     47  C   UNL A   1      42.284  30.019  33.370  1.00  0.00     0.034 A 
ATOM     48  C   UNL A   1      43.780  25.115  29.321  1.00  0.00     0.049 A 
ATOM     49  C   UNL A   1      43.393  29.003  33.344  1.00  0.00     0.074 A 
ATOM     50  C   UNL A   1      44.883  24.281  29.366  1.00  0.00     0.029 A 
ATOM     51  N   UNL A   1      43.892  25.986  30.394  1.00  0.00    -0.354 N 
ATOM     52  N   UNL A   1      43.648  28.084  32.444  1.00  0.00    -0.248 NA
ATOM     53  C   UNL A   1      44.351  29.033  34.458  1.00  0.00     0.031 C 
ATOM     54  C   UNL A   1      45.654  24.638  30.477  1.00  0.00     0.029 A 
ATOM     55  C   UNL A   1      45.041  25.705  31.115  1.00  0.00     0.049 A 
ATOM     56  H   UNL A   1      43.250  26.700  30.611  1.00  0.00     0.167 HD
ATOM     57  C   UNL A   1      44.806  27.443  32.869  1.00  0.00     0.074 A 
ATOM     58  C   UNL A   1      45.217  28.097  34.096  1.00  0.00     0.031 C 
ATOM     59  C   UNL A   1      45.461  26.398  32.306  1.00  0.00     0.034 A 
BRANCH  46  60
ATOM     60  C   UNL A   1      42.699  24.078  27.285  1.00  0.00     0.023 A 
ATOM     61  C   UNL A   1      43.344  24.357  26.062  1.00  0.00     0.012 A 
ATOM     62  C   UNL A   1      42.108  22.816  27.483  1.00  0.00     0.148 A 
ATOM     63  C   UNL A   1      43.375  23.405  25.044  1.00  0.00     0.002 A 
ATOM     64  C   UNL A   1      42.176  21.858  26.477  1.00  0.00     0.091 A 
ATOM     65  F   UNL A   1      41.476  22.579  28.642  1.00  0.00    -0.205 F 
ATOM     66  C   UNL A   1      42.801  22.153  25.255  1.00  0.00     0.022 A 
BRANCH  64  67
ATOM     67  S   UNL A   1      41.524  20.197  26.682  1.00  0.00     0.127 S 
ATOM     68  O   UNL A   1      40.114  20.466  26.960  1.00  0.00    -0.237 OA
ATOM     69  O   UNL A   1      41.782  19.598  25.372  1.00  0.00    -0.237 OA
ATOM     70  O   UNL A   1      42.279  19.604  27.776  1.00  0.00    -0.744 OA
ENDBRANCH  64  67
ENDBRANCH  46  60
BRANCH  47  71
ATOM     71  C   UNL A   1      42.171  31.011  34.476  1.00  0.00     0.023 A 
ATOM     72  C   UNL A   1      41.388  30.703  35.604  1.00  0.00     0.012 A 
ATOM     73  C   UNL A   1      42.870  32.234  34.437  1.00  0.00     0.148 A 
ATOM     74  C   UNL A   1      41.285  31.604  36.664  1.00  0.00     0.002 A 
ATOM     75  C   UNL A   1      42.809  33.102  35.520  1.00  0.00     0.091 A 
ATOM     76  F   UNL A   1      43.594  32.518  33.345  1.00  0.00    -0.205 F 
ATOM     77  C   UNL A   1      42.004  32.795  36.629  1.00  0.00     0.022 A 
BRANCH  75  78
ATOM     78  S   UNL A   1      43.809  34.591  35.614  1.00  0.00     0.127 S 
ATOM     79  O   UNL A   1      43.231  35.408  34.550  1.00  0.00    -0.237 OA
ATOM     80  O   UNL A   1      43.528  35.062  36.972  1.00  0.00    -0.237 OA
ATOM     81  O   UNL A   1      45.182  34.154  35.405  1.00  0.00    -0.744 OA
ENDBRANCH  75  78
ENDBRANCH  47  71
BRANCH  59  82
ATOM     82  C   UNL A   1      46.705  25.901  32.995  1.00  0.00     0.023 A 
ATOM     83  C   UNL A   1      47.932  26.552  32.765  1.00  0.00     0.012 A 
ATOM     84  C   UNL A   1      46.641  24.848  33.928  1.00  0.00     0.148 A 
ATOM     85  C   UNL A   1      49.085  26.147  33.438  1.00  0.00     0.002 A 
ATOM     86  C   UNL A   1      47.784  24.480  34.628  1.00  0.00     0.091 A 
ATOM     87  F   UNL A   1      45.466  24.230  34.117  1.00  0.00    -0.205 F 
ATOM     88  C   UNL A   1      49.008  25.121  34.377  1.00  0.00     0.022 A 
BRANCH  86  89
ATOM     89  S   UNL A   1      47.761  23.232  35.920  1.00  0.00     0.127 S 
ATOM     90  O   UNL A   1      49.151  23.242  36.370  1.00  0.00    -0.237 OA
ATOM     91  O   UNL A   1      46.806  23.793  36.877  1.00  0.00    -0.237 OA
ATOM     92  O   UNL A   1      47.318  22.000  35.280  1.00  0.00    -0.744 OA
ENDBRANCH  86  89
ENDBRANCH  59  82
ENDBRANCH  33  34
ENDBRANCH  26  28
ENDBRANCH  25  26
ENDBRANCH  24  25
ENDBRANCH   1  24
TORSDOF 18
ENDMDL
