MODEL 1
REMARK VINA RESULT:     -12.0      0.000      0.000
REMARK SMILES O=C(OCCOC(=O)c1ccc(-c2c3nc(c(-c4cccc(S(=O)(=O)[O-])c4F)c4ccc([nH]4)c(-c4cccc(S(=O)(=O)[O-])c4F)c4nc(c(-c5cccc(S(=O)(=O)[O-])c5F)c5ccc2[nH]5)C=C4)C=C3)cc1)C1=Cc2c(ccc(Cl)c2Cl)O[C@H]1C(F)(F)F
REMARK SMILES IDX 5 1 4 2 3 3 2 4 1 5 72 6 73 7 83 8 74 9 82 10 75 11 80 12
REMARK SMILES IDX 76 13 78 14 81 15 77 16 79 17 84 18 85 19 86 20 87 21 6 22
REMARK SMILES IDX 7 23 8 24 9 25 10 26 71 27 11 28 70 29 12 30 13 31 14 32
REMARK SMILES IDX 64 33 15 34 69 35 63 36 65 37 16 38 68 39 62 40 61 41 17 43
REMARK SMILES IDX 49 44 29 45 48 46 30 47 33 48 47 49 66 50 31 51 32 52 46 54
REMARK SMILES IDX 67 55 34 56 18 57 19 58 27 59 20 60 22 61 28 62 21 63 23 64
REMARK SMILES IDX 24 65 25 66 26 67 50 68 51 69 59 70 52 71 54 72 60 73 53 74
REMARK SMILES IDX 55 75 56 76 57 77 58 78 35 79 36 80 44 81 37 82 39 83 45 84
REMARK SMILES IDX 38 85 40 86 41 87 42 88 43 89
REMARK H PARENT 65 42 33 53
REMARK Flexibility Score: inf
ROOT
ATOM      1  C   UNL A   1      36.696  20.553  25.081  1.00  0.00     0.275 C 
ENDROOT
BRANCH   1   2
ATOM      2  C   UNL A   1      35.307  21.068  25.484  1.00  0.00     0.275 C 
BRANCH   2   3
ATOM      3  O   UNL A   1      35.313  22.396  26.055  1.00  0.00    -0.459 OA
BRANCH   3   4
ATOM      4  C   UNL A   1      34.297  23.274  26.216  1.00  0.00     0.338 C 
ATOM      5  O   UNL A   1      33.668  23.256  27.272  1.00  0.00    -0.246 OA
BRANCH   4   6
ATOM      6  C   UNL A   1      33.982  24.331  25.225  1.00  0.00     0.087 C 
ATOM      7  C   UNL A   1      34.325  25.617  25.362  1.00  0.00     0.029 C 
ATOM      8  C   UNL A   1      32.956  23.929  24.180  1.00  0.00     0.316 C 
ATOM      9  C   UNL A   1      33.259  26.591  25.157  1.00  0.00     0.037 A 
ATOM     10  O   UNL A   1      32.105  25.015  23.715  1.00  0.00    -0.475 OA
ATOM     11  C   UNL A   1      32.165  26.204  24.383  1.00  0.00     0.129 A 
ATOM     12  C   UNL A   1      33.238  27.827  25.836  1.00  0.00     0.070 A 
ATOM     13  C   UNL A   1      31.059  27.039  24.264  1.00  0.00     0.049 A 
ATOM     14  C   UNL A   1      32.100  28.640  25.752  1.00  0.00     0.060 A 
ATOM     15  Cl  UNL A   1      34.591  28.318  26.812  1.00  0.00    -0.082 Cl
ATOM     16  C   UNL A   1      31.016  28.244  24.965  1.00  0.00     0.026 A 
ATOM     17  Cl  UNL A   1      31.953  30.126  26.626  1.00  0.00    -0.083 Cl
BRANCH   8  18
ATOM     18  C   UNL A   1      33.689  23.310  22.972  1.00  0.00     0.430 C 
ATOM     19  F   UNL A   1      33.318  23.885  21.807  1.00  0.00    -0.167 F 
ATOM     20  F   UNL A   1      35.027  23.444  23.082  1.00  0.00    -0.167 F 
ATOM     21  F   UNL A   1      33.412  21.985  22.860  1.00  0.00    -0.167 F 
ENDBRANCH   8  18
ENDBRANCH   4   6
ENDBRANCH   3   4
ENDBRANCH   2   3
ENDBRANCH   1   2
BRANCH   1  22
ATOM     22  O   UNL A   1      37.680  21.591  25.100  1.00  0.00    -0.458 OA
BRANCH  22  23
ATOM     23  C   UNL A   1      38.772  21.280  25.842  1.00  0.00     0.338 C 
ATOM     24  O   UNL A   1      39.334  20.195  25.878  1.00  0.00    -0.246 OA
BRANCH  23  25
ATOM     25  C   UNL A   1      39.310  22.512  26.449  1.00  0.00     0.060 A 
ATOM     26  C   UNL A   1      38.676  23.717  26.129  1.00  0.00     0.016 A 
ATOM     27  C   UNL A   1      40.405  22.495  27.319  1.00  0.00     0.016 A 
ATOM     28  C   UNL A   1      39.170  24.917  26.631  1.00  0.00     0.010 A 
ATOM     29  C   UNL A   1      40.893  23.700  27.830  1.00  0.00     0.010 A 
ATOM     30  C   UNL A   1      40.303  24.919  27.453  1.00  0.00    -0.014 A 
BRANCH  30  31
ATOM     31  C   UNL A   1      40.949  26.206  27.798  1.00  0.00     0.031 A 
ATOM     32  C   UNL A   1      42.367  26.444  27.355  1.00  0.00     0.074 A 
ATOM     33  C   UNL A   1      40.282  27.152  28.486  1.00  0.00     0.049 A 
ATOM     34  N   UNL A   1      43.109  27.509  27.501  1.00  0.00    -0.248 NA
ATOM     35  C   UNL A   1      43.038  25.337  26.651  1.00  0.00     0.031 C 
ATOM     36  C   UNL A   1      38.912  27.030  28.980  1.00  0.00     0.029 A 
ATOM     37  N   UNL A   1      40.681  28.395  28.908  1.00  0.00    -0.354 N 
ATOM     38  C   UNL A   1      44.335  27.197  26.929  1.00  0.00     0.074 A 
ATOM     39  C   UNL A   1      44.250  25.835  26.450  1.00  0.00     0.031 C 
ATOM     40  C   UNL A   1      38.597  28.136  29.678  1.00  0.00     0.029 A 
ATOM     41  C   UNL A   1      39.742  29.042  29.677  1.00  0.00     0.049 A 
ATOM     42  H   UNL A   1      41.555  28.786  28.683  1.00  0.00     0.167 HD
ATOM     43  C   UNL A   1      45.427  27.983  26.790  1.00  0.00     0.034 A 
ATOM     44  C   UNL A   1      39.808  30.228  30.315  1.00  0.00     0.034 A 
ATOM     45  C   UNL A   1      45.498  29.345  27.238  1.00  0.00     0.049 A 
ATOM     46  C   UNL A   1      41.046  31.074  30.157  1.00  0.00     0.074 A 
ATOM     47  C   UNL A   1      46.525  30.254  27.063  1.00  0.00     0.029 A 
ATOM     48  N   UNL A   1      44.511  29.987  27.969  1.00  0.00    -0.354 N 
ATOM     49  N   UNL A   1      42.122  30.840  29.444  1.00  0.00    -0.248 NA
ATOM     50  C   UNL A   1      41.065  32.367  30.858  1.00  0.00     0.031 C 
ATOM     51  C   UNL A   1      46.174  31.437  27.722  1.00  0.00     0.029 A 
ATOM     52  C   UNL A   1      44.918  31.270  28.284  1.00  0.00     0.049 A 
ATOM     53  H   UNL A   1      43.649  29.588  28.227  1.00  0.00     0.167 HD
ATOM     54  C   UNL A   1      42.927  31.965  29.584  1.00  0.00     0.074 A 
ATOM     55  C   UNL A   1      42.204  32.893  30.427  1.00  0.00     0.031 C 
ATOM     56  C   UNL A   1      44.161  32.203  29.078  1.00  0.00     0.034 A 
BRANCH  43  57
ATOM     57  C   UNL A   1      46.627  27.403  26.095  1.00  0.00     0.023 A 
ATOM     58  C   UNL A   1      46.768  27.559  24.701  1.00  0.00     0.012 A 
ATOM     59  C   UNL A   1      47.650  26.775  26.830  1.00  0.00     0.148 A 
ATOM     60  C   UNL A   1      47.900  27.078  24.045  1.00  0.00     0.002 A 
ATOM     61  C   UNL A   1      48.793  26.332  26.175  1.00  0.00     0.091 A 
ATOM     62  F   UNL A   1      47.485  26.622  28.151  1.00  0.00    -0.205 F 
ATOM     63  C   UNL A   1      48.916  26.475  24.783  1.00  0.00     0.022 A 
BRANCH  61  64
ATOM     64  S   UNL A   1      50.188  25.602  27.039  1.00  0.00     0.127 S 
ATOM     65  O   UNL A   1      49.605  24.357  27.539  1.00  0.00    -0.237 OA
ATOM     66  O   UNL A   1      51.159  25.431  25.960  1.00  0.00    -0.237 OA
ATOM     67  O   UNL A   1      50.575  26.559  28.066  1.00  0.00    -0.744 OA
ENDBRANCH  61  64
ENDBRANCH  43  57
BRANCH  44  68
ATOM     68  C   UNL A   1      38.661  30.709  31.139  1.00  0.00     0.023 A 
ATOM     69  C   UNL A   1      38.646  30.460  32.525  1.00  0.00     0.012 A 
ATOM     70  C   UNL A   1      37.574  31.386  30.552  1.00  0.00     0.148 A 
ATOM     71  C   UNL A   1      37.549  30.835  33.303  1.00  0.00     0.002 A 
ATOM     72  C   UNL A   1      36.507  31.801  31.341  1.00  0.00     0.091 A 
ATOM     73  F   UNL A   1      37.595  31.597  29.228  1.00  0.00    -0.205 F 
ATOM     74  C   UNL A   1      36.485  31.510  32.713  1.00  0.00     0.022 A 
BRANCH  72  75
ATOM     75  S   UNL A   1      35.144  32.770  30.682  1.00  0.00     0.127 S 
ATOM     76  O   UNL A   1      34.238  32.829  31.826  1.00  0.00    -0.237 OA
ATOM     77  O   UNL A   1      35.800  34.035  30.352  1.00  0.00    -0.237 OA
ATOM     78  O   UNL A   1      34.662  32.028  29.526  1.00  0.00    -0.744 OA
ENDBRANCH  72  75
ENDBRANCH  44  68
BRANCH  56  79
ATOM     79  C   UNL A   1      44.813  33.521  29.402  1.00  0.00     0.023 A 
ATOM     80  C   UNL A   1      45.636  33.627  30.540  1.00  0.00     0.012 A 
ATOM     81  C   UNL A   1      44.694  34.621  28.529  1.00  0.00     0.148 A 
ATOM     82  C   UNL A   1      46.310  34.814  30.820  1.00  0.00     0.002 A 
ATOM     83  C   UNL A   1      45.409  35.784  28.786  1.00  0.00     0.091 A 
ATOM     84  F   UNL A   1      43.895  34.503  27.458  1.00  0.00    -0.205 F 
ATOM     85  C   UNL A   1      46.208  35.887  29.937  1.00  0.00     0.022 A 
BRANCH  83  86
ATOM     86  S   UNL A   1      45.422  37.180  27.655  1.00  0.00     0.127 S 
ATOM     87  O   UNL A   1      46.279  38.130  28.363  1.00  0.00    -0.237 OA
ATOM     88  O   UNL A   1      46.020  36.599  26.452  1.00  0.00    -0.237 OA
ATOM     89  O   UNL A   1      44.032  37.588  27.504  1.00  0.00    -0.744 OA
ENDBRANCH  83  86
ENDBRANCH  56  79
ENDBRANCH  30  31
ENDBRANCH  23  25
ENDBRANCH  22  23
ENDBRANCH   1  22
TORSDOF 15
ENDMDL
MODEL 2
REMARK VINA RESULT:     -11.8      1.507      1.915
REMARK SMILES O=C(OCCOC(=O)c1ccc(-c2c3nc(c(-c4cccc(S(=O)(=O)[O-])c4F)c4ccc([nH]4)c(-c4cccc(S(=O)(=O)[O-])c4F)c4nc(c(-c5cccc(S(=O)(=O)[O-])c5F)c5ccc2[nH]5)C=C4)C=C3)cc1)C1=Cc2c(ccc(Cl)c2Cl)O[C@H]1C(F)(F)F
REMARK SMILES IDX 5 1 4 2 3 3 2 4 1 5 72 6 73 7 83 8 74 9 82 10 75 11 80 12
REMARK SMILES IDX 76 13 78 14 81 15 77 16 79 17 84 18 85 19 86 20 87 21 6 22
REMARK SMILES IDX 7 23 8 24 9 25 10 26 71 27 11 28 70 29 12 30 13 31 14 32
REMARK SMILES IDX 64 33 15 34 69 35 63 36 65 37 16 38 68 39 62 40 61 41 17 43
REMARK SMILES IDX 49 44 29 45 48 46 30 47 33 48 47 49 66 50 31 51 32 52 46 54
REMARK SMILES IDX 67 55 34 56 18 57 19 58 27 59 20 60 22 61 28 62 21 63 23 64
REMARK SMILES IDX 24 65 25 66 26 67 50 68 51 69 59 70 52 71 54 72 60 73 53 74
REMARK SMILES IDX 55 75 56 76 57 77 58 78 35 79 36 80 44 81 37 82 39 83 45 84
REMARK SMILES IDX 38 85 40 86 41 87 42 88 43 89
REMARK H PARENT 65 42 33 53
REMARK Flexibility Score: inf
ROOT
ATOM      1  C   UNL A   1      37.241  20.508  25.019  1.00  0.00     0.275 C 
ENDROOT
BRANCH   1   2
ATOM      2  C   UNL A   1      35.850  21.136  25.192  1.00  0.00     0.275 C 
BRANCH   2   3
ATOM      3  O   UNL A   1      35.825  22.571  25.023  1.00  0.00    -0.459 OA
BRANCH   3   4
ATOM      4  C   UNL A   1      35.334  23.315  24.006  1.00  0.00     0.338 C 
ATOM      5  O   UNL A   1      35.979  23.379  22.961  1.00  0.00    -0.246 OA
BRANCH   4   6
ATOM      6  C   UNL A   1      34.002  23.964  24.053  1.00  0.00     0.087 C 
ATOM      7  C   UNL A   1      33.753  25.202  23.613  1.00  0.00     0.029 C 
ATOM      8  C   UNL A   1      32.987  23.254  24.931  1.00  0.00     0.316 C 
ATOM      9  C   UNL A   1      33.033  26.077  24.532  1.00  0.00     0.037 A 
ATOM     10  O   UNL A   1      32.030  24.135  25.586  1.00  0.00    -0.475 OA
ATOM     11  C   UNL A   1      32.251  25.480  25.519  1.00  0.00     0.129 A 
ATOM     12  C   UNL A   1      33.233  27.474  24.541  1.00  0.00     0.070 A 
ATOM     13  C   UNL A   1      31.651  26.257  26.505  1.00  0.00     0.049 A 
ATOM     14  C   UNL A   1      32.667  28.243  25.566  1.00  0.00     0.060 A 
ATOM     15  Cl  UNL A   1      34.214  28.231  23.321  1.00  0.00    -0.082 Cl
ATOM     16  C   UNL A   1      31.877  27.633  26.542  1.00  0.00     0.026 A 
ATOM     17  Cl  UNL A   1      32.938  29.947  25.706  1.00  0.00    -0.083 Cl
BRANCH   8  18
ATOM     18  C   UNL A   1      32.220  22.223  24.077  1.00  0.00     0.430 C 
ATOM     19  F   UNL A   1      31.270  22.806  23.314  1.00  0.00    -0.167 F 
ATOM     20  F   UNL A   1      33.048  21.550  23.252  1.00  0.00    -0.167 F 
ATOM     21  F   UNL A   1      31.588  21.314  24.863  1.00  0.00    -0.167 F 
ENDBRANCH   8  18
ENDBRANCH   4   6
ENDBRANCH   3   4
ENDBRANCH   2   3
ENDBRANCH   1   2
BRANCH   1  22
ATOM     22  O   UNL A   1      38.282  21.488  25.061  1.00  0.00    -0.458 OA
BRANCH  22  23
ATOM     23  C   UNL A   1      39.236  21.216  25.987  1.00  0.00     0.338 C 
ATOM     24  O   UNL A   1      39.756  20.129  26.188  1.00  0.00    -0.246 OA
BRANCH  23  25
ATOM     25  C   UNL A   1      39.704  22.481  26.583  1.00  0.00     0.060 A 
ATOM     26  C   UNL A   1      39.093  23.663  26.147  1.00  0.00     0.016 A 
ATOM     27  C   UNL A   1      40.711  22.518  27.553  1.00  0.00     0.016 A 
ATOM     28  C   UNL A   1      39.529  24.891  26.636  1.00  0.00     0.010 A 
ATOM     29  C   UNL A   1      41.139  23.752  28.050  1.00  0.00     0.010 A 
ATOM     30  C   UNL A   1      40.578  24.945  27.562  1.00  0.00    -0.014 A 
BRANCH  30  31
ATOM     31  C   UNL A   1      41.178  26.254  27.905  1.00  0.00     0.031 A 
ATOM     32  C   UNL A   1      42.598  26.529  27.488  1.00  0.00     0.074 A 
ATOM     33  C   UNL A   1      40.470  27.188  28.567  1.00  0.00     0.049 A 
ATOM     34  N   UNL A   1      43.305  27.618  27.637  1.00  0.00    -0.248 NA
ATOM     35  C   UNL A   1      43.316  25.435  26.811  1.00  0.00     0.031 C 
ATOM     36  C   UNL A   1      39.094  27.030  29.034  1.00  0.00     0.029 A 
ATOM     37  N   UNL A   1      40.823  28.446  28.983  1.00  0.00    -0.354 N 
ATOM     38  C   UNL A   1      44.552  27.335  27.094  1.00  0.00     0.074 A 
ATOM     39  C   UNL A   1      44.516  25.966  26.630  1.00  0.00     0.031 C 
ATOM     40  C   UNL A   1      38.732  28.134  29.713  1.00  0.00     0.029 A 
ATOM     41  C   UNL A   1      39.850  29.074  29.725  1.00  0.00     0.049 A 
ATOM     42  H   UNL A   1      41.690  28.861  28.771  1.00  0.00     0.167 HD
ATOM     43  C   UNL A   1      45.623  28.152  26.968  1.00  0.00     0.034 A 
ATOM     44  C   UNL A   1      39.867  30.268  30.350  1.00  0.00     0.034 A 
ATOM     45  C   UNL A   1      45.644  29.520  27.402  1.00  0.00     0.049 A 
ATOM     46  C   UNL A   1      41.083  31.149  30.208  1.00  0.00     0.074 A 
ATOM     47  C   UNL A   1      46.647  30.457  27.237  1.00  0.00     0.029 A 
ATOM     48  N   UNL A   1      44.624  30.140  28.104  1.00  0.00    -0.354 N 
ATOM     49  N   UNL A   1      42.180  30.938  29.519  1.00  0.00    -0.248 NA
ATOM     50  C   UNL A   1      41.049  32.450  30.894  1.00  0.00     0.031 C 
ATOM     51  C   UNL A   1      46.248  31.636  27.875  1.00  0.00     0.029 A 
ATOM     52  C   UNL A   1      44.986  31.439  28.413  1.00  0.00     0.049 A 
ATOM     53  H   UNL A   1      43.768  29.719  28.349  1.00  0.00     0.167 HD
ATOM     54  C   UNL A   1      42.948  32.089  29.663  1.00  0.00     0.074 A 
ATOM     55  C   UNL A   1      42.180  33.005  30.480  1.00  0.00     0.031 C 
ATOM     56  C   UNL A   1      44.186  32.357  29.180  1.00  0.00     0.034 A 
BRANCH  43  57
ATOM     57  C   UNL A   1      46.854  27.600  26.305  1.00  0.00     0.023 A 
ATOM     58  C   UNL A   1      47.715  26.752  27.031  1.00  0.00     0.012 A 
ATOM     59  C   UNL A   1      47.115  27.857  24.946  1.00  0.00     0.148 A 
ATOM     60  C   UNL A   1      48.832  26.185  26.419  1.00  0.00     0.002 A 
ATOM     61  C   UNL A   1      48.210  27.258  24.333  1.00  0.00     0.091 A 
ATOM     62  F   UNL A   1      46.293  28.681  24.283  1.00  0.00    -0.205 F 
ATOM     63  C   UNL A   1      49.073  26.430  25.069  1.00  0.00     0.022 A 
BRANCH  61  64
ATOM     64  S   UNL A   1      48.572  27.454  22.585  1.00  0.00     0.127 S 
ATOM     65  O   UNL A   1      47.426  28.245  22.134  1.00  0.00    -0.237 OA
ATOM     66  O   UNL A   1      49.840  28.181  22.616  1.00  0.00    -0.237 OA
ATOM     67  O   UNL A   1      48.649  26.109  22.033  1.00  0.00    -0.744 OA
ENDBRANCH  61  64
ENDBRANCH  43  57
BRANCH  44  68
ATOM     68  C   UNL A   1      38.690  30.724  31.144  1.00  0.00     0.023 A 
ATOM     69  C   UNL A   1      38.634  30.456  32.526  1.00  0.00     0.012 A 
ATOM     70  C   UNL A   1      37.613  31.397  30.533  1.00  0.00     0.148 A 
ATOM     71  C   UNL A   1      37.509  30.807  33.274  1.00  0.00     0.002 A 
ATOM     72  C   UNL A   1      36.518  31.789  31.294  1.00  0.00     0.091 A 
ATOM     73  F   UNL A   1      37.672  31.627  29.213  1.00  0.00    -0.205 F 
ATOM     74  C   UNL A   1      36.456  31.478  32.660  1.00  0.00     0.022 A 
BRANCH  72  75
ATOM     75  S   UNL A   1      35.164  32.750  30.606  1.00  0.00     0.127 S 
ATOM     76  O   UNL A   1      35.838  33.991  30.233  1.00  0.00    -0.237 OA
ATOM     77  O   UNL A   1      34.740  31.918  29.480  1.00  0.00    -0.237 OA
ATOM     78  O   UNL A   1      34.179  32.857  31.674  1.00  0.00    -0.744 OA
ENDBRANCH  72  75
ENDBRANCH  44  68
BRANCH  56  79
ATOM     79  C   UNL A   1      44.792  33.698  29.502  1.00  0.00     0.023 A 
ATOM     80  C   UNL A   1      45.598  33.837  30.648  1.00  0.00     0.012 A 
ATOM     81  C   UNL A   1      44.647  34.787  28.620  1.00  0.00     0.148 A 
ATOM     82  C   UNL A   1      46.231  35.047  30.927  1.00  0.00     0.002 A 
ATOM     83  C   UNL A   1      45.322  35.974  28.876  1.00  0.00     0.091 A 
ATOM     84  F   UNL A   1      43.864  34.637  27.541  1.00  0.00    -0.205 F 
ATOM     85  C   UNL A   1      46.105  36.110  30.035  1.00  0.00     0.022 A 
BRANCH  83  86
ATOM     86  S   UNL A   1      45.303  37.363  27.736  1.00  0.00     0.127 S 
ATOM     87  O   UNL A   1      45.870  36.765  26.529  1.00  0.00    -0.237 OA
ATOM     88  O   UNL A   1      43.876  37.674  27.651  1.00  0.00    -0.237 OA
ATOM     89  O   UNL A   1      46.113  38.403  28.355  1.00  0.00    -0.744 OA
ENDBRANCH  83  86
ENDBRANCH  56  79
ENDBRANCH  30  31
ENDBRANCH  23  25
ENDBRANCH  22  23
ENDBRANCH   1  22
TORSDOF 15
ENDMDL
MODEL 3
REMARK VINA RESULT:     -11.7      4.903      9.567
REMARK SMILES O=C(OCCOC(=O)c1ccc(-c2c3nc(c(-c4cccc(S(=O)(=O)[O-])c4F)c4ccc([nH]4)c(-c4cccc(S(=O)(=O)[O-])c4F)c4nc(c(-c5cccc(S(=O)(=O)[O-])c5F)c5ccc2[nH]5)C=C4)C=C3)cc1)C1=Cc2c(ccc(Cl)c2Cl)O[C@H]1C(F)(F)F
REMARK SMILES IDX 5 1 4 2 3 3 2 4 1 5 72 6 73 7 83 8 74 9 82 10 75 11 80 12
REMARK SMILES IDX 76 13 78 14 81 15 77 16 79 17 84 18 85 19 86 20 87 21 6 22
REMARK SMILES IDX 7 23 8 24 9 25 10 26 71 27 11 28 70 29 12 30 13 31 14 32
REMARK SMILES IDX 64 33 15 34 69 35 63 36 65 37 16 38 68 39 62 40 61 41 17 43
REMARK SMILES IDX 49 44 29 45 48 46 30 47 33 48 47 49 66 50 31 51 32 52 46 54
REMARK SMILES IDX 67 55 34 56 18 57 19 58 27 59 20 60 22 61 28 62 21 63 23 64
REMARK SMILES IDX 24 65 25 66 26 67 50 68 51 69 59 70 52 71 54 72 60 73 53 74
REMARK SMILES IDX 55 75 56 76 57 77 58 78 35 79 36 80 44 81 37 82 39 83 45 84
REMARK SMILES IDX 38 85 40 86 41 87 42 88 43 89
REMARK H PARENT 65 42 33 53
REMARK Flexibility Score: inf
ROOT
ATOM      1  C   UNL A   1      33.020  29.634  25.814  1.00  0.00     0.275 C 
ENDROOT
BRANCH   1   2
ATOM      2  C   UNL A   1      33.071  29.028  24.404  1.00  0.00     0.275 C 
BRANCH   2   3
ATOM      3  O   UNL A   1      33.966  27.900  24.278  1.00  0.00    -0.459 OA
BRANCH   3   4
ATOM      4  C   UNL A   1      33.710  26.631  23.887  1.00  0.00     0.338 C 
ATOM      5  O   UNL A   1      33.643  26.391  22.683  1.00  0.00    -0.246 OA
BRANCH   4   6
ATOM      6  C   UNL A   1      33.622  25.497  24.838  1.00  0.00     0.087 C 
ATOM      7  C   UNL A   1      34.679  24.921  25.422  1.00  0.00     0.029 C 
ATOM      8  C   UNL A   1      32.270  24.807  24.871  1.00  0.00     0.316 C 
ATOM      9  C   UNL A   1      34.742  23.466  25.343  1.00  0.00     0.037 A 
ATOM     10  O   UNL A   1      32.324  23.378  25.146  1.00  0.00    -0.475 OA
ATOM     11  C   UNL A   1      33.548  22.774  25.145  1.00  0.00     0.129 A 
ATOM     12  C   UNL A   1      35.971  22.774  25.306  1.00  0.00     0.070 A 
ATOM     13  C   UNL A   1      33.561  21.400  24.927  1.00  0.00     0.049 A 
ATOM     14  C   UNL A   1      35.980  21.400  25.036  1.00  0.00     0.060 A 
ATOM     15  Cl  UNL A   1      37.468  23.627  25.542  1.00  0.00    -0.082 Cl
ATOM     16  C   UNL A   1      34.775  20.718  24.850  1.00  0.00     0.026 A 
ATOM     17  Cl  UNL A   1      37.445  20.493  24.881  1.00  0.00    -0.083 Cl
BRANCH   8  18
ATOM     18  C   UNL A   1      31.384  25.492  25.933  1.00  0.00     0.430 C 
ATOM     19  F   UNL A   1      30.534  24.621  26.519  1.00  0.00    -0.167 F 
ATOM     20  F   UNL A   1      32.126  26.054  26.909  1.00  0.00    -0.167 F 
ATOM     21  F   UNL A   1      30.622  26.468  25.376  1.00  0.00    -0.167 F 
ENDBRANCH   8  18
ENDBRANCH   4   6
ENDBRANCH   3   4
ENDBRANCH   2   3
ENDBRANCH   1   2
BRANCH   1  22
ATOM     22  O   UNL A   1      34.202  29.345  26.566  1.00  0.00    -0.458 OA
BRANCH  22  23
ATOM     23  C   UNL A   1      34.466  30.269  27.524  1.00  0.00     0.338 C 
ATOM     24  O   UNL A   1      33.688  31.110  27.948  1.00  0.00    -0.246 OA
BRANCH  23  25
ATOM     25  C   UNL A   1      35.779  29.975  28.128  1.00  0.00     0.060 A 
ATOM     26  C   UNL A   1      36.911  30.149  27.324  1.00  0.00     0.016 A 
ATOM     27  C   UNL A   1      35.909  29.546  29.453  1.00  0.00     0.016 A 
ATOM     28  C   UNL A   1      38.173  29.837  27.823  1.00  0.00     0.010 A 
ATOM     29  C   UNL A   1      37.177  29.244  29.955  1.00  0.00     0.010 A 
ATOM     30  C   UNL A   1      38.309  29.349  29.128  1.00  0.00    -0.014 A 
BRANCH  30  31
ATOM     31  C   UNL A   1      39.617  28.815  29.572  1.00  0.00     0.031 A 
ATOM     32  C   UNL A   1      40.353  29.530  30.673  1.00  0.00     0.074 A 
ATOM     33  C   UNL A   1      40.138  27.708  29.012  1.00  0.00     0.049 A 
ATOM     34  N   UNL A   1      41.481  29.215  31.251  1.00  0.00    -0.248 NA
ATOM     35  C   UNL A   1      39.735  30.762  31.195  1.00  0.00     0.031 C 
ATOM     36  C   UNL A   1      39.525  26.940  27.930  1.00  0.00     0.029 A 
ATOM     37  N   UNL A   1      41.317  27.052  29.262  1.00  0.00    -0.354 N 
ATOM     38  C   UNL A   1      41.719  30.214  32.186  1.00  0.00     0.074 A 
ATOM     39  C   UNL A   1      40.630  31.160  32.087  1.00  0.00     0.031 C 
ATOM     40  C   UNL A   1      40.354  25.941  27.577  1.00  0.00     0.029 A 
ATOM     41  C   UNL A   1      41.552  25.999  28.410  1.00  0.00     0.049 A 
ATOM     42  H   UNL A   1      41.935  27.310  29.983  1.00  0.00     0.167 HD
ATOM     43  C   UNL A   1      42.739  30.320  33.067  1.00  0.00     0.034 A 
ATOM     44  C   UNL A   1      42.621  25.183  28.310  1.00  0.00     0.034 A 
ATOM     45  C   UNL A   1      43.802  29.362  33.184  1.00  0.00     0.049 A 
ATOM     46  C   UNL A   1      43.752  25.338  29.295  1.00  0.00     0.074 A 
ATOM     47  C   UNL A   1      44.832  29.331  34.106  1.00  0.00     0.029 A 
ATOM     48  N   UNL A   1      43.984  28.279  32.339  1.00  0.00    -0.354 N 
ATOM     49  N   UNL A   1      43.863  26.171  30.302  1.00  0.00    -0.248 NA
ATOM     50  C   UNL A   1      44.888  24.413  29.156  1.00  0.00     0.031 C 
ATOM     51  C   UNL A   1      45.660  28.248  33.794  1.00  0.00     0.029 A 
ATOM     52  C   UNL A   1      45.130  27.591  32.694  1.00  0.00     0.049 A 
ATOM     53  H   UNL A   1      43.387  28.037  31.595  1.00  0.00     0.167 HD
ATOM     54  C   UNL A   1      45.059  25.850  30.934  1.00  0.00     0.074 A 
ATOM     55  C   UNL A   1      45.625  24.729  30.213  1.00  0.00     0.031 C 
ATOM     56  C   UNL A   1      45.649  26.442  32.001  1.00  0.00     0.034 A 
BRANCH  43  57
ATOM     57  C   UNL A   1      42.741  31.497  34.002  1.00  0.00     0.023 A 
ATOM     58  C   UNL A   1      43.268  32.730  33.569  1.00  0.00     0.012 A 
ATOM     59  C   UNL A   1      42.153  31.402  35.278  1.00  0.00     0.148 A 
ATOM     60  C   UNL A   1      43.229  33.849  34.399  1.00  0.00     0.002 A 
ATOM     61  C   UNL A   1      42.084  32.531  36.087  1.00  0.00     0.091 A 
ATOM     62  F   UNL A   1      41.677  30.215  35.675  1.00  0.00    -0.205 F 
ATOM     63  C   UNL A   1      42.628  33.752  35.653  1.00  0.00     0.022 A 
BRANCH  61  64
ATOM     64  S   UNL A   1      41.273  32.531  37.689  1.00  0.00     0.127 S 
ATOM     65  O   UNL A   1      41.338  33.947  38.051  1.00  0.00    -0.237 OA
ATOM     66  O   UNL A   1      39.935  32.048  37.354  1.00  0.00    -0.237 OA
ATOM     67  O   UNL A   1      42.052  31.641  38.538  1.00  0.00    -0.744 OA
ENDBRANCH  61  64
ENDBRANCH  43  57
BRANCH  44  68
ATOM     68  C   UNL A   1      42.668  24.123  27.260  1.00  0.00     0.023 A 
ATOM     69  C   UNL A   1      43.263  24.402  26.015  1.00  0.00     0.012 A 
ATOM     70  C   UNL A   1      42.103  22.852  27.481  1.00  0.00     0.148 A 
ATOM     71  C   UNL A   1      43.252  23.451  24.993  1.00  0.00     0.002 A 
ATOM     72  C   UNL A   1      42.142  21.892  26.476  1.00  0.00     0.091 A 
ATOM     73  F   UNL A   1      41.524  22.608  28.666  1.00  0.00    -0.205 F 
ATOM     74  C   UNL A   1      42.699  22.196  25.225  1.00  0.00     0.022 A 
BRANCH  72  75
ATOM     75  S   UNL A   1      41.546  20.214  26.726  1.00  0.00     0.127 S 
ATOM     76  O   UNL A   1      40.127  20.437  26.989  1.00  0.00    -0.237 OA
ATOM     77  O   UNL A   1      41.842  19.590  25.436  1.00  0.00    -0.237 OA
ATOM     78  O   UNL A   1      42.324  19.686  27.838  1.00  0.00    -0.744 OA
ENDBRANCH  72  75
ENDBRANCH  44  68
BRANCH  56  79
ATOM     79  C   UNL A   1      46.967  25.888  32.474  1.00  0.00     0.023 A 
ATOM     80  C   UNL A   1      48.167  26.432  31.978  1.00  0.00     0.012 A 
ATOM     81  C   UNL A   1      47.016  24.904  33.482  1.00  0.00     0.148 A 
ATOM     82  C   UNL A   1      49.398  25.987  32.456  1.00  0.00     0.002 A 
ATOM     83  C   UNL A   1      48.246  24.502  33.991  1.00  0.00     0.091 A 
ATOM     84  F   UNL A   1      45.862  24.390  33.932  1.00  0.00    -0.205 F 
ATOM     85  C   UNL A   1      49.437  25.034  33.472  1.00  0.00     0.022 A 
BRANCH  83  86
ATOM     86  S   UNL A   1      48.394  23.357  35.368  1.00  0.00     0.127 S 
ATOM     87  O   UNL A   1      47.684  24.070  36.428  1.00  0.00    -0.237 OA
ATOM     88  O   UNL A   1      47.702  22.171  34.860  1.00  0.00    -0.237 OA
ATOM     89  O   UNL A   1      49.823  23.176  35.588  1.00  0.00    -0.744 OA
ENDBRANCH  83  86
ENDBRANCH  56  79
ENDBRANCH  30  31
ENDBRANCH  23  25
ENDBRANCH  22  23
ENDBRANCH   1  22
TORSDOF 15
ENDMDL
