MODEL 1
REMARK VINA RESULT:     -11.2      0.000      0.000
REMARK SMILES CC(C)[NH2+][C@]1(C(=O)OCCOC(=O)c2ccc(-c3c4nc(c(-c5cccc(S(=O)(=O)[O-])c5F)c5ccc([nH]5)c(-c5cccc(S(=O)(=O)[O-])c5F)c5nc(c(-c6cccc(S(=O)(=O)[O-])c6F)c6ccc3[nH]6)C=C5)C=C4)cc2)CCC[C@@H]1CCN1C(=O)CCC1=O
REMARK SMILES IDX 9 1 8 2 6 3 7 4 5 5 77 6 80 7 78 8 79 9 4 10 2 13 1 14 3 15
REMARK SMILES IDX 81 16 82 17 83 18 84 19 88 20 85 21 86 22 87 23 89 24 10 25
REMARK SMILES IDX 11 26 12 27 13 28 14 29 15 30 76 31 16 32 75 33 17 34 18 35
REMARK SMILES IDX 19 36 69 37 20 38 74 39 68 40 70 41 21 42 73 43 67 44 66 45
REMARK SMILES IDX 22 47 54 48 34 49 53 50 35 51 38 52 52 53 71 54 36 55 37 56
REMARK SMILES IDX 51 58 72 59 39 60 23 61 24 62 32 63 25 64 27 65 33 66 26 67
REMARK SMILES IDX 28 68 29 69 30 70 31 71 55 72 56 73 64 74 57 75 59 76 65 77
REMARK SMILES IDX 58 78 60 79 61 80 62 81 63 82 40 83 41 84 49 85 42 86 44 87
REMARK SMILES IDX 50 88 43 89 45 90 46 91 47 92 48 93
REMARK H PARENT 4 11 4 12 70 46 38 57
REMARK Flexibility Score: inf
ROOT
ATOM      1  C   UNL A   1      36.131  21.258  25.751  1.00  0.00     0.274 C 
ENDROOT
BRANCH   1   2
ATOM      2  O   UNL A   1      35.887  22.602  25.274  1.00  0.00    -0.457 OA
BRANCH   2   3
ATOM      3  C   UNL A   1      34.682  23.066  25.675  1.00  0.00     0.368 C 
ATOM      4  O   UNL A   1      34.464  23.346  26.845  1.00  0.00    -0.245 OA
BRANCH   3   5
ATOM      5  C   UNL A   1      33.664  23.395  24.577  1.00  0.00     0.197 C 
ATOM      6  C   UNL A   1      34.272  24.048  23.324  1.00  0.00     0.081 C 
ATOM      7  C   UNL A   1      33.240  21.990  23.930  1.00  0.00     0.064 C 
ATOM      8  C   UNL A   1      33.294  23.729  22.193  1.00  0.00     0.008 C 
ATOM      9  C   UNL A   1      32.598  22.433  22.597  1.00  0.00     0.011 C 
BRANCH   5  10
ATOM     10  N   UNL A   1      32.523  24.127  25.189  1.00  0.00    -0.330 N 
ATOM     11  H   UNL A   1      31.677  23.692  24.818  1.00  0.00     0.347 HD
ATOM     12  H   UNL A   1      32.737  24.048  26.183  1.00  0.00     0.347 HD
BRANCH  10  13
ATOM     13  C   UNL A   1      32.334  25.573  25.039  1.00  0.00     0.176 C 
ATOM     14  C   UNL A   1      30.963  25.874  25.671  1.00  0.00     0.075 C 
ATOM     15  C   UNL A   1      33.383  26.427  25.760  1.00  0.00     0.075 C 
ENDBRANCH  10  13
ENDBRANCH   5  10
BRANCH   7  16
ATOM     16  C   UNL A   1      32.320  20.952  24.653  1.00  0.00     0.033 C 
BRANCH  16  17
ATOM     17  C   UNL A   1      31.908  19.628  23.923  1.00  0.00     0.129 C 
BRANCH  17  18
ATOM     18  N   UNL A   1      32.770  18.451  24.010  1.00  0.00    -0.283 N 
ATOM     19  C   UNL A   1      33.134  17.685  22.938  1.00  0.00     0.229 C 
ATOM     20  C   UNL A   1      33.070  17.800  25.167  1.00  0.00     0.229 C 
ATOM     21  O   UNL A   1      32.789  17.837  21.772  1.00  0.00    -0.274 OA
ATOM     22  C   UNL A   1      34.035  16.570  23.400  1.00  0.00     0.110 C 
ATOM     23  C   UNL A   1      34.004  16.660  24.906  1.00  0.00     0.110 C 
ATOM     24  O   UNL A   1      32.611  18.037  26.268  1.00  0.00    -0.274 OA
ENDBRANCH  17  18
ENDBRANCH  16  17
ENDBRANCH   7  16
ENDBRANCH   3   5
ENDBRANCH   2   3
ENDBRANCH   1   2
BRANCH   1  25
ATOM     25  C   UNL A   1      37.300  20.533  25.050  1.00  0.00     0.275 C 
BRANCH  25  26
ATOM     26  O   UNL A   1      38.547  21.274  25.000  1.00  0.00    -0.458 OA
BRANCH  26  27
ATOM     27  C   UNL A   1      39.367  21.104  26.067  1.00  0.00     0.338 C 
ATOM     28  O   UNL A   1      39.918  20.060  26.381  1.00  0.00    -0.246 OA
BRANCH  27  29
ATOM     29  C   UNL A   1      39.688  22.364  26.778  1.00  0.00     0.060 A 
ATOM     30  C   UNL A   1      39.072  23.523  26.324  1.00  0.00     0.016 A 
ATOM     31  C   UNL A   1      40.736  22.485  27.681  1.00  0.00     0.016 A 
ATOM     32  C   UNL A   1      39.537  24.796  26.641  1.00  0.00     0.010 A 
ATOM     33  C   UNL A   1      41.148  23.771  28.093  1.00  0.00     0.010 A 
ATOM     34  C   UNL A   1      40.582  24.943  27.542  1.00  0.00    -0.014 A 
BRANCH  34  35
ATOM     35  C   UNL A   1      41.140  26.302  27.806  1.00  0.00     0.031 A 
ATOM     36  C   UNL A   1      42.544  26.605  27.370  1.00  0.00     0.074 A 
ATOM     37  C   UNL A   1      40.413  27.284  28.382  1.00  0.00     0.049 A 
ATOM     38  N   UNL A   1      43.283  27.651  27.626  1.00  0.00    -0.248 NA
ATOM     39  C   UNL A   1      43.198  25.599  26.517  1.00  0.00     0.031 C 
ATOM     40  C   UNL A   1      39.003  27.195  28.733  1.00  0.00     0.029 A 
ATOM     41  N   UNL A   1      40.764  28.545  28.805  1.00  0.00    -0.354 N 
ATOM     42  C   UNL A   1      44.504  27.409  27.012  1.00  0.00     0.074 A 
ATOM     43  C   UNL A   1      44.412  26.110  26.379  1.00  0.00     0.031 C 
ATOM     44  C   UNL A   1      38.622  28.295  29.394  1.00  0.00     0.029 A 
ATOM     45  C   UNL A   1      39.769  29.175  29.525  1.00  0.00     0.049 A 
ATOM     46  H   UNL A   1      41.638  28.957  28.615  1.00  0.00     0.167 HD
ATOM     47  C   UNL A   1      45.596  28.207  26.959  1.00  0.00     0.034 A 
ATOM     48  C   UNL A   1      39.778  30.319  30.234  1.00  0.00     0.034 A 
ATOM     49  C   UNL A   1      45.665  29.518  27.543  1.00  0.00     0.049 A 
ATOM     50  C   UNL A   1      41.020  31.161  30.216  1.00  0.00     0.074 A 
ATOM     51  C   UNL A   1      46.725  30.407  27.539  1.00  0.00     0.029 A 
ATOM     52  N   UNL A   1      44.630  30.134  28.232  1.00  0.00    -0.354 N 
ATOM     53  N   UNL A   1      42.155  30.935  29.599  1.00  0.00    -0.248 NA
ATOM     54  C   UNL A   1      40.971  32.436  30.943  1.00  0.00     0.031 C 
ATOM     55  C   UNL A   1      46.336  31.554  28.240  1.00  0.00     0.029 A 
ATOM     56  C   UNL A   1      45.025  31.389  28.661  1.00  0.00     0.049 A 
ATOM     57  H   UNL A   1      43.743  29.736  28.392  1.00  0.00     0.167 HD
ATOM     58  C   UNL A   1      42.937  32.059  29.821  1.00  0.00     0.074 A 
ATOM     59  C   UNL A   1      42.143  32.970  30.621  1.00  0.00     0.031 C 
ATOM     60  C   UNL A   1      44.203  32.308  29.407  1.00  0.00     0.034 A 
BRANCH  47  61
ATOM     61  C   UNL A   1      46.798  27.671  26.231  1.00  0.00     0.023 A 
ATOM     62  C   UNL A   1      46.932  27.885  24.844  1.00  0.00     0.012 A 
ATOM     63  C   UNL A   1      47.793  26.954  26.921  1.00  0.00     0.148 A 
ATOM     64  C   UNL A   1      48.017  27.355  24.146  1.00  0.00     0.002 A 
ATOM     65  C   UNL A   1      48.894  26.466  26.227  1.00  0.00     0.091 A 
ATOM     66  F   UNL A   1      47.633  26.738  28.234  1.00  0.00    -0.205 F 
ATOM     67  C   UNL A   1      49.001  26.654  24.839  1.00  0.00     0.022 A 
BRANCH  65  68
ATOM     68  S   UNL A   1      50.245  25.607  27.040  1.00  0.00     0.127 S 
ATOM     69  O   UNL A   1      51.207  25.469  25.948  1.00  0.00    -0.237 OA
ATOM     70  O   UNL A   1      50.636  26.560  28.079  1.00  0.00    -0.237 OA
ATOM     71  O   UNL A   1      49.683  24.361  27.542  1.00  0.00    -0.744 OA
ENDBRANCH  65  68
ENDBRANCH  47  61
BRANCH  48  72
ATOM     72  C   UNL A   1      38.560  30.751  30.980  1.00  0.00     0.023 A 
ATOM     73  C   UNL A   1      38.458  30.479  32.358  1.00  0.00     0.012 A 
ATOM     74  C   UNL A   1      37.511  31.443  30.339  1.00  0.00     0.148 A 
ATOM     75  C   UNL A   1      37.321  30.854  33.076  1.00  0.00     0.002 A 
ATOM     76  C   UNL A   1      36.402  31.855  31.069  1.00  0.00     0.091 A 
ATOM     77  F   UNL A   1      37.619  31.684  29.024  1.00  0.00    -0.205 F 
ATOM     78  C   UNL A   1      36.298  31.548  32.435  1.00  0.00     0.022 A 
BRANCH  76  79
ATOM     79  S   UNL A   1      35.076  32.838  30.356  1.00  0.00     0.127 S 
ATOM     80  O   UNL A   1      34.190  33.023  31.503  1.00  0.00    -0.237 OA
ATOM     81  O   UNL A   1      35.789  34.044  29.930  1.00  0.00    -0.237 OA
ATOM     82  O   UNL A   1      34.535  32.041  29.263  1.00  0.00    -0.744 OA
ENDBRANCH  76  79
ENDBRANCH  48  72
BRANCH  60  83
ATOM     83  C   UNL A   1      44.801  33.639  29.772  1.00  0.00     0.023 A 
ATOM     84  C   UNL A   1      45.510  33.781  30.981  1.00  0.00     0.012 A 
ATOM     85  C   UNL A   1      44.722  34.728  28.883  1.00  0.00     0.148 A 
ATOM     86  C   UNL A   1      46.105  34.998  31.313  1.00  0.00     0.002 A 
ATOM     87  C   UNL A   1      45.360  35.921  29.197  1.00  0.00     0.091 A 
ATOM     88  F   UNL A   1      44.022  34.580  27.748  1.00  0.00    -0.205 F 
ATOM     89  C   UNL A   1      46.041  36.061  30.416  1.00  0.00     0.022 A 
BRANCH  87  90
ATOM     90  S   UNL A   1      45.415  37.309  28.056  1.00  0.00     0.127 S 
ATOM     91  O   UNL A   1      43.997  37.520  27.775  1.00  0.00    -0.237 OA
ATOM     92  O   UNL A   1      46.039  38.355  28.869  1.00  0.00    -0.237 OA
ATOM     93  O   UNL A   1      46.221  36.865  26.926  1.00  0.00    -0.744 OA
ENDBRANCH  87  90
ENDBRANCH  60  83
ENDBRANCH  34  35
ENDBRANCH  27  29
ENDBRANCH  26  27
ENDBRANCH  25  26
ENDBRANCH   1  25
TORSDOF 19
ENDMDL
MODEL 2
REMARK VINA RESULT:     -11.2      2.028      7.877
REMARK SMILES CC(C)[NH2+][C@]1(C(=O)OCCOC(=O)c2ccc(-c3c4nc(c(-c5cccc(S(=O)(=O)[O-])c5F)c5ccc([nH]5)c(-c5cccc(S(=O)(=O)[O-])c5F)c5nc(c(-c6cccc(S(=O)(=O)[O-])c6F)c6ccc3[nH]6)C=C5)C=C4)cc2)CCC[C@@H]1CCN1C(=O)CCC1=O
REMARK SMILES IDX 9 1 8 2 6 3 7 4 5 5 77 6 80 7 78 8 79 9 4 10 2 13 1 14 3 15
REMARK SMILES IDX 81 16 82 17 83 18 84 19 88 20 85 21 86 22 87 23 89 24 10 25
REMARK SMILES IDX 11 26 12 27 13 28 14 29 15 30 76 31 16 32 75 33 17 34 18 35
REMARK SMILES IDX 19 36 69 37 20 38 74 39 68 40 70 41 21 42 73 43 67 44 66 45
REMARK SMILES IDX 22 47 54 48 34 49 53 50 35 51 38 52 52 53 71 54 36 55 37 56
REMARK SMILES IDX 51 58 72 59 39 60 23 61 24 62 32 63 25 64 27 65 33 66 26 67
REMARK SMILES IDX 28 68 29 69 30 70 31 71 55 72 56 73 64 74 57 75 59 76 65 77
REMARK SMILES IDX 58 78 60 79 61 80 62 81 63 82 40 83 41 84 49 85 42 86 44 87
REMARK SMILES IDX 50 88 43 89 45 90 46 91 47 92 48 93
REMARK H PARENT 4 11 4 12 70 46 38 57
REMARK Flexibility Score: inf
ROOT
ATOM      1  C   UNL A   1      36.264  23.287  23.600  1.00  0.00     0.274 C 
ENDROOT
BRANCH   1   2
ATOM      2  O   UNL A   1      34.832  23.483  23.555  1.00  0.00    -0.457 OA
BRANCH   2   3
ATOM      3  C   UNL A   1      34.417  24.367  24.492  1.00  0.00     0.368 C 
ATOM      4  O   UNL A   1      35.017  24.503  25.548  1.00  0.00    -0.245 OA
BRANCH   3   5
ATOM      5  C   UNL A   1      33.275  25.311  24.098  1.00  0.00     0.197 C 
ATOM      6  C   UNL A   1      33.648  26.341  23.018  1.00  0.00     0.081 C 
ATOM      7  C   UNL A   1      32.247  24.430  23.239  1.00  0.00     0.064 C 
ATOM      8  C   UNL A   1      32.325  26.723  22.356  1.00  0.00     0.008 C 
ATOM      9  C   UNL A   1      31.407  25.517  22.533  1.00  0.00     0.011 C 
BRANCH   5  10
ATOM     10  N   UNL A   1      32.674  25.874  25.337  1.00  0.00    -0.330 N 
ATOM     11  H   UNL A   1      31.697  25.581  25.335  1.00  0.00     0.347 HD
ATOM     12  H   UNL A   1      33.308  25.517  26.053  1.00  0.00     0.347 HD
BRANCH  10  13
ATOM     13  C   UNL A   1      32.666  27.309  25.635  1.00  0.00     0.176 C 
ATOM     14  C   UNL A   1      31.786  27.461  26.890  1.00  0.00     0.075 C 
ATOM     15  C   UNL A   1      34.044  27.899  25.951  1.00  0.00     0.075 C 
ENDBRANCH  10  13
ENDBRANCH   5  10
BRANCH   7  16
ATOM     16  C   UNL A   1      31.309  23.347  23.868  1.00  0.00     0.033 C 
BRANCH  16  17
ATOM     17  C   UNL A   1      31.916  22.016  24.430  1.00  0.00     0.129 C 
BRANCH  17  18
ATOM     18  N   UNL A   1      32.624  22.023  25.709  1.00  0.00    -0.283 N 
ATOM     19  C   UNL A   1      33.596  21.127  26.052  1.00  0.00     0.229 C 
ATOM     20  C   UNL A   1      32.216  22.708  26.812  1.00  0.00     0.229 C 
ATOM     21  O   UNL A   1      34.003  20.186  25.381  1.00  0.00    -0.274 OA
ATOM     22  C   UNL A   1      34.110  21.447  27.432  1.00  0.00     0.110 C 
ATOM     23  C   UNL A   1      33.186  22.527  27.936  1.00  0.00     0.110 C 
ATOM     24  O   UNL A   1      31.180  23.335  26.929  1.00  0.00    -0.274 OA
ENDBRANCH  17  18
ENDBRANCH  16  17
ENDBRANCH   7  16
ENDBRANCH   3   5
ENDBRANCH   2   3
ENDBRANCH   1   2
BRANCH   1  25
ATOM     25  C   UNL A   1      36.702  21.876  24.049  1.00  0.00     0.275 C 
BRANCH  25  26
ATOM     26  O   UNL A   1      37.003  21.742  25.462  1.00  0.00    -0.458 OA
BRANCH  26  27
ATOM     27  C   UNL A   1      38.300  21.476  25.759  1.00  0.00     0.338 C 
ATOM     28  O   UNL A   1      38.947  20.532  25.331  1.00  0.00    -0.246 OA
BRANCH  27  29
ATOM     29  C   UNL A   1      38.959  22.537  26.555  1.00  0.00     0.060 A 
ATOM     30  C   UNL A   1      38.478  23.831  26.408  1.00  0.00     0.016 A 
ATOM     31  C   UNL A   1      40.162  22.353  27.224  1.00  0.00     0.016 A 
ATOM     32  C   UNL A   1      39.206  24.953  26.795  1.00  0.00     0.010 A 
ATOM     33  C   UNL A   1      40.858  23.478  27.716  1.00  0.00     0.010 A 
ATOM     34  C   UNL A   1      40.409  24.795  27.467  1.00  0.00    -0.014 A 
BRANCH  34  35
ATOM     35  C   UNL A   1      41.232  25.997  27.795  1.00  0.00     0.031 A 
ATOM     36  C   UNL A   1      40.604  27.111  28.581  1.00  0.00     0.074 A 
ATOM     37  C   UNL A   1      42.534  26.100  27.450  1.00  0.00     0.049 A 
ATOM     38  N   UNL A   1      41.070  28.302  28.847  1.00  0.00    -0.248 NA
ATOM     39  C   UNL A   1      39.276  26.840  29.158  1.00  0.00     0.031 C 
ATOM     40  C   UNL A   1      43.323  25.054  26.813  1.00  0.00     0.029 A 
ATOM     41  N   UNL A   1      43.422  27.144  27.556  1.00  0.00    -0.354 N 
ATOM     42  C   UNL A   1      40.078  28.940  29.576  1.00  0.00     0.074 A 
ATOM     43  C   UNL A   1      38.976  28.010  29.702  1.00  0.00     0.031 C 
ATOM     44  C   UNL A   1      44.538  25.521  26.499  1.00  0.00     0.029 A 
ATOM     45  C   UNL A   1      44.617  26.912  26.907  1.00  0.00     0.049 A 
ATOM     46  H   UNL A   1      43.225  27.975  28.047  1.00  0.00     0.167 HD
ATOM     47  C   UNL A   1      40.091  30.182  30.115  1.00  0.00     0.034 A 
ATOM     48  C   UNL A   1      45.655  27.728  26.642  1.00  0.00     0.034 A 
ATOM     49  C   UNL A   1      41.207  31.083  30.034  1.00  0.00     0.049 A 
ATOM     50  C   UNL A   1      45.624  29.123  27.193  1.00  0.00     0.074 A 
ATOM     51  C   UNL A   1      41.321  32.361  30.551  1.00  0.00     0.029 A 
ATOM     52  N   UNL A   1      42.408  30.801  29.399  1.00  0.00    -0.354 N 
ATOM     53  N   UNL A   1      44.693  29.701  27.913  1.00  0.00    -0.248 NA
ATOM     54  C   UNL A   1      46.803  29.964  26.946  1.00  0.00     0.031 C 
ATOM     55  C   UNL A   1      42.585  32.858  30.215  1.00  0.00     0.029 A 
ATOM     56  C   UNL A   1      43.268  31.881  29.508  1.00  0.00     0.049 A 
ATOM     57  H   UNL A   1      42.619  29.956  28.939  1.00  0.00     0.167 HD
ATOM     58  C   UNL A   1      45.191  30.952  28.246  1.00  0.00     0.074 A 
ATOM     59  C   UNL A   1      46.512  31.045  27.657  1.00  0.00     0.031 C 
ATOM     60  C   UNL A   1      44.602  31.937  28.967  1.00  0.00     0.034 A 
BRANCH  47  61
ATOM     61  C   UNL A   1      38.852  30.623  30.845  1.00  0.00     0.023 A 
ATOM     62  C   UNL A   1      38.743  30.408  32.235  1.00  0.00     0.012 A 
ATOM     63  C   UNL A   1      37.797  31.247  30.156  1.00  0.00     0.148 A 
ATOM     64  C   UNL A   1      37.583  30.768  32.919  1.00  0.00     0.002 A 
ATOM     65  C   UNL A   1      36.661  31.644  30.852  1.00  0.00     0.091 A 
ATOM     66  F   UNL A   1      37.909  31.418  28.832  1.00  0.00    -0.205 F 
ATOM     67  C   UNL A   1      36.546  31.393  32.229  1.00  0.00     0.022 A 
BRANCH  65  68
ATOM     68  S   UNL A   1      35.301  32.513  30.066  1.00  0.00     0.127 S 
ATOM     69  O   UNL A   1      34.344  32.620  31.165  1.00  0.00    -0.237 OA
ATOM     70  O   UNL A   1      35.927  33.777  29.678  1.00  0.00    -0.237 OA
ATOM     71  O   UNL A   1      34.882  31.677  28.949  1.00  0.00    -0.744 OA
ENDBRANCH  65  68
ENDBRANCH  47  61
BRANCH  48  72
ATOM     72  C   UNL A   1      46.822  27.231  25.856  1.00  0.00     0.023 A 
ATOM     73  C   UNL A   1      47.705  26.301  26.438  1.00  0.00     0.012 A 
ATOM     74  C   UNL A   1      47.052  27.659  24.532  1.00  0.00     0.148 A 
ATOM     75  C   UNL A   1      48.815  25.834  25.732  1.00  0.00     0.002 A 
ATOM     76  C   UNL A   1      48.134  27.156  23.818  1.00  0.00     0.091 A 
ATOM     77  F   UNL A   1      46.208  28.553  23.997  1.00  0.00    -0.205 F 
ATOM     78  C   UNL A   1      49.025  26.255  24.421  1.00  0.00     0.022 A 
BRANCH  76  79
ATOM     79  S   UNL A   1      48.435  27.561  22.092  1.00  0.00     0.127 S 
ATOM     80  O   UNL A   1      49.608  28.426  22.188  1.00  0.00    -0.237 OA
ATOM     81  O   UNL A   1      48.692  26.241  21.511  1.00  0.00    -0.237 OA
ATOM     82  O   UNL A   1      47.217  28.200  21.616  1.00  0.00    -0.744 OA
ENDBRANCH  76  79
ENDBRANCH  48  72
BRANCH  60  83
ATOM     83  C   UNL A   1      45.397  33.193  29.200  1.00  0.00     0.023 A 
ATOM     84  C   UNL A   1      46.245  33.288  30.320  1.00  0.00     0.012 A 
ATOM     85  C   UNL A   1      45.357  34.249  28.269  1.00  0.00     0.148 A 
ATOM     86  C   UNL A   1      47.020  34.429  30.526  1.00  0.00     0.002 A 
ATOM     87  C   UNL A   1      46.169  35.360  28.454  1.00  0.00     0.091 A 
ATOM     88  F   UNL A   1      44.524  34.149  27.221  1.00  0.00    -0.205 F 
ATOM     89  C   UNL A   1      46.991  35.457  29.587  1.00  0.00     0.022 A 
BRANCH  87  90
ATOM     90  S   UNL A   1      46.271  36.685  27.244  1.00  0.00     0.127 S 
ATOM     91  O   UNL A   1      47.265  37.567  27.850  1.00  0.00    -0.237 OA
ATOM     92  O   UNL A   1      46.731  35.978  26.047  1.00  0.00    -0.237 OA
ATOM     93  O   UNL A   1      44.925  37.233  27.138  1.00  0.00    -0.744 OA
ENDBRANCH  87  90
ENDBRANCH  60  83
ENDBRANCH  34  35
ENDBRANCH  27  29
ENDBRANCH  26  27
ENDBRANCH  25  26
ENDBRANCH   1  25
TORSDOF 19
ENDMDL
MODEL 3
REMARK VINA RESULT:     -11.0      1.929      8.110
REMARK SMILES CC(C)[NH2+][C@]1(C(=O)OCCOC(=O)c2ccc(-c3c4nc(c(-c5cccc(S(=O)(=O)[O-])c5F)c5ccc([nH]5)c(-c5cccc(S(=O)(=O)[O-])c5F)c5nc(c(-c6cccc(S(=O)(=O)[O-])c6F)c6ccc3[nH]6)C=C5)C=C4)cc2)CCC[C@@H]1CCN1C(=O)CCC1=O
REMARK SMILES IDX 9 1 8 2 6 3 7 4 5 5 77 6 80 7 78 8 79 9 4 10 2 13 1 14 3 15
REMARK SMILES IDX 81 16 82 17 83 18 84 19 88 20 85 21 86 22 87 23 89 24 10 25
REMARK SMILES IDX 11 26 12 27 13 28 14 29 15 30 76 31 16 32 75 33 17 34 18 35
REMARK SMILES IDX 19 36 69 37 20 38 74 39 68 40 70 41 21 42 73 43 67 44 66 45
REMARK SMILES IDX 22 47 54 48 34 49 53 50 35 51 38 52 52 53 71 54 36 55 37 56
REMARK SMILES IDX 51 58 72 59 39 60 23 61 24 62 32 63 25 64 27 65 33 66 26 67
REMARK SMILES IDX 28 68 29 69 30 70 31 71 55 72 56 73 64 74 57 75 59 76 65 77
REMARK SMILES IDX 58 78 60 79 61 80 62 81 63 82 40 83 41 84 49 85 42 86 44 87
REMARK SMILES IDX 50 88 43 89 45 90 46 91 47 92 48 93
REMARK H PARENT 4 11 4 12 70 46 38 57
REMARK Flexibility Score: inf
ROOT
ATOM      1  C   UNL A   1      36.259  23.365  23.711  1.00  0.00     0.274 C 
ENDROOT
BRANCH   1   2
ATOM      2  O   UNL A   1      34.817  23.465  23.691  1.00  0.00    -0.457 OA
BRANCH   2   3
ATOM      3  C   UNL A   1      34.369  24.430  24.527  1.00  0.00     0.368 C 
ATOM      4  O   UNL A   1      34.900  24.631  25.609  1.00  0.00    -0.245 OA
BRANCH   3   5
ATOM      5  C   UNL A   1      33.287  25.372  23.985  1.00  0.00     0.197 C 
ATOM      6  C   UNL A   1      33.706  26.165  22.734  1.00  0.00     0.081 C 
ATOM      7  C   UNL A   1      32.179  24.432  23.309  1.00  0.00     0.064 C 
ATOM      8  C   UNL A   1      32.397  26.521  22.031  1.00  0.00     0.008 C 
ATOM      9  C   UNL A   1      31.401  25.437  22.430  1.00  0.00     0.011 C 
BRANCH   5  10
ATOM     10  N   UNL A   1      32.759  26.187  25.111  1.00  0.00    -0.330 N 
ATOM     11  H   UNL A   1      31.748  26.047  25.111  1.00  0.00     0.347 HD
ATOM     12  H   UNL A   1      33.317  25.845  25.893  1.00  0.00     0.347 HD
BRANCH  10  13
ATOM     13  C   UNL A   1      32.965  27.635  25.208  1.00  0.00     0.176 C 
ATOM     14  C   UNL A   1      31.622  28.208  25.700  1.00  0.00     0.075 C 
ATOM     15  C   UNL A   1      34.050  28.055  26.207  1.00  0.00     0.075 C 
ENDBRANCH  10  13
ENDBRANCH   5  10
BRANCH   7  16
ATOM     16  C   UNL A   1      31.181  23.549  24.130  1.00  0.00     0.033 C 
BRANCH  16  17
ATOM     17  C   UNL A   1      31.653  22.176  24.719  1.00  0.00     0.129 C 
BRANCH  17  18
ATOM     18  N   UNL A   1      32.481  22.147  25.924  1.00  0.00    -0.283 N 
ATOM     19  C   UNL A   1      33.509  21.271  26.127  1.00  0.00     0.229 C 
ATOM     20  C   UNL A   1      32.160  22.763  27.094  1.00  0.00     0.229 C 
ATOM     21  O   UNL A   1      33.879  20.379  25.373  1.00  0.00    -0.274 OA
ATOM     22  C   UNL A   1      34.144  21.542  27.466  1.00  0.00     0.110 C 
ATOM     23  C   UNL A   1      33.240  22.563  28.110  1.00  0.00     0.110 C 
ATOM     24  O   UNL A   1      31.122  23.346  27.341  1.00  0.00    -0.274 OA
ENDBRANCH  17  18
ENDBRANCH  16  17
ENDBRANCH   7  16
ENDBRANCH   3   5
ENDBRANCH   2   3
ENDBRANCH   1   2
BRANCH   1  25
ATOM     25  C   UNL A   1      36.798  21.988  24.156  1.00  0.00     0.275 C 
BRANCH  25  26
ATOM     26  O   UNL A   1      37.104  21.871  25.570  1.00  0.00    -0.458 OA
BRANCH  26  27
ATOM     27  C   UNL A   1      38.412  21.668  25.867  1.00  0.00     0.338 C 
ATOM     28  O   UNL A   1      39.103  20.754  25.444  1.00  0.00    -0.246 OA
BRANCH  27  29
ATOM     29  C   UNL A   1      39.020  22.763  26.659  1.00  0.00     0.060 A 
ATOM     30  C   UNL A   1      38.523  24.044  26.456  1.00  0.00     0.016 A 
ATOM     31  C   UNL A   1      40.198  22.620  27.380  1.00  0.00     0.016 A 
ATOM     32  C   UNL A   1      39.215  25.189  26.840  1.00  0.00     0.010 A 
ATOM     33  C   UNL A   1      40.855  23.771  27.867  1.00  0.00     0.010 A 
ATOM     34  C   UNL A   1      40.393  25.072  27.563  1.00  0.00    -0.014 A 
BRANCH  34  35
ATOM     35  C   UNL A   1      41.181  26.297  27.889  1.00  0.00     0.031 A 
ATOM     36  C   UNL A   1      40.536  27.374  28.712  1.00  0.00     0.074 A 
ATOM     37  C   UNL A   1      42.468  26.453  27.510  1.00  0.00     0.049 A 
ATOM     38  N   UNL A   1      40.967  28.577  28.986  1.00  0.00    -0.248 NA
ATOM     39  C   UNL A   1      39.237  27.046  29.321  1.00  0.00     0.031 C 
ATOM     40  C   UNL A   1      43.275  25.448  26.832  1.00  0.00     0.029 A 
ATOM     41  N   UNL A   1      43.321  27.527  27.609  1.00  0.00    -0.354 N 
ATOM     42  C   UNL A   1      39.973  29.166  29.754  1.00  0.00     0.074 A 
ATOM     43  C   UNL A   1      38.909  28.194  29.894  1.00  0.00     0.031 C 
ATOM     44  C   UNL A   1      44.463  25.964  26.492  1.00  0.00     0.029 A 
ATOM     45  C   UNL A   1      44.504  27.350  26.922  1.00  0.00     0.049 A 
ATOM     46  H   UNL A   1      43.108  28.342  28.120  1.00  0.00     0.167 HD
ATOM     47  C   UNL A   1      39.957  30.398  30.314  1.00  0.00     0.034 A 
ATOM     48  C   UNL A   1      45.504  28.208  26.643  1.00  0.00     0.034 A 
ATOM     49  C   UNL A   1      41.037  31.341  30.218  1.00  0.00     0.049 A 
ATOM     50  C   UNL A   1      45.439  29.592  27.220  1.00  0.00     0.074 A 
ATOM     51  C   UNL A   1      41.120  32.614  30.754  1.00  0.00     0.029 A 
ATOM     52  N   UNL A   1      42.229  31.114  29.545  1.00  0.00    -0.354 N 
ATOM     53  N   UNL A   1      44.508  30.123  27.976  1.00  0.00    -0.248 NA
ATOM     54  C   UNL A   1      46.579  30.479  26.954  1.00  0.00     0.031 C 
ATOM     55  C   UNL A   1      42.355  33.162  30.391  1.00  0.00     0.029 A 
ATOM     56  C   UNL A   1      43.052  32.222  29.649  1.00  0.00     0.049 A 
ATOM     57  H   UNL A   1      42.456  30.285  29.064  1.00  0.00     0.167 HD
ATOM     58  C   UNL A   1      44.971  31.385  28.316  1.00  0.00     0.074 A 
ATOM     59  C   UNL A   1      46.270  31.537  27.693  1.00  0.00     0.031 C 
ATOM     60  C   UNL A   1      44.367  32.336  29.071  1.00  0.00     0.034 A 
BRANCH  47  61
ATOM     61  C   UNL A   1      38.725  30.781  31.087  1.00  0.00     0.023 A 
ATOM     62  C   UNL A   1      38.640  30.487  32.463  1.00  0.00     0.012 A 
ATOM     63  C   UNL A   1      37.651  31.430  30.450  1.00  0.00     0.148 A 
ATOM     64  C   UNL A   1      37.487  30.793  33.184  1.00  0.00     0.002 A 
ATOM     65  C   UNL A   1      36.522  31.772  31.184  1.00  0.00     0.091 A 
ATOM     66  F   UNL A   1      37.741  31.677  29.136  1.00  0.00    -0.205 F 
ATOM     67  C   UNL A   1      36.432  31.442  32.547  1.00  0.00     0.022 A 
BRANCH  65  68
ATOM     68  S   UNL A   1      35.140  32.667  30.470  1.00  0.00     0.127 S 
ATOM     69  O   UNL A   1      34.197  32.697  31.586  1.00  0.00    -0.237 OA
ATOM     70  O   UNL A   1      35.744  33.960  30.147  1.00  0.00    -0.237 OA
ATOM     71  O   UNL A   1      34.715  31.892  29.312  1.00  0.00    -0.744 OA
ENDBRANCH  65  68
ENDBRANCH  47  61
BRANCH  48  72
ATOM     72  C   UNL A   1      46.665  27.767  25.816  1.00  0.00     0.023 A 
ATOM     73  C   UNL A   1      46.621  27.928  24.418  1.00  0.00     0.012 A 
ATOM     74  C   UNL A   1      47.816  27.205  26.405  1.00  0.00     0.148 A 
ATOM     75  C   UNL A   1      47.685  27.506  23.619  1.00  0.00     0.002 A 
ATOM     76  C   UNL A   1      48.892  26.829  25.608  1.00  0.00     0.091 A 
ATOM     77  F   UNL A   1      47.837  27.048  27.737  1.00  0.00    -0.205 F 
ATOM     78  C   UNL A   1      48.821  26.964  24.213  1.00  0.00     0.022 A 
BRANCH  76  79
ATOM     79  S   UNL A   1      50.438  26.211  26.286  1.00  0.00     0.127 S 
ATOM     80  O   UNL A   1      50.869  27.332  27.118  1.00  0.00    -0.237 OA
ATOM     81  O   UNL A   1      49.994  25.030  27.028  1.00  0.00    -0.237 OA
ATOM     82  O   UNL A   1      51.285  25.916  25.138  1.00  0.00    -0.744 OA
ENDBRANCH  76  79
ENDBRANCH  48  72
BRANCH  60  83
ATOM     83  C   UNL A   1      45.123  33.616  29.304  1.00  0.00     0.023 A 
ATOM     84  C   UNL A   1      44.952  34.701  28.423  1.00  0.00     0.012 A 
ATOM     85  C   UNL A   1      45.945  33.765  30.438  1.00  0.00     0.148 A 
ATOM     86  C   UNL A   1      45.614  35.908  28.650  1.00  0.00     0.002 A 
ATOM     87  C   UNL A   1      46.560  34.986  30.685  1.00  0.00     0.091 A 
ATOM     88  F   UNL A   1      46.114  32.712  31.252  1.00  0.00    -0.205 F 
ATOM     89  C   UNL A   1      46.406  36.053  29.786  1.00  0.00     0.022 A 
BRANCH  87  90
ATOM     90  S   UNL A   1      47.515  35.293  32.176  1.00  0.00     0.127 S 
ATOM     91  O   UNL A   1      47.919  36.685  31.991  1.00  0.00    -0.237 OA
ATOM     92  O   UNL A   1      46.522  35.081  33.230  1.00  0.00    -0.237 OA
ATOM     93  O   UNL A   1      48.598  34.317  32.164  1.00  0.00    -0.744 OA
ENDBRANCH  87  90
ENDBRANCH  60  83
ENDBRANCH  34  35
ENDBRANCH  27  29
ENDBRANCH  26  27
ENDBRANCH  25  26
ENDBRANCH   1  25
TORSDOF 19
ENDMDL
