MODEL 1
REMARK VINA RESULT:     -11.5      0.000      0.000
REMARK SMILES CC(=O)N1CCC[C@@H](Cc2nccnc2C(=O)OCCOC(=O)c2ccc(-c3c4nc(c(-c5cccc(S(=O)(=O)[O-])c5F)c5ccc([nH]5)c(-c5cccc(S(=O)(=O)[O-])c5F)c5nc(c(-c6cccc(S(=O)(=O)[O-])c6F)c6ccc3[nH]6)C=C5)C=C4)cc2)C1
REMARK SMILES IDX 19 1 18 2 16 3 17 4 15 5 10 6 11 7 12 8 14 9 13 10 9 11 8 12
REMARK SMILES IDX 4 13 5 14 87 15 6 16 7 17 2 18 1 19 3 20 20 21 21 22 22 23
REMARK SMILES IDX 23 24 24 25 25 26 86 27 26 28 85 29 27 30 28 31 29 32 79 33
REMARK SMILES IDX 30 34 84 35 78 36 80 37 31 38 83 39 77 40 76 41 32 43 64 44
REMARK SMILES IDX 44 45 63 46 45 47 48 48 62 49 81 50 46 51 47 52 61 54 82 55
REMARK SMILES IDX 49 56 33 57 34 58 42 59 35 60 37 61 43 62 36 63 38 64 39 65
REMARK SMILES IDX 40 66 41 67 65 68 66 69 74 70 67 71 69 72 75 73 68 74 70 75
REMARK SMILES IDX 71 76 72 77 73 78 50 79 51 80 59 81 52 82 54 83 60 84 53 85
REMARK SMILES IDX 55 86 56 87 57 88 58 89
REMARK H PARENT 80 42 48 53
REMARK Flexibility Score: inf
ROOT
ATOM      1  C   UNL A   1      31.784  28.584  27.330  1.00  0.00     0.275 C 
ENDROOT
BRANCH   1   2
ATOM      2  O   UNL A   1      32.401  27.417  26.747  1.00  0.00    -0.457 OA
BRANCH   2   3
ATOM      3  C   UNL A   1      31.573  26.578  26.066  1.00  0.00     0.358 C 
ATOM      4  O   UNL A   1      30.594  26.017  26.513  1.00  0.00    -0.244 OA
BRANCH   3   5
ATOM      5  C   UNL A   1      31.997  26.487  24.639  1.00  0.00     0.169 A 
ATOM      6  C   UNL A   1      33.192  25.905  24.218  1.00  0.00     0.074 A 
ATOM      7  N   UNL A   1      33.491  25.831  22.886  1.00  0.00    -0.257 NA
ATOM      8  C   UNL A   1      32.612  26.388  22.023  1.00  0.00     0.131 A 
ATOM      9  N   UNL A   1      31.089  26.990  23.751  1.00  0.00    -0.246 NA
ATOM     10  C   UNL A   1      31.432  26.954  22.447  1.00  0.00     0.132 A 
BRANCH   6  11
ATOM     11  C   UNL A   1      34.166  25.213  25.132  1.00  0.00     0.064 C 
BRANCH  11  12
ATOM     12  C   UNL A   1      33.778  23.789  25.583  1.00  0.00     0.015 C 
ATOM     13  N   UNL A   1      33.431  21.438  24.930  1.00  0.00    -0.343 N 
ATOM     14  C   UNL A   1      34.047  20.930  26.156  1.00  0.00     0.119 C 
ATOM     15  C   UNL A   1      33.936  22.734  24.476  1.00  0.00     0.123 C 
ATOM     16  C   UNL A   1      33.994  21.953  27.289  1.00  0.00     0.022 C 
ATOM     17  C   UNL A   1      34.509  23.328  26.853  1.00  0.00     0.007 C 
BRANCH  13  18
ATOM     18  C   UNL A   1      32.571  20.626  24.209  1.00  0.00     0.219 C 
ATOM     19  C   UNL A   1      32.153  21.108  22.842  1.00  0.00     0.114 C 
ATOM     20  O   UNL A   1      32.153  19.546  24.631  1.00  0.00    -0.275 OA
ENDBRANCH  13  18
ENDBRANCH  11  12
ENDBRANCH   6  11
ENDBRANCH   3   5
ENDBRANCH   2   3
ENDBRANCH   1   2
BRANCH   1  21
ATOM     21  C   UNL A   1      31.953  29.792  26.407  1.00  0.00     0.275 C 
BRANCH  21  22
ATOM     22  O   UNL A   1      33.326  30.221  26.384  1.00  0.00    -0.458 OA
BRANCH  22  23
ATOM     23  C   UNL A   1      33.618  31.261  27.200  1.00  0.00     0.338 C 
ATOM     24  O   UNL A   1      32.903  32.208  27.480  1.00  0.00    -0.246 OA
BRANCH  23  25
ATOM     25  C   UNL A   1      34.904  30.992  27.857  1.00  0.00     0.060 A 
ATOM     26  C   UNL A   1      35.100  29.713  28.374  1.00  0.00     0.016 A 
ATOM     27  C   UNL A   1      35.883  31.971  28.000  1.00  0.00     0.016 A 
ATOM     28  C   UNL A   1      36.272  29.397  29.051  1.00  0.00     0.010 A 
ATOM     29  C   UNL A   1      37.075  31.648  28.660  1.00  0.00     0.010 A 
ATOM     30  C   UNL A   1      37.277  30.360  29.192  1.00  0.00    -0.014 A 
BRANCH  30  31
ATOM     31  C   UNL A   1      38.543  30.013  29.882  1.00  0.00     0.031 A 
ATOM     32  C   UNL A   1      39.482  29.013  29.277  1.00  0.00     0.074 A 
ATOM     33  C   UNL A   1      38.831  30.586  31.068  1.00  0.00     0.049 A 
ATOM     34  N   UNL A   1      40.554  28.472  29.793  1.00  0.00    -0.248 NA
ATOM     35  C   UNL A   1      39.175  28.558  27.911  1.00  0.00     0.031 C 
ATOM     36  C   UNL A   1      38.006  31.590  31.742  1.00  0.00     0.029 A 
ATOM     37  N   UNL A   1      39.882  30.386  31.928  1.00  0.00    -0.354 N 
ATOM     38  C   UNL A   1      41.024  27.577  28.839  1.00  0.00     0.074 A 
ATOM     39  C   UNL A   1      40.125  27.655  27.708  1.00  0.00     0.031 C 
ATOM     40  C   UNL A   1      38.567  31.901  32.920  1.00  0.00     0.029 A 
ATOM     41  C   UNL A   1      39.757  31.079  33.109  1.00  0.00     0.049 A 
ATOM     42  H   UNL A   1      40.648  29.804  31.720  1.00  0.00     0.167 HD
ATOM     43  C   UNL A   1      42.111  26.773  28.901  1.00  0.00     0.034 A 
ATOM     44  C   UNL A   1      40.489  31.022  34.240  1.00  0.00     0.034 A 
ATOM     45  C   UNL A   1      43.020  26.730  30.015  1.00  0.00     0.049 A 
ATOM     46  C   UNL A   1      41.670  30.094  34.296  1.00  0.00     0.074 A 
ATOM     47  C   UNL A   1      44.174  25.977  30.157  1.00  0.00     0.029 A 
ATOM     48  N   UNL A   1      42.880  27.469  31.180  1.00  0.00    -0.354 N 
ATOM     49  N   UNL A   1      42.147  29.309  33.359  1.00  0.00    -0.248 NA
ATOM     50  C   UNL A   1      42.423  30.050  35.557  1.00  0.00     0.031 C 
ATOM     51  C   UNL A   1      44.722  26.251  31.415  1.00  0.00     0.029 A 
ATOM     52  C   UNL A   1      43.917  27.183  32.052  1.00  0.00     0.049 A 
ATOM     53  H   UNL A   1      42.150  28.105  31.361  1.00  0.00     0.167 HD
ATOM     54  C   UNL A   1      43.258  28.686  33.913  1.00  0.00     0.074 A 
ATOM     55  C   UNL A   1      43.405  29.210  35.255  1.00  0.00     0.031 C 
ATOM     56  C   UNL A   1      44.068  27.745  33.369  1.00  0.00     0.034 A 
BRANCH  43  57
ATOM     57  C   UNL A   1      42.394  25.889  27.716  1.00  0.00     0.023 A 
ATOM     58  C   UNL A   1      43.129  26.400  26.629  1.00  0.00     0.012 A 
ATOM     59  C   UNL A   1      41.982  24.542  27.703  1.00  0.00     0.148 A 
ATOM     60  C   UNL A   1      43.429  25.590  25.534  1.00  0.00     0.002 A 
ATOM     61  C   UNL A   1      42.314  23.732  26.623  1.00  0.00     0.091 A 
ATOM     62  F   UNL A   1      41.262  24.083  28.737  1.00  0.00    -0.205 F 
ATOM     63  C   UNL A   1      43.030  24.256  25.534  1.00  0.00     0.022 A 
BRANCH  61  64
ATOM     64  S   UNL A   1      41.899  21.985  26.562  1.00  0.00     0.127 S 
ATOM     65  O   UNL A   1      42.409  21.516  27.848  1.00  0.00    -0.237 OA
ATOM     66  O   UNL A   1      40.439  22.016  26.459  1.00  0.00    -0.237 OA
ATOM     67  O   UNL A   1      42.576  21.455  25.385  1.00  0.00    -0.744 OA
ENDBRANCH  61  64
ENDBRANCH  43  57
BRANCH  44  68
ATOM     68  C   UNL A   1      40.112  31.868  35.407  1.00  0.00     0.023 A 
ATOM     69  C   UNL A   1      40.696  33.139  35.561  1.00  0.00     0.012 A 
ATOM     70  C   UNL A   1      39.143  31.441  36.336  1.00  0.00     0.148 A 
ATOM     71  C   UNL A   1      40.332  33.963  36.627  1.00  0.00     0.002 A 
ATOM     72  C   UNL A   1      38.742  32.289  37.361  1.00  0.00     0.091 A 
ATOM     73  F   UNL A   1      38.617  30.216  36.191  1.00  0.00    -0.205 F 
ATOM     74  C   UNL A   1      39.345  33.545  37.518  1.00  0.00     0.022 A 
BRANCH  72  75
ATOM     75  S   UNL A   1      37.379  31.879  38.458  1.00  0.00     0.127 S 
ATOM     76  O   UNL A   1      37.972  32.109  39.773  1.00  0.00    -0.237 OA
ATOM     77  O   UNL A   1      36.361  32.854  38.064  1.00  0.00    -0.237 OA
ATOM     78  O   UNL A   1      37.034  30.499  38.145  1.00  0.00    -0.744 OA
ENDBRANCH  72  75
ENDBRANCH  44  68
BRANCH  56  79
ATOM     79  C   UNL A   1      45.185  27.215  34.227  1.00  0.00     0.023 A 
ATOM     80  C   UNL A   1      46.423  27.887  34.238  1.00  0.00     0.012 A 
ATOM     81  C   UNL A   1      44.990  26.106  35.072  1.00  0.00     0.148 A 
ATOM     82  C   UNL A   1      47.459  27.450  35.062  1.00  0.00     0.002 A 
ATOM     83  C   UNL A   1      46.013  25.700  35.921  1.00  0.00     0.091 A 
ATOM     84  F   UNL A   1      43.810  25.470  35.031  1.00  0.00    -0.205 F 
ATOM     85  C   UNL A   1      47.250  26.366  35.911  1.00  0.00     0.022 A 
BRANCH  83  86
ATOM     86  S   UNL A   1      45.807  24.368  37.108  1.00  0.00     0.127 S 
ATOM     87  O   UNL A   1      47.119  24.338  37.752  1.00  0.00    -0.237 OA
ATOM     88  O   UNL A   1      44.724  24.870  37.955  1.00  0.00    -0.237 OA
ATOM     89  O   UNL A   1      45.464  23.187  36.328  1.00  0.00    -0.744 OA
ENDBRANCH  83  86
ENDBRANCH  56  79
ENDBRANCH  30  31
ENDBRANCH  23  25
ENDBRANCH  22  23
ENDBRANCH  21  22
ENDBRANCH   1  21
TORSDOF 17
ENDMDL
MODEL 2
REMARK VINA RESULT:     -11.2      1.564      1.967
REMARK SMILES CC(=O)N1CCC[C@@H](Cc2nccnc2C(=O)OCCOC(=O)c2ccc(-c3c4nc(c(-c5cccc(S(=O)(=O)[O-])c5F)c5ccc([nH]5)c(-c5cccc(S(=O)(=O)[O-])c5F)c5nc(c(-c6cccc(S(=O)(=O)[O-])c6F)c6ccc3[nH]6)C=C5)C=C4)cc2)C1
REMARK SMILES IDX 19 1 18 2 16 3 17 4 15 5 10 6 11 7 12 8 14 9 13 10 9 11 8 12
REMARK SMILES IDX 4 13 5 14 87 15 6 16 7 17 2 18 1 19 3 20 20 21 21 22 22 23
REMARK SMILES IDX 23 24 24 25 25 26 86 27 26 28 85 29 27 30 28 31 29 32 79 33
REMARK SMILES IDX 30 34 84 35 78 36 80 37 31 38 83 39 77 40 76 41 32 43 64 44
REMARK SMILES IDX 44 45 63 46 45 47 48 48 62 49 81 50 46 51 47 52 61 54 82 55
REMARK SMILES IDX 49 56 33 57 34 58 42 59 35 60 37 61 43 62 36 63 38 64 39 65
REMARK SMILES IDX 40 66 41 67 65 68 66 69 74 70 67 71 69 72 75 73 68 74 70 75
REMARK SMILES IDX 71 76 72 77 73 78 50 79 51 80 59 81 52 82 54 83 60 84 53 85
REMARK SMILES IDX 55 86 56 87 57 88 58 89
REMARK H PARENT 80 42 48 53
REMARK Flexibility Score: inf
ROOT
ATOM      1  C   UNL A   1      31.593  28.669  26.638  1.00  0.00     0.275 C 
ENDROOT
BRANCH   1   2
ATOM      2  O   UNL A   1      31.521  27.476  25.830  1.00  0.00    -0.457 OA
BRANCH   2   3
ATOM      3  C   UNL A   1      32.707  26.867  25.552  1.00  0.00     0.358 C 
ATOM      4  O   UNL A   1      33.611  26.666  26.336  1.00  0.00    -0.244 OA
BRANCH   3   5
ATOM      5  C   UNL A   1      32.725  26.405  24.135  1.00  0.00     0.169 A 
ATOM      6  C   UNL A   1      32.272  25.154  23.718  1.00  0.00     0.074 A 
ATOM      7  N   UNL A   1      32.290  24.821  22.392  1.00  0.00    -0.257 NA
ATOM      8  C   UNL A   1      32.809  25.726  21.533  1.00  0.00     0.131 A 
ATOM      9  N   UNL A   1      33.188  27.335  23.247  1.00  0.00    -0.246 NA
ATOM     10  C   UNL A   1      33.247  26.962  21.953  1.00  0.00     0.132 A 
BRANCH   6  11
ATOM     11  C   UNL A   1      31.624  24.142  24.623  1.00  0.00     0.064 C 
BRANCH  11  12
ATOM     12  C   UNL A   1      32.579  23.173  25.350  1.00  0.00     0.015 C 
ATOM     13  N   UNL A   1      34.872  22.292  25.548  1.00  0.00    -0.343 N 
ATOM     14  C   UNL A   1      34.812  22.260  27.009  1.00  0.00     0.119 C 
ATOM     15  C   UNL A   1      34.047  23.324  24.919  1.00  0.00     0.123 C 
ATOM     16  C   UNL A   1      33.375  22.181  27.521  1.00  0.00     0.022 C 
ATOM     17  C   UNL A   1      32.474  23.242  26.881  1.00  0.00     0.007 C 
BRANCH  13  18
ATOM     18  C   UNL A   1      35.793  21.499  24.882  1.00  0.00     0.219 C 
ATOM     19  C   UNL A   1      36.710  22.185  23.899  1.00  0.00     0.114 C 
ATOM     20  O   UNL A   1      35.893  20.285  25.067  1.00  0.00    -0.275 OA
ENDBRANCH  13  18
ENDBRANCH  11  12
ENDBRANCH   6  11
ENDBRANCH   3   5
ENDBRANCH   2   3
ENDBRANCH   1   2
BRANCH   1  21
ATOM     21  C   UNL A   1      31.714  29.907  25.748  1.00  0.00     0.275 C 
BRANCH  21  22
ATOM     22  O   UNL A   1      33.042  30.457  25.826  1.00  0.00    -0.458 OA
BRANCH  22  23
ATOM     23  C   UNL A   1      33.227  31.380  26.799  1.00  0.00     0.338 C 
ATOM     24  O   UNL A   1      32.469  32.278  27.123  1.00  0.00    -0.246 OA
BRANCH  23  25
ATOM     25  C   UNL A   1      34.440  31.030  27.549  1.00  0.00     0.060 A 
ATOM     26  C   UNL A   1      35.336  32.060  27.827  1.00  0.00     0.016 A 
ATOM     27  C   UNL A   1      34.719  29.725  27.943  1.00  0.00     0.016 A 
ATOM     28  C   UNL A   1      36.527  31.800  28.492  1.00  0.00     0.010 A 
ATOM     29  C   UNL A   1      35.908  29.464  28.635  1.00  0.00     0.010 A 
ATOM     30  C   UNL A   1      36.821  30.498  28.912  1.00  0.00    -0.014 A 
BRANCH  30  31
ATOM     31  C   UNL A   1      38.076  30.225  29.654  1.00  0.00     0.031 A 
ATOM     32  C   UNL A   1      39.105  29.297  29.080  1.00  0.00     0.074 A 
ATOM     33  C   UNL A   1      38.274  30.798  30.858  1.00  0.00     0.049 A 
ATOM     34  N   UNL A   1      40.187  28.820  29.636  1.00  0.00    -0.248 NA
ATOM     35  C   UNL A   1      38.889  28.844  27.695  1.00  0.00     0.031 C 
ATOM     36  C   UNL A   1      37.356  31.735  31.507  1.00  0.00     0.029 A 
ATOM     37  N   UNL A   1      39.297  30.655  31.761  1.00  0.00    -0.354 N 
ATOM     38  C   UNL A   1      40.756  27.973  28.693  1.00  0.00     0.074 A 
ATOM     39  C   UNL A   1      39.904  28.008  27.524  1.00  0.00     0.031 C 
ATOM     40  C   UNL A   1      37.844  32.065  32.712  1.00  0.00     0.029 A 
ATOM     41  C   UNL A   1      39.076  31.320  32.944  1.00  0.00     0.049 A 
ATOM     42  H   UNL A   1      40.109  30.127  31.581  1.00  0.00     0.167 HD
ATOM     43  C   UNL A   1      41.890  27.241  28.794  1.00  0.00     0.034 A 
ATOM     44  C   UNL A   1      39.760  31.295  34.106  1.00  0.00     0.034 A 
ATOM     45  C   UNL A   1      42.751  27.241  29.946  1.00  0.00     0.049 A 
ATOM     46  C   UNL A   1      40.997  30.446  34.203  1.00  0.00     0.074 A 
ATOM     47  C   UNL A   1      43.945  26.563  30.130  1.00  0.00     0.029 A 
ATOM     48  N   UNL A   1      42.512  27.952  31.113  1.00  0.00    -0.354 N 
ATOM     49  N   UNL A   1      41.565  29.708  33.279  1.00  0.00    -0.248 NA
ATOM     50  C   UNL A   1      41.695  30.433  35.495  1.00  0.00     0.031 C 
ATOM     51  C   UNL A   1      44.418  26.854  31.415  1.00  0.00     0.029 A 
ATOM     52  C   UNL A   1      43.526  27.721  32.026  1.00  0.00     0.049 A 
ATOM     53  H   UNL A   1      41.734  28.536  31.268  1.00  0.00     0.167 HD
ATOM     54  C   UNL A   1      42.689  29.151  33.874  1.00  0.00     0.074 A 
ATOM     55  C   UNL A   1      42.742  29.663  35.228  1.00  0.00     0.031 C 
ATOM     56  C   UNL A   1      43.582  28.272  33.355  1.00  0.00     0.034 A 
BRANCH  43  57
ATOM     57  C   UNL A   1      42.282  26.395  27.612  1.00  0.00     0.023 A 
ATOM     58  C   UNL A   1      43.045  26.963  26.574  1.00  0.00     0.012 A 
ATOM     59  C   UNL A   1      41.943  25.028  27.556  1.00  0.00     0.148 A 
ATOM     60  C   UNL A   1      43.446  26.191  25.484  1.00  0.00     0.002 A 
ATOM     61  C   UNL A   1      42.375  24.257  26.482  1.00  0.00     0.091 A 
ATOM     62  F   UNL A   1      41.196  24.513  28.542  1.00  0.00    -0.205 F 
ATOM     63  C   UNL A   1      43.119  24.838  25.443  1.00  0.00     0.022 A 
BRANCH  61  64
ATOM     64  S   UNL A   1      42.057  22.492  26.372  1.00  0.00     0.127 S 
ATOM     65  O   UNL A   1      40.597  22.459  26.309  1.00  0.00    -0.237 OA
ATOM     66  O   UNL A   1      42.729  22.133  25.122  1.00  0.00    -0.237 OA
ATOM     67  O   UNL A   1      42.650  21.904  27.566  1.00  0.00    -0.744 OA
ENDBRANCH  61  64
ENDBRANCH  43  57
BRANCH  44  68
ATOM     68  C   UNL A   1      39.278  32.097  35.264  1.00  0.00     0.023 A 
ATOM     69  C   UNL A   1      38.402  31.512  36.199  1.00  0.00     0.012 A 
ATOM     70  C   UNL A   1      39.719  33.419  35.472  1.00  0.00     0.148 A 
ATOM     71  C   UNL A   1      37.966  32.234  37.311  1.00  0.00     0.002 A 
ATOM     72  C   UNL A   1      39.327  34.111  36.611  1.00  0.00     0.091 A 
ATOM     73  F   UNL A   1      40.529  33.971  34.556  1.00  0.00    -0.205 F 
ATOM     74  C   UNL A   1      38.439  33.527  37.525  1.00  0.00     0.022 A 
BRANCH  72  75
ATOM     75  S   UNL A   1      40.007  35.722  37.026  1.00  0.00     0.127 S 
ATOM     76  O   UNL A   1      39.595  36.527  35.879  1.00  0.00    -0.237 OA
ATOM     77  O   UNL A   1      39.316  36.036  38.277  1.00  0.00    -0.237 OA
ATOM     78  O   UNL A   1      41.440  35.509  37.175  1.00  0.00    -0.744 OA
ENDBRANCH  72  75
ENDBRANCH  44  68
BRANCH  56  79
ATOM     79  C   UNL A   1      44.694  27.805  34.255  1.00  0.00     0.023 A 
ATOM     80  C   UNL A   1      45.872  28.571  34.352  1.00  0.00     0.012 A 
ATOM     81  C   UNL A   1      44.547  26.655  35.056  1.00  0.00     0.148 A 
ATOM     82  C   UNL A   1      46.896  28.191  35.217  1.00  0.00     0.002 A 
ATOM     83  C   UNL A   1      45.555  26.304  35.946  1.00  0.00     0.091 A 
ATOM     84  F   UNL A   1      43.426  25.930  34.933  1.00  0.00    -0.205 F 
ATOM     85  C   UNL A   1      46.733  27.066  36.021  1.00  0.00     0.022 A 
BRANCH  83  86
ATOM     86  S   UNL A   1      45.398  24.921  37.081  1.00  0.00     0.127 S 
ATOM     87  O   UNL A   1      46.723  24.889  37.697  1.00  0.00    -0.237 OA
ATOM     88  O   UNL A   1      44.324  25.367  37.970  1.00  0.00    -0.237 OA
ATOM     89  O   UNL A   1      45.060  23.766  36.260  1.00  0.00    -0.744 OA
ENDBRANCH  83  86
ENDBRANCH  56  79
ENDBRANCH  30  31
ENDBRANCH  23  25
ENDBRANCH  22  23
ENDBRANCH  21  22
ENDBRANCH   1  21
TORSDOF 17
ENDMDL
MODEL 3
REMARK VINA RESULT:     -10.9      1.761      3.747
REMARK SMILES CC(=O)N1CCC[C@@H](Cc2nccnc2C(=O)OCCOC(=O)c2ccc(-c3c4nc(c(-c5cccc(S(=O)(=O)[O-])c5F)c5ccc([nH]5)c(-c5cccc(S(=O)(=O)[O-])c5F)c5nc(c(-c6cccc(S(=O)(=O)[O-])c6F)c6ccc3[nH]6)C=C5)C=C4)cc2)C1
REMARK SMILES IDX 19 1 18 2 16 3 17 4 15 5 10 6 11 7 12 8 14 9 13 10 9 11 8 12
REMARK SMILES IDX 4 13 5 14 87 15 6 16 7 17 2 18 1 19 3 20 20 21 21 22 22 23
REMARK SMILES IDX 23 24 24 25 25 26 86 27 26 28 85 29 27 30 28 31 29 32 79 33
REMARK SMILES IDX 30 34 84 35 78 36 80 37 31 38 83 39 77 40 76 41 32 43 64 44
REMARK SMILES IDX 44 45 63 46 45 47 48 48 62 49 81 50 46 51 47 52 61 54 82 55
REMARK SMILES IDX 49 56 33 57 34 58 42 59 35 60 37 61 43 62 36 63 38 64 39 65
REMARK SMILES IDX 40 66 41 67 65 68 66 69 74 70 67 71 69 72 75 73 68 74 70 75
REMARK SMILES IDX 71 76 72 77 73 78 50 79 51 80 59 81 52 82 54 83 60 84 53 85
REMARK SMILES IDX 55 86 56 87 57 88 58 89
REMARK H PARENT 80 42 48 53
REMARK Flexibility Score: inf
ROOT
ATOM      1  C   UNL A   1      31.447  30.262  25.962  1.00  0.00     0.275 C 
ENDROOT
BRANCH   1   2
ATOM      2  O   UNL A   1      31.760  28.973  26.530  1.00  0.00    -0.457 OA
BRANCH   2   3
ATOM      3  C   UNL A   1      32.649  28.211  25.835  1.00  0.00     0.358 C 
ATOM      4  O   UNL A   1      33.822  28.466  25.652  1.00  0.00    -0.244 OA
BRANCH   3   5
ATOM      5  C   UNL A   1      31.995  26.955  25.373  1.00  0.00     0.169 A 
ATOM      6  C   UNL A   1      31.312  26.833  24.164  1.00  0.00     0.074 A 
ATOM      7  N   UNL A   1      30.768  25.633  23.797  1.00  0.00    -0.257 NA
ATOM      8  C   UNL A   1      30.879  24.609  24.673  1.00  0.00     0.131 A 
ATOM      9  N   UNL A   1      32.153  25.894  26.220  1.00  0.00    -0.246 NA
ATOM     10  C   UNL A   1      31.561  24.737  25.861  1.00  0.00     0.132 A 
BRANCH   6  11
ATOM     11  C   UNL A   1      31.222  27.919  23.127  1.00  0.00     0.064 C 
BRANCH  11  12
ATOM     12  C   UNL A   1      29.914  28.739  23.115  1.00  0.00     0.015 C 
ATOM     13  N   UNL A   1      28.639  30.580  22.087  1.00  0.00    -0.343 N 
ATOM     14  C   UNL A   1      27.380  29.836  22.141  1.00  0.00     0.119 C 
ATOM     15  C   UNL A   1      29.840  29.753  21.962  1.00  0.00     0.123 C 
ATOM     16  C   UNL A   1      27.401  28.755  23.221  1.00  0.00     0.022 C 
ATOM     17  C   UNL A   1      28.648  27.869  23.129  1.00  0.00     0.007 C 
BRANCH  13  18
ATOM     18  C   UNL A   1      28.614  31.961  21.987  1.00  0.00     0.219 C 
ATOM     19  C   UNL A   1      28.020  32.551  20.732  1.00  0.00     0.114 C 
ATOM     20  O   UNL A   1      29.042  32.707  22.870  1.00  0.00    -0.275 OA
ENDBRANCH  13  18
ENDBRANCH  11  12
ENDBRANCH   6  11
ENDBRANCH   3   5
ENDBRANCH   2   3
ENDBRANCH   1   2
BRANCH   1  21
ATOM     21  C   UNL A   1      31.972  31.381  26.863  1.00  0.00     0.275 C 
BRANCH  21  22
ATOM     22  O   UNL A   1      33.410  31.422  26.832  1.00  0.00    -0.458 OA
BRANCH  22  23
ATOM     23  C   UNL A   1      33.974  32.408  27.567  1.00  0.00     0.338 C 
ATOM     24  O   UNL A   1      33.535  33.528  27.769  1.00  0.00    -0.246 OA
BRANCH  23  25
ATOM     25  C   UNL A   1      35.154  31.864  28.251  1.00  0.00     0.060 A 
ATOM     26  C   UNL A   1      36.258  32.703  28.383  1.00  0.00     0.016 A 
ATOM     27  C   UNL A   1      35.200  30.555  28.723  1.00  0.00     0.016 A 
ATOM     28  C   UNL A   1      37.427  32.244  28.977  1.00  0.00     0.010 A 
ATOM     29  C   UNL A   1      36.369  30.098  29.344  1.00  0.00     0.010 A 
ATOM     30  C   UNL A   1      37.491  30.938  29.473  1.00  0.00    -0.014 A 
BRANCH  30  31
ATOM     31  C   UNL A   1      38.726  30.458  30.140  1.00  0.00     0.031 A 
ATOM     32  C   UNL A   1      39.588  29.425  29.478  1.00  0.00     0.074 A 
ATOM     33  C   UNL A   1      39.055  30.941  31.355  1.00  0.00     0.049 A 
ATOM     34  N   UNL A   1      40.615  28.777  29.960  1.00  0.00    -0.248 NA
ATOM     35  C   UNL A   1      39.250  29.072  28.089  1.00  0.00     0.031 C 
ATOM     36  C   UNL A   1      38.307  31.965  32.086  1.00  0.00     0.029 A 
ATOM     37  N   UNL A   1      40.086  30.615  32.199  1.00  0.00    -0.354 N 
ATOM     38  C   UNL A   1      41.017  27.904  28.956  1.00  0.00     0.074 A 
ATOM     39  C   UNL A   1      40.128  28.112  27.833  1.00  0.00     0.031 C 
ATOM     40  C   UNL A   1      38.889  32.167  33.278  1.00  0.00     0.029 A 
ATOM     41  C   UNL A   1      40.013  31.247  33.418  1.00  0.00     0.049 A 
ATOM     42  H   UNL A   1      40.806  29.989  31.957  1.00  0.00     0.167 HD
ATOM     43  C   UNL A   1      42.040  27.018  28.970  1.00  0.00     0.034 A 
ATOM     44  C   UNL A   1      40.736  31.073  34.542  1.00  0.00     0.034 A 
ATOM     45  C   UNL A   1      42.942  26.844  30.078  1.00  0.00     0.049 A 
ATOM     46  C   UNL A   1      41.844  30.056  34.543  1.00  0.00     0.074 A 
ATOM     47  C   UNL A   1      44.035  26.000  30.174  1.00  0.00     0.029 A 
ATOM     48  N   UNL A   1      42.857  27.525  31.283  1.00  0.00    -0.354 N 
ATOM     49  N   UNL A   1      42.261  29.292  33.562  1.00  0.00    -0.248 NA
ATOM     50  C   UNL A   1      42.589  29.886  35.797  1.00  0.00     0.031 C 
ATOM     51  C   UNL A   1      44.601  26.161  31.445  1.00  0.00     0.029 A 
ATOM     52  C   UNL A   1      43.867  27.113  32.134  1.00  0.00     0.049 A 
ATOM     53  H   UNL A   1      42.177  28.204  31.500  1.00  0.00     0.167 HD
ATOM     54  C   UNL A   1      43.321  28.556  34.078  1.00  0.00     0.074 A 
ATOM     55  C   UNL A   1      43.505  28.992  35.447  1.00  0.00     0.031 C 
ATOM     56  C   UNL A   1      44.058  27.588  33.480  1.00  0.00     0.034 A 
BRANCH  43  57
ATOM     57  C   UNL A   1      42.258  26.182  27.737  1.00  0.00     0.023 A 
ATOM     58  C   UNL A   1      42.924  26.740  26.629  1.00  0.00     0.012 A 
ATOM     59  C   UNL A   1      41.852  24.833  27.696  1.00  0.00     0.148 A 
ATOM     60  C   UNL A   1      43.163  25.976  25.488  1.00  0.00     0.002 A 
ATOM     61  C   UNL A   1      42.124  24.069  26.567  1.00  0.00     0.091 A 
ATOM     62  F   UNL A   1      41.197  24.330  28.751  1.00  0.00    -0.205 F 
ATOM     63  C   UNL A   1      42.772  24.640  25.460  1.00  0.00     0.022 A 
BRANCH  61  64
ATOM     64  S   UNL A   1      41.715  22.322  26.462  1.00  0.00     0.127 S 
ATOM     65  O   UNL A   1      40.255  22.364  26.425  1.00  0.00    -0.237 OA
ATOM     66  O   UNL A   1      42.346  21.931  25.202  1.00  0.00    -0.237 OA
ATOM     67  O   UNL A   1      42.297  21.704  27.647  1.00  0.00    -0.744 OA
ENDBRANCH  61  64
ENDBRANCH  43  57
BRANCH  44  68
ATOM     68  C   UNL A   1      40.422  31.879  35.755  1.00  0.00     0.023 A 
ATOM     69  C   UNL A   1      41.300  32.904  36.154  1.00  0.00     0.012 A 
ATOM     70  C   UNL A   1      39.237  31.667  36.487  1.00  0.00     0.148 A 
ATOM     71  C   UNL A   1      41.008  33.695  37.267  1.00  0.00     0.002 A 
ATOM     72  C   UNL A   1      38.924  32.495  37.557  1.00  0.00     0.091 A 
ATOM     73  F   UNL A   1      38.426  30.666  36.110  1.00  0.00    -0.205 F 
ATOM     74  C   UNL A   1      39.815  33.500  37.959  1.00  0.00     0.022 A 
BRANCH  72  75
ATOM     75  S   UNL A   1      37.343  32.398  38.405  1.00  0.00     0.127 S 
ATOM     76  O   UNL A   1      36.456  33.082  37.467  1.00  0.00    -0.237 OA
ATOM     77  O   UNL A   1      37.134  30.953  38.506  1.00  0.00    -0.237 OA
ATOM     78  O   UNL A   1      37.551  33.060  39.686  1.00  0.00    -0.744 OA
ENDBRANCH  72  75
ENDBRANCH  44  68
BRANCH  56  79
ATOM     79  C   UNL A   1      45.132  26.929  34.304  1.00  0.00     0.023 A 
ATOM     80  C   UNL A   1      46.418  27.500  34.345  1.00  0.00     0.012 A 
ATOM     81  C   UNL A   1      44.850  25.795  35.091  1.00  0.00     0.148 A 
ATOM     82  C   UNL A   1      47.417  26.941  35.140  1.00  0.00     0.002 A 
ATOM     83  C   UNL A   1      45.839  25.267  35.913  1.00  0.00     0.091 A 
ATOM     84  F   UNL A   1      43.625  25.256  35.022  1.00  0.00    -0.205 F 
ATOM     85  C   UNL A   1      47.124  25.833  35.932  1.00  0.00     0.022 A 
BRANCH  83  86
ATOM     86  S   UNL A   1      45.530  23.895  37.030  1.00  0.00     0.127 S 
ATOM     87  O   UNL A   1      46.849  23.694  37.627  1.00  0.00    -0.237 OA
ATOM     88  O   UNL A   1      44.528  24.453  37.940  1.00  0.00    -0.237 OA
ATOM     89  O   UNL A   1      45.046  22.802  36.197  1.00  0.00    -0.744 OA
ENDBRANCH  83  86
ENDBRANCH  56  79
ENDBRANCH  30  31
ENDBRANCH  23  25
ENDBRANCH  22  23
ENDBRANCH  21  22
ENDBRANCH   1  21
TORSDOF 17
ENDMDL
