MODEL 1
REMARK VINA RESULT:     -13.9      0.000      0.000
REMARK SMILES O=C(OCCOC(=O)c1ccc(-c2c3nc(c(-c4cccc(S(=O)(=O)[O-])c4F)c4ccc([nH]4)c(-c4cccc(S(=O)(=O)[O-])c4F)c4nc(c(-c5cccc(S(=O)(=O)[O-])c5F)c5ccc2[nH]5)C=C4)C=C3)cc1)C1=Cc2cc(Cl)cc(Cl)c2O[C@@H]1C(F)(F)F
REMARK SMILES IDX 5 1 4 2 3 3 2 4 1 5 72 6 73 7 83 8 74 9 82 10 75 11 81 12
REMARK SMILES IDX 76 13 79 14 77 15 78 16 80 17 84 18 85 19 86 20 87 21 6 22
REMARK SMILES IDX 7 23 8 24 9 25 10 26 71 27 11 28 70 29 12 30 13 31 14 32
REMARK SMILES IDX 64 33 15 34 69 35 63 36 65 37 16 38 68 39 62 40 61 41 17 43
REMARK SMILES IDX 49 44 29 45 48 46 30 47 33 48 47 49 66 50 31 51 32 52 46 54
REMARK SMILES IDX 67 55 34 56 18 57 19 58 27 59 20 60 22 61 28 62 21 63 23 64
REMARK SMILES IDX 24 65 25 66 26 67 50 68 51 69 59 70 52 71 54 72 60 73 53 74
REMARK SMILES IDX 55 75 56 76 57 77 58 78 35 79 36 80 44 81 37 82 39 83 45 84
REMARK SMILES IDX 38 85 40 86 41 87 42 88 43 89
REMARK H PARENT 65 42 33 53
REMARK Flexibility Score: inf
ROOT
ATOM      1  C   UNL A   1      31.569  31.980  26.776  1.00  0.00     0.275 C 
ENDROOT
BRANCH   1   2
ATOM      2  C   UNL A   1      31.745  30.046  25.836  1.00  0.00     0.275 C 
BRANCH   2   3
ATOM      3  O   UNL A   1      32.546  28.820  26.383  1.00  0.00    -0.459 OA
BRANCH   3   4
ATOM      4  C   UNL A   1      31.824  27.695  26.439  1.00  0.00     0.338 C 
ATOM      5  O   UNL A   1      31.232  27.191  27.357  1.00  0.00    -0.246 OA
BRANCH   4   6
ATOM      6  C   UNL A   1      32.259  27.205  25.158  1.00  0.00     0.087 C 
ATOM      7  C   UNL A   1      33.640  26.675  25.254  1.00  0.00     0.027 C 
ATOM      8  C   UNL A   1      30.692  26.142  24.765  1.00  0.00     0.316 C 
ATOM      9  C   UNL A   1      34.036  24.910  25.153  1.00  0.00     0.020 A 
ATOM     10  O   UNL A   1      31.092  24.262  24.706  1.00  0.00    -0.474 OA
ATOM     11  C   UNL A   1      35.321  24.513  25.396  1.00  0.00     0.032 A 
ATOM     12  C   UNL A   1      32.802  23.695  24.970  1.00  0.00     0.146 A 
ATOM     13  C   UNL A   1      35.503  23.121  25.467  1.00  0.00     0.043 A 
ATOM     14  C   UNL A   1      33.089  22.359  25.049  1.00  0.00     0.085 A 
ATOM     15  Cl  UNL A   1      37.114  22.573  25.816  1.00  0.00    -0.084 Cl
ATOM     16  C   UNL A   1      34.462  22.109  25.305  1.00  0.00     0.045 A 
ATOM     17  Cl  UNL A   1      31.963  21.096  24.925  1.00  0.00    -0.080 Cl
BRANCH   8  18
ATOM     18  C   UNL A   1      29.982  27.085  23.738  1.00  0.00     0.430 C 
ATOM     19  F   UNL A   1      30.536  27.012  22.522  1.00  0.00    -0.167 F 
ATOM     20  F   UNL A   1      28.710  26.617  23.565  1.00  0.00    -0.167 F 
ATOM     21  F   UNL A   1      29.809  28.364  24.118  1.00  0.00    -0.167 F 
ENDBRANCH   8  18
ENDBRANCH   4   6
ENDBRANCH   3   4
ENDBRANCH   2   3
ENDBRANCH   1   2
BRANCH   1  22
ATOM     22  O   UNL A   1      32.837  33.074  27.066  1.00  0.00    -0.458 OA
BRANCH  22  23
ATOM     23  C   UNL A   1      33.601  33.629  28.057  1.00  0.00     0.338 C 
ATOM     24  O   UNL A   1      33.332  34.492  28.867  1.00  0.00    -0.246 OA
BRANCH  23  25
ATOM     25  C   UNL A   1      34.790  32.738  28.151  1.00  0.00     0.060 A 
ATOM     26  C   UNL A   1      36.063  33.303  28.329  1.00  0.00     0.016 A 
ATOM     27  C   UNL A   1      34.573  31.392  28.434  1.00  0.00     0.016 A 
ATOM     28  C   UNL A   1      37.033  32.592  29.054  1.00  0.00     0.010 A 
ATOM     29  C   UNL A   1      35.556  30.674  29.104  1.00  0.00     0.010 A 
ATOM     30  C   UNL A   1      36.757  31.292  29.497  1.00  0.00    -0.014 A 
BRANCH  30  31
ATOM     31  C   UNL A   1      37.767  30.442  30.169  1.00  0.00     0.031 A 
ATOM     32  C   UNL A   1      38.093  30.818  31.577  1.00  0.00     0.074 A 
ATOM     33  C   UNL A   1      38.519  29.543  29.501  1.00  0.00     0.049 A 
ATOM     34  N   UNL A   1      39.106  30.469  32.319  1.00  0.00    -0.248 NA
ATOM     35  C   UNL A   1      37.173  31.781  32.206  1.00  0.00     0.031 C 
ATOM     36  C   UNL A   1      38.327  29.128  28.112  1.00  0.00     0.029 A 
ATOM     37  N   UNL A   1      39.650  28.863  29.895  1.00  0.00    -0.354 N 
ATOM     38  C   UNL A   1      38.984  31.226  33.473  1.00  0.00     0.074 A 
ATOM     39  C   UNL A   1      37.813  32.058  33.326  1.00  0.00     0.031 C 
ATOM     40  C   UNL A   1      39.331  28.301  27.755  1.00  0.00     0.029 A 
ATOM     41  C   UNL A   1      40.254  28.151  28.880  1.00  0.00     0.049 A 
ATOM     42  H   UNL A   1      39.996  28.883  30.816  1.00  0.00     0.167 HD
ATOM     43  C   UNL A   1      39.777  31.236  34.566  1.00  0.00     0.034 A 
ATOM     44  C   UNL A   1      41.429  27.482  28.860  1.00  0.00     0.034 A 
ATOM     45  C   UNL A   1      40.942  30.418  34.707  1.00  0.00     0.049 A 
ATOM     46  C   UNL A   1      42.277  27.459  30.116  1.00  0.00     0.074 A 
ATOM     47  C   UNL A   1      41.786  30.301  35.793  1.00  0.00     0.029 A 
ATOM     48  N   UNL A   1      41.438  29.591  33.711  1.00  0.00    -0.354 N 
ATOM     49  N   UNL A   1      42.066  28.053  31.267  1.00  0.00    -0.248 NA
ATOM     50  C   UNL A   1      43.509  26.653  30.084  1.00  0.00     0.031 C 
ATOM     51  C   UNL A   1      42.808  29.412  35.446  1.00  0.00     0.029 A 
ATOM     52  C   UNL A   1      42.579  28.954  34.157  1.00  0.00     0.049 A 
ATOM     53  H   UNL A   1      41.037  29.475  32.819  1.00  0.00     0.167 HD
ATOM     54  C   UNL A   1      43.108  27.659  32.104  1.00  0.00     0.074 A 
ATOM     55  C   UNL A   1      43.949  26.769  31.330  1.00  0.00     0.031 C 
ATOM     56  C   UNL A   1      43.353  28.008  33.391  1.00  0.00     0.034 A 
BRANCH  43  57
ATOM     57  C   UNL A   1      39.374  32.177  35.663  1.00  0.00     0.023 A 
ATOM     58  C   UNL A   1      38.371  31.789  36.579  1.00  0.00     0.012 A 
ATOM     59  C   UNL A   1      39.907  33.476  35.727  1.00  0.00     0.148 A 
ATOM     60  C   UNL A   1      37.847  32.707  37.486  1.00  0.00     0.002 A 
ATOM     61  C   UNL A   1      39.420  34.367  36.674  1.00  0.00     0.091 A 
ATOM     62  F   UNL A   1      40.832  33.836  34.826  1.00  0.00    -0.205 F 
ATOM     63  C   UNL A   1      38.375  33.993  37.535  1.00  0.00     0.022 A 
BRANCH  61  64
ATOM     64  S   UNL A   1      40.088  36.021  36.867  1.00  0.00     0.127 S 
ATOM     65  O   UNL A   1      41.510  35.746  37.061  1.00  0.00    -0.237 OA
ATOM     66  O   UNL A   1      39.755  36.637  35.582  1.00  0.00    -0.237 OA
ATOM     67  O   UNL A   1      39.396  36.598  38.011  1.00  0.00    -0.744 OA
ENDBRANCH  61  64
ENDBRANCH  43  57
BRANCH  44  68
ATOM     68  C   UNL A   1      41.869  26.732  27.642  1.00  0.00     0.023 A 
ATOM     69  C   UNL A   1      42.413  27.447  26.555  1.00  0.00     0.012 A 
ATOM     70  C   UNL A   1      41.739  25.332  27.536  1.00  0.00     0.148 A 
ATOM     71  C   UNL A   1      42.785  26.794  25.379  1.00  0.00     0.002 A 
ATOM     72  C   UNL A   1      42.153  24.680  26.377  1.00  0.00     0.091 A 
ATOM     73  F   UNL A   1      41.210  24.665  28.572  1.00  0.00    -0.205 F 
ATOM     74  C   UNL A   1      42.661  25.411  25.291  1.00  0.00     0.022 A 
BRANCH  72  75
ATOM     75  S   UNL A   1      42.122  22.892  26.194  1.00  0.00     0.127 S 
ATOM     76  O   UNL A   1      42.916  22.456  27.341  1.00  0.00    -0.237 OA
ATOM     77  O   UNL A   1      40.690  22.606  26.293  1.00  0.00    -0.237 OA
ATOM     78  O   UNL A   1      42.708  22.614  24.889  1.00  0.00    -0.744 OA
ENDBRANCH  72  75
ENDBRANCH  44  68
BRANCH  56  79
ATOM     79  C   UNL A   1      44.530  27.390  34.098  1.00  0.00     0.023 A 
ATOM     80  C   UNL A   1      45.774  28.050  34.110  1.00  0.00     0.012 A 
ATOM     81  C   UNL A   1      44.342  26.245  34.901  1.00  0.00     0.148 A 
ATOM     82  C   UNL A   1      46.814  27.576  34.910  1.00  0.00     0.002 A 
ATOM     83  C   UNL A   1      45.365  25.811  35.732  1.00  0.00     0.091 A 
ATOM     84  F   UNL A   1      43.153  25.625  34.859  1.00  0.00    -0.205 F 
ATOM     85  C   UNL A   1      46.605  26.470  35.734  1.00  0.00     0.022 A 
BRANCH  83  86
ATOM     86  S   UNL A   1      45.143  24.476  36.915  1.00  0.00     0.127 S 
ATOM     87  O   UNL A   1      43.970  24.931  37.660  1.00  0.00    -0.237 OA
ATOM     88  O   UNL A   1      44.903  23.326  36.042  1.00  0.00    -0.237 OA
ATOM     89  O   UNL A   1      46.380  24.406  37.681  1.00  0.00    -0.744 OA
ENDBRANCH  83  86
ENDBRANCH  56  79
ENDBRANCH  30  31
ENDBRANCH  23  25
ENDBRANCH  22  23
ENDBRANCH   1  22
TORSDOF 15
ENDMDL
MODEL 2
REMARK VINA RESULT:     -13.9      1.805      2.088
REMARK SMILES O=C(OCCOC(=O)c1ccc(-c2c3nc(c(-c4cccc(S(=O)(=O)[O-])c4F)c4ccc([nH]4)c(-c4cccc(S(=O)(=O)[O-])c4F)c4nc(c(-c5cccc(S(=O)(=O)[O-])c5F)c5ccc2[nH]5)C=C4)C=C3)cc1)C1=Cc2cc(Cl)cc(Cl)c2O[C@@H]1C(F)(F)F
REMARK SMILES IDX 5 1 4 2 3 3 2 4 1 5 72 6 73 7 83 8 74 9 82 10 75 11 81 12
REMARK SMILES IDX 76 13 79 14 77 15 78 16 80 17 84 18 85 19 86 20 87 21 6 22
REMARK SMILES IDX 7 23 8 24 9 25 10 26 71 27 11 28 70 29 12 30 13 31 14 32
REMARK SMILES IDX 64 33 15 34 69 35 63 36 65 37 16 38 68 39 62 40 61 41 17 43
REMARK SMILES IDX 49 44 29 45 48 46 30 47 33 48 47 49 66 50 31 51 32 52 46 54
REMARK SMILES IDX 67 55 34 56 18 57 19 58 27 59 20 60 22 61 28 62 21 63 23 64
REMARK SMILES IDX 24 65 25 66 26 67 50 68 51 69 59 70 52 71 54 72 60 73 53 74
REMARK SMILES IDX 55 75 56 76 57 77 58 78 35 79 36 80 44 81 37 82 39 83 45 84
REMARK SMILES IDX 38 85 40 86 41 87 42 88 43 89
REMARK H PARENT 65 42 33 53
REMARK Flexibility Score: inf
ROOT
ATOM      1  C   UNL A   1      31.485  32.250  26.498  1.00  0.00     0.275 C 
ENDROOT
BRANCH   1   2
ATOM      2  C   UNL A   1      31.466  30.342  25.491  1.00  0.00     0.275 C 
BRANCH   2   3
ATOM      3  O   UNL A   1      32.145  29.025  25.989  1.00  0.00    -0.459 OA
BRANCH   3   4
ATOM      4  C   UNL A   1      31.717  27.930  25.348  1.00  0.00     0.338 C 
ATOM      5  O   UNL A   1      30.617  27.450  25.271  1.00  0.00    -0.246 OA
BRANCH   4   6
ATOM      6  C   UNL A   1      33.035  27.425  25.071  1.00  0.00     0.087 C 
ATOM      7  C   UNL A   1      33.380  26.342  26.024  1.00  0.00     0.027 C 
ATOM      8  C   UNL A   1      32.805  27.189  23.167  1.00  0.00     0.316 C 
ATOM      9  C   UNL A   1      33.496  24.599  25.546  1.00  0.00     0.020 A 
ATOM     10  O   UNL A   1      32.876  25.337  22.655  1.00  0.00    -0.474 OA
ATOM     11  C   UNL A   1      33.679  23.663  26.526  1.00  0.00     0.032 A 
ATOM     12  C   UNL A   1      33.172  24.062  23.922  1.00  0.00     0.146 A 
ATOM     13  C   UNL A   1      33.585  22.330  26.091  1.00  0.00     0.043 A 
ATOM     14  C   UNL A   1      33.109  22.733  23.602  1.00  0.00     0.085 A 
ATOM     15  Cl  UNL A   1      33.768  21.108  27.311  1.00  0.00    -0.084 Cl
ATOM     16  C   UNL A   1      33.319  21.890  24.723  1.00  0.00     0.045 A 
ATOM     17  Cl  UNL A   1      32.763  22.100  22.066  1.00  0.00    -0.080 Cl
BRANCH   8  18
ATOM     18  C   UNL A   1      33.589  28.440  22.647  1.00  0.00     0.430 C 
ATOM     19  F   UNL A   1      34.752  28.606  23.286  1.00  0.00    -0.167 F 
ATOM     20  F   UNL A   1      33.941  28.192  21.350  1.00  0.00    -0.167 F 
ATOM     21  F   UNL A   1      32.900  29.594  22.581  1.00  0.00    -0.167 F 
ENDBRANCH   8  18
ENDBRANCH   4   6
ENDBRANCH   3   4
ENDBRANCH   2   3
ENDBRANCH   1   2
BRANCH   1  22
ATOM     22  O   UNL A   1      32.626  32.766  27.647  1.00  0.00    -0.458 OA
BRANCH  22  23
ATOM     23  C   UNL A   1      33.674  33.624  27.842  1.00  0.00     0.338 C 
ATOM     24  O   UNL A   1      33.682  34.809  28.108  1.00  0.00    -0.246 OA
BRANCH  23  25
ATOM     25  C   UNL A   1      34.864  32.736  27.953  1.00  0.00     0.060 A 
ATOM     26  C   UNL A   1      36.130  33.303  28.167  1.00  0.00     0.016 A 
ATOM     27  C   UNL A   1      34.644  31.387  28.217  1.00  0.00     0.016 A 
ATOM     28  C   UNL A   1      37.086  32.588  28.907  1.00  0.00     0.010 A 
ATOM     29  C   UNL A   1      35.614  30.665  28.902  1.00  0.00     0.010 A 
ATOM     30  C   UNL A   1      36.803  31.282  29.329  1.00  0.00    -0.014 A 
BRANCH  30  31
ATOM     31  C   UNL A   1      37.800  30.427  30.015  1.00  0.00     0.031 A 
ATOM     32  C   UNL A   1      38.067  30.767  31.445  1.00  0.00     0.074 A 
ATOM     33  C   UNL A   1      38.592  29.560  29.351  1.00  0.00     0.049 A 
ATOM     34  N   UNL A   1      39.056  30.412  32.214  1.00  0.00    -0.248 NA
ATOM     35  C   UNL A   1      37.109  31.698  32.065  1.00  0.00     0.031 C 
ATOM     36  C   UNL A   1      38.459  29.181  27.944  1.00  0.00     0.029 A 
ATOM     37  N   UNL A   1      39.717  28.885  29.769  1.00  0.00    -0.354 N 
ATOM     38  C   UNL A   1      38.879  31.134  33.384  1.00  0.00     0.074 A 
ATOM     39  C   UNL A   1      37.701  31.952  33.216  1.00  0.00     0.031 C 
ATOM     40  C   UNL A   1      39.488  28.380  27.604  1.00  0.00     0.029 A 
ATOM     41  C   UNL A   1      40.370  28.211  28.758  1.00  0.00     0.049 A 
ATOM     42  H   UNL A   1      40.028  28.883  30.703  1.00  0.00     0.167 HD
ATOM     43  C   UNL A   1      39.629  31.124  34.507  1.00  0.00     0.034 A 
ATOM     44  C   UNL A   1      41.556  27.560  28.765  1.00  0.00     0.034 A 
ATOM     45  C   UNL A   1      40.801  30.320  34.669  1.00  0.00     0.049 A 
ATOM     46  C   UNL A   1      42.355  27.514  30.052  1.00  0.00     0.074 A 
ATOM     47  C   UNL A   1      41.604  30.184  35.783  1.00  0.00     0.029 A 
ATOM     48  N   UNL A   1      41.348  29.528  33.670  1.00  0.00    -0.354 N 
ATOM     49  N   UNL A   1      42.092  28.071  31.210  1.00  0.00    -0.248 NA
ATOM     50  C   UNL A   1      43.601  26.727  30.043  1.00  0.00     0.031 C 
ATOM     51  C   UNL A   1      42.653  29.320  35.450  1.00  0.00     0.029 A 
ATOM     52  C   UNL A   1      42.480  28.896  34.141  1.00  0.00     0.049 A 
ATOM     53  H   UNL A   1      40.982  29.432  32.761  1.00  0.00     0.167 HD
ATOM     54  C   UNL A   1      43.107  27.668  32.074  1.00  0.00     0.074 A 
ATOM     55  C   UNL A   1      43.991  26.813  31.309  1.00  0.00     0.031 C 
ATOM     56  C   UNL A   1      43.297  27.983  33.379  1.00  0.00     0.034 A 
BRANCH  43  57
ATOM     57  C   UNL A   1      39.170  32.027  35.614  1.00  0.00     0.023 A 
ATOM     58  C   UNL A   1      39.638  33.359  35.663  1.00  0.00     0.012 A 
ATOM     59  C   UNL A   1      38.365  31.535  36.655  1.00  0.00     0.148 A 
ATOM     60  C   UNL A   1      39.380  34.159  36.774  1.00  0.00     0.002 A 
ATOM     61  C   UNL A   1      38.063  32.358  37.731  1.00  0.00     0.091 A 
ATOM     62  F   UNL A   1      37.961  30.257  36.607  1.00  0.00    -0.205 F 
ATOM     63  C   UNL A   1      38.590  33.659  37.804  1.00  0.00     0.022 A 
BRANCH  61  64
ATOM     64  S   UNL A   1      36.991  31.834  39.071  1.00  0.00     0.127 S 
ATOM     65  O   UNL A   1      37.765  32.235  40.244  1.00  0.00    -0.237 OA
ATOM     66  O   UNL A   1      35.789  32.632  38.830  1.00  0.00    -0.237 OA
ATOM     67  O   UNL A   1      36.810  30.400  38.896  1.00  0.00    -0.744 OA
ENDBRANCH  61  64
ENDBRANCH  43  57
BRANCH  44  68
ATOM     68  C   UNL A   1      42.053  26.852  27.544  1.00  0.00     0.023 A 
ATOM     69  C   UNL A   1      42.589  27.609  26.482  1.00  0.00     0.012 A 
ATOM     70  C   UNL A   1      41.985  25.450  27.411  1.00  0.00     0.148 A 
ATOM     71  C   UNL A   1      43.013  26.994  25.302  1.00  0.00     0.002 A 
ATOM     72  C   UNL A   1      42.452  24.838  26.250  1.00  0.00     0.091 A 
ATOM     73  F   UNL A   1      41.465  24.742  28.424  1.00  0.00    -0.205 F 
ATOM     74  C   UNL A   1      42.951  25.609  25.188  1.00  0.00     0.022 A 
BRANCH  72  75
ATOM     75  S   UNL A   1      42.502  23.053  26.035  1.00  0.00     0.127 S 
ATOM     76  O   UNL A   1      43.378  22.641  27.130  1.00  0.00    -0.237 OA
ATOM     77  O   UNL A   1      41.094  22.692  26.205  1.00  0.00    -0.237 OA
ATOM     78  O   UNL A   1      43.030  22.827  24.696  1.00  0.00    -0.744 OA
ENDBRANCH  72  75
ENDBRANCH  44  68
BRANCH  56  79
ATOM     79  C   UNL A   1      44.456  27.362  34.114  1.00  0.00     0.023 A 
ATOM     80  C   UNL A   1      45.691  28.035  34.183  1.00  0.00     0.012 A 
ATOM     81  C   UNL A   1      44.254  26.198  34.884  1.00  0.00     0.148 A 
ATOM     82  C   UNL A   1      46.709  27.555  35.008  1.00  0.00     0.002 A 
ATOM     83  C   UNL A   1      45.253  25.757  35.740  1.00  0.00     0.091 A 
ATOM     84  F   UNL A   1      43.075  25.566  34.786  1.00  0.00    -0.205 F 
ATOM     85  C   UNL A   1      46.484  26.429  35.800  1.00  0.00     0.022 A 
BRANCH  83  86
ATOM     86  S   UNL A   1      45.005  24.393  36.884  1.00  0.00     0.127 S 
ATOM     87  O   UNL A   1      46.330  24.269  37.491  1.00  0.00    -0.237 OA
ATOM     88  O   UNL A   1      43.972  24.921  37.776  1.00  0.00    -0.237 OA
ATOM     89  O   UNL A   1      44.581  23.259  36.074  1.00  0.00    -0.744 OA
ENDBRANCH  83  86
ENDBRANCH  56  79
ENDBRANCH  30  31
ENDBRANCH  23  25
ENDBRANCH  22  23
ENDBRANCH   1  22
TORSDOF 15
ENDMDL
MODEL 3
REMARK VINA RESULT:     -13.7      5.133     10.386
REMARK SMILES O=C(OCCOC(=O)c1ccc(-c2c3nc(c(-c4cccc(S(=O)(=O)[O-])c4F)c4ccc([nH]4)c(-c4cccc(S(=O)(=O)[O-])c4F)c4nc(c(-c5cccc(S(=O)(=O)[O-])c5F)c5ccc2[nH]5)C=C4)C=C3)cc1)C1=Cc2cc(Cl)cc(Cl)c2O[C@@H]1C(F)(F)F
REMARK SMILES IDX 5 1 4 2 3 3 2 4 1 5 72 6 73 7 83 8 74 9 82 10 75 11 81 12
REMARK SMILES IDX 76 13 79 14 77 15 78 16 80 17 84 18 85 19 86 20 87 21 6 22
REMARK SMILES IDX 7 23 8 24 9 25 10 26 71 27 11 28 70 29 12 30 13 31 14 32
REMARK SMILES IDX 64 33 15 34 69 35 63 36 65 37 16 38 68 39 62 40 61 41 17 43
REMARK SMILES IDX 49 44 29 45 48 46 30 47 33 48 47 49 66 50 31 51 32 52 46 54
REMARK SMILES IDX 67 55 34 56 18 57 19 58 27 59 20 60 22 61 28 62 21 63 23 64
REMARK SMILES IDX 24 65 25 66 26 67 50 68 51 69 59 70 52 71 54 72 60 73 53 74
REMARK SMILES IDX 55 75 56 76 57 77 58 78 35 79 36 80 44 81 37 82 39 83 45 84
REMARK SMILES IDX 38 85 40 86 41 87 42 88 43 89
REMARK H PARENT 65 42 33 53
REMARK Flexibility Score: inf
ROOT
ATOM      1  C   UNL A   1      38.156  20.147  24.972  1.00  0.00     0.275 C 
ENDROOT
BRANCH   1   2
ATOM      2  C   UNL A   1      36.372  21.314  24.639  1.00  0.00     0.275 C 
BRANCH   2   3
ATOM      3  O   UNL A   1      36.309  22.767  24.065  1.00  0.00    -0.459 OA
BRANCH   3   4
ATOM      4  C   UNL A   1      35.114  23.086  23.555  1.00  0.00     0.338 C 
ATOM      5  O   UNL A   1      34.794  23.366  22.430  1.00  0.00    -0.246 OA
BRANCH   4   6
ATOM      6  C   UNL A   1      34.475  23.256  24.834  1.00  0.00     0.087 C 
ATOM      7  C   UNL A   1      34.725  24.621  25.355  1.00  0.00     0.027 C 
ATOM      8  C   UNL A   1      32.742  22.566  24.327  1.00  0.00     0.316 C 
ATOM      9  C   UNL A   1      33.441  25.895  25.457  1.00  0.00     0.020 A 
ATOM     10  O   UNL A   1      31.381  23.923  24.383  1.00  0.00    -0.474 OA
ATOM     11  C   UNL A   1      33.805  27.163  25.817  1.00  0.00     0.032 A 
ATOM     12  C   UNL A   1      31.813  25.612  24.910  1.00  0.00     0.146 A 
ATOM     13  C   UNL A   1      32.784  28.122  25.704  1.00  0.00     0.043 A 
ATOM     14  C   UNL A   1      30.889  26.620  24.846  1.00  0.00     0.085 A 
ATOM     15  Cl  UNL A   1      33.214  29.755  26.111  1.00  0.00    -0.084 Cl
ATOM     16  C   UNL A   1      31.418  27.873  25.251  1.00  0.00     0.045 A 
ATOM     17  Cl  UNL A   1      29.292  26.466  24.294  1.00  0.00    -0.080 Cl
BRANCH   8  18
ATOM     18  C   UNL A   1      32.819  21.146  24.980  1.00  0.00     0.430 C 
ATOM     19  F   UNL A   1      33.419  21.175  26.175  1.00  0.00    -0.167 F 
ATOM     20  F   UNL A   1      31.539  20.749  25.246  1.00  0.00    -0.167 F 
ATOM     21  F   UNL A   1      33.313  20.159  24.211  1.00  0.00    -0.167 F 
ENDBRANCH   8  18
ENDBRANCH   4   6
ENDBRANCH   3   4
ENDBRANCH   2   3
ENDBRANCH   1   2
BRANCH   1  22
ATOM     22  O   UNL A   1      39.210  20.282  26.298  1.00  0.00    -0.458 OA
BRANCH  22  23
ATOM     23  C   UNL A   1      40.513  20.522  26.643  1.00  0.00     0.338 C 
ATOM     24  O   UNL A   1      41.527  19.920  26.354  1.00  0.00    -0.246 OA
BRANCH  23  25
ATOM     25  C   UNL A   1      40.493  21.889  27.232  1.00  0.00     0.060 A 
ATOM     26  C   UNL A   1      41.479  22.252  28.164  1.00  0.00     0.016 A 
ATOM     27  C   UNL A   1      39.749  22.867  26.579  1.00  0.00     0.016 A 
ATOM     28  C   UNL A   1      41.905  23.589  28.225  1.00  0.00     0.010 A 
ATOM     29  C   UNL A   1      40.139  24.197  26.684  1.00  0.00     0.010 A 
ATOM     30  C   UNL A   1      41.271  24.557  27.435  1.00  0.00    -0.014 A 
BRANCH  30  31
ATOM     31  C   UNL A   1      41.591  26.002  27.528  1.00  0.00     0.031 A 
ATOM     32  C   UNL A   1      42.966  26.388  27.091  1.00  0.00     0.074 A 
ATOM     33  C   UNL A   1      40.799  26.880  28.177  1.00  0.00     0.049 A 
ATOM     34  N   UNL A   1      43.632  27.486  27.312  1.00  0.00    -0.248 NA
ATOM     35  C   UNL A   1      43.714  25.351  26.360  1.00  0.00     0.031 C 
ATOM     36  C   UNL A   1      39.456  26.607  28.689  1.00  0.00     0.029 A 
ATOM     37  N   UNL A   1      41.048  28.174  28.575  1.00  0.00    -0.354 N 
ATOM     38  C   UNL A   1      44.901  27.243  26.812  1.00  0.00     0.074 A 
ATOM     39  C   UNL A   1      44.914  25.896  26.292  1.00  0.00     0.031 C 
ATOM     40  C   UNL A   1      39.018  27.684  29.373  1.00  0.00     0.029 A 
ATOM     41  C   UNL A   1      40.059  28.711  29.373  1.00  0.00     0.049 A 
ATOM     42  H   UNL A   1      41.856  28.672  28.315  1.00  0.00     0.167 HD
ATOM     43  C   UNL A   1      45.972  28.066  26.784  1.00  0.00     0.034 A 
ATOM     44  C   UNL A   1      40.019  29.884  30.045  1.00  0.00     0.034 A 
ATOM     45  C   UNL A   1      45.961  29.397  27.308  1.00  0.00     0.049 A 
ATOM     46  C   UNL A   1      41.209  30.818  29.955  1.00  0.00     0.074 A 
ATOM     47  C   UNL A   1      46.968  30.341  27.281  1.00  0.00     0.029 A 
ATOM     48  N   UNL A   1      44.886  29.963  27.975  1.00  0.00    -0.354 N 
ATOM     49  N   UNL A   1      42.352  30.644  29.336  1.00  0.00    -0.248 NA
ATOM     50  C   UNL A   1      41.096  32.122  30.632  1.00  0.00     0.031 C 
ATOM     51  C   UNL A   1      46.506  31.477  27.952  1.00  0.00     0.029 A 
ATOM     52  C   UNL A   1      45.201  31.249  28.366  1.00  0.00     0.049 A 
ATOM     53  H   UNL A   1      44.025  29.515  28.146  1.00  0.00     0.167 HD
ATOM     54  C   UNL A   1      43.072  31.823  29.508  1.00  0.00     0.074 A 
ATOM     55  C   UNL A   1      42.234  32.712  30.287  1.00  0.00     0.031 C 
ATOM     56  C   UNL A   1      44.315  32.142  29.071  1.00  0.00     0.034 A 
BRANCH  43  57
ATOM     57  C   UNL A   1      47.218  27.504  26.166  1.00  0.00     0.023 A 
ATOM     58  C   UNL A   1      47.405  27.599  24.769  1.00  0.00     0.012 A 
ATOM     59  C   UNL A   1      48.149  26.796  26.945  1.00  0.00     0.148 A 
ATOM     60  C   UNL A   1      48.455  26.926  24.149  1.00  0.00     0.002 A 
ATOM     61  C   UNL A   1      49.227  26.176  26.325  1.00  0.00     0.091 A 
ATOM     62  F   UNL A   1      47.935  26.688  28.264  1.00  0.00    -0.205 F 
ATOM     63  C   UNL A   1      49.366  26.219  24.927  1.00  0.00     0.022 A 
BRANCH  61  64
ATOM     64  S   UNL A   1      50.496  25.308  27.248  1.00  0.00     0.127 S 
ATOM     65  O   UNL A   1      51.434  24.941  26.189  1.00  0.00    -0.237 OA
ATOM     66  O   UNL A   1      50.978  26.347  28.157  1.00  0.00    -0.237 OA
ATOM     67  O   UNL A   1      49.821  24.197  27.903  1.00  0.00    -0.744 OA
ENDBRANCH  61  64
ENDBRANCH  43  57
BRANCH  44  68
ATOM     68  C   UNL A   1      38.805  30.285  30.823  1.00  0.00     0.023 A 
ATOM     69  C   UNL A   1      38.680  29.868  32.164  1.00  0.00     0.012 A 
ATOM     70  C   UNL A   1      37.769  31.053  30.253  1.00  0.00     0.148 A 
ATOM     71  C   UNL A   1      37.540  30.172  32.909  1.00  0.00     0.002 A 
ATOM     72  C   UNL A   1      36.654  31.393  31.015  1.00  0.00     0.091 A 
ATOM     73  F   UNL A   1      37.894  31.436  28.974  1.00  0.00    -0.205 F 
ATOM     74  C   UNL A   1      36.530  30.939  32.338  1.00  0.00     0.022 A 
BRANCH  72  75
ATOM     75  S   UNL A   1      35.335  32.454  30.406  1.00  0.00     0.127 S 
ATOM     76  O   UNL A   1      36.059  33.682  30.087  1.00  0.00    -0.237 OA
ATOM     77  O   UNL A   1      34.859  31.701  29.245  1.00  0.00    -0.237 OA
ATOM     78  O   UNL A   1      34.375  32.561  31.495  1.00  0.00    -0.744 OA
ENDBRANCH  72  75
ENDBRANCH  44  68
BRANCH  56  79
ATOM     79  C   UNL A   1      44.849  33.523  29.345  1.00  0.00     0.023 A 
ATOM     80  C   UNL A   1      45.634  33.763  30.490  1.00  0.00     0.012 A 
ATOM     81  C   UNL A   1      44.719  34.531  28.368  1.00  0.00     0.148 A 
ATOM     82  C   UNL A   1      46.278  34.989  30.656  1.00  0.00     0.002 A 
ATOM     83  C   UNL A   1      45.405  35.728  28.516  1.00  0.00     0.091 A 
ATOM     84  F   UNL A   1      43.952  34.283  27.295  1.00  0.00    -0.205 F 
ATOM     85  C   UNL A   1      46.180  35.963  29.663  1.00  0.00     0.022 A 
BRANCH  83  86
ATOM     86  S   UNL A   1      45.436  36.984  27.231  1.00  0.00     0.127 S 
ATOM     87  O   UNL A   1      46.239  38.032  27.859  1.00  0.00    -0.237 OA
ATOM     88  O   UNL A   1      46.098  36.285  26.130  1.00  0.00    -0.237 OA
ATOM     89  O   UNL A   1      44.045  37.334  26.975  1.00  0.00    -0.744 OA
ENDBRANCH  83  86
ENDBRANCH  56  79
ENDBRANCH  30  31
ENDBRANCH  23  25
ENDBRANCH  22  23
ENDBRANCH   1  22
TORSDOF 15
ENDMDL
