MODEL 1
REMARK VINA RESULT:     -12.3      0.000      0.000
REMARK SMILES O=C(OCCOC(=O)c1ccc(-n2cc(CSc3nc4ccccc4c(=O)n3-c3ccccc3)nn2)cc1)c1ccc(-c2c3nc(c(-c4cccc(S(=O)(=O)[O-])c4F)c4ccc([nH]4)c(-c4cccc(S(=O)(=O)[O-])c4F)c4nc(c(-c5cccc(S(=O)(=O)[O-])c5F)c5ccc2[nH]5)C=C4)C=C3)cc1
REMARK SMILES IDX 5 1 4 2 3 3 2 4 1 5 39 6 40 7 101 8 41 9 100 10 42 11 43 12
REMARK SMILES IDX 44 13 94 14 45 15 99 16 93 17 95 18 46 19 98 20 92 21 91 22
REMARK SMILES IDX 47 24 79 25 59 26 78 27 60 28 63 29 77 30 96 31 61 32 62 33
REMARK SMILES IDX 76 35 97 36 64 37 48 38 49 39 57 40 50 41 52 42 58 43 51 44
REMARK SMILES IDX 53 45 54 46 55 47 56 48 80 49 81 50 89 51 82 52 84 53 90 54
REMARK SMILES IDX 83 55 85 56 86 57 87 58 88 59 65 60 66 61 74 62 67 63 69 64
REMARK SMILES IDX 75 65 68 66 70 67 71 68 72 69 73 70 6 71 7 72 8 73 9 74
REMARK SMILES IDX 10 75 38 76 11 77 37 78 12 79 13 80 14 81 36 82 15 83 35 84
REMARK SMILES IDX 16 85 17 86 18 87 19 88 28 89 20 90 26 91 21 92 25 93 27 94
REMARK SMILES IDX 22 95 24 96 23 97 29 98 30 99 34 100 31 101 33 102 32 103
REMARK H PARENT 95 23 63 34
REMARK Flexibility Score: inf
ROOT
ATOM      1  C   UNL A   1      41.798  20.204  26.598  1.00  0.00     0.275 C 
ENDROOT
BRANCH   1   2
ATOM      2  C   UNL A   1      43.036  20.842  25.969  1.00  0.00     0.275 C 
BRANCH   2   3
ATOM      3  O   UNL A   1      43.367  22.191  26.358  1.00  0.00    -0.458 OA
BRANCH   3   4
ATOM      4  C   UNL A   1      43.042  23.218  25.544  1.00  0.00     0.338 C 
ATOM      5  O   UNL A   1      42.829  23.096  24.349  1.00  0.00    -0.246 OA
BRANCH   4   6
ATOM      6  C   UNL A   1      42.717  24.453  26.297  1.00  0.00     0.060 A 
ATOM      7  C   UNL A   1      41.799  25.401  25.835  1.00  0.00     0.016 A 
ATOM      8  C   UNL A   1      43.360  24.647  27.526  1.00  0.00     0.016 A 
ATOM      9  C   UNL A   1      41.598  26.574  26.551  1.00  0.00     0.010 A 
ATOM     10  C   UNL A   1      43.132  25.803  28.259  1.00  0.00     0.010 A 
ATOM     11  C   UNL A   1      42.296  26.794  27.745  1.00  0.00    -0.014 A 
BRANCH  11  12
ATOM     12  C   UNL A   1      42.054  28.038  28.477  1.00  0.00     0.031 A 
ATOM     13  C   UNL A   1      42.981  29.158  28.130  1.00  0.00     0.074 A 
ATOM     14  C   UNL A   1      41.006  28.227  29.308  1.00  0.00     0.049 A 
ATOM     15  N   UNL A   1      43.882  29.712  28.875  1.00  0.00    -0.248 NA
ATOM     16  C   UNL A   1      42.993  29.623  26.737  1.00  0.00     0.031 C 
ATOM     17  C   UNL A   1      39.853  27.351  29.539  1.00  0.00     0.029 A 
ATOM     18  N   UNL A   1      40.692  29.328  30.048  1.00  0.00    -0.354 N 
ATOM     19  C   UNL A   1      44.424  30.748  28.109  1.00  0.00     0.074 A 
ATOM     20  C   UNL A   1      43.967  30.534  26.765  1.00  0.00     0.031 C 
ATOM     21  C   UNL A   1      38.865  28.054  30.139  1.00  0.00     0.029 A 
ATOM     22  C   UNL A   1      39.373  29.369  30.487  1.00  0.00     0.049 A 
ATOM     23  H   UNL A   1      41.346  30.035  30.253  1.00  0.00     0.167 HD
ATOM     24  C   UNL A   1      45.028  31.829  28.678  1.00  0.00     0.034 A 
ATOM     25  C   UNL A   1      38.734  30.425  31.050  1.00  0.00     0.034 A 
ATOM     26  C   UNL A   1      45.366  31.573  30.054  1.00  0.00     0.049 A 
ATOM     27  C   UNL A   1      39.779  31.335  31.571  1.00  0.00     0.074 A 
ATOM     28  C   UNL A   1      46.158  30.652  30.709  1.00  0.00     0.029 A 
ATOM     29  N   UNL A   1      44.523  32.090  31.006  1.00  0.00    -0.354 N 
ATOM     30  N   UNL A   1      40.579  31.018  32.549  1.00  0.00    -0.248 NA
ATOM     31  C   UNL A   1      40.228  32.414  30.708  1.00  0.00     0.031 C 
ATOM     32  C   UNL A   1      45.397  30.286  31.857  1.00  0.00     0.029 A 
ATOM     33  C   UNL A   1      44.244  31.074  31.878  1.00  0.00     0.049 A 
ATOM     34  H   UNL A   1      44.185  33.014  31.052  1.00  0.00     0.167 HD
ATOM     35  C   UNL A   1      41.810  31.517  32.153  1.00  0.00     0.074 A 
ATOM     36  C   UNL A   1      41.516  32.444  31.060  1.00  0.00     0.031 C 
ATOM     37  C   UNL A   1      42.972  30.920  32.545  1.00  0.00     0.034 A 
BRANCH  24  38
ATOM     38  C   UNL A   1      44.996  33.245  28.136  1.00  0.00     0.023 A 
ATOM     39  C   UNL A   1      43.723  33.788  27.834  1.00  0.00     0.012 A 
ATOM     40  C   UNL A   1      46.122  33.945  27.638  1.00  0.00     0.148 A 
ATOM     41  C   UNL A   1      43.574  34.911  27.015  1.00  0.00     0.002 A 
ATOM     42  C   UNL A   1      45.970  35.105  26.885  1.00  0.00     0.091 A 
ATOM     43  F   UNL A   1      47.345  33.430  27.770  1.00  0.00    -0.205 F 
ATOM     44  C   UNL A   1      44.698  35.571  26.540  1.00  0.00     0.022 A 
BRANCH  42  45
ATOM     45  S   UNL A   1      47.380  36.033  26.260  1.00  0.00     0.127 S 
ATOM     46  O   UNL A   1      46.719  37.127  25.555  1.00  0.00    -0.237 OA
ATOM     47  O   UNL A   1      48.057  36.416  27.500  1.00  0.00    -0.237 OA
ATOM     48  O   UNL A   1      48.138  35.106  25.429  1.00  0.00    -0.744 OA
ENDBRANCH  42  45
ENDBRANCH  24  38
BRANCH  25  49
ATOM     49  C   UNL A   1      37.320  30.859  30.945  1.00  0.00     0.023 A 
ATOM     50  C   UNL A   1      36.557  31.057  32.115  1.00  0.00     0.012 A 
ATOM     51  C   UNL A   1      36.820  31.374  29.729  1.00  0.00     0.148 A 
ATOM     52  C   UNL A   1      35.353  31.773  32.080  1.00  0.00     0.002 A 
ATOM     53  C   UNL A   1      35.623  32.086  29.700  1.00  0.00     0.091 A 
ATOM     54  F   UNL A   1      37.565  31.245  28.624  1.00  0.00    -0.205 F 
ATOM     55  C   UNL A   1      34.892  32.298  30.876  1.00  0.00     0.022 A 
BRANCH  53  56
ATOM     56  S   UNL A   1      34.982  32.828  28.192  1.00  0.00     0.127 S 
ATOM     57  O   UNL A   1      36.173  33.480  27.648  1.00  0.00    -0.237 OA
ATOM     58  O   UNL A   1      34.532  31.656  27.446  1.00  0.00    -0.237 OA
ATOM     59  O   UNL A   1      33.933  33.748  28.614  1.00  0.00    -0.744 OA
ENDBRANCH  53  56
ENDBRANCH  25  49
BRANCH  37  60
ATOM     60  C   UNL A   1      42.914  29.839  33.592  1.00  0.00     0.023 A 
ATOM     61  C   UNL A   1      42.669  28.485  33.280  1.00  0.00     0.012 A 
ATOM     62  C   UNL A   1      43.349  30.174  34.883  1.00  0.00     0.148 A 
ATOM     63  C   UNL A   1      42.856  27.488  34.243  1.00  0.00     0.002 A 
ATOM     64  C   UNL A   1      43.589  29.179  35.817  1.00  0.00     0.091 A 
ATOM     65  F   UNL A   1      43.572  31.469  35.157  1.00  0.00    -0.205 F 
ATOM     66  C   UNL A   1      43.335  27.833  35.506  1.00  0.00     0.022 A 
BRANCH  64  67
ATOM     67  S   UNL A   1      44.354  29.550  37.395  1.00  0.00     0.127 S 
ATOM     68  O   UNL A   1      43.391  30.474  37.991  1.00  0.00    -0.237 OA
ATOM     69  O   UNL A   1      44.414  28.233  38.031  1.00  0.00    -0.237 OA
ATOM     70  O   UNL A   1      45.660  30.120  37.087  1.00  0.00    -0.744 OA
ENDBRANCH  64  67
ENDBRANCH  37  60
ENDBRANCH  11  12
ENDBRANCH   4   6
ENDBRANCH   3   4
ENDBRANCH   2   3
ENDBRANCH   1   2
BRANCH   1  71
ATOM     71  O   UNL A   1      40.609  20.799  26.057  1.00  0.00    -0.458 OA
BRANCH  71  72
ATOM     72  C   UNL A   1      40.026  21.765  26.809  1.00  0.00     0.338 C 
ATOM     73  O   UNL A   1      40.406  22.218  27.878  1.00  0.00    -0.246 OA
BRANCH  72  74
ATOM     74  C   UNL A   1      38.841  22.228  26.076  1.00  0.00     0.060 A 
ATOM     75  C   UNL A   1      38.177  21.359  25.202  1.00  0.00     0.018 A 
ATOM     76  C   UNL A   1      38.376  23.528  26.290  1.00  0.00     0.018 A 
ATOM     77  C   UNL A   1      37.021  21.786  24.542  1.00  0.00     0.029 A 
ATOM     78  C   UNL A   1      37.210  23.945  25.660  1.00  0.00     0.029 A 
ATOM     79  C   UNL A   1      36.538  23.076  24.784  1.00  0.00     0.066 A 
BRANCH  79  80
ATOM     80  N   UNL A   1      35.398  23.562  24.113  1.00  0.00    -0.220 N 
ATOM     81  C   UNL A   1      34.241  24.057  24.674  1.00  0.00     0.141 A 
ATOM     82  N   UNL A   1      35.223  23.358  22.798  1.00  0.00    -0.062 NA
ATOM     83  C   UNL A   1      33.316  24.058  23.654  1.00  0.00     0.093 A 
ATOM     84  N   UNL A   1      33.994  23.728  22.494  1.00  0.00    -0.134 NA
BRANCH  83  85
ATOM     85  C   UNL A   1      31.837  24.136  23.507  1.00  0.00     0.138 C 
BRANCH  85  86
ATOM     86  S   UNL A   1      30.605  25.007  24.462  1.00  0.00    -0.081 SA
BRANCH  86  87
ATOM     87  C   UNL A   1      30.379  26.673  24.048  1.00  0.00     0.176 A 
ATOM     88  N   UNL A   1      29.183  26.905  23.589  1.00  0.00    -0.223 NA
ATOM     89  N   UNL A   1      31.298  27.696  24.228  1.00  0.00    -0.255 N 
ATOM     90  C   UNL A   1      28.890  28.172  23.082  1.00  0.00     0.079 A 
ATOM     91  C   UNL A   1      31.247  28.687  23.232  1.00  0.00     0.266 A 
ATOM     92  C   UNL A   1      27.578  28.566  22.827  1.00  0.00     0.029 A 
ATOM     93  C   UNL A   1      29.920  29.015  22.703  1.00  0.00     0.066 A 
ATOM     94  O   UNL A   1      32.208  29.291  22.755  1.00  0.00    -0.268 OA
ATOM     95  C   UNL A   1      27.322  29.751  22.126  1.00  0.00     0.002 A 
ATOM     96  C   UNL A   1      29.690  30.160  21.937  1.00  0.00     0.016 A 
ATOM     97  C   UNL A   1      28.380  30.522  21.639  1.00  0.00     0.001 A 
BRANCH  89  98
ATOM     98  C   UNL A   1      32.345  27.782  25.238  1.00  0.00     0.051 A 
ATOM     99  C   UNL A   1      32.008  28.079  26.573  1.00  0.00     0.027 A 
ATOM    100  C   UNL A   1      33.709  27.598  24.994  1.00  0.00     0.027 A 
ATOM    101  C   UNL A   1      32.967  28.428  27.526  1.00  0.00     0.002 A 
ATOM    102  C   UNL A   1      34.680  28.002  25.920  1.00  0.00     0.002 A 
ATOM    103  C   UNL A   1      34.306  28.456  27.175  1.00  0.00     0.000 A 
ENDBRANCH  89  98
ENDBRANCH  86  87
ENDBRANCH  85  86
ENDBRANCH  83  85
ENDBRANCH  79  80
ENDBRANCH  72  74
ENDBRANCH  71  72
ENDBRANCH   1  71
TORSDOF 19
ENDMDL
MODEL 2
REMARK VINA RESULT:     -12.3      2.904      3.835
REMARK SMILES O=C(OCCOC(=O)c1ccc(-n2cc(CSc3nc4ccccc4c(=O)n3-c3ccccc3)nn2)cc1)c1ccc(-c2c3nc(c(-c4cccc(S(=O)(=O)[O-])c4F)c4ccc([nH]4)c(-c4cccc(S(=O)(=O)[O-])c4F)c4nc(c(-c5cccc(S(=O)(=O)[O-])c5F)c5ccc2[nH]5)C=C4)C=C3)cc1
REMARK SMILES IDX 5 1 4 2 3 3 2 4 1 5 39 6 40 7 101 8 41 9 100 10 42 11 43 12
REMARK SMILES IDX 44 13 94 14 45 15 99 16 93 17 95 18 46 19 98 20 92 21 91 22
REMARK SMILES IDX 47 24 79 25 59 26 78 27 60 28 63 29 77 30 96 31 61 32 62 33
REMARK SMILES IDX 76 35 97 36 64 37 48 38 49 39 57 40 50 41 52 42 58 43 51 44
REMARK SMILES IDX 53 45 54 46 55 47 56 48 80 49 81 50 89 51 82 52 84 53 90 54
REMARK SMILES IDX 83 55 85 56 86 57 87 58 88 59 65 60 66 61 74 62 67 63 69 64
REMARK SMILES IDX 75 65 68 66 70 67 71 68 72 69 73 70 6 71 7 72 8 73 9 74
REMARK SMILES IDX 10 75 38 76 11 77 37 78 12 79 13 80 14 81 36 82 15 83 35 84
REMARK SMILES IDX 16 85 17 86 18 87 19 88 28 89 20 90 26 91 21 92 25 93 27 94
REMARK SMILES IDX 22 95 24 96 23 97 29 98 30 99 34 100 31 101 33 102 32 103
REMARK H PARENT 95 23 63 34
REMARK Flexibility Score: inf
ROOT
ATOM      1  C   UNL A   1      42.035  18.755  26.605  1.00  0.00     0.275 C 
ENDROOT
BRANCH   1   2
ATOM      2  C   UNL A   1      43.365  18.682  25.856  1.00  0.00     0.275 C 
BRANCH   2   3
ATOM      3  O   UNL A   1      43.420  19.243  24.529  1.00  0.00    -0.458 OA
BRANCH   3   4
ATOM      4  C   UNL A   1      44.475  20.008  24.172  1.00  0.00     0.338 C 
ATOM      5  O   UNL A   1      45.181  19.781  23.203  1.00  0.00    -0.246 OA
BRANCH   4   6
ATOM      6  C   UNL A   1      44.523  21.287  24.920  1.00  0.00     0.060 A 
ATOM      7  C   UNL A   1      45.577  21.622  25.776  1.00  0.00     0.016 A 
ATOM      8  C   UNL A   1      43.465  22.184  24.734  1.00  0.00     0.016 A 
ATOM      9  C   UNL A   1      45.524  22.801  26.507  1.00  0.00     0.010 A 
ATOM     10  C   UNL A   1      43.430  23.379  25.438  1.00  0.00     0.010 A 
ATOM     11  C   UNL A   1      44.428  23.662  26.369  1.00  0.00    -0.014 A 
BRANCH  11  12
ATOM     12  C   UNL A   1      44.409  24.899  27.151  1.00  0.00     0.031 A 
ATOM     13  C   UNL A   1      45.550  25.826  26.884  1.00  0.00     0.074 A 
ATOM     14  C   UNL A   1      43.388  25.259  27.960  1.00  0.00     0.049 A 
ATOM     15  N   UNL A   1      46.514  26.160  27.679  1.00  0.00    -0.248 NA
ATOM     16  C   UNL A   1      45.705  26.335  25.516  1.00  0.00     0.031 C 
ATOM     17  C   UNL A   1      42.077  24.620  28.117  1.00  0.00     0.029 A 
ATOM     18  N   UNL A   1      43.270  26.369  28.741  1.00  0.00    -0.354 N 
ATOM     19  C   UNL A   1      47.278  27.098  26.979  1.00  0.00     0.074 A 
ATOM     20  C   UNL A   1      46.839  27.033  25.614  1.00  0.00     0.031 C 
ATOM     21  C   UNL A   1      41.225  25.482  28.720  1.00  0.00     0.029 A 
ATOM     22  C   UNL A   1      41.969  26.654  29.144  1.00  0.00     0.049 A 
ATOM     23  H   UNL A   1      44.042  26.924  28.998  1.00  0.00     0.167 HD
ATOM     24  C   UNL A   1      48.062  28.013  27.615  1.00  0.00     0.034 A 
ATOM     25  C   UNL A   1      41.531  27.793  29.738  1.00  0.00     0.034 A 
ATOM     26  C   UNL A   1      48.291  27.639  28.986  1.00  0.00     0.049 A 
ATOM     27  C   UNL A   1      42.714  28.455  30.330  1.00  0.00     0.074 A 
ATOM     28  C   UNL A   1      48.861  26.554  29.620  1.00  0.00     0.029 A 
ATOM     29  N   UNL A   1      47.532  28.275  29.937  1.00  0.00    -0.354 N 
ATOM     30  N   UNL A   1      43.399  27.946  31.316  1.00  0.00    -0.248 NA
ATOM     31  C   UNL A   1      43.399  29.457  29.532  1.00  0.00     0.031 C 
ATOM     32  C   UNL A   1      48.000  26.300  30.728  1.00  0.00     0.029 A 
ATOM     33  C   UNL A   1      47.026  27.301  30.753  1.00  0.00     0.049 A 
ATOM     34  H   UNL A   1      47.380  29.245  30.017  1.00  0.00     0.167 HD
ATOM     35  C   UNL A   1      44.718  28.206  30.978  1.00  0.00     0.074 A 
ATOM     36  C   UNL A   1      44.654  29.217  29.922  1.00  0.00     0.031 C 
ATOM     37  C   UNL A   1      45.725  27.375  31.375  1.00  0.00     0.034 A 
BRANCH  24  38
ATOM     38  C   UNL A   1      48.330  29.428  27.140  1.00  0.00     0.023 A 
ATOM     39  C   UNL A   1      49.670  29.883  27.202  1.00  0.00     0.012 A 
ATOM     40  C   UNL A   1      47.333  30.410  26.925  1.00  0.00     0.148 A 
ATOM     41  C   UNL A   1      49.993  31.242  27.139  1.00  0.00     0.002 A 
ATOM     42  C   UNL A   1      47.667  31.754  26.789  1.00  0.00     0.091 A 
ATOM     43  F   UNL A   1      46.042  30.080  26.983  1.00  0.00    -0.205 F 
ATOM     44  C   UNL A   1      48.991  32.179  26.932  1.00  0.00     0.022 A 
BRANCH  42  45
ATOM     45  S   UNL A   1      46.427  33.024  26.489  1.00  0.00     0.127 S 
ATOM     46  O   UNL A   1      47.234  34.083  25.890  1.00  0.00    -0.237 OA
ATOM     47  O   UNL A   1      45.521  32.340  25.564  1.00  0.00    -0.237 OA
ATOM     48  O   UNL A   1      45.838  33.329  27.786  1.00  0.00    -0.744 OA
ENDBRANCH  42  45
ENDBRANCH  24  38
BRANCH  25  49
ATOM     49  C   UNL A   1      40.235  28.502  29.613  1.00  0.00     0.023 A 
ATOM     50  C   UNL A   1      39.559  28.521  28.375  1.00  0.00     0.012 A 
ATOM     51  C   UNL A   1      39.519  28.889  30.768  1.00  0.00     0.148 A 
ATOM     52  C   UNL A   1      38.208  28.879  28.294  1.00  0.00     0.002 A 
ATOM     53  C   UNL A   1      38.175  29.244  30.682  1.00  0.00     0.091 A 
ATOM     54  F   UNL A   1      40.132  28.818  31.956  1.00  0.00    -0.205 F 
ATOM     55  C   UNL A   1      37.512  29.229  29.448  1.00  0.00     0.022 A 
BRANCH  53  56
ATOM     56  S   UNL A   1      37.198  29.669  32.131  1.00  0.00     0.127 S 
ATOM     57  O   UNL A   1      37.922  30.828  32.652  1.00  0.00    -0.237 OA
ATOM     58  O   UNL A   1      35.898  29.975  31.541  1.00  0.00    -0.237 OA
ATOM     59  O   UNL A   1      37.237  28.497  32.997  1.00  0.00    -0.744 OA
ENDBRANCH  53  56
ENDBRANCH  25  49
BRANCH  37  60
ATOM     60  C   UNL A   1      45.415  26.286  32.368  1.00  0.00     0.023 A 
ATOM     61  C   UNL A   1      44.986  24.999  31.981  1.00  0.00     0.012 A 
ATOM     62  C   UNL A   1      45.795  26.507  33.700  1.00  0.00     0.148 A 
ATOM     63  C   UNL A   1      44.937  23.956  32.912  1.00  0.00     0.002 A 
ATOM     64  C   UNL A   1      45.802  25.458  34.605  1.00  0.00     0.091 A 
ATOM     65  F   UNL A   1      46.197  27.741  34.044  1.00  0.00    -0.205 F 
ATOM     66  C   UNL A   1      45.365  24.180  34.220  1.00  0.00     0.022 A 
BRANCH  64  67
ATOM     67  S   UNL A   1      46.490  25.654  36.250  1.00  0.00     0.127 S 
ATOM     68  O   UNL A   1      45.553  26.594  36.862  1.00  0.00    -0.237 OA
ATOM     69  O   UNL A   1      46.426  24.291  36.780  1.00  0.00    -0.237 OA
ATOM     70  O   UNL A   1      47.847  26.154  36.063  1.00  0.00    -0.744 OA
ENDBRANCH  64  67
ENDBRANCH  37  60
ENDBRANCH  11  12
ENDBRANCH   4   6
ENDBRANCH   3   4
ENDBRANCH   2   3
ENDBRANCH   1   2
BRANCH   1  71
ATOM     71  O   UNL A   1      41.117  19.599  25.894  1.00  0.00    -0.458 OA
BRANCH  71  72
ATOM     72  C   UNL A   1      40.706  20.718  26.541  1.00  0.00     0.338 C 
ATOM     73  O   UNL A   1      41.299  21.347  27.405  1.00  0.00    -0.246 OA
BRANCH  72  74
ATOM     74  C   UNL A   1      39.403  21.091  25.976  1.00  0.00     0.060 A 
ATOM     75  C   UNL A   1      38.638  20.136  25.296  1.00  0.00     0.018 A 
ATOM     76  C   UNL A   1      38.934  22.394  26.157  1.00  0.00     0.018 A 
ATOM     77  C   UNL A   1      37.377  20.479  24.802  1.00  0.00     0.029 A 
ATOM     78  C   UNL A   1      37.667  22.730  25.694  1.00  0.00     0.029 A 
ATOM     79  C   UNL A   1      36.894  21.775  25.014  1.00  0.00     0.066 A 
BRANCH  79  80
ATOM     80  N   UNL A   1      35.644  22.177  24.501  1.00  0.00    -0.220 N 
ATOM     81  C   UNL A   1      35.337  23.365  23.874  1.00  0.00     0.141 A 
ATOM     82  N   UNL A   1      34.520  21.509  24.802  1.00  0.00    -0.062 NA
ATOM     83  C   UNL A   1      33.962  23.436  23.889  1.00  0.00     0.093 A 
ATOM     84  N   UNL A   1      33.499  22.223  24.366  1.00  0.00    -0.134 NA
BRANCH  83  85
ATOM     85  C   UNL A   1      32.910  24.474  23.711  1.00  0.00     0.138 C 
BRANCH  85  86
ATOM     86  S   UNL A   1      31.398  24.780  24.611  1.00  0.00    -0.081 SA
BRANCH  86  87
ATOM     87  C   UNL A   1      30.708  26.354  24.400  1.00  0.00     0.176 A 
ATOM     88  N   UNL A   1      29.456  26.297  24.051  1.00  0.00    -0.223 NA
ATOM     89  N   UNL A   1      31.343  27.566  24.630  1.00  0.00    -0.255 N 
ATOM     90  C   UNL A   1      28.797  27.479  23.709  1.00  0.00     0.079 A 
ATOM     91  C   UNL A   1      30.942  28.591  23.755  1.00  0.00     0.266 A 
ATOM     92  C   UNL A   1      27.409  27.527  23.589  1.00  0.00     0.029 A 
ATOM     93  C   UNL A   1      29.532  28.597  23.357  1.00  0.00     0.066 A 
ATOM     94  O   UNL A   1      31.664  29.471  23.285  1.00  0.00    -0.268 OA
ATOM     95  C   UNL A   1      26.790  28.658  23.041  1.00  0.00     0.002 A 
ATOM     96  C   UNL A   1      28.941  29.702  22.740  1.00  0.00     0.016 A 
ATOM     97  C   UNL A   1      27.560  29.725  22.573  1.00  0.00     0.001 A 
BRANCH  89  98
ATOM     98  C   UNL A   1      32.422  27.839  25.570  1.00  0.00     0.051 A 
ATOM     99  C   UNL A   1      32.121  28.304  26.865  1.00  0.00     0.027 A 
ATOM    100  C   UNL A   1      33.783  27.685  25.292  1.00  0.00     0.027 A 
ATOM    101  C   UNL A   1      33.098  28.825  27.718  1.00  0.00     0.002 A 
ATOM    102  C   UNL A   1      34.767  28.257  26.110  1.00  0.00     0.002 A 
ATOM    103  C   UNL A   1      34.419  28.864  27.306  1.00  0.00     0.000 A 
ENDBRANCH  89  98
ENDBRANCH  86  87
ENDBRANCH  85  86
ENDBRANCH  83  85
ENDBRANCH  79  80
ENDBRANCH  72  74
ENDBRANCH  71  72
ENDBRANCH   1  71
TORSDOF 19
ENDMDL
MODEL 3
REMARK VINA RESULT:     -12.2      3.080      8.693
REMARK SMILES O=C(OCCOC(=O)c1ccc(-n2cc(CSc3nc4ccccc4c(=O)n3-c3ccccc3)nn2)cc1)c1ccc(-c2c3nc(c(-c4cccc(S(=O)(=O)[O-])c4F)c4ccc([nH]4)c(-c4cccc(S(=O)(=O)[O-])c4F)c4nc(c(-c5cccc(S(=O)(=O)[O-])c5F)c5ccc2[nH]5)C=C4)C=C3)cc1
REMARK SMILES IDX 5 1 4 2 3 3 2 4 1 5 39 6 40 7 101 8 41 9 100 10 42 11 43 12
REMARK SMILES IDX 44 13 94 14 45 15 99 16 93 17 95 18 46 19 98 20 92 21 91 22
REMARK SMILES IDX 47 24 79 25 59 26 78 27 60 28 63 29 77 30 96 31 61 32 62 33
REMARK SMILES IDX 76 35 97 36 64 37 48 38 49 39 57 40 50 41 52 42 58 43 51 44
REMARK SMILES IDX 53 45 54 46 55 47 56 48 80 49 81 50 89 51 82 52 84 53 90 54
REMARK SMILES IDX 83 55 85 56 86 57 87 58 88 59 65 60 66 61 74 62 67 63 69 64
REMARK SMILES IDX 75 65 68 66 70 67 71 68 72 69 73 70 6 71 7 72 8 73 9 74
REMARK SMILES IDX 10 75 38 76 11 77 37 78 12 79 13 80 14 81 36 82 15 83 35 84
REMARK SMILES IDX 16 85 17 86 18 87 19 88 28 89 20 90 26 91 21 92 25 93 27 94
REMARK SMILES IDX 22 95 24 96 23 97 29 98 30 99 34 100 31 101 33 102 32 103
REMARK H PARENT 95 23 63 34
REMARK Flexibility Score: inf
ROOT
ATOM      1  C   UNL A   1      32.402  32.473  28.014  1.00  0.00     0.275 C 
ENDROOT
BRANCH   1   2
ATOM      2  C   UNL A   1      32.264  33.855  27.379  1.00  0.00     0.275 C 
BRANCH   2   3
ATOM      3  O   UNL A   1      32.727  34.992  28.136  1.00  0.00    -0.458 OA
BRANCH   3   4
ATOM      4  C   UNL A   1      33.136  34.820  29.412  1.00  0.00     0.338 C 
ATOM      5  O   UNL A   1      32.401  34.925  30.381  1.00  0.00    -0.246 OA
BRANCH   4   6
ATOM      6  C   UNL A   1      34.497  34.238  29.494  1.00  0.00     0.060 A 
ATOM      7  C   UNL A   1      35.463  34.433  28.502  1.00  0.00     0.016 A 
ATOM      8  C   UNL A   1      34.807  33.478  30.628  1.00  0.00     0.016 A 
ATOM      9  C   UNL A   1      36.693  33.796  28.602  1.00  0.00     0.010 A 
ATOM     10  C   UNL A   1      36.049  32.871  30.745  1.00  0.00     0.010 A 
ATOM     11  C   UNL A   1      36.972  32.980  29.705  1.00  0.00    -0.014 A 
BRANCH  11  12
ATOM     12  C   UNL A   1      38.281  32.330  29.780  1.00  0.00     0.031 A 
ATOM     13  C   UNL A   1      38.313  30.928  29.264  1.00  0.00     0.074 A 
ATOM     14  C   UNL A   1      39.412  32.963  30.161  1.00  0.00     0.049 A 
ATOM     15  N   UNL A   1      38.509  29.834  29.926  1.00  0.00    -0.248 NA
ATOM     16  C   UNL A   1      37.950  30.714  27.857  1.00  0.00     0.031 C 
ATOM     17  C   UNL A   1      39.616  34.393  30.418  1.00  0.00     0.029 A 
ATOM     18  N   UNL A   1      40.672  32.459  30.282  1.00  0.00    -0.354 N 
ATOM     19  C   UNL A   1      38.511  28.808  28.977  1.00  0.00     0.074 A 
ATOM     20  C   UNL A   1      37.995  29.383  27.767  1.00  0.00     0.031 C 
ATOM     21  C   UNL A   1      40.941  34.669  30.402  1.00  0.00     0.029 A 
ATOM     22  C   UNL A   1      41.677  33.421  30.307  1.00  0.00     0.049 A 
ATOM     23  H   UNL A   1      40.855  31.494  30.345  1.00  0.00     0.167 HD
ATOM     24  C   UNL A   1      39.142  27.621  29.195  1.00  0.00     0.034 A 
ATOM     25  C   UNL A   1      43.013  33.206  30.208  1.00  0.00     0.034 A 
ATOM     26  C   UNL A   1      39.432  27.434  30.593  1.00  0.00     0.049 A 
ATOM     27  C   UNL A   1      43.252  31.791  30.568  1.00  0.00     0.074 A 
ATOM     28  C   UNL A   1      38.676  27.366  31.745  1.00  0.00     0.029 A 
ATOM     29  N   UNL A   1      40.717  27.693  30.999  1.00  0.00    -0.354 N 
ATOM     30  N   UNL A   1      43.044  31.312  31.762  1.00  0.00    -0.248 NA
ATOM     31  C   UNL A   1      43.289  30.816  29.491  1.00  0.00     0.031 C 
ATOM     32  C   UNL A   1      39.426  28.110  32.703  1.00  0.00     0.029 A 
ATOM     33  C   UNL A   1      40.626  28.497  32.103  1.00  0.00     0.049 A 
ATOM     34  H   UNL A   1      41.544  27.366  30.578  1.00  0.00     0.167 HD
ATOM     35  C   UNL A   1      42.466  30.073  31.532  1.00  0.00     0.074 A 
ATOM     36  C   UNL A   1      42.727  29.782  30.122  1.00  0.00     0.031 C 
ATOM     37  C   UNL A   1      41.583  29.531  32.420  1.00  0.00     0.034 A 
BRANCH  24  38
ATOM     38  C   UNL A   1      39.835  26.782  28.139  1.00  0.00     0.023 A 
ATOM     39  C   UNL A   1      39.595  25.386  28.169  1.00  0.00     0.012 A 
ATOM     40  C   UNL A   1      40.909  27.227  27.332  1.00  0.00     0.148 A 
ATOM     41  C   UNL A   1      40.425  24.479  27.503  1.00  0.00     0.002 A 
ATOM     42  C   UNL A   1      41.687  26.325  26.611  1.00  0.00     0.091 A 
ATOM     43  F   UNL A   1      41.279  28.508  27.352  1.00  0.00    -0.205 F 
ATOM     44  C   UNL A   1      41.473  24.949  26.723  1.00  0.00     0.022 A 
BRANCH  42  45
ATOM     45  S   UNL A   1      43.044  26.860  25.555  1.00  0.00     0.127 S 
ATOM     46  O   UNL A   1      43.450  25.599  24.943  1.00  0.00    -0.237 OA
ATOM     47  O   UNL A   1      42.367  27.795  24.654  1.00  0.00    -0.237 OA
ATOM     48  O   UNL A   1      44.021  27.484  26.437  1.00  0.00    -0.744 OA
ENDBRANCH  42  45
ENDBRANCH  24  38
BRANCH  25  49
ATOM     49  C   UNL A   1      44.072  34.027  29.573  1.00  0.00     0.023 A 
ATOM     50  C   UNL A   1      44.963  34.769  30.376  1.00  0.00     0.012 A 
ATOM     51  C   UNL A   1      44.403  33.838  28.213  1.00  0.00     0.148 A 
ATOM     52  C   UNL A   1      46.159  35.277  29.852  1.00  0.00     0.002 A 
ATOM     53  C   UNL A   1      45.593  34.344  27.696  1.00  0.00     0.091 A 
ATOM     54  F   UNL A   1      43.595  33.084  27.456  1.00  0.00    -0.205 F 
ATOM     55  C   UNL A   1      46.480  35.055  28.515  1.00  0.00     0.022 A 
BRANCH  53  56
ATOM     56  S   UNL A   1      46.097  34.065  25.992  1.00  0.00     0.127 S 
ATOM     57  O   UNL A   1      47.346  34.823  25.920  1.00  0.00    -0.237 OA
ATOM     58  O   UNL A   1      46.259  32.615  25.958  1.00  0.00    -0.237 OA
ATOM     59  O   UNL A   1      45.021  34.599  25.165  1.00  0.00    -0.744 OA
ENDBRANCH  53  56
ENDBRANCH  25  49
BRANCH  37  60
ATOM     60  C   UNL A   1      41.404  30.194  33.759  1.00  0.00     0.023 A 
ATOM     61  C   UNL A   1      42.299  30.004  34.833  1.00  0.00     0.012 A 
ATOM     62  C   UNL A   1      40.440  31.210  33.847  1.00  0.00     0.148 A 
ATOM     63  C   UNL A   1      42.229  30.814  35.971  1.00  0.00     0.002 A 
ATOM     64  C   UNL A   1      40.411  32.048  34.950  1.00  0.00     0.091 A 
ATOM     65  F   UNL A   1      39.598  31.371  32.815  1.00  0.00    -0.205 F 
ATOM     66  C   UNL A   1      41.297  31.850  36.021  1.00  0.00     0.022 A 
BRANCH  64  67
ATOM     67  S   UNL A   1      39.344  33.489  34.994  1.00  0.00     0.127 S 
ATOM     68  O   UNL A   1      39.647  34.053  36.308  1.00  0.00    -0.237 OA
ATOM     69  O   UNL A   1      39.835  34.276  33.862  1.00  0.00    -0.237 OA
ATOM     70  O   UNL A   1      37.984  32.990  34.825  1.00  0.00    -0.744 OA
ENDBRANCH  64  67
ENDBRANCH  37  60
ENDBRANCH  11  12
ENDBRANCH   4   6
ENDBRANCH   3   4
ENDBRANCH   2   3
ENDBRANCH   1   2
BRANCH   1  71
ATOM     71  O   UNL A   1      32.577  31.478  26.994  1.00  0.00    -0.458 OA
BRANCH  71  72
ATOM     72  C   UNL A   1      33.658  30.670  27.123  1.00  0.00     0.338 C 
ATOM     73  O   UNL A   1      34.807  30.988  27.390  1.00  0.00    -0.246 OA
BRANCH  72  74
ATOM     74  C   UNL A   1      33.192  29.290  26.931  1.00  0.00     0.060 A 
ATOM     75  C   UNL A   1      34.062  28.329  26.402  1.00  0.00     0.018 A 
ATOM     76  C   UNL A   1      31.892  28.954  27.312  1.00  0.00     0.018 A 
ATOM     77  C   UNL A   1      33.634  27.006  26.265  1.00  0.00     0.029 A 
ATOM     78  C   UNL A   1      31.474  27.632  27.207  1.00  0.00     0.029 A 
ATOM     79  C   UNL A   1      32.342  26.663  26.679  1.00  0.00     0.066 A 
BRANCH  79  80
ATOM     80  N   UNL A   1      31.855  25.349  26.525  1.00  0.00    -0.220 N 
ATOM     81  C   UNL A   1      32.533  24.254  26.036  1.00  0.00     0.141 A 
ATOM     82  N   UNL A   1      30.544  25.076  26.620  1.00  0.00    -0.062 NA
ATOM     83  C   UNL A   1      31.559  23.325  25.747  1.00  0.00     0.093 A 
ATOM     84  N   UNL A   1      30.363  23.830  26.227  1.00  0.00    -0.134 NA
BRANCH  83  85
ATOM     85  C   UNL A   1      31.427  22.080  24.942  1.00  0.00     0.138 C 
BRANCH  85  86
ATOM     86  S   UNL A   1      32.649  20.897  24.399  1.00  0.00    -0.081 SA
BRANCH  86  87
ATOM     87  C   UNL A   1      34.289  21.451  24.425  1.00  0.00     0.176 A 
ATOM     88  N   UNL A   1      35.119  20.510  24.772  1.00  0.00    -0.223 NA
ATOM     89  N   UNL A   1      34.735  22.713  24.061  1.00  0.00    -0.255 N 
ATOM     90  C   UNL A   1      36.461  20.835  24.973  1.00  0.00     0.079 A 
ATOM     91  C   UNL A   1      35.836  23.164  24.810  1.00  0.00     0.266 A 
ATOM     92  C   UNL A   1      37.439  19.848  25.081  1.00  0.00     0.029 A 
ATOM     93  C   UNL A   1      36.822  22.151  25.199  1.00  0.00     0.066 A 
ATOM     94  O   UNL A   1      36.041  24.321  25.181  1.00  0.00    -0.268 OA
ATOM     95  C   UNL A   1      38.735  20.182  25.492  1.00  0.00     0.002 A 
ATOM     96  C   UNL A   1      38.086  22.496  25.683  1.00  0.00     0.016 A 
ATOM     97  C   UNL A   1      39.045  21.499  25.839  1.00  0.00     0.001 A 
BRANCH  89  98
ATOM     98  C   UNL A   1      34.130  23.626  23.101  1.00  0.00     0.051 A 
ATOM     99  C   UNL A   1      34.219  25.017  23.304  1.00  0.00     0.027 A 
ATOM    100  C   UNL A   1      33.433  23.234  21.954  1.00  0.00     0.027 A 
ATOM    101  C   UNL A   1      33.452  25.930  22.575  1.00  0.00     0.002 A 
ATOM    102  C   UNL A   1      32.613  24.129  21.253  1.00  0.00     0.002 A 
ATOM    103  C   UNL A   1      32.592  25.473  21.591  1.00  0.00     0.000 A 
ENDBRANCH  89  98
ENDBRANCH  86  87
ENDBRANCH  85  86
ENDBRANCH  83  85
ENDBRANCH  79  80
ENDBRANCH  72  74
ENDBRANCH  71  72
ENDBRANCH   1  71
TORSDOF 19
ENDMDL
