MODEL 1
REMARK VINA RESULT:     -12.1      0.000      0.000
REMARK SMILES O=C(OCCOC(=O)c1cc(S(=O)(=O)Nc2ccccc2-n2cc(Br)cn2)c[nH]1)c1ccc(-c2c3nc(c(-c4cccc(S(=O)(=O)[O-])c4F)c4ccc([nH]4)c(-c4cccc(S(=O)(=O)[O-])c4F)c4nc(c(-c5cccc(S(=O)(=O)[O-])c5F)c5ccc2[nH]5)C=C4)C=C3)cc1
REMARK SMILES IDX 5 1 4 2 3 3 2 4 1 5 30 6 31 7 92 8 32 9 91 10 33 11 34 12
REMARK SMILES IDX 35 13 85 14 36 15 90 16 84 17 86 18 37 19 89 20 83 21 82 22
REMARK SMILES IDX 38 24 70 25 50 26 69 27 51 28 54 29 68 30 87 31 52 32 53 33
REMARK SMILES IDX 67 35 88 36 55 37 39 38 40 39 48 40 41 41 43 42 49 43 42 44
REMARK SMILES IDX 44 45 45 46 46 47 47 48 71 49 72 50 80 51 73 52 75 53 81 54
REMARK SMILES IDX 74 55 76 56 77 57 78 58 79 59 56 60 57 61 65 62 58 63 60 64
REMARK SMILES IDX 66 65 59 66 61 67 62 68 63 69 64 70 6 71 7 72 8 73 9 74
REMARK SMILES IDX 10 75 29 76 11 77 28 78 12 80 13 81 14 82 15 83 16 85 17 86
REMARK SMILES IDX 21 87 18 88 20 89 19 90 22 91 23 92 27 93 24 94 26 95 25 96
REMARK H PARENT 86 23 54 34 29 79 15 84
REMARK Flexibility Score: inf
ROOT
ATOM      1  C   UNL A   1      33.122  29.968  26.858  1.00  0.00     0.275 C 
ENDROOT
BRANCH   1   2
ATOM      2  C   UNL A   1      34.250  29.140  27.490  1.00  0.00     0.275 C 
BRANCH   2   3
ATOM      3  O   UNL A   1      35.144  29.942  28.281  1.00  0.00    -0.458 OA
BRANCH   3   4
ATOM      4  C   UNL A   1      36.367  30.407  27.925  1.00  0.00     0.338 C 
ATOM      5  O   UNL A   1      36.493  31.583  27.592  1.00  0.00    -0.246 OA
BRANCH   4   6
ATOM      6  C   UNL A   1      37.592  29.576  28.084  1.00  0.00     0.060 A 
ATOM      7  C   UNL A   1      38.716  29.613  27.250  1.00  0.00     0.016 A 
ATOM      8  C   UNL A   1      37.626  28.760  29.226  1.00  0.00     0.016 A 
ATOM      9  C   UNL A   1      39.817  28.802  27.500  1.00  0.00     0.010 A 
ATOM     10  C   UNL A   1      38.737  27.971  29.502  1.00  0.00     0.010 A 
ATOM     11  C   UNL A   1      39.831  27.991  28.634  1.00  0.00    -0.014 A 
BRANCH  11  12
ATOM     12  C   UNL A   1      41.083  27.293  28.990  1.00  0.00     0.031 A 
ATOM     13  C   UNL A   1      41.092  25.826  28.513  1.00  0.00     0.074 A 
ATOM     14  C   UNL A   1      42.008  28.036  29.670  1.00  0.00     0.049 A 
ATOM     15  N   UNL A   1      41.774  24.811  28.957  1.00  0.00    -0.248 NA
ATOM     16  C   UNL A   1      40.126  25.397  27.461  1.00  0.00     0.031 C 
ATOM     17  C   UNL A   1      41.800  29.439  30.094  1.00  0.00     0.029 A 
ATOM     18  N   UNL A   1      43.287  27.800  30.135  1.00  0.00    -0.354 N 
ATOM     19  C   UNL A   1      41.518  23.729  28.074  1.00  0.00     0.074 A 
ATOM     20  C   UNL A   1      40.384  24.098  27.288  1.00  0.00     0.031 C 
ATOM     21  C   UNL A   1      42.864  29.900  30.784  1.00  0.00     0.029 A 
ATOM     22  C   UNL A   1      43.890  28.875  30.837  1.00  0.00     0.049 A 
ATOM     23  H   UNL A   1      43.749  26.942  29.990  1.00  0.00     0.167 HD
ATOM     24  C   UNL A   1      42.372  22.675  27.913  1.00  0.00     0.034 A 
ATOM     25  C   UNL A   1      45.125  28.948  31.426  1.00  0.00     0.034 A 
ATOM     26  C   UNL A   1      43.531  22.877  28.717  1.00  0.00     0.049 A 
ATOM     27  C   UNL A   1      45.865  27.762  30.971  1.00  0.00     0.074 A 
ATOM     28  C   UNL A   1      43.781  22.762  30.056  1.00  0.00     0.029 A 
ATOM     29  N   UNL A   1      44.544  23.585  28.112  1.00  0.00    -0.354 N 
ATOM     30  N   UNL A   1      46.283  27.585  29.753  1.00  0.00    -0.248 NA
ATOM     31  C   UNL A   1      46.086  26.648  31.900  1.00  0.00     0.031 C 
ATOM     32  C   UNL A   1      44.754  23.751  30.299  1.00  0.00     0.029 A 
ATOM     33  C   UNL A   1      45.165  24.321  29.085  1.00  0.00     0.049 A 
ATOM     34  H   UNL A   1      44.779  23.566  27.157  1.00  0.00     0.167 HD
ATOM     35  C   UNL A   1      46.448  26.223  29.699  1.00  0.00     0.074 A 
ATOM     36  C   UNL A   1      46.647  25.782  31.061  1.00  0.00     0.031 C 
ATOM     37  C   UNL A   1      45.859  25.527  28.691  1.00  0.00     0.034 A 
BRANCH  24  38
ATOM     38  C   UNL A   1      42.470  21.541  26.918  1.00  0.00     0.023 A 
ATOM     39  C   UNL A   1      41.543  20.478  27.125  1.00  0.00     0.012 A 
ATOM     40  C   UNL A   1      43.551  21.295  26.055  1.00  0.00     0.148 A 
ATOM     41  C   UNL A   1      41.739  19.200  26.607  1.00  0.00     0.002 A 
ATOM     42  C   UNL A   1      43.718  20.020  25.498  1.00  0.00     0.091 A 
ATOM     43  F   UNL A   1      44.463  22.251  25.853  1.00  0.00    -0.205 F 
ATOM     44  C   UNL A   1      42.838  18.969  25.803  1.00  0.00     0.022 A 
BRANCH  42  45
ATOM     45  S   UNL A   1      45.067  19.608  24.383  1.00  0.00     0.127 S 
ATOM     46  O   UNL A   1      45.386  18.240  24.786  1.00  0.00    -0.237 OA
ATOM     47  O   UNL A   1      44.421  19.712  23.071  1.00  0.00    -0.237 OA
ATOM     48  O   UNL A   1      46.092  20.613  24.619  1.00  0.00    -0.744 OA
ENDBRANCH  42  45
ENDBRANCH  24  38
BRANCH  25  49
ATOM     49  C   UNL A   1      45.827  29.865  32.408  1.00  0.00     0.023 A 
ATOM     50  C   UNL A   1      45.440  30.033  33.746  1.00  0.00     0.012 A 
ATOM     51  C   UNL A   1      47.040  30.515  32.032  1.00  0.00     0.148 A 
ATOM     52  C   UNL A   1      46.260  30.710  34.670  1.00  0.00     0.002 A 
ATOM     53  C   UNL A   1      47.911  31.062  32.968  1.00  0.00     0.091 A 
ATOM     54  F   UNL A   1      47.356  30.638  30.738  1.00  0.00    -0.205 F 
ATOM     55  C   UNL A   1      47.518  31.175  34.297  1.00  0.00     0.022 A 
BRANCH  53  56
ATOM     56  S   UNL A   1      49.621  31.460  32.555  1.00  0.00     0.127 S 
ATOM     57  O   UNL A   1      50.026  32.302  33.678  1.00  0.00    -0.237 OA
ATOM     58  O   UNL A   1      50.232  30.130  32.531  1.00  0.00    -0.237 OA
ATOM     59  O   UNL A   1      49.585  32.125  31.258  1.00  0.00    -0.744 OA
ENDBRANCH  53  56
ENDBRANCH  25  49
BRANCH  37  60
ATOM     60  C   UNL A   1      45.704  26.306  27.380  1.00  0.00     0.023 A 
ATOM     61  C   UNL A   1      44.407  26.748  27.042  1.00  0.00     0.012 A 
ATOM     62  C   UNL A   1      46.725  26.541  26.431  1.00  0.00     0.148 A 
ATOM     63  C   UNL A   1      44.130  27.367  25.818  1.00  0.00     0.002 A 
ATOM     64  C   UNL A   1      46.449  27.149  25.200  1.00  0.00     0.091 A 
ATOM     65  F   UNL A   1      47.965  26.160  26.721  1.00  0.00    -0.205 F 
ATOM     66  C   UNL A   1      45.149  27.568  24.896  1.00  0.00     0.022 A 
BRANCH  64  67
ATOM     67  S   UNL A   1      47.683  27.410  23.906  1.00  0.00     0.127 S 
ATOM     68  O   UNL A   1      46.973  28.286  22.972  1.00  0.00    -0.237 OA
ATOM     69  O   UNL A   1      48.767  28.066  24.635  1.00  0.00    -0.237 OA
ATOM     70  O   UNL A   1      48.003  26.096  23.368  1.00  0.00    -0.744 OA
ENDBRANCH  64  67
ENDBRANCH  37  60
ENDBRANCH  11  12
ENDBRANCH   4   6
ENDBRANCH   3   4
ENDBRANCH   2   3
ENDBRANCH   1   2
BRANCH   1  71
ATOM     71  O   UNL A   1      32.091  29.159  26.269  1.00  0.00    -0.457 OA
BRANCH  71  72
ATOM     72  C   UNL A   1      32.347  28.715  25.005  1.00  0.00     0.354 C 
ATOM     73  O   UNL A   1      32.897  29.381  24.135  1.00  0.00    -0.244 OA
BRANCH  72  74
ATOM     74  C   UNL A   1      31.905  27.356  24.848  1.00  0.00     0.126 A 
ATOM     75  C   UNL A   1      32.643  26.192  24.713  1.00  0.00     0.057 A 
ATOM     76  N   UNL A   1      30.579  26.974  24.914  1.00  0.00    -0.354 N 
ATOM     77  C   UNL A   1      31.784  25.118  25.075  1.00  0.00     0.106 A 
ATOM     78  C   UNL A   1      30.497  25.615  25.088  1.00  0.00     0.105 A 
ATOM     79  H   UNL A   1      29.809  27.584  24.845  1.00  0.00     0.166 HD
BRANCH  77  80
ATOM     80  S   UNL A   1      32.335  23.548  25.545  1.00  0.00     0.263 S 
ATOM     81  O   UNL A   1      33.234  23.751  26.668  1.00  0.00    -0.201 OA
ATOM     82  O   UNL A   1      31.157  22.729  25.629  1.00  0.00    -0.201 OA
BRANCH  80  83
ATOM     83  N   UNL A   1      33.317  22.864  24.301  1.00  0.00    -0.277 N 
ATOM     84  H   UNL A   1      32.941  22.593  23.433  1.00  0.00     0.180 HD
BRANCH  83  85
ATOM     85  C   UNL A   1      34.713  22.711  24.602  1.00  0.00     0.075 A 
ATOM     86  C   UNL A   1      35.472  23.878  24.775  1.00  0.00     0.029 A 
ATOM     87  C   UNL A   1      35.274  21.462  24.937  1.00  0.00     0.089 A 
ATOM     88  C   UNL A   1      36.765  23.815  25.298  1.00  0.00     0.002 A 
ATOM     89  C   UNL A   1      36.570  21.417  25.487  1.00  0.00     0.030 A 
ATOM     90  C   UNL A   1      37.310  22.586  25.665  1.00  0.00     0.002 A 
BRANCH  87  91
ATOM     91  N   UNL A   1      34.549  20.241  24.824  1.00  0.00    -0.238 N 
ATOM     92  C   UNL A   1      35.029  18.958  24.661  1.00  0.00     0.130 A 
ATOM     93  N   UNL A   1      33.184  20.244  24.850  1.00  0.00    -0.175 NA
ATOM     94  C   UNL A   1      33.955  18.194  24.300  1.00  0.00     0.056 A 
ATOM     95  C   UNL A   1      32.847  19.035  24.391  1.00  0.00     0.151 A 
ATOM     96  Br  UNL A   1      33.939  16.403  23.787  1.00  0.00    -0.047 Br
ENDBRANCH  87  91
ENDBRANCH  83  85
ENDBRANCH  80  83
ENDBRANCH  77  80
ENDBRANCH  72  74
ENDBRANCH  71  72
ENDBRANCH   1  71
TORSDOF 18
ENDMDL
MODEL 2
REMARK VINA RESULT:     -11.8      3.257      8.512
REMARK SMILES O=C(OCCOC(=O)c1cc(S(=O)(=O)Nc2ccccc2-n2cc(Br)cn2)c[nH]1)c1ccc(-c2c3nc(c(-c4cccc(S(=O)(=O)[O-])c4F)c4ccc([nH]4)c(-c4cccc(S(=O)(=O)[O-])c4F)c4nc(c(-c5cccc(S(=O)(=O)[O-])c5F)c5ccc2[nH]5)C=C4)C=C3)cc1
REMARK SMILES IDX 5 1 4 2 3 3 2 4 1 5 30 6 31 7 92 8 32 9 91 10 33 11 34 12
REMARK SMILES IDX 35 13 85 14 36 15 90 16 84 17 86 18 37 19 89 20 83 21 82 22
REMARK SMILES IDX 38 24 70 25 50 26 69 27 51 28 54 29 68 30 87 31 52 32 53 33
REMARK SMILES IDX 67 35 88 36 55 37 39 38 40 39 48 40 41 41 43 42 49 43 42 44
REMARK SMILES IDX 44 45 45 46 46 47 47 48 71 49 72 50 80 51 73 52 75 53 81 54
REMARK SMILES IDX 74 55 76 56 77 57 78 58 79 59 56 60 57 61 65 62 58 63 60 64
REMARK SMILES IDX 66 65 59 66 61 67 62 68 63 69 64 70 6 71 7 72 8 73 9 74
REMARK SMILES IDX 10 75 29 76 11 77 28 78 12 80 13 81 14 82 15 83 16 85 17 86
REMARK SMILES IDX 21 87 18 88 20 89 19 90 22 91 23 92 27 93 24 94 26 95 25 96
REMARK H PARENT 86 23 54 34 29 79 15 84
REMARK Flexibility Score: inf
ROOT
ATOM      1  C   UNL A   1      33.207  29.792  27.117  1.00  0.00     0.275 C 
ENDROOT
BRANCH   1   2
ATOM      2  C   UNL A   1      34.608  30.355  27.391  1.00  0.00     0.275 C 
BRANCH   2   3
ATOM      3  O   UNL A   1      35.534  29.341  27.820  1.00  0.00    -0.458 OA
BRANCH   3   4
ATOM      4  C   UNL A   1      36.573  29.484  28.679  1.00  0.00     0.338 C 
ATOM      5  O   UNL A   1      36.361  29.861  29.829  1.00  0.00    -0.246 OA
BRANCH   4   6
ATOM      6  C   UNL A   1      37.948  29.042  28.316  1.00  0.00     0.060 A 
ATOM      7  C   UNL A   1      38.648  29.415  27.163  1.00  0.00     0.016 A 
ATOM      8  C   UNL A   1      38.603  28.253  29.277  1.00  0.00     0.016 A 
ATOM      9  C   UNL A   1      39.938  28.954  26.930  1.00  0.00     0.010 A 
ATOM     10  C   UNL A   1      39.905  27.816  29.067  1.00  0.00     0.010 A 
ATOM     11  C   UNL A   1      40.570  28.165  27.889  1.00  0.00    -0.014 A 
BRANCH  11  12
ATOM     12  C   UNL A   1      42.004  27.855  27.719  1.00  0.00     0.031 A 
ATOM     13  C   UNL A   1      42.904  29.079  27.989  1.00  0.00     0.074 A 
ATOM     14  C   UNL A   1      42.299  26.570  27.356  1.00  0.00     0.049 A 
ATOM     15  N   UNL A   1      44.110  29.334  27.570  1.00  0.00    -0.248 NA
ATOM     16  C   UNL A   1      42.349  30.239  28.745  1.00  0.00     0.031 C 
ATOM     17  C   UNL A   1      41.282  25.528  27.087  1.00  0.00     0.029 A 
ATOM     18  N   UNL A   1      43.469  25.866  27.147  1.00  0.00    -0.354 N 
ATOM     19  C   UNL A   1      44.528  30.520  28.228  1.00  0.00     0.074 A 
ATOM     20  C   UNL A   1      43.358  31.111  28.796  1.00  0.00     0.031 C 
ATOM     21  C   UNL A   1      41.863  24.371  26.707  1.00  0.00     0.029 A 
ATOM     22  C   UNL A   1      43.307  24.517  26.738  1.00  0.00     0.049 A 
ATOM     23  H   UNL A   1      44.357  26.274  27.273  1.00  0.00     0.167 HD
ATOM     24  C   UNL A   1      45.840  30.844  28.427  1.00  0.00     0.034 A 
ATOM     25  C   UNL A   1      44.257  23.576  26.441  1.00  0.00     0.034 A 
ATOM     26  C   UNL A   1      46.668  29.800  27.922  1.00  0.00     0.049 A 
ATOM     27  C   UNL A   1      45.541  24.140  26.882  1.00  0.00     0.074 A 
ATOM     28  C   UNL A   1      47.043  29.419  26.664  1.00  0.00     0.029 A 
ATOM     29  N   UNL A   1      46.945  28.792  28.817  1.00  0.00    -0.354 N 
ATOM     30  N   UNL A   1      45.875  24.310  28.128  1.00  0.00    -0.248 NA
ATOM     31  C   UNL A   1      46.495  24.633  25.883  1.00  0.00     0.031 C 
ATOM     32  C   UNL A   1      47.182  28.022  26.767  1.00  0.00     0.029 A 
ATOM     33  C   UNL A   1      47.035  27.627  28.105  1.00  0.00     0.049 A 
ATOM     34  H   UNL A   1      47.059  28.892  29.789  1.00  0.00     0.167 HD
ATOM     35  C   UNL A   1      46.862  25.259  28.036  1.00  0.00     0.074 A 
ATOM     36  C   UNL A   1      47.407  25.152  26.701  1.00  0.00     0.031 C 
ATOM     37  C   UNL A   1      46.768  26.383  28.793  1.00  0.00     0.034 A 
BRANCH  24  38
ATOM     38  C   UNL A   1      46.554  31.884  29.261  1.00  0.00     0.023 A 
ATOM     39  C   UNL A   1      46.375  31.751  30.669  1.00  0.00     0.012 A 
ATOM     40  C   UNL A   1      47.077  33.099  28.789  1.00  0.00     0.148 A 
ATOM     41  C   UNL A   1      46.583  32.806  31.554  1.00  0.00     0.002 A 
ATOM     42  C   UNL A   1      47.331  34.142  29.690  1.00  0.00     0.091 A 
ATOM     43  F   UNL A   1      47.235  33.282  27.474  1.00  0.00    -0.205 F 
ATOM     44  C   UNL A   1      47.050  34.008  31.060  1.00  0.00     0.022 A 
BRANCH  42  45
ATOM     45  S   UNL A   1      48.001  35.732  29.184  1.00  0.00     0.127 S 
ATOM     46  O   UNL A   1      46.809  36.422  28.697  1.00  0.00    -0.237 OA
ATOM     47  O   UNL A   1      48.525  36.258  30.448  1.00  0.00    -0.237 OA
ATOM     48  O   UNL A   1      49.027  35.429  28.199  1.00  0.00    -0.744 OA
ENDBRANCH  42  45
ENDBRANCH  24  38
BRANCH  25  49
ATOM     49  C   UNL A   1      44.294  22.222  25.761  1.00  0.00     0.023 A 
ATOM     50  C   UNL A   1      45.391  21.732  25.038  1.00  0.00     0.012 A 
ATOM     51  C   UNL A   1      43.221  21.301  25.954  1.00  0.00     0.148 A 
ATOM     52  C   UNL A   1      45.461  20.385  24.629  1.00  0.00     0.002 A 
ATOM     53  C   UNL A   1      43.348  19.945  25.673  1.00  0.00     0.091 A 
ATOM     54  F   UNL A   1      42.036  21.740  26.392  1.00  0.00    -0.205 F 
ATOM     55  C   UNL A   1      44.468  19.479  24.994  1.00  0.00     0.022 A 
BRANCH  53  56
ATOM     56  S   UNL A   1      42.192  18.727  26.331  1.00  0.00     0.127 S 
ATOM     57  O   UNL A   1      40.922  19.157  25.749  1.00  0.00    -0.237 OA
ATOM     58  O   UNL A   1      42.732  17.484  25.780  1.00  0.00    -0.237 OA
ATOM     59  O   UNL A   1      42.276  18.825  27.783  1.00  0.00    -0.744 OA
ENDBRANCH  53  56
ENDBRANCH  25  49
BRANCH  37  60
ATOM     60  C   UNL A   1      46.047  26.195  30.132  1.00  0.00     0.023 A 
ATOM     61  C   UNL A   1      44.665  26.480  30.166  1.00  0.00     0.012 A 
ATOM     62  C   UNL A   1      46.657  25.853  31.361  1.00  0.00     0.148 A 
ATOM     63  C   UNL A   1      43.931  26.453  31.357  1.00  0.00     0.002 A 
ATOM     64  C   UNL A   1      45.928  25.837  32.557  1.00  0.00     0.091 A 
ATOM     65  F   UNL A   1      47.953  25.555  31.368  1.00  0.00    -0.205 F 
ATOM     66  C   UNL A   1      44.560  26.132  32.552  1.00  0.00     0.022 A 
BRANCH  64  67
ATOM     67  S   UNL A   1      46.653  25.488  34.174  1.00  0.00     0.127 S 
ATOM     68  O   UNL A   1      47.159  24.125  34.000  1.00  0.00    -0.237 OA
ATOM     69  O   UNL A   1      47.698  26.505  34.274  1.00  0.00    -0.237 OA
ATOM     70  O   UNL A   1      45.576  25.606  35.145  1.00  0.00    -0.744 OA
ENDBRANCH  64  67
ENDBRANCH  37  60
ENDBRANCH  11  12
ENDBRANCH   4   6
ENDBRANCH   3   4
ENDBRANCH   2   3
ENDBRANCH   1   2
BRANCH   1  71
ATOM     71  O   UNL A   1      33.172  28.356  27.086  1.00  0.00    -0.457 OA
BRANCH  71  72
ATOM     72  C   UNL A   1      31.938  27.798  27.248  1.00  0.00     0.354 C 
ATOM     73  O   UNL A   1      31.063  28.250  27.978  1.00  0.00    -0.244 OA
BRANCH  72  74
ATOM     74  C   UNL A   1      31.803  26.626  26.426  1.00  0.00     0.126 A 
ATOM     75  C   UNL A   1      32.541  25.454  26.423  1.00  0.00     0.057 A 
ATOM     76  N   UNL A   1      30.778  26.446  25.518  1.00  0.00    -0.354 N 
ATOM     77  C   UNL A   1      31.734  24.463  25.798  1.00  0.00     0.106 A 
ATOM     78  C   UNL A   1      30.706  25.123  25.158  1.00  0.00     0.105 A 
ATOM     79  H   UNL A   1      30.189  27.158  25.180  1.00  0.00     0.166 HD
BRANCH  77  80
ATOM     80  S   UNL A   1      31.971  22.760  25.978  1.00  0.00     0.263 S 
ATOM     81  O   UNL A   1      32.928  22.594  27.059  1.00  0.00    -0.201 OA
ATOM     82  O   UNL A   1      30.656  22.183  26.009  1.00  0.00    -0.201 OA
BRANCH  80  83
ATOM     83  N   UNL A   1      32.755  22.117  24.581  1.00  0.00    -0.277 N 
ATOM     84  H   UNL A   1      32.245  21.739  23.829  1.00  0.00     0.180 HD
BRANCH  83  85
ATOM     85  C   UNL A   1      34.190  22.161  24.577  1.00  0.00     0.075 A 
ATOM     86  C   UNL A   1      34.875  21.094  25.177  1.00  0.00     0.029 A 
ATOM     87  C   UNL A   1      34.908  23.106  23.815  1.00  0.00     0.089 A 
ATOM     88  C   UNL A   1      36.253  20.947  25.006  1.00  0.00     0.002 A 
ATOM     89  C   UNL A   1      36.293  22.929  23.631  1.00  0.00     0.030 A 
ATOM     90  C   UNL A   1      36.960  21.857  24.224  1.00  0.00     0.002 A 
BRANCH  87  91
ATOM     91  N   UNL A   1      34.273  24.191  23.146  1.00  0.00    -0.238 N 
ATOM     92  C   UNL A   1      34.321  25.538  23.438  1.00  0.00     0.130 A 
ATOM     93  N   UNL A   1      33.470  23.962  22.066  1.00  0.00    -0.175 NA
ATOM     94  C   UNL A   1      33.319  26.120  22.713  1.00  0.00     0.056 A 
ATOM     95  C   UNL A   1      32.796  25.105  21.912  1.00  0.00     0.151 A 
ATOM     96  Br  UNL A   1      32.746  27.892  22.759  1.00  0.00    -0.047 Br
ENDBRANCH  87  91
ENDBRANCH  83  85
ENDBRANCH  80  83
ENDBRANCH  77  80
ENDBRANCH  72  74
ENDBRANCH  71  72
ENDBRANCH   1  71
TORSDOF 18
ENDMDL
MODEL 3
REMARK VINA RESULT:     -11.7      3.626      7.757
REMARK SMILES O=C(OCCOC(=O)c1cc(S(=O)(=O)Nc2ccccc2-n2cc(Br)cn2)c[nH]1)c1ccc(-c2c3nc(c(-c4cccc(S(=O)(=O)[O-])c4F)c4ccc([nH]4)c(-c4cccc(S(=O)(=O)[O-])c4F)c4nc(c(-c5cccc(S(=O)(=O)[O-])c5F)c5ccc2[nH]5)C=C4)C=C3)cc1
REMARK SMILES IDX 5 1 4 2 3 3 2 4 1 5 30 6 31 7 92 8 32 9 91 10 33 11 34 12
REMARK SMILES IDX 35 13 85 14 36 15 90 16 84 17 86 18 37 19 89 20 83 21 82 22
REMARK SMILES IDX 38 24 70 25 50 26 69 27 51 28 54 29 68 30 87 31 52 32 53 33
REMARK SMILES IDX 67 35 88 36 55 37 39 38 40 39 48 40 41 41 43 42 49 43 42 44
REMARK SMILES IDX 44 45 45 46 46 47 47 48 71 49 72 50 80 51 73 52 75 53 81 54
REMARK SMILES IDX 74 55 76 56 77 57 78 58 79 59 56 60 57 61 65 62 58 63 60 64
REMARK SMILES IDX 66 65 59 66 61 67 62 68 63 69 64 70 6 71 7 72 8 73 9 74
REMARK SMILES IDX 10 75 29 76 11 77 28 78 12 80 13 81 14 82 15 83 16 85 17 86
REMARK SMILES IDX 21 87 18 88 20 89 19 90 22 91 23 92 27 93 24 94 26 95 25 96
REMARK H PARENT 86 23 54 34 29 79 15 84
REMARK Flexibility Score: inf
ROOT
ATOM      1  C   UNL A   1      39.027  21.549  25.861  1.00  0.00     0.275 C 
ENDROOT
BRANCH   1   2
ATOM      2  C   UNL A   1      39.266  20.086  25.464  1.00  0.00     0.275 C 
BRANCH   2   3
ATOM      3  O   UNL A   1      40.330  19.478  26.217  1.00  0.00    -0.458 OA
BRANCH   3   4
ATOM      4  C   UNL A   1      41.663  19.662  26.055  1.00  0.00     0.338 C 
ATOM      5  O   UNL A   1      42.338  18.777  25.535  1.00  0.00    -0.246 OA
BRANCH   4   6
ATOM      6  C   UNL A   1      42.307  20.973  26.341  1.00  0.00     0.060 A 
ATOM      7  C   UNL A   1      42.720  21.906  25.382  1.00  0.00     0.016 A 
ATOM      8  C   UNL A   1      42.415  21.312  27.700  1.00  0.00     0.016 A 
ATOM      9  C   UNL A   1      43.298  23.112  25.762  1.00  0.00     0.010 A 
ATOM     10  C   UNL A   1      42.961  22.529  28.087  1.00  0.00     0.010 A 
ATOM     11  C   UNL A   1      43.406  23.428  27.115  1.00  0.00    -0.014 A 
BRANCH  11  12
ATOM     12  C   UNL A   1      43.834  24.790  27.493  1.00  0.00     0.031 A 
ATOM     13  C   UNL A   1      42.637  25.734  27.731  1.00  0.00     0.074 A 
ATOM     14  C   UNL A   1      45.184  24.994  27.567  1.00  0.00     0.049 A 
ATOM     15  N   UNL A   1      42.576  27.033  27.671  1.00  0.00    -0.248 NA
ATOM     16  C   UNL A   1      41.284  25.151  27.964  1.00  0.00     0.031 C 
ATOM     17  C   UNL A   1      46.199  23.964  27.248  1.00  0.00     0.029 A 
ATOM     18  N   UNL A   1      45.984  26.063  27.920  1.00  0.00    -0.354 N 
ATOM     19  C   UNL A   1      41.281  27.402  28.120  1.00  0.00     0.074 A 
ATOM     20  C   UNL A   1      40.491  26.213  28.122  1.00  0.00     0.031 C 
ATOM     21  C   UNL A   1      47.447  24.463  27.366  1.00  0.00     0.029 A 
ATOM     22  C   UNL A   1      47.381  25.839  27.821  1.00  0.00     0.049 A 
ATOM     23  H   UNL A   1      45.609  26.923  28.221  1.00  0.00     0.167 HD
ATOM     24  C   UNL A   1      40.992  28.631  28.643  1.00  0.00     0.034 A 
ATOM     25  C   UNL A   1      48.421  26.692  28.082  1.00  0.00     0.034 A 
ATOM     26  C   UNL A   1      42.181  29.414  28.699  1.00  0.00     0.049 A 
ATOM     27  C   UNL A   1      47.833  27.857  28.760  1.00  0.00     0.074 A 
ATOM     28  C   UNL A   1      42.913  30.084  27.759  1.00  0.00     0.029 A 
ATOM     29  N   UNL A   1      42.918  29.273  29.852  1.00  0.00    -0.354 N 
ATOM     30  N   UNL A   1      47.347  27.831  29.966  1.00  0.00    -0.248 NA
ATOM     31  C   UNL A   1      47.689  29.122  28.030  1.00  0.00     0.031 C 
ATOM     32  C   UNL A   1      44.234  29.989  28.237  1.00  0.00     0.029 A 
ATOM     33  C   UNL A   1      44.238  29.402  29.511  1.00  0.00     0.049 A 
ATOM     34  H   UNL A   1      42.562  29.109  30.755  1.00  0.00     0.167 HD
ATOM     35  C   UNL A   1      46.519  28.926  29.967  1.00  0.00     0.074 A 
ATOM     36  C   UNL A   1      47.019  29.817  28.945  1.00  0.00     0.031 C 
ATOM     37  C   UNL A   1      45.226  28.773  30.358  1.00  0.00     0.034 A 
BRANCH  24  38
ATOM     38  C   UNL A   1      39.806  29.207  29.383  1.00  0.00     0.023 A 
ATOM     39  C   UNL A   1      39.231  30.367  28.786  1.00  0.00     0.012 A 
ATOM     40  C   UNL A   1      39.445  28.919  30.710  1.00  0.00     0.148 A 
ATOM     41  C   UNL A   1      38.440  31.264  29.500  1.00  0.00     0.002 A 
ATOM     42  C   UNL A   1      38.609  29.800  31.409  1.00  0.00     0.091 A 
ATOM     43  F   UNL A   1      39.982  27.858  31.322  1.00  0.00    -0.205 F 
ATOM     44  C   UNL A   1      38.140  30.985  30.819  1.00  0.00     0.022 A 
BRANCH  42  45
ATOM     45  S   UNL A   1      38.090  29.517  33.107  1.00  0.00     0.127 S 
ATOM     46  O   UNL A   1      39.367  29.501  33.816  1.00  0.00    -0.237 OA
ATOM     47  O   UNL A   1      37.268  30.701  33.376  1.00  0.00    -0.237 OA
ATOM     48  O   UNL A   1      37.341  28.270  33.085  1.00  0.00    -0.744 OA
ENDBRANCH  42  45
ENDBRANCH  24  38
BRANCH  25  49
ATOM     49  C   UNL A   1      49.909  26.736  27.799  1.00  0.00     0.023 A 
ATOM     50  C   UNL A   1      50.467  27.003  26.540  1.00  0.00     0.012 A 
ATOM     51  C   UNL A   1      50.841  26.639  28.876  1.00  0.00     0.148 A 
ATOM     52  C   UNL A   1      51.843  27.262  26.383  1.00  0.00     0.002 A 
ATOM     53  C   UNL A   1      52.170  27.027  28.746  1.00  0.00     0.091 A 
ATOM     54  F   UNL A   1      50.449  26.133  30.051  1.00  0.00    -0.205 F 
ATOM     55  C   UNL A   1      52.684  27.329  27.491  1.00  0.00     0.022 A 
BRANCH  53  56
ATOM     56  S   UNL A   1      53.212  27.340  30.185  1.00  0.00     0.127 S 
ATOM     57  O   UNL A   1      52.386  28.250  30.976  1.00  0.00    -0.237 OA
ATOM     58  O   UNL A   1      53.352  25.994  30.742  1.00  0.00    -0.237 OA
ATOM     59  O   UNL A   1      54.453  27.910  29.676  1.00  0.00    -0.744 OA
ENDBRANCH  53  56
ENDBRANCH  25  49
BRANCH  37  60
ATOM     60  C   UNL A   1      44.998  27.672  31.399  1.00  0.00     0.023 A 
ATOM     61  C   UNL A   1      44.629  26.397  30.919  1.00  0.00     0.012 A 
ATOM     62  C   UNL A   1      45.030  27.839  32.803  1.00  0.00     0.148 A 
ATOM     63  C   UNL A   1      44.285  25.351  31.781  1.00  0.00     0.002 A 
ATOM     64  C   UNL A   1      44.675  26.798  33.669  1.00  0.00     0.091 A 
ATOM     65  F   UNL A   1      45.394  29.019  33.296  1.00  0.00    -0.205 F 
ATOM     66  C   UNL A   1      44.308  25.549  33.156  1.00  0.00     0.022 A 
BRANCH  64  67
ATOM     67  S   UNL A   1      44.614  26.959  35.467  1.00  0.00     0.127 S 
ATOM     68  O   UNL A   1      44.137  25.638  35.882  1.00  0.00    -0.237 OA
ATOM     69  O   UNL A   1      46.012  27.223  35.805  1.00  0.00    -0.237 OA
ATOM     70  O   UNL A   1      43.689  28.045  35.755  1.00  0.00    -0.744 OA
ENDBRANCH  64  67
ENDBRANCH  37  60
ENDBRANCH  11  12
ENDBRANCH   4   6
ENDBRANCH   3   4
ENDBRANCH   2   3
ENDBRANCH   1   2
BRANCH   1  71
ATOM     71  O   UNL A   1      37.756  22.053  25.420  1.00  0.00    -0.457 OA
BRANCH  71  72
ATOM     72  C   UNL A   1      37.426  23.293  25.883  1.00  0.00     0.354 C 
ATOM     73  O   UNL A   1      38.237  24.120  26.287  1.00  0.00    -0.244 OA
BRANCH  72  74
ATOM     74  C   UNL A   1      36.005  23.498  25.809  1.00  0.00     0.126 A 
ATOM     75  C   UNL A   1      34.966  22.640  26.129  1.00  0.00     0.057 A 
ATOM     76  N   UNL A   1      35.427  24.707  25.474  1.00  0.00    -0.354 N 
ATOM     77  C   UNL A   1      33.817  23.451  26.343  1.00  0.00     0.106 A 
ATOM     78  C   UNL A   1      34.100  24.699  25.829  1.00  0.00     0.105 A 
ATOM     79  H   UNL A   1      35.894  25.460  25.045  1.00  0.00     0.166 HD
BRANCH  77  80
ATOM     80  S   UNL A   1      32.419  22.943  27.225  1.00  0.00     0.263 S 
ATOM     81  O   UNL A   1      32.909  22.188  28.366  1.00  0.00    -0.201 OA
ATOM     82  O   UNL A   1      31.597  24.112  27.361  1.00  0.00    -0.201 OA
BRANCH  80  83
ATOM     83  N   UNL A   1      31.507  21.809  26.295  1.00  0.00    -0.277 N 
ATOM     84  H   UNL A   1      30.931  21.135  26.721  1.00  0.00     0.180 HD
BRANCH  83  85
ATOM     85  C   UNL A   1      31.636  21.904  24.868  1.00  0.00     0.075 A 
ATOM     86  C   UNL A   1      31.226  23.097  24.256  1.00  0.00     0.029 A 
ATOM     87  C   UNL A   1      32.348  20.947  24.116  1.00  0.00     0.089 A 
ATOM     88  C   UNL A   1      31.536  23.355  22.919  1.00  0.00     0.002 A 
ATOM     89  C   UNL A   1      32.676  21.232  22.776  1.00  0.00     0.030 A 
ATOM     90  C   UNL A   1      32.271  22.428  22.183  1.00  0.00     0.002 A 
BRANCH  87  91
ATOM     91  N   UNL A   1      32.831  19.731  24.682  1.00  0.00    -0.238 N 
ATOM     92  C   UNL A   1      33.978  19.028  24.379  1.00  0.00     0.130 A 
ATOM     93  N   UNL A   1      32.115  19.090  25.651  1.00  0.00    -0.175 NA
ATOM     94  C   UNL A   1      33.834  17.799  24.960  1.00  0.00     0.056 A 
ATOM     95  C   UNL A   1      32.655  17.868  25.700  1.00  0.00     0.151 A 
ATOM     96  Br  UNL A   1      34.958  16.321  24.814  1.00  0.00    -0.047 Br
ENDBRANCH  87  91
ENDBRANCH  83  85
ENDBRANCH  80  83
ENDBRANCH  77  80
ENDBRANCH  72  74
ENDBRANCH  71  72
ENDBRANCH   1  71
TORSDOF 18
ENDMDL
