MODEL 1
REMARK VINA RESULT:     -12.1      0.000      0.000
REMARK SMILES COC(=O)[C@H]1CN(C(=O)[C@@H]2CC=CC[C@@H]2C(=O)OCCOC(=O)c2ccc(-c3c4nc(c(-c5cccc(S(=O)(=O)[O-])c5F)c5ccc([nH]5)c(-c5cccc(S(=O)(=O)[O-])c5F)c5nc(c(-c6cccc(S(=O)(=O)[O-])c6F)c6ccc3[nH]6)C=C5)C=C4)cc2)C[C@H]1C
REMARK SMILES IDX 19 1 18 2 16 3 17 4 15 5 10 6 11 7 12 8 14 9 13 10 8 11 9 12
REMARK SMILES IDX 7 13 5 14 6 15 88 16 87 17 89 18 3 19 4 20 2 21 1 22 20 23
REMARK SMILES IDX 21 24 22 25 23 26 24 27 25 28 86 29 26 30 85 31 27 32 28 33
REMARK SMILES IDX 29 34 79 35 30 36 84 37 78 38 80 39 31 40 83 41 77 42 76 43
REMARK SMILES IDX 32 45 64 46 44 47 63 48 45 49 48 50 62 51 81 52 46 53 47 54
REMARK SMILES IDX 61 56 82 57 49 58 33 59 34 60 42 61 35 62 37 63 43 64 36 65
REMARK SMILES IDX 38 66 39 67 40 68 41 69 65 70 66 71 74 72 67 73 69 74 75 75
REMARK SMILES IDX 68 76 70 77 71 78 72 79 73 80 50 81 51 82 59 83 52 84 54 85
REMARK SMILES IDX 60 86 53 87 55 88 56 89 57 90 58 91
REMARK H PARENT 80 44 48 55
REMARK Flexibility Score: inf
ROOT
ATOM      1  C   UNL A   1      36.200  20.693  25.263  1.00  0.00     0.274 C 
ENDROOT
BRANCH   1   2
ATOM      2  O   UNL A   1      35.884  21.947  25.906  1.00  0.00    -0.462 OA
BRANCH   2   3
ATOM      3  C   UNL A   1      34.672  22.008  26.518  1.00  0.00     0.310 C 
ATOM      4  O   UNL A   1      34.398  21.383  27.537  1.00  0.00    -0.252 OA
BRANCH   3   5
ATOM      5  C   UNL A   1      33.636  22.808  25.735  1.00  0.00     0.115 C 
ATOM      6  C   UNL A   1      32.963  22.110  24.532  1.00  0.00     0.097 C 
ATOM      7  C   UNL A   1      33.862  22.018  23.303  1.00  0.00     0.041 C 
ATOM      8  C   UNL A   1      34.532  23.320  22.987  1.00  0.00    -0.030 C 
ATOM      9  C   UNL A   1      34.217  24.187  25.318  1.00  0.00     0.043 C 
ATOM     10  C   UNL A   1      34.679  24.295  23.892  1.00  0.00    -0.030 C 
BRANCH   6  11
ATOM     11  C   UNL A   1      32.106  20.913  24.967  1.00  0.00     0.226 C 
ATOM     12  O   UNL A   1      31.197  21.135  25.781  1.00  0.00    -0.275 OA
BRANCH  11  13
ATOM     13  N   UNL A   1      32.293  19.635  24.497  1.00  0.00    -0.341 N 
ATOM     14  C   UNL A   1      32.403  17.294  24.690  1.00  0.00     0.123 C 
ATOM     15  C   UNL A   1      32.722  18.590  25.415  1.00  0.00     0.135 C 
ATOM     16  C   UNL A   1      32.645  17.641  23.214  1.00  0.00     0.021 C 
ATOM     17  C   UNL A   1      32.221  19.114  23.139  1.00  0.00     0.123 C 
ATOM     18  C   UNL A   1      34.086  17.436  22.743  1.00  0.00     0.010 C 
BRANCH  14  19
ATOM     19  C   UNL A   1      33.216  16.132  25.198  1.00  0.00     0.310 C 
ATOM     20  O   UNL A   1      32.888  14.957  25.141  1.00  0.00    -0.252 OA
BRANCH  19  21
ATOM     21  O   UNL A   1      34.373  16.596  25.752  1.00  0.00    -0.469 OA
ATOM     22  C   UNL A   1      35.521  15.804  25.453  1.00  0.00     0.282 C 
ENDBRANCH  19  21
ENDBRANCH  14  19
ENDBRANCH  11  13
ENDBRANCH   6  11
ENDBRANCH   3   5
ENDBRANCH   2   3
ENDBRANCH   1   2
BRANCH   1  23
ATOM     23  C   UNL A   1      37.679  20.612  24.896  1.00  0.00     0.275 C 
BRANCH  23  24
ATOM     24  O   UNL A   1      38.373  21.745  25.430  1.00  0.00    -0.458 OA
BRANCH  24  25
ATOM     25  C   UNL A   1      39.485  21.488  26.157  1.00  0.00     0.338 C 
ATOM     26  O   UNL A   1      40.056  20.418  26.277  1.00  0.00    -0.246 OA
BRANCH  25  27
ATOM     27  C   UNL A   1      39.946  22.732  26.804  1.00  0.00     0.060 A 
ATOM     28  C   UNL A   1      40.953  22.710  27.771  1.00  0.00     0.016 A 
ATOM     29  C   UNL A   1      39.340  23.939  26.452  1.00  0.00     0.016 A 
ATOM     30  C   UNL A   1      41.356  23.890  28.386  1.00  0.00     0.010 A 
ATOM     31  C   UNL A   1      39.812  25.131  26.999  1.00  0.00     0.010 A 
ATOM     32  C   UNL A   1      40.839  25.119  27.956  1.00  0.00    -0.014 A 
BRANCH  32  33
ATOM     33  C   UNL A   1      41.467  26.391  28.392  1.00  0.00     0.031 A 
ATOM     34  C   UNL A   1      40.669  27.441  29.105  1.00  0.00     0.074 A 
ATOM     35  C   UNL A   1      42.748  26.623  28.041  1.00  0.00     0.049 A 
ATOM     36  N   UNL A   1      40.995  28.678  29.376  1.00  0.00    -0.248 NA
ATOM     37  C   UNL A   1      39.318  27.063  29.549  1.00  0.00     0.031 C 
ATOM     38  C   UNL A   1      43.607  25.681  27.320  1.00  0.00     0.029 A 
ATOM     39  N   UNL A   1      43.547  27.724  28.218  1.00  0.00    -0.354 N 
ATOM     40  C   UNL A   1      39.869  29.249  29.955  1.00  0.00     0.074 A 
ATOM     41  C   UNL A   1      38.855  28.217  30.014  1.00  0.00     0.031 C 
ATOM     42  C   UNL A   1      44.816  26.226  27.142  1.00  0.00     0.029 A 
ATOM     43  C   UNL A   1      44.793  27.589  27.652  1.00  0.00     0.049 A 
ATOM     44  H   UNL A   1      43.257  28.531  28.702  1.00  0.00     0.167 HD
ATOM     45  C   UNL A   1      39.704  30.521  30.395  1.00  0.00     0.034 A 
ATOM     46  C   UNL A   1      45.797  28.476  27.513  1.00  0.00     0.034 A 
ATOM     47  C   UNL A   1      40.745  31.515  30.374  1.00  0.00     0.049 A 
ATOM     48  C   UNL A   1      45.594  29.868  28.025  1.00  0.00     0.074 A 
ATOM     49  C   UNL A   1      40.711  32.809  30.865  1.00  0.00     0.029 A 
ATOM     50  N   UNL A   1      42.008  31.329  29.828  1.00  0.00    -0.354 N 
ATOM     51  N   UNL A   1      44.552  30.373  28.641  1.00  0.00    -0.248 NA
ATOM     52  C   UNL A   1      46.696  30.816  27.823  1.00  0.00     0.031 C 
ATOM     53  C   UNL A   1      41.948  33.410  30.598  1.00  0.00     0.029 A 
ATOM     54  C   UNL A   1      42.758  32.487  29.954  1.00  0.00     0.049 A 
ATOM     55  H   UNL A   1      42.324  30.495  29.412  1.00  0.00     0.167 HD
ATOM     56  C   UNL A   1      44.868  31.698  28.901  1.00  0.00     0.074 A 
ATOM     57  C   UNL A   1      46.217  31.906  28.408  1.00  0.00     0.031 C 
ATOM     58  C   UNL A   1      44.104  32.662  29.471  1.00  0.00     0.034 A 
BRANCH  45  59
ATOM     59  C   UNL A   1      38.354  30.900  30.949  1.00  0.00     0.023 A 
ATOM     60  C   UNL A   1      38.050  30.636  32.299  1.00  0.00     0.012 A 
ATOM     61  C   UNL A   1      37.400  31.553  30.143  1.00  0.00     0.148 A 
ATOM     62  C   UNL A   1      36.806  30.982  32.829  1.00  0.00     0.002 A 
ATOM     63  C   UNL A   1      36.176  31.929  30.690  1.00  0.00     0.091 A 
ATOM     64  F   UNL A   1      37.692  31.774  28.853  1.00  0.00    -0.205 F 
ATOM     65  C   UNL A   1      35.874  31.636  32.028  1.00  0.00     0.022 A 
BRANCH  63  66
ATOM     66  S   UNL A   1      34.943  32.836  29.747  1.00  0.00     0.127 S 
ATOM     67  O   UNL A   1      34.013  33.249  30.796  1.00  0.00    -0.237 OA
ATOM     68  O   UNL A   1      35.731  33.927  29.168  1.00  0.00    -0.237 OA
ATOM     69  O   UNL A   1      34.419  31.891  28.771  1.00  0.00    -0.744 OA
ENDBRANCH  63  66
ENDBRANCH  45  59
BRANCH  46  70
ATOM     70  C   UNL A   1      47.076  28.038  26.885  1.00  0.00     0.023 A 
ATOM     71  C   UNL A   1      48.107  27.547  27.706  1.00  0.00     0.012 A 
ATOM     72  C   UNL A   1      47.230  27.989  25.485  1.00  0.00     0.148 A 
ATOM     73  C   UNL A   1      49.267  27.012  27.145  1.00  0.00     0.002 A 
ATOM     74  C   UNL A   1      48.358  27.396  24.932  1.00  0.00     0.091 A 
ATOM     75  F   UNL A   1      46.244  28.481  24.719  1.00  0.00    -0.205 F 
ATOM     76  C   UNL A   1      49.385  26.917  25.760  1.00  0.00     0.022 A 
BRANCH  74  77
ATOM     77  S   UNL A   1      48.509  27.078  23.168  1.00  0.00     0.127 S 
ATOM     78  O   UNL A   1      47.573  28.048  22.608  1.00  0.00    -0.237 OA
ATOM     79  O   UNL A   1      49.922  27.373  22.925  1.00  0.00    -0.237 OA
ATOM     80  O   UNL A   1      48.155  25.676  22.992  1.00  0.00    -0.744 OA
ENDBRANCH  74  77
ENDBRANCH  46  70
BRANCH  58  81
ATOM     81  C   UNL A   1      44.712  34.035  29.574  1.00  0.00     0.023 A 
ATOM     82  C   UNL A   1      45.408  34.395  30.745  1.00  0.00     0.012 A 
ATOM     83  C   UNL A   1      44.638  34.943  28.502  1.00  0.00     0.148 A 
ATOM     84  C   UNL A   1      45.999  35.651  30.858  1.00  0.00     0.002 A 
ATOM     85  C   UNL A   1      45.265  36.178  28.605  1.00  0.00     0.091 A 
ATOM     86  F   UNL A   1      43.951  34.586  27.407  1.00  0.00    -0.205 F 
ATOM     87  C   UNL A   1      45.937  36.538  29.786  1.00  0.00     0.022 A 
BRANCH  85  88
ATOM     88  S   UNL A   1      45.307  37.352  27.247  1.00  0.00     0.127 S 
ATOM     89  O   UNL A   1      46.053  38.462  27.837  1.00  0.00    -0.237 OA
ATOM     90  O   UNL A   1      46.032  36.609  26.216  1.00  0.00    -0.237 OA
ATOM     91  O   UNL A   1      43.916  37.635  26.921  1.00  0.00    -0.744 OA
ENDBRANCH  85  88
ENDBRANCH  58  81
ENDBRANCH  32  33
ENDBRANCH  25  27
ENDBRANCH  24  25
ENDBRANCH  23  24
ENDBRANCH   1  23
TORSDOF 18
ENDMDL
MODEL 2
REMARK VINA RESULT:     -12.1      1.927      4.145
REMARK SMILES COC(=O)[C@H]1CN(C(=O)[C@@H]2CC=CC[C@@H]2C(=O)OCCOC(=O)c2ccc(-c3c4nc(c(-c5cccc(S(=O)(=O)[O-])c5F)c5ccc([nH]5)c(-c5cccc(S(=O)(=O)[O-])c5F)c5nc(c(-c6cccc(S(=O)(=O)[O-])c6F)c6ccc3[nH]6)C=C5)C=C4)cc2)C[C@H]1C
REMARK SMILES IDX 19 1 18 2 16 3 17 4 15 5 10 6 11 7 12 8 14 9 13 10 8 11 9 12
REMARK SMILES IDX 7 13 5 14 6 15 88 16 87 17 89 18 3 19 4 20 2 21 1 22 20 23
REMARK SMILES IDX 21 24 22 25 23 26 24 27 25 28 86 29 26 30 85 31 27 32 28 33
REMARK SMILES IDX 29 34 79 35 30 36 84 37 78 38 80 39 31 40 83 41 77 42 76 43
REMARK SMILES IDX 32 45 64 46 44 47 63 48 45 49 48 50 62 51 81 52 46 53 47 54
REMARK SMILES IDX 61 56 82 57 49 58 33 59 34 60 42 61 35 62 37 63 43 64 36 65
REMARK SMILES IDX 38 66 39 67 40 68 41 69 65 70 66 71 74 72 67 73 69 74 75 75
REMARK SMILES IDX 68 76 70 77 71 78 72 79 73 80 50 81 51 82 59 83 52 84 54 85
REMARK SMILES IDX 60 86 53 87 55 88 56 89 57 90 58 91
REMARK H PARENT 80 44 48 55
REMARK Flexibility Score: inf
ROOT
ATOM      1  C   UNL A   1      36.552  22.874  23.522  1.00  0.00     0.274 C 
ENDROOT
BRANCH   1   2
ATOM      2  O   UNL A   1      35.252  23.159  24.082  1.00  0.00    -0.462 OA
BRANCH   2   3
ATOM      3  C   UNL A   1      34.196  22.987  23.244  1.00  0.00     0.310 C 
ATOM      4  O   UNL A   1      34.193  23.363  22.077  1.00  0.00    -0.252 OA
BRANCH   3   5
ATOM      5  C   UNL A   1      32.961  22.416  23.932  1.00  0.00     0.115 C 
ATOM      6  C   UNL A   1      32.206  23.342  24.913  1.00  0.00     0.097 C 
ATOM      7  C   UNL A   1      32.912  23.507  26.256  1.00  0.00     0.041 C 
ATOM      8  C   UNL A   1      33.356  22.198  26.833  1.00  0.00    -0.030 C 
ATOM      9  C   UNL A   1      33.292  21.055  24.603  1.00  0.00     0.043 C 
ATOM     10  C   UNL A   1      33.514  21.098  26.088  1.00  0.00    -0.030 C 
BRANCH   6  11
ATOM     11  C   UNL A   1      31.584  24.551  24.201  1.00  0.00     0.226 C 
ATOM     12  O   UNL A   1      30.586  24.339  23.496  1.00  0.00    -0.275 OA
BRANCH  11  13
ATOM     13  N   UNL A   1      32.070  25.832  24.314  1.00  0.00    -0.341 N 
ATOM     14  C   UNL A   1      32.014  28.070  25.033  1.00  0.00     0.123 C 
ATOM     15  C   UNL A   1      31.142  26.932  24.530  1.00  0.00     0.135 C 
ATOM     16  C   UNL A   1      33.337  27.866  24.279  1.00  0.00     0.021 C 
ATOM     17  C   UNL A   1      33.426  26.339  24.159  1.00  0.00     0.123 C 
ATOM     18  C   UNL A   1      33.399  28.551  22.912  1.00  0.00     0.010 C 
BRANCH  14  19
ATOM     19  C   UNL A   1      31.381  29.420  24.824  1.00  0.00     0.310 C 
ATOM     20  O   UNL A   1      30.456  29.661  24.063  1.00  0.00    -0.252 OA
BRANCH  19  21
ATOM     21  O   UNL A   1      32.012  30.344  25.606  1.00  0.00    -0.469 OA
ATOM     22  C   UNL A   1      32.150  29.955  26.972  1.00  0.00     0.282 C 
ENDBRANCH  19  21
ENDBRANCH  14  19
ENDBRANCH  11  13
ENDBRANCH   6  11
ENDBRANCH   3   5
ENDBRANCH   2   3
ENDBRANCH   1   2
BRANCH   1  23
ATOM     23  C   UNL A   1      37.169  21.627  24.149  1.00  0.00     0.275 C 
BRANCH  23  24
ATOM     24  O   UNL A   1      37.492  21.885  25.521  1.00  0.00    -0.458 OA
BRANCH  24  25
ATOM     25  C   UNL A   1      38.756  21.599  25.910  1.00  0.00     0.338 C 
ATOM     26  O   UNL A   1      39.359  20.553  25.746  1.00  0.00    -0.246 OA
BRANCH  25  27
ATOM     27  C   UNL A   1      39.341  22.777  26.580  1.00  0.00     0.060 A 
ATOM     28  C   UNL A   1      40.453  22.653  27.415  1.00  0.00     0.016 A 
ATOM     29  C   UNL A   1      38.748  24.026  26.386  1.00  0.00     0.016 A 
ATOM     30  C   UNL A   1      40.975  23.771  28.055  1.00  0.00     0.010 A 
ATOM     31  C   UNL A   1      39.330  25.159  26.952  1.00  0.00     0.010 A 
ATOM     32  C   UNL A   1      40.461  25.044  27.775  1.00  0.00    -0.014 A 
BRANCH  32  33
ATOM     33  C   UNL A   1      41.188  26.261  28.217  1.00  0.00     0.031 A 
ATOM     34  C   UNL A   1      40.489  27.341  28.986  1.00  0.00     0.074 A 
ATOM     35  C   UNL A   1      42.467  26.418  27.822  1.00  0.00     0.049 A 
ATOM     36  N   UNL A   1      40.906  28.545  29.275  1.00  0.00    -0.248 NA
ATOM     37  C   UNL A   1      39.134  27.040  29.474  1.00  0.00     0.031 C 
ATOM     38  C   UNL A   1      43.235  25.441  27.044  1.00  0.00     0.029 A 
ATOM     39  N   UNL A   1      43.344  27.459  27.994  1.00  0.00    -0.354 N 
ATOM     40  C   UNL A   1      39.844  29.173  29.912  1.00  0.00     0.074 A 
ATOM     41  C   UNL A   1      38.766  28.208  29.985  1.00  0.00     0.031 C 
ATOM     42  C   UNL A   1      44.470  25.911  26.832  1.00  0.00     0.029 A 
ATOM     43  C   UNL A   1      44.556  27.258  27.376  1.00  0.00     0.049 A 
ATOM     44  H   UNL A   1      43.126  28.270  28.509  1.00  0.00     0.167 HD
ATOM     45  C   UNL A   1      39.779  30.440  30.389  1.00  0.00     0.034 A 
ATOM     46  C   UNL A   1      45.611  28.081  27.220  1.00  0.00     0.034 A 
ATOM     47  C   UNL A   1      40.883  31.365  30.351  1.00  0.00     0.049 A 
ATOM     48  C   UNL A   1      45.520  29.469  27.773  1.00  0.00     0.074 A 
ATOM     49  C   UNL A   1      40.954  32.644  30.875  1.00  0.00     0.029 A 
ATOM     50  N   UNL A   1      42.109  31.112  29.752  1.00  0.00    -0.354 N 
ATOM     51  N   UNL A   1      44.537  30.024  28.442  1.00  0.00    -0.248 NA
ATOM     52  C   UNL A   1      46.674  30.348  27.552  1.00  0.00     0.031 C 
ATOM     53  C   UNL A   1      42.216  33.170  30.574  1.00  0.00     0.029 A 
ATOM     54  C   UNL A   1      42.938  32.214  29.876  1.00  0.00     0.049 A 
ATOM     55  H   UNL A   1      42.354  30.270  29.302  1.00  0.00     0.167 HD
ATOM     56  C   UNL A   1      44.951  31.318  28.722  1.00  0.00     0.074 A 
ATOM     57  C   UNL A   1      46.291  31.451  28.182  1.00  0.00     0.031 C 
ATOM     58  C   UNL A   1      44.275  32.314  29.345  1.00  0.00     0.034 A 
BRANCH  45  59
ATOM     59  C   UNL A   1      38.480  30.892  31.004  1.00  0.00     0.023 A 
ATOM     60  C   UNL A   1      38.247  30.690  32.379  1.00  0.00     0.012 A 
ATOM     61  C   UNL A   1      37.504  31.551  30.230  1.00  0.00     0.148 A 
ATOM     62  C   UNL A   1      37.050  31.104  32.966  1.00  0.00     0.002 A 
ATOM     63  C   UNL A   1      36.330  31.995  30.831  1.00  0.00     0.091 A 
ATOM     64  F   UNL A   1      37.727  31.713  28.918  1.00  0.00    -0.205 F 
ATOM     65  C   UNL A   1      36.097  31.763  32.196  1.00  0.00     0.022 A 
BRANCH  63  66
ATOM     66  S   UNL A   1      35.076  32.913  29.926  1.00  0.00     0.127 S 
ATOM     67  O   UNL A   1      35.875  33.966  29.301  1.00  0.00    -0.237 OA
ATOM     68  O   UNL A   1      34.562  31.906  28.995  1.00  0.00    -0.237 OA
ATOM     69  O   UNL A   1      34.113  33.355  30.924  1.00  0.00    -0.744 OA
ENDBRANCH  63  66
ENDBRANCH  45  59
BRANCH  46  70
ATOM     70  C   UNL A   1      46.833  27.578  26.531  1.00  0.00     0.023 A 
ATOM     71  C   UNL A   1      47.652  26.641  27.190  1.00  0.00     0.012 A 
ATOM     72  C   UNL A   1      47.121  27.921  25.195  1.00  0.00     0.148 A 
ATOM     73  C   UNL A   1      48.731  26.054  26.529  1.00  0.00     0.002 A 
ATOM     74  C   UNL A   1      48.157  27.285  24.523  1.00  0.00     0.091 A 
ATOM     75  F   UNL A   1      46.341  28.832  24.591  1.00  0.00    -0.205 F 
ATOM     76  C   UNL A   1      48.972  26.359  25.192  1.00  0.00     0.022 A 
BRANCH  74  77
ATOM     77  S   UNL A   1      48.425  27.492  22.757  1.00  0.00     0.127 S 
ATOM     78  O   UNL A   1      49.681  28.235  22.729  1.00  0.00    -0.237 OA
ATOM     79  O   UNL A   1      48.519  26.105  22.298  1.00  0.00    -0.237 OA
ATOM     80  O   UNL A   1      47.254  28.204  22.265  1.00  0.00    -0.744 OA
ENDBRANCH  74  77
ENDBRANCH  46  70
BRANCH  58  81
ATOM     81  C   UNL A   1      44.975  33.641  29.458  1.00  0.00     0.023 A 
ATOM     82  C   UNL A   1      45.767  33.908  30.592  1.00  0.00     0.012 A 
ATOM     83  C   UNL A   1      44.891  34.595  28.427  1.00  0.00     0.148 A 
ATOM     84  C   UNL A   1      46.445  35.119  30.711  1.00  0.00     0.002 A 
ATOM     85  C   UNL A   1      45.603  35.784  28.534  1.00  0.00     0.091 A 
ATOM     86  F   UNL A   1      44.114  34.327  27.369  1.00  0.00    -0.205 F 
ATOM     87  C   UNL A   1      46.371  36.051  29.679  1.00  0.00     0.022 A 
BRANCH  85  88
ATOM     88  S   UNL A   1      45.633  37.007  27.220  1.00  0.00     0.127 S 
ATOM     89  O   UNL A   1      46.487  38.044  27.799  1.00  0.00    -0.237 OA
ATOM     90  O   UNL A   1      46.240  36.263  26.116  1.00  0.00    -0.237 OA
ATOM     91  O   UNL A   1      44.246  37.390  26.999  1.00  0.00    -0.744 OA
ENDBRANCH  85  88
ENDBRANCH  58  81
ENDBRANCH  32  33
ENDBRANCH  25  27
ENDBRANCH  24  25
ENDBRANCH  23  24
ENDBRANCH   1  23
TORSDOF 18
ENDMDL
MODEL 3
REMARK VINA RESULT:     -11.9      6.150     11.247
REMARK SMILES COC(=O)[C@H]1CN(C(=O)[C@@H]2CC=CC[C@@H]2C(=O)OCCOC(=O)c2ccc(-c3c4nc(c(-c5cccc(S(=O)(=O)[O-])c5F)c5ccc([nH]5)c(-c5cccc(S(=O)(=O)[O-])c5F)c5nc(c(-c6cccc(S(=O)(=O)[O-])c6F)c6ccc3[nH]6)C=C5)C=C4)cc2)C[C@H]1C
REMARK SMILES IDX 19 1 18 2 16 3 17 4 15 5 10 6 11 7 12 8 14 9 13 10 8 11 9 12
REMARK SMILES IDX 7 13 5 14 6 15 88 16 87 17 89 18 3 19 4 20 2 21 1 22 20 23
REMARK SMILES IDX 21 24 22 25 23 26 24 27 25 28 86 29 26 30 85 31 27 32 28 33
REMARK SMILES IDX 29 34 79 35 30 36 84 37 78 38 80 39 31 40 83 41 77 42 76 43
REMARK SMILES IDX 32 45 64 46 44 47 63 48 45 49 48 50 62 51 81 52 46 53 47 54
REMARK SMILES IDX 61 56 82 57 49 58 33 59 34 60 42 61 35 62 37 63 43 64 36 65
REMARK SMILES IDX 38 66 39 67 40 68 41 69 65 70 66 71 74 72 67 73 69 74 75 75
REMARK SMILES IDX 68 76 70 77 71 78 72 79 73 80 50 81 51 82 59 83 52 84 54 85
REMARK SMILES IDX 60 86 53 87 55 88 56 89 57 90 58 91
REMARK H PARENT 80 44 48 55
REMARK Flexibility Score: inf
ROOT
ATOM      1  C   UNL A   1      33.356  29.783  25.612  1.00  0.00     0.274 C 
ENDROOT
BRANCH   1   2
ATOM      2  O   UNL A   1      32.740  29.445  24.350  1.00  0.00    -0.462 OA
BRANCH   2   3
ATOM      3  C   UNL A   1      33.326  28.431  23.659  1.00  0.00     0.310 C 
ATOM      4  O   UNL A   1      34.311  28.583  22.945  1.00  0.00    -0.252 OA
BRANCH   3   5
ATOM      5  C   UNL A   1      32.555  27.118  23.737  1.00  0.00     0.115 C 
ATOM      6  C   UNL A   1      31.012  27.205  23.792  1.00  0.00     0.097 C 
ATOM      7  C   UNL A   1      30.477  27.632  25.155  1.00  0.00     0.041 C 
ATOM      8  C   UNL A   1      31.110  26.873  26.280  1.00  0.00    -0.030 C 
ATOM      9  C   UNL A   1      33.098  26.235  24.893  1.00  0.00     0.043 C 
ATOM     10  C   UNL A   1      32.281  26.238  26.154  1.00  0.00    -0.030 C 
BRANCH   6  11
ATOM     11  C   UNL A   1      30.423  27.789  22.500  1.00  0.00     0.226 C 
ATOM     12  O   UNL A   1      30.820  27.307  21.429  1.00  0.00    -0.275 OA
BRANCH  11  13
ATOM     13  N   UNL A   1      29.487  28.796  22.480  1.00  0.00    -0.341 N 
ATOM     14  C   UNL A   1      28.641  30.900  21.858  1.00  0.00     0.123 C 
ATOM     15  C   UNL A   1      29.914  30.166  22.242  1.00  0.00     0.135 C 
ATOM     16  C   UNL A   1      27.561  30.206  22.701  1.00  0.00     0.021 C 
ATOM     17  C   UNL A   1      28.058  28.756  22.761  1.00  0.00     0.123 C 
ATOM     18  C   UNL A   1      27.368  30.802  24.097  1.00  0.00     0.010 C 
BRANCH  14  19
ATOM     19  C   UNL A   1      28.742  32.386  22.075  1.00  0.00     0.310 C 
ATOM     20  O   UNL A   1      29.488  32.940  22.869  1.00  0.00    -0.252 OA
BRANCH  19  21
ATOM     21  O   UNL A   1      27.854  33.026  21.260  1.00  0.00    -0.469 OA
ATOM     22  C   UNL A   1      27.767  32.474  19.947  1.00  0.00     0.282 C 
ENDBRANCH  19  21
ENDBRANCH  14  19
ENDBRANCH  11  13
ENDBRANCH   6  11
ENDBRANCH   3   5
ENDBRANCH   2   3
ENDBRANCH   1   2
BRANCH   1  23
ATOM     23  C   UNL A   1      32.467  30.710  26.436  1.00  0.00     0.275 C 
BRANCH  23  24
ATOM     24  O   UNL A   1      33.048  30.913  27.730  1.00  0.00    -0.458 OA
BRANCH  24  25
ATOM     25  C   UNL A   1      33.860  31.986  27.868  1.00  0.00     0.338 C 
ATOM     26  O   UNL A   1      33.567  33.158  27.702  1.00  0.00    -0.246 OA
BRANCH  25  27
ATOM     27  C   UNL A   1      35.205  31.535  28.275  1.00  0.00     0.060 A 
ATOM     28  C   UNL A   1      36.266  32.436  28.381  1.00  0.00     0.016 A 
ATOM     29  C   UNL A   1      35.410  30.178  28.534  1.00  0.00     0.016 A 
ATOM     30  C   UNL A   1      37.530  31.986  28.744  1.00  0.00     0.010 A 
ATOM     31  C   UNL A   1      36.654  29.745  28.990  1.00  0.00     0.010 A 
ATOM     32  C   UNL A   1      37.720  30.650  29.119  1.00  0.00    -0.014 A 
BRANCH  32  33
ATOM     33  C   UNL A   1      38.979  30.228  29.782  1.00  0.00     0.031 A 
ATOM     34  C   UNL A   1      39.884  29.215  29.148  1.00  0.00     0.074 A 
ATOM     35  C   UNL A   1      39.239  30.702  31.017  1.00  0.00     0.049 A 
ATOM     36  N   UNL A   1      40.906  28.587  29.667  1.00  0.00    -0.248 NA
ATOM     37  C   UNL A   1      39.589  28.838  27.757  1.00  0.00     0.031 C 
ATOM     38  C   UNL A   1      38.408  31.670  31.740  1.00  0.00     0.029 A 
ATOM     39  N   UNL A   1      40.255  30.423  31.896  1.00  0.00    -0.354 N 
ATOM     40  C   UNL A   1      41.332  27.688  28.698  1.00  0.00     0.074 A 
ATOM     41  C   UNL A   1      40.468  27.866  27.549  1.00  0.00     0.031 C 
ATOM     42  C   UNL A   1      38.959  31.927  32.932  1.00  0.00     0.029 A 
ATOM     43  C   UNL A   1      40.128  31.077  33.100  1.00  0.00     0.049 A 
ATOM     44  H   UNL A   1      41.001  29.815  31.685  1.00  0.00     0.167 HD
ATOM     45  C   UNL A   1      42.352  26.798  28.767  1.00  0.00     0.034 A 
ATOM     46  C   UNL A   1      40.844  30.974  34.236  1.00  0.00     0.034 A 
ATOM     47  C   UNL A   1      43.230  26.676  29.902  1.00  0.00     0.049 A 
ATOM     48  C   UNL A   1      41.977  29.996  34.279  1.00  0.00     0.074 A 
ATOM     49  C   UNL A   1      44.342  25.865  30.048  1.00  0.00     0.029 A 
ATOM     50  N   UNL A   1      43.095  27.384  31.089  1.00  0.00    -0.354 N 
ATOM     51  N   UNL A   1      42.418  29.208  33.327  1.00  0.00    -0.248 NA
ATOM     52  C   UNL A   1      42.710  29.886  35.545  1.00  0.00     0.031 C 
ATOM     53  C   UNL A   1      44.866  26.068  31.331  1.00  0.00     0.029 A 
ATOM     54  C   UNL A   1      44.090  27.017  31.980  1.00  0.00     0.049 A 
ATOM     55  H   UNL A   1      42.392  28.049  31.271  1.00  0.00     0.167 HD
ATOM     56  C   UNL A   1      43.480  28.505  33.877  1.00  0.00     0.074 A 
ATOM     57  C   UNL A   1      43.639  28.990  35.235  1.00  0.00     0.031 C 
ATOM     58  C   UNL A   1      44.238  27.529  33.319  1.00  0.00     0.034 A 
BRANCH  45  59
ATOM     59  C   UNL A   1      42.579  25.900  27.579  1.00  0.00     0.023 A 
ATOM     60  C   UNL A   1      43.322  26.368  26.476  1.00  0.00     0.012 A 
ATOM     61  C   UNL A   1      42.090  24.578  27.567  1.00  0.00     0.148 A 
ATOM     62  C   UNL A   1      43.544  25.549  25.368  1.00  0.00     0.002 A 
ATOM     63  C   UNL A   1      42.349  23.755  26.475  1.00  0.00     0.091 A 
ATOM     64  F   UNL A   1      41.363  24.154  28.611  1.00  0.00    -0.205 F 
ATOM     65  C   UNL A   1      43.067  24.242  25.371  1.00  0.00     0.022 A 
BRANCH  63  66
ATOM     66  S   UNL A   1      41.828  22.035  26.425  1.00  0.00     0.127 S 
ATOM     67  O   UNL A   1      42.225  21.567  27.751  1.00  0.00    -0.237 OA
ATOM     68  O   UNL A   1      40.381  22.152  26.229  1.00  0.00    -0.237 OA
ATOM     69  O   UNL A   1      42.539  21.440  25.303  1.00  0.00    -0.744 OA
ENDBRANCH  63  66
ENDBRANCH  45  59
BRANCH  46  70
ATOM     70  C   UNL A   1      40.505  31.849  35.394  1.00  0.00     0.023 A 
ATOM     71  C   UNL A   1      41.199  33.062  35.560  1.00  0.00     0.012 A 
ATOM     72  C   UNL A   1      39.427  31.551  36.252  1.00  0.00     0.148 A 
ATOM     73  C   UNL A   1      40.823  33.963  36.556  1.00  0.00     0.002 A 
ATOM     74  C   UNL A   1      39.018  32.481  37.199  1.00  0.00     0.091 A 
ATOM     75  F   UNL A   1      38.792  30.380  36.092  1.00  0.00    -0.205 F 
ATOM     76  C   UNL A   1      39.722  33.684  37.362  1.00  0.00     0.022 A 
BRANCH  74  77
ATOM     77  S   UNL A   1      37.509  32.276  38.156  1.00  0.00     0.127 S 
ATOM     78  O   UNL A   1      36.547  33.038  37.366  1.00  0.00    -0.237 OA
ATOM     79  O   UNL A   1      37.322  30.825  38.123  1.00  0.00    -0.237 OA
ATOM     80  O   UNL A   1      37.810  32.808  39.478  1.00  0.00    -0.744 OA
ENDBRANCH  74  77
ENDBRANCH  46  70
BRANCH  58  81
ATOM     81  C   UNL A   1      45.297  26.912  34.191  1.00  0.00     0.023 A 
ATOM     82  C   UNL A   1      46.599  27.450  34.178  1.00  0.00     0.012 A 
ATOM     83  C   UNL A   1      44.994  25.842  35.052  1.00  0.00     0.148 A 
ATOM     84  C   UNL A   1      47.593  26.913  34.993  1.00  0.00     0.002 A 
ATOM     85  C   UNL A   1      45.980  25.338  35.892  1.00  0.00     0.091 A 
ATOM     86  F   UNL A   1      43.755  25.333  35.030  1.00  0.00    -0.205 F 
ATOM     87  C   UNL A   1      47.282  25.866  35.856  1.00  0.00     0.022 A 
BRANCH  85  88
ATOM     88  S   UNL A   1      45.652  24.045  37.093  1.00  0.00     0.127 S 
ATOM     89  O   UNL A   1      44.494  24.587  37.804  1.00  0.00    -0.237 OA
ATOM     90  O   UNL A   1      45.360  22.893  36.240  1.00  0.00    -0.237 OA
ATOM     91  O   UNL A   1      46.867  23.917  37.885  1.00  0.00    -0.744 OA
ENDBRANCH  85  88
ENDBRANCH  58  81
ENDBRANCH  32  33
ENDBRANCH  25  27
ENDBRANCH  24  25
ENDBRANCH  23  24
ENDBRANCH   1  23
TORSDOF 18
ENDMDL
