MODEL 1
REMARK VINA RESULT:     -13.1      0.000      0.000
REMARK SMILES O=C(OCCOC(=O)c1cc(N2CCN(c3ccc(F)cc3)CC2)ccc1NC(=O)C1CCCC1)c1ccc(-c2c3nc(c(-c4cccc(S(=O)(=O)[O-])c4F)c4ccc([nH]4)c(-c4cccc(S(=O)(=O)[O-])c4F)c4nc(c(-c5cccc(S(=O)(=O)[O-])c5F)c5ccc2[nH]5)C=C4)C=C3)cc1
REMARK SMILES IDX 4 1 3 2 2 3 1 4 36 5 37 6 98 7 38 8 97 9 39 10 40 11 41 12
REMARK SMILES IDX 91 13 42 14 96 15 90 16 92 17 43 18 95 19 89 20 88 21 44 23
REMARK SMILES IDX 76 24 56 25 75 26 57 27 60 28 74 29 93 30 58 31 59 32 73 34
REMARK SMILES IDX 94 35 61 36 45 37 46 38 54 39 47 40 49 41 55 42 48 43 50 44
REMARK SMILES IDX 51 45 52 46 53 47 77 48 78 49 86 50 79 51 81 52 87 53 80 54
REMARK SMILES IDX 82 55 83 56 84 57 85 58 62 59 63 60 71 61 64 62 66 63 72 64
REMARK SMILES IDX 65 65 67 66 68 67 69 68 70 69 5 70 6 71 7 72 8 73 9 74 10 75
REMARK SMILES IDX 27 76 11 77 26 78 25 79 28 80 29 81 30 83 31 84 32 85 35 86
REMARK SMILES IDX 33 87 34 88 12 89 13 90 24 91 14 92 23 93 15 94 16 95 17 96
REMARK SMILES IDX 22 97 18 98 21 99 19 100 20 101
REMARK H PARENT 92 22 60 33 28 82
REMARK Flexibility Score: inf
ROOT
ATOM      1  C   UNL A   1      32.216  31.422  26.936  1.00  0.00     0.275 C 
ENDROOT
BRANCH   1   2
ATOM      2  O   UNL A   1      32.568  32.811  27.010  1.00  0.00    -0.458 OA
BRANCH   2   3
ATOM      3  C   UNL A   1      33.201  33.499  27.988  1.00  0.00     0.338 C 
ATOM      4  O   UNL A   1      32.713  34.576  28.334  1.00  0.00    -0.246 OA
BRANCH   3   5
ATOM      5  C   UNL A   1      34.503  33.089  28.629  1.00  0.00     0.060 A 
ATOM      6  C   UNL A   1      35.784  33.112  28.066  1.00  0.00     0.016 A 
ATOM      7  C   UNL A   1      34.400  32.604  29.941  1.00  0.00     0.016 A 
ATOM      8  C   UNL A   1      36.915  32.635  28.766  1.00  0.00     0.010 A 
ATOM      9  C   UNL A   1      35.523  32.180  30.662  1.00  0.00     0.010 A 
ATOM     10  C   UNL A   1      36.791  32.120  30.054  1.00  0.00    -0.014 A 
BRANCH  10  11
ATOM     11  C   UNL A   1      37.819  31.246  30.700  1.00  0.00     0.031 A 
ATOM     12  C   UNL A   1      38.384  31.742  32.006  1.00  0.00     0.074 A 
ATOM     13  C   UNL A   1      38.274  30.059  30.241  1.00  0.00     0.049 A 
ATOM     14  N   UNL A   1      39.410  31.298  32.673  1.00  0.00    -0.248 NA
ATOM     15  C   UNL A   1      37.653  32.831  32.685  1.00  0.00     0.031 C 
ATOM     16  C   UNL A   1      37.658  29.206  29.235  1.00  0.00     0.029 A 
ATOM     17  N   UNL A   1      39.477  29.419  30.496  1.00  0.00    -0.354 N 
ATOM     18  C   UNL A   1      39.397  31.987  33.874  1.00  0.00     0.074 A 
ATOM     19  C   UNL A   1      38.358  32.985  33.793  1.00  0.00     0.031 C 
ATOM     20  C   UNL A   1      38.574  28.321  28.790  1.00  0.00     0.029 A 
ATOM     21  C   UNL A   1      39.836  28.548  29.475  1.00  0.00     0.049 A 
ATOM     22  H   UNL A   1      40.015  29.565  31.307  1.00  0.00     0.167 HD
ATOM     23  C   UNL A   1      40.122  31.725  34.983  1.00  0.00     0.034 A 
ATOM     24  C   UNL A   1      41.065  28.104  29.113  1.00  0.00     0.034 A 
ATOM     25  C   UNL A   1      41.137  30.716  35.032  1.00  0.00     0.049 A 
ATOM     26  C   UNL A   1      42.123  28.175  30.164  1.00  0.00     0.074 A 
ATOM     27  C   UNL A   1      41.864  30.264  36.115  1.00  0.00     0.029 A 
ATOM     28  N   UNL A   1      41.601  30.031  33.918  1.00  0.00    -0.354 N 
ATOM     29  N   UNL A   1      42.078  28.775  31.324  1.00  0.00    -0.248 NA
ATOM     30  C   UNL A   1      43.313  27.345  29.941  1.00  0.00     0.031 C 
ATOM     31  C   UNL A   1      42.817  29.354  35.643  1.00  0.00     0.029 A 
ATOM     32  C   UNL A   1      42.647  29.206  34.275  1.00  0.00     0.049 A 
ATOM     33  H   UNL A   1      41.236  30.121  33.009  1.00  0.00     0.167 HD
ATOM     34  C   UNL A   1      43.137  28.252  32.040  1.00  0.00     0.074 A 
ATOM     35  C   UNL A   1      43.882  27.396  31.136  1.00  0.00     0.031 C 
ATOM     36  C   UNL A   1      43.385  28.375  33.364  1.00  0.00     0.034 A 
BRANCH  23  37
ATOM     37  C   UNL A   1      39.801  32.522  36.210  1.00  0.00     0.023 A 
ATOM     38  C   UNL A   1      40.554  33.677  36.520  1.00  0.00     0.012 A 
ATOM     39  C   UNL A   1      38.770  32.114  37.070  1.00  0.00     0.148 A 
ATOM     40  C   UNL A   1      40.316  34.381  37.698  1.00  0.00     0.002 A 
ATOM     41  C   UNL A   1      38.509  32.847  38.219  1.00  0.00     0.091 A 
ATOM     42  F   UNL A   1      38.091  30.999  36.769  1.00  0.00    -0.205 F 
ATOM     43  C   UNL A   1      39.290  33.970  38.544  1.00  0.00     0.022 A 
BRANCH  41  44
ATOM     44  S   UNL A   1      37.172  32.427  39.336  1.00  0.00     0.127 S 
ATOM     45  O   UNL A   1      37.359  33.410  40.402  1.00  0.00    -0.237 OA
ATOM     46  O   UNL A   1      35.992  32.651  38.499  1.00  0.00    -0.237 OA
ATOM     47  O   UNL A   1      37.389  31.038  39.717  1.00  0.00    -0.744 OA
ENDBRANCH  41  44
ENDBRANCH  23  37
BRANCH  24  48
ATOM     48  C   UNL A   1      41.433  27.524  27.779  1.00  0.00     0.023 A 
ATOM     49  C   UNL A   1      41.756  28.329  26.677  1.00  0.00     0.012 A 
ATOM     50  C   UNL A   1      41.437  26.114  27.609  1.00  0.00     0.148 A 
ATOM     51  C   UNL A   1      42.141  27.745  25.460  1.00  0.00     0.002 A 
ATOM     52  C   UNL A   1      41.914  25.540  26.432  1.00  0.00     0.091 A 
ATOM     53  F   UNL A   1      41.029  25.353  28.636  1.00  0.00    -0.205 F 
ATOM     54  C   UNL A   1      42.252  26.357  25.346  1.00  0.00     0.022 A 
BRANCH  52  55
ATOM     55  S   UNL A   1      42.352  23.791  26.310  1.00  0.00     0.127 S 
ATOM     56  O   UNL A   1      41.050  23.138  26.416  1.00  0.00    -0.237 OA
ATOM     57  O   UNL A   1      42.966  23.720  24.982  1.00  0.00    -0.237 OA
ATOM     58  O   UNL A   1      43.277  23.537  27.407  1.00  0.00    -0.744 OA
ENDBRANCH  52  55
ENDBRANCH  24  48
BRANCH  36  59
ATOM     59  C   UNL A   1      44.431  27.474  33.932  1.00  0.00     0.023 A 
ATOM     60  C   UNL A   1      45.765  27.898  34.044  1.00  0.00     0.012 A 
ATOM     61  C   UNL A   1      44.054  26.196  34.389  1.00  0.00     0.148 A 
ATOM     62  C   UNL A   1      46.721  27.047  34.590  1.00  0.00     0.002 A 
ATOM     63  C   UNL A   1      44.996  25.382  34.991  1.00  0.00     0.091 A 
ATOM     64  F   UNL A   1      42.779  25.809  34.227  1.00  0.00    -0.205 F 
ATOM     65  C   UNL A   1      46.334  25.797  35.078  1.00  0.00     0.022 A 
BRANCH  63  66
ATOM     66  S   UNL A   1      44.565  23.813  35.745  1.00  0.00     0.127 S 
ATOM     67  O   UNL A   1      43.207  24.072  36.221  1.00  0.00    -0.237 OA
ATOM     68  O   UNL A   1      44.652  22.899  34.607  1.00  0.00    -0.237 OA
ATOM     69  O   UNL A   1      45.550  23.577  36.793  1.00  0.00    -0.744 OA
ENDBRANCH  63  66
ENDBRANCH  36  59
ENDBRANCH  10  11
ENDBRANCH   3   5
ENDBRANCH   2   3
ENDBRANCH   1   2
BRANCH   1  70
ATOM     70  C   UNL A   1      33.398  30.455  26.897  1.00  0.00     0.275 C 
BRANCH  70  71
ATOM     71  O   UNL A   1      33.315  29.504  25.829  1.00  0.00    -0.458 OA
BRANCH  71  72
ATOM     72  C   UNL A   1      32.774  28.295  26.149  1.00  0.00     0.340 C 
ATOM     73  O   UNL A   1      32.361  27.964  27.244  1.00  0.00    -0.246 OA
BRANCH  72  74
ATOM     74  C   UNL A   1      32.735  27.418  24.954  1.00  0.00     0.085 A 
ATOM     75  C   UNL A   1      33.064  26.049  25.117  1.00  0.00     0.043 A 
ATOM     76  C   UNL A   1      32.448  27.941  23.684  1.00  0.00     0.055 A 
ATOM     77  C   UNL A   1      33.137  25.192  24.015  1.00  0.00     0.038 A 
ATOM     78  C   UNL A   1      32.810  27.158  22.606  1.00  0.00     0.029 A 
ATOM     79  C   UNL A   1      33.041  25.796  22.764  1.00  0.00     0.028 A 
BRANCH  76  80
ATOM     80  N   UNL A   1      31.726  29.150  23.560  1.00  0.00    -0.325 N 
ATOM     81  C   UNL A   1      30.398  29.443  23.428  1.00  0.00     0.227 C 
ATOM     82  H   UNL A   1      32.300  29.950  23.573  1.00  0.00     0.169 HD
ATOM     83  O   UNL A   1      30.076  30.631  23.542  1.00  0.00    -0.274 OA
BRANCH  81  84
ATOM     84  C   UNL A   1      29.377  28.363  23.159  1.00  0.00     0.079 C 
ATOM     85  C   UNL A   1      29.419  27.237  24.180  1.00  0.00     0.013 C 
ATOM     86  C   UNL A   1      27.931  28.843  23.285  1.00  0.00     0.013 C 
ATOM     87  C   UNL A   1      28.139  26.501  23.928  1.00  0.00     0.001 C 
ATOM     88  C   UNL A   1      27.133  27.571  23.523  1.00  0.00     0.001 C 
ENDBRANCH  81  84
ENDBRANCH  76  80
BRANCH  77  89
ATOM     89  N   UNL A   1      33.360  23.839  24.088  1.00  0.00    -0.368 N 
ATOM     90  C   UNL A   1      34.582  23.195  24.615  1.00  0.00     0.138 C 
ATOM     91  C   UNL A   1      32.297  22.922  23.636  1.00  0.00     0.138 C 
ATOM     92  C   UNL A   1      34.261  22.035  25.618  1.00  0.00     0.138 C 
ATOM     93  C   UNL A   1      31.961  21.892  24.723  1.00  0.00     0.138 C 
ATOM     94  N   UNL A   1      33.172  21.168  25.126  1.00  0.00    -0.368 N 
BRANCH  94  95
ATOM     95  C   UNL A   1      33.435  19.906  24.636  1.00  0.00     0.037 A 
ATOM     96  C   UNL A   1      32.476  19.242  23.858  1.00  0.00     0.029 A 
ATOM     97  C   UNL A   1      34.664  19.262  24.842  1.00  0.00     0.029 A 
ATOM     98  C   UNL A   1      32.744  17.994  23.285  1.00  0.00     0.041 A 
ATOM     99  C   UNL A   1      34.934  18.008  24.293  1.00  0.00     0.041 A 
ATOM    100  C   UNL A   1      33.972  17.388  23.512  1.00  0.00     0.123 A 
ATOM    101  F   UNL A   1      34.237  16.194  22.965  1.00  0.00    -0.207 F 
ENDBRANCH  94  95
ENDBRANCH  77  89
ENDBRANCH  72  74
ENDBRANCH  71  72
ENDBRANCH  70  71
ENDBRANCH   1  70
TORSDOF 18
ENDMDL
MODEL 2
REMARK VINA RESULT:     -12.7      2.008      7.437
REMARK SMILES O=C(OCCOC(=O)c1cc(N2CCN(c3ccc(F)cc3)CC2)ccc1NC(=O)C1CCCC1)c1ccc(-c2c3nc(c(-c4cccc(S(=O)(=O)[O-])c4F)c4ccc([nH]4)c(-c4cccc(S(=O)(=O)[O-])c4F)c4nc(c(-c5cccc(S(=O)(=O)[O-])c5F)c5ccc2[nH]5)C=C4)C=C3)cc1
REMARK SMILES IDX 4 1 3 2 2 3 1 4 36 5 37 6 98 7 38 8 97 9 39 10 40 11 41 12
REMARK SMILES IDX 91 13 42 14 96 15 90 16 92 17 43 18 95 19 89 20 88 21 44 23
REMARK SMILES IDX 76 24 56 25 75 26 57 27 60 28 74 29 93 30 58 31 59 32 73 34
REMARK SMILES IDX 94 35 61 36 45 37 46 38 54 39 47 40 49 41 55 42 48 43 50 44
REMARK SMILES IDX 51 45 52 46 53 47 77 48 78 49 86 50 79 51 81 52 87 53 80 54
REMARK SMILES IDX 82 55 83 56 84 57 85 58 62 59 63 60 71 61 64 62 66 63 72 64
REMARK SMILES IDX 65 65 67 66 68 67 69 68 70 69 5 70 6 71 7 72 8 73 9 74 10 75
REMARK SMILES IDX 27 76 11 77 26 78 25 79 28 80 29 81 30 83 31 84 32 85 35 86
REMARK SMILES IDX 33 87 34 88 12 89 13 90 24 91 14 92 23 93 15 94 16 95 17 96
REMARK SMILES IDX 22 97 18 98 21 99 19 100 20 101
REMARK H PARENT 92 22 60 33 28 82
REMARK Flexibility Score: inf
ROOT
ATOM      1  C   UNL A   1      33.127  31.299  27.251  1.00  0.00     0.275 C 
ENDROOT
BRANCH   1   2
ATOM      2  O   UNL A   1      32.698  32.650  27.475  1.00  0.00    -0.458 OA
BRANCH   2   3
ATOM      3  C   UNL A   1      33.222  33.610  28.271  1.00  0.00     0.338 C 
ATOM      4  O   UNL A   1      32.568  34.645  28.421  1.00  0.00    -0.246 OA
BRANCH   3   5
ATOM      5  C   UNL A   1      34.580  33.547  28.924  1.00  0.00     0.060 A 
ATOM      6  C   UNL A   1      35.817  33.896  28.370  1.00  0.00     0.016 A 
ATOM      7  C   UNL A   1      34.594  33.052  30.235  1.00  0.00     0.016 A 
ATOM      8  C   UNL A   1      37.027  33.723  29.079  1.00  0.00     0.010 A 
ATOM      9  C   UNL A   1      35.782  32.929  30.966  1.00  0.00     0.010 A 
ATOM     10  C   UNL A   1      37.028  33.195  30.368  1.00  0.00    -0.014 A 
BRANCH  10  11
ATOM     11  C   UNL A   1      38.240  32.613  31.024  1.00  0.00     0.031 A 
ATOM     12  C   UNL A   1      38.667  31.251  30.538  1.00  0.00     0.074 A 
ATOM     13  C   UNL A   1      38.993  33.189  31.987  1.00  0.00     0.049 A 
ATOM     14  N   UNL A   1      39.544  30.439  31.053  1.00  0.00    -0.248 NA
ATOM     15  C   UNL A   1      38.083  30.778  29.266  1.00  0.00     0.031 C 
ATOM     16  C   UNL A   1      39.021  34.595  32.364  1.00  0.00     0.029 A 
ATOM     17  N   UNL A   1      39.814  32.597  32.935  1.00  0.00    -0.354 N 
ATOM     18  C   UNL A   1      39.679  29.411  30.135  1.00  0.00     0.074 A 
ATOM     19  C   UNL A   1      38.692  29.614  29.103  1.00  0.00     0.031 C 
ATOM     20  C   UNL A   1      39.599  34.712  33.578  1.00  0.00     0.029 A 
ATOM     21  C   UNL A   1      39.975  33.394  34.062  1.00  0.00     0.049 A 
ATOM     22  H   UNL A   1      40.235  31.715  32.822  1.00  0.00     0.167 HD
ATOM     23  C   UNL A   1      40.624  28.446  30.109  1.00  0.00     0.034 A 
ATOM     24  C   UNL A   1      40.287  33.036  35.332  1.00  0.00     0.034 A 
ATOM     25  C   UNL A   1      41.600  28.282  31.146  1.00  0.00     0.049 A 
ATOM     26  C   UNL A   1      40.973  31.721  35.493  1.00  0.00     0.074 A 
ATOM     27  C   UNL A   1      42.684  27.428  31.193  1.00  0.00     0.029 A 
ATOM     28  N   UNL A   1      41.571  28.969  32.350  1.00  0.00    -0.354 N 
ATOM     29  N   UNL A   1      41.152  30.782  34.602  1.00  0.00    -0.248 NA
ATOM     30  C   UNL A   1      41.670  31.507  36.767  1.00  0.00     0.031 C 
ATOM     31  C   UNL A   1      43.270  27.550  32.458  1.00  0.00     0.029 A 
ATOM     32  C   UNL A   1      42.580  28.514  33.175  1.00  0.00     0.049 A 
ATOM     33  H   UNL A   1      40.927  29.675  32.581  1.00  0.00     0.167 HD
ATOM     34  C   UNL A   1      42.126  29.961  35.136  1.00  0.00     0.074 A 
ATOM     35  C   UNL A   1      42.393  30.434  36.481  1.00  0.00     0.031 C 
ATOM     36  C   UNL A   1      42.822  28.985  34.511  1.00  0.00     0.034 A 
BRANCH  23  37
ATOM     37  C   UNL A   1      40.646  27.546  28.913  1.00  0.00     0.023 A 
ATOM     38  C   UNL A   1      39.745  26.461  28.827  1.00  0.00     0.012 A 
ATOM     39  C   UNL A   1      41.576  27.758  27.883  1.00  0.00     0.148 A 
ATOM     40  C   UNL A   1      39.809  25.571  27.757  1.00  0.00     0.002 A 
ATOM     41  C   UNL A   1      41.604  26.895  26.798  1.00  0.00     0.091 A 
ATOM     42  F   UNL A   1      42.439  28.777  28.003  1.00  0.00    -0.205 F 
ATOM     43  C   UNL A   1      40.734  25.792  26.740  1.00  0.00     0.022 A 
BRANCH  41  44
ATOM     44  S   UNL A   1      42.719  27.133  25.416  1.00  0.00     0.127 S 
ATOM     45  O   UNL A   1      42.140  28.311  24.771  1.00  0.00    -0.237 OA
ATOM     46  O   UNL A   1      43.996  27.372  26.090  1.00  0.00    -0.237 OA
ATOM     47  O   UNL A   1      42.665  25.903  24.639  1.00  0.00    -0.744 OA
ENDBRANCH  41  44
ENDBRANCH  23  37
BRANCH  24  48
ATOM     48  C   UNL A   1      40.033  33.856  36.563  1.00  0.00     0.023 A 
ATOM     49  C   UNL A   1      38.850  33.743  37.307  1.00  0.00     0.012 A 
ATOM     50  C   UNL A   1      41.009  34.797  36.986  1.00  0.00     0.148 A 
ATOM     51  C   UNL A   1      38.675  34.495  38.480  1.00  0.00     0.002 A 
ATOM     52  C   UNL A   1      40.873  35.468  38.201  1.00  0.00     0.091 A 
ATOM     53  F   UNL A   1      42.092  34.975  36.214  1.00  0.00    -0.205 F 
ATOM     54  C   UNL A   1      39.695  35.329  38.943  1.00  0.00     0.022 A 
BRANCH  52  55
ATOM     55  S   UNL A   1      42.249  36.328  38.997  1.00  0.00     0.127 S 
ATOM     56  O   UNL A   1      42.658  37.278  37.966  1.00  0.00    -0.237 OA
ATOM     57  O   UNL A   1      41.600  36.932  40.162  1.00  0.00    -0.237 OA
ATOM     58  O   UNL A   1      43.223  35.296  39.328  1.00  0.00    -0.744 OA
ENDBRANCH  52  55
ENDBRANCH  24  48
BRANCH  36  59
ATOM     59  C   UNL A   1      44.014  28.449  35.234  1.00  0.00     0.023 A 
ATOM     60  C   UNL A   1      45.295  28.973  35.000  1.00  0.00     0.012 A 
ATOM     61  C   UNL A   1      43.829  27.429  36.188  1.00  0.00     0.148 A 
ATOM     62  C   UNL A   1      46.389  28.468  35.696  1.00  0.00     0.002 A 
ATOM     63  C   UNL A   1      44.911  26.979  36.923  1.00  0.00     0.091 A 
ATOM     64  F   UNL A   1      42.597  26.924  36.355  1.00  0.00    -0.205 F 
ATOM     65  C   UNL A   1      46.196  27.485  36.667  1.00  0.00     0.022 A 
BRANCH  63  66
ATOM     66  S   UNL A   1      44.735  25.803  38.265  1.00  0.00     0.127 S 
ATOM     67  O   UNL A   1      43.701  26.435  39.083  1.00  0.00    -0.237 OA
ATOM     68  O   UNL A   1      44.305  24.599  37.556  1.00  0.00    -0.237 OA
ATOM     69  O   UNL A   1      46.044  25.704  38.898  1.00  0.00    -0.744 OA
ENDBRANCH  63  66
ENDBRANCH  36  59
ENDBRANCH  10  11
ENDBRANCH   3   5
ENDBRANCH   2   3
ENDBRANCH   1   2
BRANCH   1  70
ATOM     70  C   UNL A   1      32.352  30.545  26.172  1.00  0.00     0.275 C 
BRANCH  70  71
ATOM     71  O   UNL A   1      33.066  29.419  25.647  1.00  0.00    -0.458 OA
BRANCH  71  72
ATOM     72  C   UNL A   1      32.482  28.203  25.842  1.00  0.00     0.340 C 
ATOM     73  O   UNL A   1      31.885  27.846  26.840  1.00  0.00    -0.246 OA
BRANCH  72  74
ATOM     74  C   UNL A   1      32.656  27.353  24.639  1.00  0.00     0.085 A 
ATOM     75  C   UNL A   1      32.975  25.984  24.827  1.00  0.00     0.043 A 
ATOM     76  C   UNL A   1      32.578  27.901  23.349  1.00  0.00     0.055 A 
ATOM     77  C   UNL A   1      33.244  25.154  23.735  1.00  0.00     0.038 A 
ATOM     78  C   UNL A   1      33.126  27.147  22.332  1.00  0.00     0.029 A 
ATOM     79  C   UNL A   1      33.348  25.785  22.498  1.00  0.00     0.028 A 
BRANCH  76  80
ATOM     80  N   UNL A   1      31.867  29.104  23.132  1.00  0.00    -0.325 N 
ATOM     81  C   UNL A   1      30.538  29.406  23.030  1.00  0.00     0.227 C 
ATOM     82  H   UNL A   1      32.453  29.890  23.034  1.00  0.00     0.169 HD
ATOM     83  O   UNL A   1      30.239  30.606  23.032  1.00  0.00    -0.274 OA
BRANCH  81  84
ATOM     84  C   UNL A   1      29.491  28.324  22.924  1.00  0.00     0.079 C 
ATOM     85  C   UNL A   1      29.551  27.324  24.067  1.00  0.00     0.013 C 
ATOM     86  C   UNL A   1      28.059  28.845  23.040  1.00  0.00     0.013 C 
ATOM     87  C   UNL A   1      28.251  26.590  23.946  1.00  0.00     0.001 C 
ATOM     88  C   UNL A   1      27.248  27.626  23.452  1.00  0.00     0.001 C 
ENDBRANCH  81  84
ENDBRANCH  76  80
BRANCH  77  89
ATOM     89  N   UNL A   1      33.473  23.802  23.816  1.00  0.00    -0.368 N 
ATOM     90  C   UNL A   1      34.797  23.160  23.950  1.00  0.00     0.138 C 
ATOM     91  C   UNL A   1      32.316  22.887  23.799  1.00  0.00     0.138 C 
ATOM     92  C   UNL A   1      34.822  22.068  25.074  1.00  0.00     0.138 C 
ATOM     93  C   UNL A   1      32.355  21.931  25.000  1.00  0.00     0.138 C 
ATOM     94  N   UNL A   1      33.628  21.202  25.025  1.00  0.00    -0.368 N 
BRANCH  94  95
ATOM     95  C   UNL A   1      33.708  19.907  24.558  1.00  0.00     0.037 A 
ATOM     96  C   UNL A   1      34.895  19.177  24.714  1.00  0.00     0.029 A 
ATOM     97  C   UNL A   1      32.616  19.254  23.967  1.00  0.00     0.029 A 
ATOM     98  C   UNL A   1      34.980  17.838  24.318  1.00  0.00     0.041 A 
ATOM     99  C   UNL A   1      32.698  17.925  23.549  1.00  0.00     0.041 A 
ATOM    100  C   UNL A   1      33.879  17.226  23.736  1.00  0.00     0.123 A 
ATOM    101  F   UNL A   1      33.952  15.943  23.356  1.00  0.00    -0.207 F 
ENDBRANCH  94  95
ENDBRANCH  77  89
ENDBRANCH  72  74
ENDBRANCH  71  72
ENDBRANCH  70  71
ENDBRANCH   1  70
TORSDOF 18
ENDMDL
MODEL 3
REMARK VINA RESULT:     -12.4      5.532      9.654
REMARK SMILES O=C(OCCOC(=O)c1cc(N2CCN(c3ccc(F)cc3)CC2)ccc1NC(=O)C1CCCC1)c1ccc(-c2c3nc(c(-c4cccc(S(=O)(=O)[O-])c4F)c4ccc([nH]4)c(-c4cccc(S(=O)(=O)[O-])c4F)c4nc(c(-c5cccc(S(=O)(=O)[O-])c5F)c5ccc2[nH]5)C=C4)C=C3)cc1
REMARK SMILES IDX 4 1 3 2 2 3 1 4 36 5 37 6 98 7 38 8 97 9 39 10 40 11 41 12
REMARK SMILES IDX 91 13 42 14 96 15 90 16 92 17 43 18 95 19 89 20 88 21 44 23
REMARK SMILES IDX 76 24 56 25 75 26 57 27 60 28 74 29 93 30 58 31 59 32 73 34
REMARK SMILES IDX 94 35 61 36 45 37 46 38 54 39 47 40 49 41 55 42 48 43 50 44
REMARK SMILES IDX 51 45 52 46 53 47 77 48 78 49 86 50 79 51 81 52 87 53 80 54
REMARK SMILES IDX 82 55 83 56 84 57 85 58 62 59 63 60 71 61 64 62 66 63 72 64
REMARK SMILES IDX 65 65 67 66 68 67 69 68 70 69 5 70 6 71 7 72 8 73 9 74 10 75
REMARK SMILES IDX 27 76 11 77 26 78 25 79 28 80 29 81 30 83 31 84 32 85 35 86
REMARK SMILES IDX 33 87 34 88 12 89 13 90 24 91 14 92 23 93 15 94 16 95 17 96
REMARK SMILES IDX 22 97 18 98 21 99 19 100 20 101
REMARK H PARENT 92 22 60 33 28 82
REMARK Flexibility Score: inf
ROOT
ATOM      1  C   UNL A   1      37.992  21.458  25.309  1.00  0.00     0.275 C 
ENDROOT
BRANCH   1   2
ATOM      2  O   UNL A   1      38.748  20.332  25.775  1.00  0.00    -0.458 OA
BRANCH   2   3
ATOM      3  C   UNL A   1      40.077  20.205  25.997  1.00  0.00     0.338 C 
ATOM      4  O   UNL A   1      40.601  19.127  25.712  1.00  0.00    -0.246 OA
BRANCH   3   5
ATOM      5  C   UNL A   1      40.949  21.252  26.643  1.00  0.00     0.060 A 
ATOM      6  C   UNL A   1      41.145  21.485  28.009  1.00  0.00     0.016 A 
ATOM      7  C   UNL A   1      41.620  22.106  25.756  1.00  0.00     0.016 A 
ATOM      8  C   UNL A   1      41.947  22.551  28.476  1.00  0.00     0.010 A 
ATOM      9  C   UNL A   1      42.460  23.130  26.209  1.00  0.00     0.010 A 
ATOM     10  C   UNL A   1      42.576  23.414  27.582  1.00  0.00    -0.014 A 
BRANCH  10  11
ATOM     11  C   UNL A   1      43.093  24.766  27.961  1.00  0.00     0.031 A 
ATOM     12  C   UNL A   1      42.053  25.823  28.225  1.00  0.00     0.074 A 
ATOM     13  C   UNL A   1      44.389  25.124  28.105  1.00  0.00     0.049 A 
ATOM     14  N   UNL A   1      42.213  27.107  28.374  1.00  0.00    -0.248 NA
ATOM     15  C   UNL A   1      40.662  25.365  28.420  1.00  0.00     0.031 C 
ATOM     16  C   UNL A   1      45.537  24.242  28.262  1.00  0.00     0.029 A 
ATOM     17  N   UNL A   1      44.972  26.378  28.009  1.00  0.00    -0.354 N 
ATOM     18  C   UNL A   1      40.974  27.591  28.760  1.00  0.00     0.074 A 
ATOM     19  C   UNL A   1      40.034  26.500  28.680  1.00  0.00     0.031 C 
ATOM     20  C   UNL A   1      46.663  24.940  28.006  1.00  0.00     0.029 A 
ATOM     21  C   UNL A   1      46.315  26.309  27.663  1.00  0.00     0.049 A 
ATOM     22  H   UNL A   1      44.488  27.221  28.169  1.00  0.00     0.167 HD
ATOM     23  C   UNL A   1      40.682  28.817  29.245  1.00  0.00     0.034 A 
ATOM     24  C   UNL A   1      47.095  27.232  27.048  1.00  0.00     0.034 A 
ATOM     25  C   UNL A   1      41.646  29.875  29.324  1.00  0.00     0.049 A 
ATOM     26  C   UNL A   1      46.628  28.647  27.135  1.00  0.00     0.074 A 
ATOM     27  C   UNL A   1      41.522  31.124  29.899  1.00  0.00     0.029 A 
ATOM     28  N   UNL A   1      42.911  29.812  28.759  1.00  0.00    -0.354 N 
ATOM     29  N   UNL A   1      45.479  29.100  27.561  1.00  0.00    -0.248 NA
ATOM     30  C   UNL A   1      47.632  29.679  26.847  1.00  0.00     0.031 C 
ATOM     31  C   UNL A   1      42.690  31.842  29.619  1.00  0.00     0.029 A 
ATOM     32  C   UNL A   1      43.557  31.021  28.915  1.00  0.00     0.049 A 
ATOM     33  H   UNL A   1      43.291  29.021  28.314  1.00  0.00     0.167 HD
ATOM     34  C   UNL A   1      45.680  30.451  27.770  1.00  0.00     0.074 A 
ATOM     35  C   UNL A   1      47.013  30.763  27.290  1.00  0.00     0.031 C 
ATOM     36  C   UNL A   1      44.873  31.319  28.421  1.00  0.00     0.034 A 
BRANCH  23  37
ATOM     37  C   UNL A   1      39.288  29.038  29.745  1.00  0.00     0.023 A 
ATOM     38  C   UNL A   1      38.930  28.624  31.047  1.00  0.00     0.012 A 
ATOM     39  C   UNL A   1      38.325  29.634  28.917  1.00  0.00     0.148 A 
ATOM     40  C   UNL A   1      37.617  28.753  31.495  1.00  0.00     0.002 A 
ATOM     41  C   UNL A   1      37.030  29.801  29.386  1.00  0.00     0.091 A 
ATOM     42  F   UNL A   1      38.683  29.992  27.676  1.00  0.00    -0.205 F 
ATOM     43  C   UNL A   1      36.669  29.347  30.666  1.00  0.00     0.022 A 
BRANCH  41  44
ATOM     44  S   UNL A   1      35.759  30.608  28.413  1.00  0.00     0.127 S 
ATOM     45  O   UNL A   1      36.553  31.507  27.578  1.00  0.00    -0.237 OA
ATOM     46  O   UNL A   1      35.160  29.481  27.697  1.00  0.00    -0.237 OA
ATOM     47  O   UNL A   1      34.874  31.258  29.369  1.00  0.00    -0.744 OA
ENDBRANCH  41  44
ENDBRANCH  23  37
BRANCH  24  48
ATOM     48  C   UNL A   1      48.384  26.957  26.331  1.00  0.00     0.023 A 
ATOM     49  C   UNL A   1      48.440  26.750  24.945  1.00  0.00     0.012 A 
ATOM     50  C   UNL A   1      49.592  26.879  27.075  1.00  0.00     0.148 A 
ATOM     51  C   UNL A   1      49.674  26.543  24.308  1.00  0.00     0.002 A 
ATOM     52  C   UNL A   1      50.822  26.771  26.427  1.00  0.00     0.091 A 
ATOM     53  F   UNL A   1      49.518  26.974  28.411  1.00  0.00    -0.205 F 
ATOM     54  C   UNL A   1      50.863  26.585  25.040  1.00  0.00     0.022 A 
BRANCH  52  55
ATOM     55  S   UNL A   1      52.392  27.101  27.258  1.00  0.00     0.127 S 
ATOM     56  O   UNL A   1      53.357  26.923  26.177  1.00  0.00    -0.237 OA
ATOM     57  O   UNL A   1      52.219  28.486  27.701  1.00  0.00    -0.237 OA
ATOM     58  O   UNL A   1      52.475  26.135  28.346  1.00  0.00    -0.744 OA
ENDBRANCH  52  55
ENDBRANCH  24  48
BRANCH  36  59
ATOM     59  C   UNL A   1      45.460  32.650  28.755  1.00  0.00     0.023 A 
ATOM     60  C   UNL A   1      46.235  32.827  29.913  1.00  0.00     0.012 A 
ATOM     61  C   UNL A   1      45.254  33.726  27.869  1.00  0.00     0.148 A 
ATOM     62  C   UNL A   1      46.784  34.074  30.197  1.00  0.00     0.002 A 
ATOM     63  C   UNL A   1      45.858  34.944  28.125  1.00  0.00     0.091 A 
ATOM     64  F   UNL A   1      44.474  33.531  26.795  1.00  0.00    -0.205 F 
ATOM     65  C   UNL A   1      46.609  35.126  29.297  1.00  0.00     0.022 A 
BRANCH  63  66
ATOM     66  S   UNL A   1      45.782  36.313  26.969  1.00  0.00     0.127 S 
ATOM     67  O   UNL A   1      46.379  35.726  25.770  1.00  0.00    -0.237 OA
ATOM     68  O   UNL A   1      44.342  36.552  26.882  1.00  0.00    -0.237 OA
ATOM     69  O   UNL A   1      46.546  37.400  27.568  1.00  0.00    -0.744 OA
ENDBRANCH  63  66
ENDBRANCH  36  59
ENDBRANCH  10  11
ENDBRANCH   3   5
ENDBRANCH   2   3
ENDBRANCH   1   2
BRANCH   1  70
ATOM     70  C   UNL A   1      36.516  21.177  25.032  1.00  0.00     0.275 C 
BRANCH  70  71
ATOM     71  O   UNL A   1      35.733  22.368  24.882  1.00  0.00    -0.458 OA
BRANCH  71  72
ATOM     72  C   UNL A   1      35.382  22.998  26.039  1.00  0.00     0.340 C 
ATOM     73  O   UNL A   1      36.139  23.333  26.929  1.00  0.00    -0.246 OA
BRANCH  72  74
ATOM     74  C   UNL A   1      33.920  23.245  26.064  1.00  0.00     0.085 A 
ATOM     75  C   UNL A   1      33.451  24.529  25.686  1.00  0.00     0.043 A 
ATOM     76  C   UNL A   1      33.028  22.260  26.516  1.00  0.00     0.055 A 
ATOM     77  C   UNL A   1      32.095  24.853  25.779  1.00  0.00     0.038 A 
ATOM     78  C   UNL A   1      31.767  22.695  26.869  1.00  0.00     0.029 A 
ATOM     79  C   UNL A   1      31.284  23.917  26.415  1.00  0.00     0.028 A 
BRANCH  76  80
ATOM     80  N   UNL A   1      33.402  20.897  26.485  1.00  0.00    -0.325 N 
ATOM     81  C   UNL A   1      33.253  19.901  25.562  1.00  0.00     0.227 C 
ATOM     82  H   UNL A   1      33.869  20.603  27.301  1.00  0.00     0.169 HD
ATOM     83  O   UNL A   1      33.876  18.853  25.768  1.00  0.00    -0.274 OA
BRANCH  81  84
ATOM     84  C   UNL A   1      32.372  20.078  24.349  1.00  0.00     0.079 C 
ATOM     85  C   UNL A   1      32.780  21.261  23.486  1.00  0.00     0.013 C 
ATOM     86  C   UNL A   1      32.461  18.922  23.353  1.00  0.00     0.013 C 
ATOM     87  C   UNL A   1      32.023  21.031  22.213  1.00  0.00     0.001 C 
ATOM     88  C   UNL A   1      31.978  19.518  22.040  1.00  0.00     0.001 C 
ENDBRANCH  81  84
ENDBRANCH  76  80
BRANCH  77  89
ATOM     89  N   UNL A   1      31.541  26.036  25.352  1.00  0.00    -0.368 N 
ATOM     90  C   UNL A   1      31.844  27.375  25.901  1.00  0.00     0.138 C 
ATOM     91  C   UNL A   1      30.580  26.005  24.234  1.00  0.00     0.138 C 
ATOM     92  C   UNL A   1      32.125  28.431  24.779  1.00  0.00     0.138 C 
ATOM     93  C   UNL A   1      30.995  26.982  23.126  1.00  0.00     0.138 C 
ATOM     94  N   UNL A   1      31.150  28.334  23.675  1.00  0.00    -0.368 N 
BRANCH  94  95
ATOM     95  C   UNL A   1      30.155  29.276  23.520  1.00  0.00     0.037 A 
ATOM     96  C   UNL A   1      29.029  28.984  22.737  1.00  0.00     0.029 A 
ATOM     97  C   UNL A   1      30.193  30.520  24.166  1.00  0.00     0.029 A 
ATOM     98  C   UNL A   1      27.970  29.891  22.624  1.00  0.00     0.041 A 
ATOM     99  C   UNL A   1      29.151  31.440  24.043  1.00  0.00     0.041 A 
ATOM    100  C   UNL A   1      28.044  31.114  23.278  1.00  0.00     0.123 A 
ATOM    101  F   UNL A   1      27.033  31.986  23.176  1.00  0.00    -0.207 F 
ENDBRANCH  94  95
ENDBRANCH  77  89
ENDBRANCH  72  74
ENDBRANCH  71  72
ENDBRANCH  70  71
ENDBRANCH   1  70
TORSDOF 18
ENDMDL
