MODEL 1
REMARK VINA RESULT:     -12.5      0.000      0.000
REMARK SMILES Cc1cccc(NC(=O)[C@H]2C=C[C@@H]([NH3+])C2)c1C(=O)OCCOC(=O)c1ccc(-c2c3nc(c(-c4cccc(S(=O)(=O)[O-])c4F)c4ccc([nH]4)c(-c4cccc(S(=O)(=O)[O-])c4F)c4nc(c(-c5cccc(S(=O)(=O)[O-])c5F)c5ccc2[nH]5)C=C4)C=C3)cc1
REMARK SMILES IDX 20 1 19 2 17 3 18 4 16 5 1 6 2 7 3 8 4 9 6 10 5 11 7 12 8 13
REMARK SMILES IDX 9 15 10 16 11 17 15 18 12 19 13 20 14 21 21 25 22 26 23 27
REMARK SMILES IDX 24 28 25 29 26 30 87 31 27 32 86 33 28 34 29 35 30 36 80 37
REMARK SMILES IDX 31 38 85 39 79 40 81 41 32 42 84 43 78 44 77 45 33 47 65 48
REMARK SMILES IDX 45 49 64 50 46 51 49 52 63 53 82 54 47 55 48 56 62 58 83 59
REMARK SMILES IDX 50 60 34 61 35 62 43 63 36 64 38 65 44 66 37 67 39 68 40 69
REMARK SMILES IDX 41 70 42 71 66 72 67 73 75 74 68 75 70 76 76 77 69 78 71 79
REMARK SMILES IDX 72 80 73 81 74 82 51 83 52 84 60 85 53 86 55 87 61 88 54 89
REMARK SMILES IDX 56 90 57 91 58 92 59 93
REMARK H PARENT 7 14 14 22 14 23 14 24 81 46 49 57
REMARK Flexibility Score: inf
ROOT
ATOM      1  C   UNL A   1      33.846  28.657  27.238  1.00  0.00     0.275 C 
ENDROOT
BRANCH   1   2
ATOM      2  O   UNL A   1      33.010  27.733  26.531  1.00  0.00    -0.458 OA
BRANCH   2   3
ATOM      3  C   UNL A   1      31.702  27.618  26.817  1.00  0.00     0.340 C 
ATOM      4  O   UNL A   1      31.197  27.836  27.905  1.00  0.00    -0.246 OA
BRANCH   3   5
ATOM      5  C   UNL A   1      30.927  27.224  25.601  1.00  0.00     0.086 A 
ATOM      6  C   UNL A   1      31.647  29.356  24.315  1.00  0.00     0.045 C 
ATOM      7  C   UNL A   1      30.821  28.110  24.491  1.00  0.00    -0.034 A 
ATOM      8  C   UNL A   1      29.867  27.846  23.497  1.00  0.00     0.004 A 
ATOM      9  C   UNL A   1      28.988  26.786  23.636  1.00  0.00     0.002 A 
ATOM     10  C   UNL A   1      30.161  26.032  25.620  1.00  0.00     0.056 A 
ATOM     11  C   UNL A   1      29.128  25.920  24.711  1.00  0.00     0.027 A 
BRANCH  10  12
ATOM     12  N   UNL A   1      30.409  24.979  26.521  1.00  0.00    -0.325 N 
ATOM     13  C   UNL A   1      31.316  23.965  26.603  1.00  0.00     0.231 C 
ATOM     14  H   UNL A   1      29.773  24.973  27.272  1.00  0.00     0.169 HD
ATOM     15  O   UNL A   1      31.113  23.228  27.596  1.00  0.00    -0.274 OA
BRANCH  13  16
ATOM     16  C   UNL A   1      32.498  23.535  25.678  1.00  0.00     0.107 C 
ATOM     17  C   UNL A   1      33.782  23.724  26.451  1.00  0.00    -0.012 C 
ATOM     18  C   UNL A   1      32.763  22.234  24.897  1.00  0.00     0.087 C 
ATOM     19  C   UNL A   1      34.656  22.733  26.270  1.00  0.00     0.033 C 
ATOM     20  C   UNL A   1      34.145  21.689  25.336  1.00  0.00     0.205 C 
BRANCH  20  21
ATOM     21  N   UNL A   1      34.152  20.391  26.005  1.00  0.00    -0.352 N 
ATOM     22  H   UNL A   1      33.880  20.510  26.981  1.00  0.00     0.345 HD
ATOM     23  H   UNL A   1      35.089  19.990  25.959  1.00  0.00     0.345 HD
ATOM     24  H   UNL A   1      33.492  19.767  25.543  1.00  0.00     0.345 HD
ENDBRANCH  20  21
ENDBRANCH  13  16
ENDBRANCH  10  12
ENDBRANCH   3   5
ENDBRANCH   2   3
ENDBRANCH   1   2
BRANCH   1  25
ATOM     25  C   UNL A   1      33.692  30.183  27.078  1.00  0.00     0.275 C 
BRANCH  25  26
ATOM     26  O   UNL A   1      34.624  31.197  27.547  1.00  0.00    -0.458 OA
BRANCH  26  27
ATOM     27  C   UNL A   1      35.324  31.328  28.692  1.00  0.00     0.338 C 
ATOM     28  O   UNL A   1      35.040  32.153  29.551  1.00  0.00    -0.246 OA
BRANCH  27  29
ATOM     29  C   UNL A   1      36.495  30.475  28.828  1.00  0.00     0.060 A 
ATOM     30  C   UNL A   1      36.700  29.753  30.015  1.00  0.00     0.016 A 
ATOM     31  C   UNL A   1      37.326  30.337  27.722  1.00  0.00     0.016 A 
ATOM     32  C   UNL A   1      37.717  28.816  30.079  1.00  0.00     0.010 A 
ATOM     33  C   UNL A   1      38.254  29.335  27.737  1.00  0.00     0.010 A 
ATOM     34  C   UNL A   1      38.498  28.648  28.942  1.00  0.00    -0.014 A 
BRANCH  34  35
ATOM     35  C   UNL A   1      39.864  28.169  29.018  1.00  0.00     0.031 A 
ATOM     36  C   UNL A   1      40.215  26.776  28.766  1.00  0.00     0.074 A 
ATOM     37  C   UNL A   1      40.716  29.216  29.107  1.00  0.00     0.049 A 
ATOM     38  N   UNL A   1      41.364  26.280  29.045  1.00  0.00    -0.248 NA
ATOM     39  C   UNL A   1      39.276  25.794  28.236  1.00  0.00     0.031 C 
ATOM     40  C   UNL A   1      42.099  29.363  28.716  1.00  0.00     0.029 A 
ATOM     41  N   UNL A   1      40.399  30.454  29.698  1.00  0.00    -0.354 N 
ATOM     42  C   UNL A   1      41.431  25.040  28.443  1.00  0.00     0.074 A 
ATOM     43  C   UNL A   1      40.067  24.722  28.101  1.00  0.00     0.031 C 
ATOM     44  C   UNL A   1      42.580  30.486  29.289  1.00  0.00     0.029 A 
ATOM     45  C   UNL A   1      41.573  30.956  30.242  1.00  0.00     0.049 A 
ATOM     46  H   UNL A   1      39.513  30.883  29.722  1.00  0.00     0.167 HD
ATOM     47  C   UNL A   1      42.667  24.549  28.144  1.00  0.00     0.034 A 
ATOM     48  C   UNL A   1      41.722  31.064  31.598  1.00  0.00     0.034 A 
ATOM     49  C   UNL A   1      43.693  25.461  28.685  1.00  0.00     0.049 A 
ATOM     50  C   UNL A   1      42.836  30.149  32.074  1.00  0.00     0.074 A 
ATOM     51  C   UNL A   1      44.370  26.522  28.107  1.00  0.00     0.029 A 
ATOM     52  N   UNL A   1      43.842  25.602  30.062  1.00  0.00    -0.354 N 
ATOM     53  N   UNL A   1      43.301  29.145  31.385  1.00  0.00    -0.248 NA
ATOM     54  C   UNL A   1      43.461  30.270  33.385  1.00  0.00     0.031 C 
ATOM     55  C   UNL A   1      44.818  27.373  29.154  1.00  0.00     0.029 A 
ATOM     56  C   UNL A   1      44.454  26.812  30.369  1.00  0.00     0.049 A 
ATOM     57  H   UNL A   1      43.554  24.936  30.727  1.00  0.00     0.167 HD
ATOM     58  C   UNL A   1      44.164  28.422  32.154  1.00  0.00     0.074 A 
ATOM     59  C   UNL A   1      44.283  29.206  33.374  1.00  0.00     0.031 C 
ATOM     60  C   UNL A   1      44.652  27.206  31.761  1.00  0.00     0.034 A 
BRANCH  47  61
ATOM     61  C   UNL A   1      43.004  23.474  27.114  1.00  0.00     0.023 A 
ATOM     62  C   UNL A   1      43.708  23.912  25.966  1.00  0.00     0.012 A 
ATOM     63  C   UNL A   1      42.635  22.105  27.117  1.00  0.00     0.148 A 
ATOM     64  C   UNL A   1      43.966  23.085  24.867  1.00  0.00     0.002 A 
ATOM     65  C   UNL A   1      42.892  21.273  26.018  1.00  0.00     0.091 A 
ATOM     66  F   UNL A   1      42.037  21.574  28.181  1.00  0.00    -0.205 F 
ATOM     67  C   UNL A   1      43.548  21.765  24.886  1.00  0.00     0.022 A 
BRANCH  65  68
ATOM     68  S   UNL A   1      42.389  19.540  25.954  1.00  0.00     0.127 S 
ATOM     69  O   UNL A   1      40.944  19.647  25.749  1.00  0.00    -0.237 OA
ATOM     70  O   UNL A   1      43.129  19.041  24.794  1.00  0.00    -0.237 OA
ATOM     71  O   UNL A   1      42.777  18.948  27.228  1.00  0.00    -0.744 OA
ENDBRANCH  65  68
ENDBRANCH  47  61
BRANCH  48  72
ATOM     72  C   UNL A   1      40.434  31.240  32.373  1.00  0.00     0.023 A 
ATOM     73  C   UNL A   1      39.848  30.115  33.011  1.00  0.00     0.012 A 
ATOM     74  C   UNL A   1      40.011  32.520  32.776  1.00  0.00     0.148 A 
ATOM     75  C   UNL A   1      38.975  30.268  34.096  1.00  0.00     0.002 A 
ATOM     76  C   UNL A   1      39.170  32.666  33.876  1.00  0.00     0.091 A 
ATOM     77  F   UNL A   1      40.477  33.591  32.124  1.00  0.00    -0.205 F 
ATOM     78  C   UNL A   1      38.658  31.545  34.547  1.00  0.00     0.022 A 
BRANCH  76  79
ATOM     79  S   UNL A   1      38.916  34.275  34.634  1.00  0.00     0.127 S 
ATOM     80  O   UNL A   1      38.122  34.968  33.625  1.00  0.00    -0.237 OA
ATOM     81  O   UNL A   1      38.192  33.916  35.853  1.00  0.00    -0.237 OA
ATOM     82  O   UNL A   1      40.245  34.809  34.878  1.00  0.00    -0.744 OA
ENDBRANCH  76  79
ENDBRANCH  48  72
BRANCH  60  83
ATOM     83  C   UNL A   1      45.370  26.268  32.696  1.00  0.00     0.023 A 
ATOM     84  C   UNL A   1      46.774  26.259  32.807  1.00  0.00     0.012 A 
ATOM     85  C   UNL A   1      44.644  25.476  33.614  1.00  0.00     0.148 A 
ATOM     86  C   UNL A   1      47.433  25.427  33.714  1.00  0.00     0.002 A 
ATOM     87  C   UNL A   1      45.301  24.756  34.604  1.00  0.00     0.091 A 
ATOM     88  F   UNL A   1      43.307  25.408  33.532  1.00  0.00    -0.205 F 
ATOM     89  C   UNL A   1      46.695  24.689  34.630  1.00  0.00     0.022 A 
BRANCH  87  90
ATOM     90  S   UNL A   1      44.373  24.053  35.971  1.00  0.00     0.127 S 
ATOM     91  O   UNL A   1      43.614  22.990  35.316  1.00  0.00    -0.237 OA
ATOM     92  O   UNL A   1      45.431  23.582  36.868  1.00  0.00    -0.237 OA
ATOM     93  O   UNL A   1      43.599  25.168  36.503  1.00  0.00    -0.744 OA
ENDBRANCH  87  90
ENDBRANCH  60  83
ENDBRANCH  34  35
ENDBRANCH  27  29
ENDBRANCH  26  27
ENDBRANCH  25  26
ENDBRANCH   1  25
TORSDOF 17
ENDMDL
MODEL 2
REMARK VINA RESULT:     -12.2      1.547      3.133
REMARK SMILES Cc1cccc(NC(=O)[C@H]2C=C[C@@H]([NH3+])C2)c1C(=O)OCCOC(=O)c1ccc(-c2c3nc(c(-c4cccc(S(=O)(=O)[O-])c4F)c4ccc([nH]4)c(-c4cccc(S(=O)(=O)[O-])c4F)c4nc(c(-c5cccc(S(=O)(=O)[O-])c5F)c5ccc2[nH]5)C=C4)C=C3)cc1
REMARK SMILES IDX 20 1 19 2 17 3 18 4 16 5 1 6 2 7 3 8 4 9 6 10 5 11 7 12 8 13
REMARK SMILES IDX 9 15 10 16 11 17 15 18 12 19 13 20 14 21 21 25 22 26 23 27
REMARK SMILES IDX 24 28 25 29 26 30 87 31 27 32 86 33 28 34 29 35 30 36 80 37
REMARK SMILES IDX 31 38 85 39 79 40 81 41 32 42 84 43 78 44 77 45 33 47 65 48
REMARK SMILES IDX 45 49 64 50 46 51 49 52 63 53 82 54 47 55 48 56 62 58 83 59
REMARK SMILES IDX 50 60 34 61 35 62 43 63 36 64 38 65 44 66 37 67 39 68 40 69
REMARK SMILES IDX 41 70 42 71 66 72 67 73 75 74 68 75 70 76 76 77 69 78 71 79
REMARK SMILES IDX 72 80 73 81 74 82 51 83 52 84 60 85 53 86 55 87 61 88 54 89
REMARK SMILES IDX 56 90 57 91 58 92 59 93
REMARK H PARENT 7 14 14 22 14 23 14 24 81 46 49 57
REMARK Flexibility Score: inf
ROOT
ATOM      1  C   UNL A   1      32.234  28.849  27.256  1.00  0.00     0.275 C 
ENDROOT
BRANCH   1   2
ATOM      2  O   UNL A   1      31.993  28.220  25.992  1.00  0.00    -0.458 OA
BRANCH   2   3
ATOM      3  C   UNL A   1      31.584  26.942  25.918  1.00  0.00     0.340 C 
ATOM      4  O   UNL A   1      30.970  26.347  26.787  1.00  0.00    -0.246 OA
BRANCH   3   5
ATOM      5  C   UNL A   1      31.946  26.346  24.596  1.00  0.00     0.086 A 
ATOM      6  C   UNL A   1      34.358  25.804  25.378  1.00  0.00     0.045 C 
ATOM      7  C   UNL A   1      33.284  25.930  24.331  1.00  0.00    -0.034 A 
ATOM      8  C   UNL A   1      33.659  25.648  23.009  1.00  0.00     0.004 A 
ATOM      9  C   UNL A   1      32.767  25.848  21.970  1.00  0.00     0.002 A 
ATOM     10  C   UNL A   1      30.993  26.344  23.548  1.00  0.00     0.056 A 
ATOM     11  C   UNL A   1      31.462  26.225  22.255  1.00  0.00     0.027 A 
BRANCH  10  12
ATOM     12  N   UNL A   1      29.609  26.462  23.774  1.00  0.00    -0.325 N 
ATOM     13  C   UNL A   1      28.646  27.372  23.452  1.00  0.00     0.231 C 
ATOM     14  H   UNL A   1      29.249  25.705  24.290  1.00  0.00     0.169 HD
ATOM     15  O   UNL A   1      27.526  27.061  23.919  1.00  0.00    -0.274 OA
BRANCH  13  16
ATOM     16  C   UNL A   1      28.696  28.724  22.672  1.00  0.00     0.107 C 
ATOM     17  C   UNL A   1      27.454  29.506  23.022  1.00  0.00    -0.012 C 
ATOM     18  C   UNL A   1      29.776  29.820  22.597  1.00  0.00     0.087 C 
ATOM     19  C   UNL A   1      27.685  30.807  23.206  1.00  0.00     0.033 C 
ATOM     20  C   UNL A   1      29.119  31.162  23.006  1.00  0.00     0.205 C 
BRANCH  20  21
ATOM     21  N   UNL A   1      29.636  31.800  24.212  1.00  0.00    -0.352 N 
ATOM     22  H   UNL A   1      29.862  32.775  24.011  1.00  0.00     0.345 HD
ATOM     23  H   UNL A   1      30.477  31.313  24.521  1.00  0.00     0.345 HD
ATOM     24  H   UNL A   1      28.931  31.761  24.947  1.00  0.00     0.345 HD
ENDBRANCH  20  21
ENDBRANCH  13  16
ENDBRANCH  10  12
ENDBRANCH   3   5
ENDBRANCH   2   3
ENDBRANCH   1   2
BRANCH   1  25
ATOM     25  C   UNL A   1      32.803  30.279  27.359  1.00  0.00     0.275 C 
BRANCH  25  26
ATOM     26  O   UNL A   1      34.211  30.651  27.337  1.00  0.00    -0.458 OA
BRANCH  26  27
ATOM     27  C   UNL A   1      35.049  31.093  28.297  1.00  0.00     0.338 C 
ATOM     28  O   UNL A   1      34.860  32.134  28.913  1.00  0.00    -0.246 OA
BRANCH  27  29
ATOM     29  C   UNL A   1      36.244  30.294  28.521  1.00  0.00     0.060 A 
ATOM     30  C   UNL A   1      36.476  29.720  29.780  1.00  0.00     0.016 A 
ATOM     31  C   UNL A   1      37.073  30.054  27.431  1.00  0.00     0.016 A 
ATOM     32  C   UNL A   1      37.520  28.825  29.943  1.00  0.00     0.010 A 
ATOM     33  C   UNL A   1      38.030  29.086  27.552  1.00  0.00     0.010 A 
ATOM     34  C   UNL A   1      38.300  28.549  28.826  1.00  0.00    -0.014 A 
BRANCH  34  35
ATOM     35  C   UNL A   1      39.679  28.121  28.946  1.00  0.00     0.031 A 
ATOM     36  C   UNL A   1      40.086  26.737  28.729  1.00  0.00     0.074 A 
ATOM     37  C   UNL A   1      40.491  29.199  29.037  1.00  0.00     0.049 A 
ATOM     38  N   UNL A   1      41.244  26.288  29.045  1.00  0.00    -0.248 NA
ATOM     39  C   UNL A   1      39.196  25.713  28.194  1.00  0.00     0.031 C 
ATOM     40  C   UNL A   1      41.878  29.389  28.677  1.00  0.00     0.029 A 
ATOM     41  N   UNL A   1      40.116  30.435  29.596  1.00  0.00    -0.354 N 
ATOM     42  C   UNL A   1      41.370  25.040  28.469  1.00  0.00     0.074 A 
ATOM     43  C   UNL A   1      40.028  24.668  28.099  1.00  0.00     0.031 C 
ATOM     44  C   UNL A   1      42.304  30.539  29.241  1.00  0.00     0.029 A 
ATOM     45  C   UNL A   1      41.257  30.989  30.160  1.00  0.00     0.049 A 
ATOM     46  H   UNL A   1      39.214  30.833  29.590  1.00  0.00     0.167 HD
ATOM     47  C   UNL A   1      42.630  24.589  28.209  1.00  0.00     0.034 A 
ATOM     48  C   UNL A   1      41.367  31.126  31.517  1.00  0.00     0.034 A 
ATOM     49  C   UNL A   1      43.609  25.547  28.759  1.00  0.00     0.049 A 
ATOM     50  C   UNL A   1      42.500  30.260  32.037  1.00  0.00     0.074 A 
ATOM     51  C   UNL A   1      44.263  26.621  28.179  1.00  0.00     0.029 A 
ATOM     52  N   UNL A   1      43.718  25.717  30.136  1.00  0.00    -0.354 N 
ATOM     53  N   UNL A   1      43.018  29.261  31.379  1.00  0.00    -0.248 NA
ATOM     54  C   UNL A   1      43.087  30.427  33.361  1.00  0.00     0.031 C 
ATOM     55  C   UNL A   1      44.654  27.506  29.221  1.00  0.00     0.029 A 
ATOM     56  C   UNL A   1      44.278  26.954  30.436  1.00  0.00     0.049 A 
ATOM     57  H   UNL A   1      43.437  25.053  30.806  1.00  0.00     0.167 HD
ATOM     58  C   UNL A   1      43.886  28.584  32.182  1.00  0.00     0.074 A 
ATOM     59  C   UNL A   1      43.946  29.393  33.391  1.00  0.00     0.031 C 
ATOM     60  C   UNL A   1      44.426  27.380  31.825  1.00  0.00     0.034 A 
BRANCH  47  61
ATOM     61  C   UNL A   1      43.032  23.509  27.209  1.00  0.00     0.023 A 
ATOM     62  C   UNL A   1      43.910  23.915  26.174  1.00  0.00     0.012 A 
ATOM     63  C   UNL A   1      42.578  22.168  27.131  1.00  0.00     0.148 A 
ATOM     64  C   UNL A   1      44.258  23.088  25.101  1.00  0.00     0.002 A 
ATOM     65  C   UNL A   1      42.925  21.336  26.057  1.00  0.00     0.091 A 
ATOM     66  F   UNL A   1      41.809  21.663  28.094  1.00  0.00    -0.205 F 
ATOM     67  C   UNL A   1      43.756  21.799  25.033  1.00  0.00     0.022 A 
BRANCH  65  68
ATOM     68  S   UNL A   1      42.324  19.642  25.887  1.00  0.00     0.127 S 
ATOM     69  O   UNL A   1      43.183  19.116  24.825  1.00  0.00    -0.237 OA
ATOM     70  O   UNL A   1      42.588  19.082  27.213  1.00  0.00    -0.237 OA
ATOM     71  O   UNL A   1      40.913  19.736  25.532  1.00  0.00    -0.744 OA
ENDBRANCH  65  68
ENDBRANCH  47  61
BRANCH  48  72
ATOM     72  C   UNL A   1      40.054  31.270  32.256  1.00  0.00     0.023 A 
ATOM     73  C   UNL A   1      39.465  30.125  32.854  1.00  0.00     0.012 A 
ATOM     74  C   UNL A   1      39.601  32.536  32.670  1.00  0.00     0.148 A 
ATOM     75  C   UNL A   1      38.558  30.245  33.915  1.00  0.00     0.002 A 
ATOM     76  C   UNL A   1      38.726  32.649  33.747  1.00  0.00     0.091 A 
ATOM     77  F   UNL A   1      40.072  33.626  32.053  1.00  0.00    -0.205 F 
ATOM     78  C   UNL A   1      38.210  31.508  34.380  1.00  0.00     0.022 A 
BRANCH  76  79
ATOM     79  S   UNL A   1      38.427  34.239  34.528  1.00  0.00     0.127 S 
ATOM     80  O   UNL A   1      38.425  33.890  35.945  1.00  0.00    -0.237 OA
ATOM     81  O   UNL A   1      39.588  35.010  34.081  1.00  0.00    -0.237 OA
ATOM     82  O   UNL A   1      37.165  34.714  33.985  1.00  0.00    -0.744 OA
ENDBRANCH  76  79
ENDBRANCH  48  72
BRANCH  60  83
ATOM     83  C   UNL A   1      45.153  26.484  32.795  1.00  0.00     0.023 A 
ATOM     84  C   UNL A   1      46.559  26.456  32.871  1.00  0.00     0.012 A 
ATOM     85  C   UNL A   1      44.438  25.761  33.777  1.00  0.00     0.148 A 
ATOM     86  C   UNL A   1      47.228  25.666  33.808  1.00  0.00     0.002 A 
ATOM     87  C   UNL A   1      45.109  25.088  34.790  1.00  0.00     0.091 A 
ATOM     88  F   UNL A   1      43.099  25.713  33.732  1.00  0.00    -0.205 F 
ATOM     89  C   UNL A   1      46.502  24.998  34.784  1.00  0.00     0.022 A 
BRANCH  87  90
ATOM     90  S   UNL A   1      44.206  24.483  36.219  1.00  0.00     0.127 S 
ATOM     91  O   UNL A   1      43.715  25.721  36.821  1.00  0.00    -0.237 OA
ATOM     92  O   UNL A   1      43.168  23.648  35.612  1.00  0.00    -0.237 OA
ATOM     93  O   UNL A   1      45.193  23.735  36.989  1.00  0.00    -0.744 OA
ENDBRANCH  87  90
ENDBRANCH  60  83
ENDBRANCH  34  35
ENDBRANCH  27  29
ENDBRANCH  26  27
ENDBRANCH  25  26
ENDBRANCH   1  25
TORSDOF 17
ENDMDL
MODEL 3
REMARK VINA RESULT:     -12.1      3.961      9.487
REMARK SMILES Cc1cccc(NC(=O)[C@H]2C=C[C@@H]([NH3+])C2)c1C(=O)OCCOC(=O)c1ccc(-c2c3nc(c(-c4cccc(S(=O)(=O)[O-])c4F)c4ccc([nH]4)c(-c4cccc(S(=O)(=O)[O-])c4F)c4nc(c(-c5cccc(S(=O)(=O)[O-])c5F)c5ccc2[nH]5)C=C4)C=C3)cc1
REMARK SMILES IDX 20 1 19 2 17 3 18 4 16 5 1 6 2 7 3 8 4 9 6 10 5 11 7 12 8 13
REMARK SMILES IDX 9 15 10 16 11 17 15 18 12 19 13 20 14 21 21 25 22 26 23 27
REMARK SMILES IDX 24 28 25 29 26 30 87 31 27 32 86 33 28 34 29 35 30 36 80 37
REMARK SMILES IDX 31 38 85 39 79 40 81 41 32 42 84 43 78 44 77 45 33 47 65 48
REMARK SMILES IDX 45 49 64 50 46 51 49 52 63 53 82 54 47 55 48 56 62 58 83 59
REMARK SMILES IDX 50 60 34 61 35 62 43 63 36 64 38 65 44 66 37 67 39 68 40 69
REMARK SMILES IDX 41 70 42 71 66 72 67 73 75 74 68 75 70 76 76 77 69 78 71 79
REMARK SMILES IDX 72 80 73 81 74 82 51 83 52 84 60 85 53 86 55 87 61 88 54 89
REMARK SMILES IDX 56 90 57 91 58 92 59 93
REMARK H PARENT 7 14 14 22 14 23 14 24 81 46 49 57
REMARK Flexibility Score: inf
ROOT
ATOM      1  C   UNL A   1      36.400  23.908  25.742  1.00  0.00     0.275 C 
ENDROOT
BRANCH   1   2
ATOM      2  O   UNL A   1      35.451  24.316  24.750  1.00  0.00    -0.458 OA
BRANCH   2   3
ATOM      3  C   UNL A   1      34.379  25.059  25.076  1.00  0.00     0.340 C 
ATOM      4  O   UNL A   1      34.385  26.004  25.845  1.00  0.00    -0.246 OA
BRANCH   3   5
ATOM      5  C   UNL A   1      33.168  24.597  24.331  1.00  0.00     0.086 A 
ATOM      6  C   UNL A   1      33.434  26.446  22.533  1.00  0.00     0.045 C 
ATOM      7  C   UNL A   1      32.680  25.335  23.214  1.00  0.00    -0.034 A 
ATOM      8  C   UNL A   1      31.399  25.050  22.718  1.00  0.00     0.004 A 
ATOM      9  C   UNL A   1      30.592  24.124  23.355  1.00  0.00     0.002 A 
ATOM     10  C   UNL A   1      32.410  23.512  24.838  1.00  0.00     0.056 A 
ATOM     11  C   UNL A   1      31.099  23.398  24.423  1.00  0.00     0.027 A 
BRANCH  10  12
ATOM     12  N   UNL A   1      32.938  22.567  25.737  1.00  0.00    -0.325 N 
ATOM     13  C   UNL A   1      33.370  21.277  25.647  1.00  0.00     0.231 C 
ATOM     14  H   UNL A   1      33.011  22.922  26.652  1.00  0.00     0.169 HD
ATOM     15  O   UNL A   1      33.728  20.819  26.757  1.00  0.00    -0.274 OA
BRANCH  13  16
ATOM     16  C   UNL A   1      33.448  20.275  24.451  1.00  0.00     0.107 C 
ATOM     17  C   UNL A   1      34.611  19.346  24.702  1.00  0.00    -0.012 C 
ATOM     18  C   UNL A   1      32.393  19.337  23.835  1.00  0.00     0.087 C 
ATOM     19  C   UNL A   1      34.348  18.077  24.387  1.00  0.00     0.033 C 
ATOM     20  C   UNL A   1      32.968  17.899  23.855  1.00  0.00     0.205 C 
BRANCH  20  21
ATOM     21  N   UNL A   1      32.253  16.922  24.670  1.00  0.00    -0.352 N 
ATOM     22  H   UNL A   1      31.273  17.197  24.750  1.00  0.00     0.345 HD
ATOM     23  H   UNL A   1      32.672  16.882  25.600  1.00  0.00     0.345 HD
ATOM     24  H   UNL A   1      32.312  16.004  24.232  1.00  0.00     0.345 HD
ENDBRANCH  20  21
ENDBRANCH  13  16
ENDBRANCH  10  12
ENDBRANCH   3   5
ENDBRANCH   2   3
ENDBRANCH   1   2
BRANCH   1  25
ATOM     25  C   UNL A   1      37.719  23.202  25.367  1.00  0.00     0.275 C 
BRANCH  25  26
ATOM     26  O   UNL A   1      38.750  22.755  26.292  1.00  0.00    -0.458 OA
BRANCH  26  27
ATOM     27  C   UNL A   1      39.955  23.263  26.624  1.00  0.00     0.338 C 
ATOM     28  O   UNL A   1      40.990  22.613  26.553  1.00  0.00    -0.246 OA
BRANCH  27  29
ATOM     29  C   UNL A   1      39.955  24.621  27.146  1.00  0.00     0.060 A 
ATOM     30  C   UNL A   1      40.562  25.652  26.411  1.00  0.00     0.016 A 
ATOM     31  C   UNL A   1      39.262  24.859  28.328  1.00  0.00     0.016 A 
ATOM     32  C   UNL A   1      40.414  26.965  26.824  1.00  0.00     0.010 A 
ATOM     33  C   UNL A   1      39.014  26.157  28.676  1.00  0.00     0.010 A 
ATOM     34  C   UNL A   1      39.665  27.189  27.973  1.00  0.00    -0.014 A 
BRANCH  34  35
ATOM     35  C   UNL A   1      39.880  28.354  28.809  1.00  0.00     0.031 A 
ATOM     36  C   UNL A   1      39.005  29.519  28.758  1.00  0.00     0.074 A 
ATOM     37  C   UNL A   1      40.811  28.080  29.751  1.00  0.00     0.049 A 
ATOM     38  N   UNL A   1      39.295  30.639  29.310  1.00  0.00    -0.248 NA
ATOM     39  C   UNL A   1      37.748  29.549  28.019  1.00  0.00     0.031 C 
ATOM     40  C   UNL A   1      41.032  28.630  31.069  1.00  0.00     0.029 A 
ATOM     41  N   UNL A   1      41.866  27.162  29.587  1.00  0.00    -0.354 N 
ATOM     42  C   UNL A   1      38.153  31.414  29.290  1.00  0.00     0.074 A 
ATOM     43  C   UNL A   1      37.284  30.763  28.341  1.00  0.00     0.031 C 
ATOM     44  C   UNL A   1      42.259  28.247  31.483  1.00  0.00     0.029 A 
ATOM     45  C   UNL A   1      42.934  27.632  30.338  1.00  0.00     0.049 A 
ATOM     46  H   UNL A   1      41.850  26.341  29.042  1.00  0.00     0.167 HD
ATOM     47  C   UNL A   1      38.034  32.389  30.234  1.00  0.00     0.034 A 
ATOM     48  C   UNL A   1      44.072  28.082  29.726  1.00  0.00     0.034 A 
ATOM     49  C   UNL A   1      39.287  32.465  31.010  1.00  0.00     0.049 A 
ATOM     50  C   UNL A   1      44.262  29.562  30.002  1.00  0.00     0.074 A 
ATOM     51  C   UNL A   1      39.666  31.863  32.198  1.00  0.00     0.029 A 
ATOM     52  N   UNL A   1      40.460  32.898  30.396  1.00  0.00    -0.354 N 
ATOM     53  N   UNL A   1      43.313  30.357  30.411  1.00  0.00    -0.248 NA
ATOM     54  C   UNL A   1      45.523  30.259  29.781  1.00  0.00     0.031 C 
ATOM     55  C   UNL A   1      41.087  31.823  32.231  1.00  0.00     0.029 A 
ATOM     56  C   UNL A   1      41.574  32.436  31.087  1.00  0.00     0.049 A 
ATOM     57  H   UNL A   1      40.495  33.454  29.585  1.00  0.00     0.167 HD
ATOM     58  C   UNL A   1      43.756  31.646  30.396  1.00  0.00     0.074 A 
ATOM     59  C   UNL A   1      45.167  31.525  30.060  1.00  0.00     0.031 C 
ATOM     60  C   UNL A   1      42.919  32.710  30.586  1.00  0.00     0.034 A 
BRANCH  47  61
ATOM     61  C   UNL A   1      36.746  33.053  30.714  1.00  0.00     0.023 A 
ATOM     62  C   UNL A   1      36.412  32.850  32.075  1.00  0.00     0.012 A 
ATOM     63  C   UNL A   1      35.795  33.781  29.955  1.00  0.00     0.148 A 
ATOM     64  C   UNL A   1      35.199  33.267  32.633  1.00  0.00     0.002 A 
ATOM     65  C   UNL A   1      34.578  34.200  30.511  1.00  0.00     0.091 A 
ATOM     66  F   UNL A   1      36.046  34.091  28.685  1.00  0.00    -0.205 F 
ATOM     67  C   UNL A   1      34.273  33.933  31.848  1.00  0.00     0.022 A 
BRANCH  65  68
ATOM     68  S   UNL A   1      33.313  35.079  29.567  1.00  0.00     0.127 S 
ATOM     69  O   UNL A   1      34.049  36.246  29.079  1.00  0.00    -0.237 OA
ATOM     70  O   UNL A   1      32.965  34.106  28.531  1.00  0.00    -0.237 OA
ATOM     71  O   UNL A   1      32.239  35.389  30.502  1.00  0.00    -0.744 OA
ENDBRANCH  65  68
ENDBRANCH  47  61
BRANCH  48  72
ATOM     72  C   UNL A   1      44.356  27.469  28.371  1.00  0.00     0.023 A 
ATOM     73  C   UNL A   1      43.891  28.125  27.201  1.00  0.00     0.012 A 
ATOM     74  C   UNL A   1      45.357  26.491  28.224  1.00  0.00     0.148 A 
ATOM     75  C   UNL A   1      44.494  27.906  25.956  1.00  0.00     0.002 A 
ATOM     76  C   UNL A   1      45.976  26.303  26.991  1.00  0.00     0.091 A 
ATOM     77  F   UNL A   1      45.743  25.793  29.297  1.00  0.00    -0.205 F 
ATOM     78  C   UNL A   1      45.557  27.014  25.856  1.00  0.00     0.022 A 
BRANCH  76  79
ATOM     79  S   UNL A   1      47.489  25.344  26.857  1.00  0.00     0.127 S 
ATOM     80  O   UNL A   1      47.852  25.535  25.457  1.00  0.00    -0.237 OA
ATOM     81  O   UNL A   1      48.355  26.024  27.820  1.00  0.00    -0.237 OA
ATOM     82  O   UNL A   1      47.133  23.989  27.246  1.00  0.00    -0.744 OA
ENDBRANCH  76  79
ENDBRANCH  48  72
BRANCH  60  83
ATOM     83  C   UNL A   1      43.320  34.134  30.297  1.00  0.00     0.023 A 
ATOM     84  C   UNL A   1      43.827  34.982  31.300  1.00  0.00     0.012 A 
ATOM     85  C   UNL A   1      43.352  34.613  28.968  1.00  0.00     0.148 A 
ATOM     86  C   UNL A   1      44.249  36.282  31.017  1.00  0.00     0.002 A 
ATOM     87  C   UNL A   1      43.901  35.855  28.676  1.00  0.00     0.091 A 
ATOM     88  F   UNL A   1      42.843  33.871  27.973  1.00  0.00    -0.205 F 
ATOM     89  C   UNL A   1      44.307  36.713  29.699  1.00  0.00     0.022 A 
BRANCH  87  90
ATOM     90  S   UNL A   1      44.265  36.300  26.974  1.00  0.00     0.127 S 
ATOM     91  O   UNL A   1      42.930  36.421  26.394  1.00  0.00    -0.237 OA
ATOM     92  O   UNL A   1      44.982  37.569  27.122  1.00  0.00    -0.237 OA
ATOM     93  O   UNL A   1      45.092  35.208  26.477  1.00  0.00    -0.744 OA
ENDBRANCH  87  90
ENDBRANCH  60  83
ENDBRANCH  34  35
ENDBRANCH  27  29
ENDBRANCH  26  27
ENDBRANCH  25  26
ENDBRANCH   1  25
TORSDOF 17
ENDMDL
