MODEL 1
REMARK VINA RESULT:     -11.8      0.000      0.000
REMARK SMILES CC[C@@](C)(NC(=O)c1sc2cc(F)ccc2c1Cl)C(=O)OCCOC(=O)c1ccc(-c2c3nc(c(-c4cccc(S(=O)(=O)[O-])c4F)c4ccc([nH]4)c(-c4cccc(S(=O)(=O)[O-])c4F)c4nc(c(-c5cccc(S(=O)(=O)[O-])c5F)c5ccc2[nH]5)C=C4)C=C3)cc1
REMARK SMILES IDX 23 1 22 2 21 3 19 4 20 5 3 6 4 7 2 8 1 9 5 10 6 11 7 13 8 14
REMARK SMILES IDX 9 15 17 16 10 17 16 18 18 19 11 20 15 21 12 22 14 23 13 24
REMARK SMILES IDX 24 25 25 26 26 27 27 28 28 29 89 30 29 31 88 32 30 33 31 34
REMARK SMILES IDX 32 35 82 36 33 37 87 38 81 39 83 40 34 41 86 42 80 43 79 44
REMARK SMILES IDX 35 46 67 47 47 48 66 49 48 50 51 51 65 52 84 53 49 54 50 55
REMARK SMILES IDX 64 57 85 58 52 59 36 60 37 61 45 62 38 63 40 64 46 65 39 66
REMARK SMILES IDX 41 67 42 68 43 69 44 70 68 71 69 72 77 73 70 74 72 75 78 76
REMARK SMILES IDX 71 77 73 78 74 79 75 80 76 81 53 82 54 83 62 84 55 85 57 86
REMARK SMILES IDX 63 87 56 88 58 89 59 90 60 91 61 92
REMARK H PARENT 5 12 83 45 51 56
REMARK Flexibility Score: inf
ROOT
ATOM      1  C   UNL A   1      33.217  31.097  27.255  1.00  0.00     0.275 C 
ENDROOT
BRANCH   1   2
ATOM      2  C   UNL A   1      32.397  29.806  27.168  1.00  0.00     0.274 C 
BRANCH   2   3
ATOM      3  O   UNL A   1      32.922  28.953  26.109  1.00  0.00    -0.460 OA
BRANCH   3   4
ATOM      4  C   UNL A   1      32.026  28.470  25.228  1.00  0.00     0.331 C 
ATOM      5  O   UNL A   1      31.066  29.146  24.902  1.00  0.00    -0.249 OA
BRANCH   4   6
ATOM      6  C   UNL A   1      32.159  26.978  24.818  1.00  0.00     0.135 C 
ATOM      7  C   UNL A   1      32.620  26.208  26.070  1.00  0.00     0.047 C 
BRANCH   6   8
ATOM      8  C   UNL A   1      30.722  26.452  24.408  1.00  0.00     0.037 C 
ATOM      9  C   UNL A   1      29.897  25.671  25.426  1.00  0.00     0.007 C 
ENDBRANCH   6   8
BRANCH   6  10
ATOM     10  N   UNL A   1      33.014  26.594  23.645  1.00  0.00    -0.336 N 
ATOM     11  C   UNL A   1      33.370  25.505  22.900  1.00  0.00     0.263 C 
ATOM     12  H   UNL A   1      33.470  27.394  23.296  1.00  0.00     0.165 HD
ATOM     13  O   UNL A   1      33.831  25.768  21.786  1.00  0.00    -0.268 OA
BRANCH  11  14
ATOM     14  C   UNL A   1      33.389  24.165  23.421  1.00  0.00     0.112 A 
ATOM     15  S   UNL A   1      32.010  23.194  23.106  1.00  0.00    -0.128 S 
ATOM     16  C   UNL A   1      34.264  23.515  24.264  1.00  0.00     0.072 A 
ATOM     17  C   UNL A   1      32.738  21.794  23.788  1.00  0.00     0.040 A 
ATOM     18  C   UNL A   1      33.962  22.105  24.392  1.00  0.00     0.012 A 
ATOM     19  Cl  UNL A   1      35.658  24.212  24.975  1.00  0.00    -0.082 Cl
ATOM     20  C   UNL A   1      32.258  20.470  23.705  1.00  0.00     0.059 A 
ATOM     21  C   UNL A   1      34.724  21.029  24.927  1.00  0.00     0.014 A 
ATOM     22  C   UNL A   1      33.076  19.444  24.170  1.00  0.00     0.124 A 
ATOM     23  C   UNL A   1      34.292  19.707  24.776  1.00  0.00     0.040 A 
ATOM     24  F   UNL A   1      32.701  18.172  23.981  1.00  0.00    -0.207 F 
ENDBRANCH  11  14
ENDBRANCH   6  10
ENDBRANCH   4   6
ENDBRANCH   3   4
ENDBRANCH   2   3
ENDBRANCH   1   2
BRANCH   1  25
ATOM     25  O   UNL A   1      34.620  30.848  27.312  1.00  0.00    -0.458 OA
BRANCH  25  26
ATOM     26  C   UNL A   1      35.372  31.850  27.853  1.00  0.00     0.338 C 
ATOM     27  O   UNL A   1      35.113  33.027  27.877  1.00  0.00    -0.246 OA
BRANCH  26  28
ATOM     28  C   UNL A   1      36.317  31.145  28.750  1.00  0.00     0.060 A 
ATOM     29  C   UNL A   1      37.477  31.815  29.165  1.00  0.00     0.016 A 
ATOM     30  C   UNL A   1      36.265  29.756  28.699  1.00  0.00     0.016 A 
ATOM     31  C   UNL A   1      38.675  31.127  29.160  1.00  0.00     0.010 A 
ATOM     32  C   UNL A   1      37.463  29.069  28.772  1.00  0.00     0.010 A 
ATOM     33  C   UNL A   1      38.679  29.770  28.840  1.00  0.00    -0.014 A 
BRANCH  33  34
ATOM     34  C   UNL A   1      39.941  29.035  28.896  1.00  0.00     0.031 A 
ATOM     35  C   UNL A   1      40.293  28.877  30.313  1.00  0.00     0.074 A 
ATOM     36  C   UNL A   1      40.746  28.511  27.942  1.00  0.00     0.049 A 
ATOM     37  N   UNL A   1      40.963  29.755  30.983  1.00  0.00    -0.248 NA
ATOM     38  C   UNL A   1      39.613  27.862  31.123  1.00  0.00     0.031 C 
ATOM     39  C   UNL A   1      40.589  28.391  26.491  1.00  0.00     0.029 A 
ATOM     40  N   UNL A   1      41.914  27.829  28.143  1.00  0.00    -0.354 N 
ATOM     41  C   UNL A   1      41.012  29.238  32.256  1.00  0.00     0.074 A 
ATOM     42  C   UNL A   1      39.953  28.264  32.350  1.00  0.00     0.031 C 
ATOM     43  C   UNL A   1      41.418  27.437  26.004  1.00  0.00     0.029 A 
ATOM     44  C   UNL A   1      42.345  27.078  27.054  1.00  0.00     0.049 A 
ATOM     45  H   UNL A   1      42.411  27.867  28.993  1.00  0.00     0.167 HD
ATOM     46  C   UNL A   1      42.130  29.381  33.010  1.00  0.00     0.034 A 
ATOM     47  C   UNL A   1      43.429  26.269  27.018  1.00  0.00     0.034 A 
ATOM     48  C   UNL A   1      43.080  30.286  32.417  1.00  0.00     0.049 A 
ATOM     49  C   UNL A   1      44.374  26.853  27.994  1.00  0.00     0.074 A 
ATOM     50  C   UNL A   1      43.085  31.618  32.057  1.00  0.00     0.029 A 
ATOM     51  N   UNL A   1      44.086  29.678  31.705  1.00  0.00    -0.354 N 
ATOM     52  N   UNL A   1      44.944  28.014  27.836  1.00  0.00    -0.248 NA
ATOM     53  C   UNL A   1      44.465  26.282  29.328  1.00  0.00     0.031 C 
ATOM     54  C   UNL A   1      43.893  31.698  30.885  1.00  0.00     0.029 A 
ATOM     55  C   UNL A   1      44.375  30.421  30.592  1.00  0.00     0.049 A 
ATOM     56  H   UNL A   1      44.530  28.836  31.957  1.00  0.00     0.167 HD
ATOM     57  C   UNL A   1      45.037  28.516  29.124  1.00  0.00     0.074 A 
ATOM     58  C   UNL A   1      44.912  27.351  29.991  1.00  0.00     0.031 C 
ATOM     59  C   UNL A   1      44.894  29.851  29.363  1.00  0.00     0.034 A 
BRANCH  46  60
ATOM     60  C   UNL A   1      42.524  28.362  34.028  1.00  0.00     0.023 A 
ATOM     61  C   UNL A   1      42.533  28.739  35.378  1.00  0.00     0.012 A 
ATOM     62  C   UNL A   1      43.076  27.107  33.689  1.00  0.00     0.148 A 
ATOM     63  C   UNL A   1      43.027  27.875  36.358  1.00  0.00     0.002 A 
ATOM     64  C   UNL A   1      43.458  26.209  34.670  1.00  0.00     0.091 A 
ATOM     65  F   UNL A   1      43.362  26.827  32.410  1.00  0.00    -0.205 F 
ATOM     66  C   UNL A   1      43.456  26.595  36.010  1.00  0.00     0.022 A 
BRANCH  64  67
ATOM     67  S   UNL A   1      43.912  24.527  34.245  1.00  0.00     0.127 S 
ATOM     68  O   UNL A   1      42.695  23.798  34.590  1.00  0.00    -0.237 OA
ATOM     69  O   UNL A   1      44.187  24.640  32.813  1.00  0.00    -0.237 OA
ATOM     70  O   UNL A   1      45.091  24.242  35.054  1.00  0.00    -0.744 OA
ENDBRANCH  64  67
ENDBRANCH  46  60
BRANCH  47  71
ATOM     71  C   UNL A   1      43.743  25.009  26.308  1.00  0.00     0.023 A 
ATOM     72  C   UNL A   1      45.075  24.790  25.888  1.00  0.00     0.012 A 
ATOM     73  C   UNL A   1      42.873  23.901  26.355  1.00  0.00     0.148 A 
ATOM     74  C   UNL A   1      45.556  23.503  25.631  1.00  0.00     0.002 A 
ATOM     75  C   UNL A   1      43.355  22.617  26.090  1.00  0.00     0.091 A 
ATOM     76  F   UNL A   1      41.607  24.088  26.760  1.00  0.00    -0.205 F 
ATOM     77  C   UNL A   1      44.701  22.414  25.753  1.00  0.00     0.022 A 
BRANCH  75  78
ATOM     78  S   UNL A   1      42.321  21.153  26.230  1.00  0.00     0.127 S 
ATOM     79  O   UNL A   1      43.073  20.165  25.454  1.00  0.00    -0.237 OA
ATOM     80  O   UNL A   1      42.315  20.920  27.671  1.00  0.00    -0.237 OA
ATOM     81  O   UNL A   1      41.041  21.524  25.638  1.00  0.00    -0.744 OA
ENDBRANCH  75  78
ENDBRANCH  47  71
BRANCH  59  82
ATOM     82  C   UNL A   1      45.065  30.794  28.198  1.00  0.00     0.023 A 
ATOM     83  C   UNL A   1      43.979  31.263  27.431  1.00  0.00     0.012 A 
ATOM     84  C   UNL A   1      46.341  31.337  27.977  1.00  0.00     0.148 A 
ATOM     85  C   UNL A   1      44.166  32.251  26.459  1.00  0.00     0.002 A 
ATOM     86  C   UNL A   1      46.516  32.347  27.041  1.00  0.00     0.091 A 
ATOM     87  F   UNL A   1      47.360  30.876  28.717  1.00  0.00    -0.205 F 
ATOM     88  C   UNL A   1      45.432  32.803  26.274  1.00  0.00     0.022 A 
BRANCH  86  89
ATOM     89  S   UNL A   1      48.091  33.182  26.828  1.00  0.00     0.127 S 
ATOM     90  O   UNL A   1      48.978  32.077  26.468  1.00  0.00    -0.237 OA
ATOM     91  O   UNL A   1      47.801  34.114  25.737  1.00  0.00    -0.237 OA
ATOM     92  O   UNL A   1      48.386  33.824  28.103  1.00  0.00    -0.744 OA
ENDBRANCH  86  89
ENDBRANCH  59  82
ENDBRANCH  33  34
ENDBRANCH  26  28
ENDBRANCH  25  26
ENDBRANCH   1  25
TORSDOF 17
ENDMDL
MODEL 2
REMARK VINA RESULT:     -11.8      3.644      7.880
REMARK SMILES CC[C@@](C)(NC(=O)c1sc2cc(F)ccc2c1Cl)C(=O)OCCOC(=O)c1ccc(-c2c3nc(c(-c4cccc(S(=O)(=O)[O-])c4F)c4ccc([nH]4)c(-c4cccc(S(=O)(=O)[O-])c4F)c4nc(c(-c5cccc(S(=O)(=O)[O-])c5F)c5ccc2[nH]5)C=C4)C=C3)cc1
REMARK SMILES IDX 23 1 22 2 21 3 19 4 20 5 3 6 4 7 2 8 1 9 5 10 6 11 7 13 8 14
REMARK SMILES IDX 9 15 17 16 10 17 16 18 18 19 11 20 15 21 12 22 14 23 13 24
REMARK SMILES IDX 24 25 25 26 26 27 27 28 28 29 89 30 29 31 88 32 30 33 31 34
REMARK SMILES IDX 32 35 82 36 33 37 87 38 81 39 83 40 34 41 86 42 80 43 79 44
REMARK SMILES IDX 35 46 67 47 47 48 66 49 48 50 51 51 65 52 84 53 49 54 50 55
REMARK SMILES IDX 64 57 85 58 52 59 36 60 37 61 45 62 38 63 40 64 46 65 39 66
REMARK SMILES IDX 41 67 42 68 43 69 44 70 68 71 69 72 77 73 70 74 72 75 78 76
REMARK SMILES IDX 71 77 73 78 74 79 75 80 76 81 53 82 54 83 62 84 55 85 57 86
REMARK SMILES IDX 63 87 56 88 58 89 59 90 60 91 61 92
REMARK H PARENT 5 12 83 45 51 56
REMARK Flexibility Score: inf
ROOT
ATOM      1  C   UNL A   1      31.489  29.758  24.959  1.00  0.00     0.275 C 
ENDROOT
BRANCH   1   2
ATOM      2  C   UNL A   1      31.696  28.354  24.382  1.00  0.00     0.274 C 
BRANCH   2   3
ATOM      3  O   UNL A   1      30.589  27.489  24.767  1.00  0.00    -0.460 OA
BRANCH   3   4
ATOM      4  C   UNL A   1      30.846  26.573  25.720  1.00  0.00     0.331 C 
ATOM      5  O   UNL A   1      30.884  26.906  26.891  1.00  0.00    -0.249 OA
BRANCH   4   6
ATOM      6  C   UNL A   1      31.280  25.156  25.253  1.00  0.00     0.135 C 
ATOM      7  C   UNL A   1      30.674  24.151  26.248  1.00  0.00     0.047 C 
BRANCH   6   8
ATOM      8  C   UNL A   1      30.643  24.895  23.827  1.00  0.00     0.037 C 
ATOM      9  C   UNL A   1      31.442  25.253  22.578  1.00  0.00     0.007 C 
ENDBRANCH   6   8
BRANCH   6  10
ATOM     10  N   UNL A   1      32.734  24.847  25.043  1.00  0.00    -0.336 N 
ATOM     11  C   UNL A   1      33.555  23.849  24.598  1.00  0.00     0.263 C 
ATOM     12  H   UNL A   1      33.278  25.621  25.318  1.00  0.00     0.165 HD
ATOM     13  O   UNL A   1      34.687  24.216  24.271  1.00  0.00    -0.268 OA
BRANCH  11  14
ATOM     14  C   UNL A   1      33.213  22.454  24.672  1.00  0.00     0.112 A 
ATOM     15  S   UNL A   1      32.637  21.723  23.230  1.00  0.00    -0.128 S 
ATOM     16  C   UNL A   1      33.125  21.580  25.732  1.00  0.00     0.072 A 
ATOM     17  C   UNL A   1      32.613  20.156  23.937  1.00  0.00     0.040 A 
ATOM     18  C   UNL A   1      32.893  20.216  25.306  1.00  0.00     0.012 A 
ATOM     19  Cl  UNL A   1      33.412  21.981  27.374  1.00  0.00    -0.082 Cl
ATOM     20  C   UNL A   1      32.431  18.930  23.262  1.00  0.00     0.059 A 
ATOM     21  C   UNL A   1      32.993  18.985  26.013  1.00  0.00     0.014 A 
ATOM     22  C   UNL A   1      32.617  17.752  23.978  1.00  0.00     0.124 A 
ATOM     23  C   UNL A   1      32.892  17.766  25.334  1.00  0.00     0.040 A 
ATOM     24  F   UNL A   1      32.582  16.580  23.329  1.00  0.00    -0.207 F 
ENDBRANCH  11  14
ENDBRANCH   6  10
ENDBRANCH   4   6
ENDBRANCH   3   4
ENDBRANCH   2   3
ENDBRANCH   1   2
BRANCH   1  25
ATOM     25  O   UNL A   1      32.593  30.189  25.752  1.00  0.00    -0.458 OA
BRANCH  25  26
ATOM     26  C   UNL A   1      32.397  31.343  26.453  1.00  0.00     0.338 C 
ATOM     27  O   UNL A   1      31.485  32.122  26.338  1.00  0.00    -0.246 OA
BRANCH  26  28
ATOM     28  C   UNL A   1      33.279  31.199  27.635  1.00  0.00     0.060 A 
ATOM     29  C   UNL A   1      33.668  32.354  28.328  1.00  0.00     0.016 A 
ATOM     30  C   UNL A   1      34.053  30.044  27.665  1.00  0.00     0.016 A 
ATOM     31  C   UNL A   1      34.986  32.475  28.724  1.00  0.00     0.010 A 
ATOM     32  C   UNL A   1      35.349  30.156  28.135  1.00  0.00     0.010 A 
ATOM     33  C   UNL A   1      35.860  31.409  28.513  1.00  0.00    -0.014 A 
BRANCH  33  34
ATOM     34  C   UNL A   1      37.237  31.520  28.988  1.00  0.00     0.031 A 
ATOM     35  C   UNL A   1      37.916  30.259  28.662  1.00  0.00     0.074 A 
ATOM     36  C   UNL A   1      37.924  32.512  29.602  1.00  0.00     0.049 A 
ATOM     37  N   UNL A   1      37.905  29.224  29.435  1.00  0.00    -0.248 NA
ATOM     38  C   UNL A   1      38.361  30.006  27.288  1.00  0.00     0.031 C 
ATOM     39  C   UNL A   1      37.565  33.896  29.919  1.00  0.00     0.029 A 
ATOM     40  N   UNL A   1      39.235  32.479  29.988  1.00  0.00    -0.354 N 
ATOM     41  C   UNL A   1      38.598  28.271  28.726  1.00  0.00     0.074 A 
ATOM     42  C   UNL A   1      38.593  28.693  27.347  1.00  0.00     0.031 C 
ATOM     43  C   UNL A   1      38.679  34.635  30.138  1.00  0.00     0.029 A 
ATOM     44  C   UNL A   1      39.799  33.727  30.242  1.00  0.00     0.049 A 
ATOM     45  H   UNL A   1      39.741  31.639  30.080  1.00  0.00     0.167 HD
ATOM     46  C   UNL A   1      39.425  27.408  29.368  1.00  0.00     0.034 A 
ATOM     47  C   UNL A   1      41.087  33.970  30.576  1.00  0.00     0.034 A 
ATOM     48  C   UNL A   1      39.289  27.479  30.799  1.00  0.00     0.049 A 
ATOM     49  C   UNL A   1      41.540  32.746  31.271  1.00  0.00     0.074 A 
ATOM     50  C   UNL A   1      38.272  27.268  31.707  1.00  0.00     0.029 A 
ATOM     51  N   UNL A   1      40.226  28.264  31.427  1.00  0.00    -0.354 N 
ATOM     52  N   UNL A   1      41.070  32.359  32.424  1.00  0.00    -0.248 NA
ATOM     53  C   UNL A   1      42.313  31.755  30.541  1.00  0.00     0.031 C 
ATOM     54  C   UNL A   1      38.485  28.213  32.752  1.00  0.00     0.029 A 
ATOM     55  C   UNL A   1      39.638  28.944  32.460  1.00  0.00     0.049 A 
ATOM     56  H   UNL A   1      41.175  28.328  31.172  1.00  0.00     0.167 HD
ATOM     57  C   UNL A   1      41.080  30.976  32.339  1.00  0.00     0.074 A 
ATOM     58  C   UNL A   1      42.016  30.673  31.265  1.00  0.00     0.031 C 
ATOM     59  C   UNL A   1      40.102  30.235  32.933  1.00  0.00     0.034 A 
BRANCH  46  60
ATOM     60  C   UNL A   1      40.644  26.853  28.706  1.00  0.00     0.023 A 
ATOM     61  C   UNL A   1      40.801  25.461  28.664  1.00  0.00     0.012 A 
ATOM     62  C   UNL A   1      41.734  27.655  28.301  1.00  0.00     0.148 A 
ATOM     63  C   UNL A   1      41.984  24.890  28.187  1.00  0.00     0.002 A 
ATOM     64  C   UNL A   1      42.856  27.089  27.723  1.00  0.00     0.091 A 
ATOM     65  F   UNL A   1      41.748  28.961  28.597  1.00  0.00    -0.205 F 
ATOM     66  C   UNL A   1      42.998  25.702  27.683  1.00  0.00     0.022 A 
BRANCH  64  67
ATOM     67  S   UNL A   1      44.119  28.120  26.976  1.00  0.00     0.127 S 
ATOM     68  O   UNL A   1      44.771  28.685  28.153  1.00  0.00    -0.237 OA
ATOM     69  O   UNL A   1      44.911  27.139  26.234  1.00  0.00    -0.237 OA
ATOM     70  O   UNL A   1      43.387  29.054  26.127  1.00  0.00    -0.744 OA
ENDBRANCH  64  67
ENDBRANCH  46  60
BRANCH  47  71
ATOM     71  C   UNL A   1      42.019  35.091  30.315  1.00  0.00     0.023 A 
ATOM     72  C   UNL A   1      43.021  35.366  31.272  1.00  0.00     0.012 A 
ATOM     73  C   UNL A   1      42.165  35.640  29.024  1.00  0.00     0.148 A 
ATOM     74  C   UNL A   1      44.181  36.068  30.931  1.00  0.00     0.002 A 
ATOM     75  C   UNL A   1      43.323  36.347  28.690  1.00  0.00     0.091 A 
ATOM     76  F   UNL A   1      41.228  35.382  28.100  1.00  0.00    -0.205 F 
ATOM     77  C   UNL A   1      44.341  36.540  29.634  1.00  0.00     0.022 A 
BRANCH  75  78
ATOM     78  S   UNL A   1      43.613  36.988  27.035  1.00  0.00     0.127 S 
ATOM     79  O   UNL A   1      44.579  38.061  27.282  1.00  0.00    -0.237 OA
ATOM     80  O   UNL A   1      44.162  35.822  26.349  1.00  0.00    -0.237 OA
ATOM     81  O   UNL A   1      42.314  37.453  26.565  1.00  0.00    -0.744 OA
ENDBRANCH  75  78
ENDBRANCH  47  71
BRANCH  59  82
ATOM     82  C   UNL A   1      39.282  30.894  34.014  1.00  0.00     0.023 A 
ATOM     83  C   UNL A   1      39.675  30.907  35.368  1.00  0.00     0.012 A 
ATOM     84  C   UNL A   1      38.166  31.652  33.620  1.00  0.00     0.148 A 
ATOM     85  C   UNL A   1      38.963  31.657  36.310  1.00  0.00     0.002 A 
ATOM     86  C   UNL A   1      37.487  32.428  34.549  1.00  0.00     0.091 A 
ATOM     87  F   UNL A   1      37.810  31.624  32.327  1.00  0.00    -0.205 F 
ATOM     88  C   UNL A   1      37.878  32.429  35.898  1.00  0.00     0.022 A 
BRANCH  86  89
ATOM     89  S   UNL A   1      36.155  33.532  34.072  1.00  0.00     0.127 S 
ATOM     90  O   UNL A   1      35.561  33.872  35.363  1.00  0.00    -0.237 OA
ATOM     91  O   UNL A   1      36.880  34.627  33.425  1.00  0.00    -0.237 OA
ATOM     92  O   UNL A   1      35.296  32.769  33.176  1.00  0.00    -0.744 OA
ENDBRANCH  86  89
ENDBRANCH  59  82
ENDBRANCH  33  34
ENDBRANCH  26  28
ENDBRANCH  25  26
ENDBRANCH   1  25
TORSDOF 17
ENDMDL
MODEL 3
REMARK VINA RESULT:     -11.5      1.920      2.370
REMARK SMILES CC[C@@](C)(NC(=O)c1sc2cc(F)ccc2c1Cl)C(=O)OCCOC(=O)c1ccc(-c2c3nc(c(-c4cccc(S(=O)(=O)[O-])c4F)c4ccc([nH]4)c(-c4cccc(S(=O)(=O)[O-])c4F)c4nc(c(-c5cccc(S(=O)(=O)[O-])c5F)c5ccc2[nH]5)C=C4)C=C3)cc1
REMARK SMILES IDX 23 1 22 2 21 3 19 4 20 5 3 6 4 7 2 8 1 9 5 10 6 11 7 13 8 14
REMARK SMILES IDX 9 15 17 16 10 17 16 18 18 19 11 20 15 21 12 22 14 23 13 24
REMARK SMILES IDX 24 25 25 26 26 27 27 28 28 29 89 30 29 31 88 32 30 33 31 34
REMARK SMILES IDX 32 35 82 36 33 37 87 38 81 39 83 40 34 41 86 42 80 43 79 44
REMARK SMILES IDX 35 46 67 47 47 48 66 49 48 50 51 51 65 52 84 53 49 54 50 55
REMARK SMILES IDX 64 57 85 58 52 59 36 60 37 61 45 62 38 63 40 64 46 65 39 66
REMARK SMILES IDX 41 67 42 68 43 69 44 70 68 71 69 72 77 73 70 74 72 75 78 76
REMARK SMILES IDX 71 77 73 78 74 79 75 80 76 81 53 82 54 83 62 84 55 85 57 86
REMARK SMILES IDX 63 87 56 88 58 89 59 90 60 91 61 92
REMARK H PARENT 5 12 83 45 51 56
REMARK Flexibility Score: inf
ROOT
ATOM      1  C   UNL A   1      33.687  30.344  26.919  1.00  0.00     0.275 C 
ENDROOT
BRANCH   1   2
ATOM      2  C   UNL A   1      32.710  29.165  26.925  1.00  0.00     0.274 C 
BRANCH   2   3
ATOM      3  O   UNL A   1      32.800  28.436  25.666  1.00  0.00    -0.460 OA
BRANCH   3   4
ATOM      4  C   UNL A   1      31.874  28.733  24.734  1.00  0.00     0.331 C 
ATOM      5  O   UNL A   1      31.144  29.696  24.885  1.00  0.00    -0.249 OA
BRANCH   4   6
ATOM      6  C   UNL A   1      31.653  27.702  23.593  1.00  0.00     0.135 C 
ATOM      7  C   UNL A   1      30.720  28.367  22.564  1.00  0.00     0.047 C 
BRANCH   6   8
ATOM      8  C   UNL A   1      33.050  27.430  22.901  1.00  0.00     0.037 C 
ATOM      9  C   UNL A   1      33.891  28.613  22.431  1.00  0.00     0.007 C 
ENDBRANCH   6   8
BRANCH   6  10
ATOM     10  N   UNL A   1      31.152  26.323  23.912  1.00  0.00    -0.336 N 
ATOM     11  C   UNL A   1      31.570  25.138  24.449  1.00  0.00     0.263 C 
ATOM     12  H   UNL A   1      30.206  26.247  23.647  1.00  0.00     0.165 HD
ATOM     13  O   UNL A   1      30.665  24.397  24.839  1.00  0.00    -0.268 OA
BRANCH  11  14
ATOM     14  C   UNL A   1      32.937  24.691  24.404  1.00  0.00     0.112 A 
ATOM     15  S   UNL A   1      33.930  25.109  25.739  1.00  0.00    -0.128 S 
ATOM     16  C   UNL A   1      33.677  24.083  23.415  1.00  0.00     0.072 A 
ATOM     17  C   UNL A   1      35.248  24.171  25.157  1.00  0.00     0.040 A 
ATOM     18  C   UNL A   1      34.984  23.670  23.878  1.00  0.00     0.012 A 
ATOM     19  Cl  UNL A   1      33.103  23.691  21.847  1.00  0.00    -0.082 Cl
ATOM     20  C   UNL A   1      36.424  23.841  25.864  1.00  0.00     0.059 A 
ATOM     21  C   UNL A   1      35.951  22.800  23.299  1.00  0.00     0.014 A 
ATOM     22  C   UNL A   1      37.301  22.925  25.291  1.00  0.00     0.124 A 
ATOM     23  C   UNL A   1      37.079  22.407  24.026  1.00  0.00     0.040 A 
ATOM     24  F   UNL A   1      38.354  22.496  25.999  1.00  0.00    -0.207 F 
ENDBRANCH  11  14
ENDBRANCH   6  10
ENDBRANCH   4   6
ENDBRANCH   3   4
ENDBRANCH   2   3
ENDBRANCH   1   2
BRANCH   1  25
ATOM     25  O   UNL A   1      34.619  30.284  27.995  1.00  0.00    -0.458 OA
BRANCH  25  26
ATOM     26  C   UNL A   1      35.053  31.490  28.464  1.00  0.00     0.338 C 
ATOM     27  O   UNL A   1      34.445  32.531  28.477  1.00  0.00    -0.246 OA
BRANCH  26  28
ATOM     28  C   UNL A   1      36.215  31.147  29.317  1.00  0.00     0.060 A 
ATOM     29  C   UNL A   1      37.467  31.694  28.998  1.00  0.00     0.016 A 
ATOM     30  C   UNL A   1      36.107  29.952  30.021  1.00  0.00     0.016 A 
ATOM     31  C   UNL A   1      38.578  30.874  29.046  1.00  0.00     0.010 A 
ATOM     32  C   UNL A   1      37.243  29.171  30.131  1.00  0.00     0.010 A 
ATOM     33  C   UNL A   1      38.437  29.563  29.501  1.00  0.00    -0.014 A 
BRANCH  33  34
ATOM     34  C   UNL A   1      39.626  28.720  29.606  1.00  0.00     0.031 A 
ATOM     35  C   UNL A   1      40.021  28.696  31.021  1.00  0.00     0.074 A 
ATOM     36  C   UNL A   1      40.338  28.013  28.699  1.00  0.00     0.049 A 
ATOM     37  N   UNL A   1      40.798  29.576  31.559  1.00  0.00    -0.248 NA
ATOM     38  C   UNL A   1      39.284  27.854  31.968  1.00  0.00     0.031 C 
ATOM     39  C   UNL A   1      40.109  27.739  27.278  1.00  0.00     0.029 A 
ATOM     40  N   UNL A   1      41.444  27.248  28.944  1.00  0.00    -0.354 N 
ATOM     41  C   UNL A   1      40.852  29.209  32.883  1.00  0.00     0.074 A 
ATOM     42  C   UNL A   1      39.711  28.361  33.126  1.00  0.00     0.031 C 
ATOM     43  C   UNL A   1      40.825  26.658  26.884  1.00  0.00     0.029 A 
ATOM     44  C   UNL A   1      41.758  26.336  27.941  1.00  0.00     0.049 A 
ATOM     45  H   UNL A   1      41.978  27.336  29.767  1.00  0.00     0.167 HD
ATOM     46  C   UNL A   1      42.009  29.330  33.580  1.00  0.00     0.034 A 
ATOM     47  C   UNL A   1      42.759  25.427  27.969  1.00  0.00     0.034 A 
ATOM     48  C   UNL A   1      43.014  30.062  32.853  1.00  0.00     0.049 A 
ATOM     49  C   UNL A   1      43.795  26.025  28.838  1.00  0.00     0.074 A 
ATOM     50  C   UNL A   1      43.127  31.336  32.335  1.00  0.00     0.029 A 
ATOM     51  N   UNL A   1      43.927  29.280  32.189  1.00  0.00    -0.354 N 
ATOM     52  N   UNL A   1      44.463  27.099  28.525  1.00  0.00    -0.248 NA
ATOM     53  C   UNL A   1      43.888  25.608  30.227  1.00  0.00     0.031 C 
ATOM     54  C   UNL A   1      43.889  31.200  31.138  1.00  0.00     0.029 A 
ATOM     55  C   UNL A   1      44.237  29.856  30.986  1.00  0.00     0.049 A 
ATOM     56  H   UNL A   1      44.301  28.434  32.527  1.00  0.00     0.167 HD
ATOM     57  C   UNL A   1      44.657  27.737  29.739  1.00  0.00     0.074 A 
ATOM     58  C   UNL A   1      44.460  26.700  30.743  1.00  0.00     0.031 C 
ATOM     59  C   UNL A   1      44.649  29.098  29.819  1.00  0.00     0.034 A 
BRANCH  46  60
ATOM     60  C   UNL A   1      42.349  28.403  34.701  1.00  0.00     0.023 A 
ATOM     61  C   UNL A   1      42.602  28.954  35.965  1.00  0.00     0.012 A 
ATOM     62  C   UNL A   1      42.621  27.030  34.510  1.00  0.00     0.148 A 
ATOM     63  C   UNL A   1      43.062  28.152  37.013  1.00  0.00     0.002 A 
ATOM     64  C   UNL A   1      42.965  26.219  35.577  1.00  0.00     0.091 A 
ATOM     65  F   UNL A   1      42.682  26.528  33.270  1.00  0.00    -0.205 F 
ATOM     66  C   UNL A   1      43.209  26.778  36.831  1.00  0.00     0.022 A 
BRANCH  64  67
ATOM     67  S   UNL A   1      43.056  24.438  35.380  1.00  0.00     0.127 S 
ATOM     68  O   UNL A   1      41.644  24.069  35.398  1.00  0.00    -0.237 OA
ATOM     69  O   UNL A   1      43.718  24.310  34.083  1.00  0.00    -0.237 OA
ATOM     70  O   UNL A   1      43.863  23.979  36.505  1.00  0.00    -0.744 OA
ENDBRANCH  64  67
ENDBRANCH  46  60
BRANCH  47  71
ATOM     71  C   UNL A   1      42.924  24.067  27.406  1.00  0.00     0.023 A 
ATOM     72  C   UNL A   1      41.804  23.207  27.391  1.00  0.00     0.012 A 
ATOM     73  C   UNL A   1      44.022  23.741  26.584  1.00  0.00     0.148 A 
ATOM     74  C   UNL A   1      41.729  22.123  26.512  1.00  0.00     0.002 A 
ATOM     75  C   UNL A   1      43.947  22.652  25.712  1.00  0.00     0.091 A 
ATOM     76  F   UNL A   1      45.091  24.551  26.578  1.00  0.00    -0.205 F 
ATOM     77  C   UNL A   1      42.792  21.858  25.658  1.00  0.00     0.022 A 
BRANCH  75  78
ATOM     78  S   UNL A   1      45.273  22.242  24.569  1.00  0.00     0.127 S 
ATOM     79  O   UNL A   1      44.747  21.052  23.896  1.00  0.00    -0.237 OA
ATOM     80  O   UNL A   1      45.335  23.437  23.733  1.00  0.00    -0.237 OA
ATOM     81  O   UNL A   1      46.440  21.985  25.404  1.00  0.00    -0.744 OA
ENDBRANCH  75  78
ENDBRANCH  47  71
BRANCH  59  82
ATOM     82  C   UNL A   1      44.858  29.877  28.545  1.00  0.00     0.023 A 
ATOM     83  C   UNL A   1      43.801  30.205  27.670  1.00  0.00     0.012 A 
ATOM     84  C   UNL A   1      46.131  30.422  28.312  1.00  0.00     0.148 A 
ATOM     85  C   UNL A   1      44.016  31.055  26.581  1.00  0.00     0.002 A 
ATOM     86  C   UNL A   1      46.331  31.299  27.254  1.00  0.00     0.091 A 
ATOM     87  F   UNL A   1      47.121  30.096  29.156  1.00  0.00    -0.205 F 
ATOM     88  C   UNL A   1      45.277  31.614  26.381  1.00  0.00     0.022 A 
BRANCH  86  89
ATOM     89  S   UNL A   1      47.895  32.143  27.003  1.00  0.00     0.127 S 
ATOM     90  O   UNL A   1      47.575  33.064  25.914  1.00  0.00    -0.237 OA
ATOM     91  O   UNL A   1      48.112  32.783  28.301  1.00  0.00    -0.237 OA
ATOM     92  O   UNL A   1      48.867  31.108  26.674  1.00  0.00    -0.744 OA
ENDBRANCH  86  89
ENDBRANCH  59  82
ENDBRANCH  33  34
ENDBRANCH  26  28
ENDBRANCH  25  26
ENDBRANCH   1  25
TORSDOF 17
ENDMDL
