MODEL 1
REMARK VINA RESULT:     -10.4      0.000      0.000
REMARK SMILES CC(C)[C@H]([NH2+][C@@H](C)C[C@@H]1CCCC[NH2+]1)C(=O)OCCOC(=O)c1ccc(-c2c3nc(c(-c4cccc(S(=O)(=O)[O-])c4F)c4ccc([nH]4)c(-c4cccc(S(=O)(=O)[O-])c4F)c4nc(c(-c5cccc(S(=O)(=O)[O-])c5F)c5ccc2[nH]5)C=C4)C=C3)cc1
REMARK SMILES IDX 18 1 17 2 15 3 16 4 4 5 2 6 1 7 3 8 5 9 6 12 7 13 8 14 9 15
REMARK SMILES IDX 10 16 14 17 11 18 13 19 12 22 19 23 20 24 21 25 22 26 23 27
REMARK SMILES IDX 24 28 85 29 25 30 84 31 26 32 27 33 28 34 78 35 29 36 83 37
REMARK SMILES IDX 77 38 79 39 30 40 82 41 76 42 75 43 31 45 63 46 43 47 62 48
REMARK SMILES IDX 44 49 47 50 61 51 80 52 45 53 46 54 60 56 81 57 48 58 32 59
REMARK SMILES IDX 33 60 41 61 34 62 36 63 42 64 35 65 37 66 38 67 39 68 40 69
REMARK SMILES IDX 64 70 65 71 73 72 66 73 68 74 74 75 67 76 69 77 70 78 71 79
REMARK SMILES IDX 72 80 49 81 50 82 58 83 51 84 53 85 59 86 52 87 54 88 55 89
REMARK SMILES IDX 56 90 57 91
REMARK H PARENT 5 10 5 11 14 20 14 21 79 44 47 55
REMARK Flexibility Score: inf
ROOT
ATOM      1  C   UNL A   1      31.902  28.491  27.595  1.00  0.00     0.274 C 
ENDROOT
BRANCH   1   2
ATOM      2  O   UNL A   1      30.971  27.448  27.247  1.00  0.00    -0.458 OA
BRANCH   2   3
ATOM      3  C   UNL A   1      31.400  26.597  26.270  1.00  0.00     0.365 C 
ATOM      4  O   UNL A   1      32.179  25.667  26.470  1.00  0.00    -0.245 OA
BRANCH   3   5
ATOM      5  C   UNL A   1      30.957  27.003  24.852  1.00  0.00     0.296 C 
BRANCH   5   6
ATOM      6  C   UNL A   1      29.928  25.971  24.307  1.00  0.00     0.053 C 
ATOM      7  C   UNL A   1      28.575  26.552  23.878  1.00  0.00     0.014 C 
ATOM      8  C   UNL A   1      30.519  25.163  23.144  1.00  0.00     0.014 C 
ENDBRANCH   5   6
BRANCH   5   9
ATOM      9  N   UNL A   1      32.095  27.210  23.934  1.00  0.00    -0.332 N 
ATOM     10  H   UNL A   1      32.063  26.471  23.232  1.00  0.00     0.347 HD
ATOM     11  H   UNL A   1      32.924  27.197  24.529  1.00  0.00     0.347 HD
BRANCH   9  12
ATOM     12  C   UNL A   1      32.148  28.499  23.224  1.00  0.00     0.185 C 
ATOM     13  C   UNL A   1      33.485  28.483  22.454  1.00  0.00     0.075 C 
BRANCH  12  14
ATOM     14  C   UNL A   1      31.015  28.853  22.212  1.00  0.00     0.129 C 
BRANCH  14  15
ATOM     15  C   UNL A   1      30.201  30.171  22.377  1.00  0.00     0.188 C 
ATOM     16  C   UNL A   1      29.531  30.294  23.757  1.00  0.00     0.065 C 
ATOM     17  N   UNL A   1      29.266  30.355  21.263  1.00  0.00    -0.344 N 
ATOM     18  C   UNL A   1      28.655  31.538  23.868  1.00  0.00     0.012 C 
ATOM     19  C   UNL A   1      28.408  31.532  21.389  1.00  0.00     0.260 C 
ATOM     20  H   UNL A   1      28.669  29.530  21.208  1.00  0.00     0.346 HD
ATOM     21  H   UNL A   1      29.832  30.493  20.426  1.00  0.00     0.346 HD
ATOM     22  C   UNL A   1      27.662  31.559  22.715  1.00  0.00     0.062 C 
ENDBRANCH  14  15
ENDBRANCH  12  14
ENDBRANCH   9  12
ENDBRANCH   5   9
ENDBRANCH   3   5
ENDBRANCH   2   3
ENDBRANCH   1   2
BRANCH   1  23
ATOM     23  C   UNL A   1      31.742  29.761  26.759  1.00  0.00     0.275 C 
BRANCH  23  24
ATOM     24  O   UNL A   1      33.006  30.285  26.326  1.00  0.00    -0.458 OA
BRANCH  24  25
ATOM     25  C   UNL A   1      33.456  31.330  27.060  1.00  0.00     0.338 C 
ATOM     26  O   UNL A   1      32.852  32.358  27.318  1.00  0.00    -0.246 OA
BRANCH  25  27
ATOM     27  C   UNL A   1      34.779  31.020  27.626  1.00  0.00     0.060 A 
ATOM     28  C   UNL A   1      35.076  29.677  27.870  1.00  0.00     0.016 A 
ATOM     29  C   UNL A   1      35.671  32.025  28.003  1.00  0.00     0.016 A 
ATOM     30  C   UNL A   1      36.251  29.331  28.532  1.00  0.00     0.010 A 
ATOM     31  C   UNL A   1      36.850  31.678  28.670  1.00  0.00     0.010 A 
ATOM     32  C   UNL A   1      37.129  30.331  28.967  1.00  0.00    -0.014 A 
BRANCH  32  33
ATOM     33  C   UNL A   1      38.285  29.963  29.819  1.00  0.00     0.031 A 
ATOM     34  C   UNL A   1      39.313  28.998  29.297  1.00  0.00     0.074 A 
ATOM     35  C   UNL A   1      38.426  30.505  31.042  1.00  0.00     0.049 A 
ATOM     36  N   UNL A   1      40.410  28.570  29.867  1.00  0.00    -0.248 NA
ATOM     37  C   UNL A   1      39.075  28.438  27.956  1.00  0.00     0.031 C 
ATOM     38  C   UNL A   1      37.490  31.443  31.662  1.00  0.00     0.029 A 
ATOM     39  N   UNL A   1      39.404  30.329  31.987  1.00  0.00    -0.354 N 
ATOM     40  C   UNL A   1      40.982  27.677  28.969  1.00  0.00     0.074 A 
ATOM     41  C   UNL A   1      40.102  27.611  27.821  1.00  0.00     0.031 C 
ATOM     42  C   UNL A   1      37.933  31.748  32.894  1.00  0.00     0.029 A 
ATOM     43  C   UNL A   1      39.173  31.021  33.153  1.00  0.00     0.049 A 
ATOM     44  H   UNL A   1      40.197  29.763  31.845  1.00  0.00     0.167 HD
ATOM     45  C   UNL A   1      42.143  26.990  29.079  1.00  0.00     0.034 A 
ATOM     46  C   UNL A   1      39.882  31.058  34.299  1.00  0.00     0.034 A 
ATOM     47  C   UNL A   1      43.033  27.078  30.206  1.00  0.00     0.049 A 
ATOM     48  C   UNL A   1      41.177  30.295  34.388  1.00  0.00     0.074 A 
ATOM     49  C   UNL A   1      44.253  26.453  30.391  1.00  0.00     0.029 A 
ATOM     50  N   UNL A   1      42.795  27.835  31.343  1.00  0.00    -0.354 N 
ATOM     51  N   UNL A   1      41.768  29.558  33.479  1.00  0.00    -0.248 NA
ATOM     52  C   UNL A   1      41.925  30.401  35.651  1.00  0.00     0.031 C 
ATOM     53  C   UNL A   1      44.751  26.827  31.645  1.00  0.00     0.029 A 
ATOM     54  C   UNL A   1      43.845  27.693  32.235  1.00  0.00     0.049 A 
ATOM     55  H   UNL A   1      41.998  28.392  31.494  1.00  0.00     0.167 HD
ATOM     56  C   UNL A   1      42.969  29.142  34.044  1.00  0.00     0.074 A 
ATOM     57  C   UNL A   1      43.032  29.729  35.367  1.00  0.00     0.031 C 
ATOM     58  C   UNL A   1      43.924  28.332  33.523  1.00  0.00     0.034 A 
BRANCH  45  59
ATOM     59  C   UNL A   1      42.545  26.114  27.922  1.00  0.00     0.023 A 
ATOM     60  C   UNL A   1      43.435  26.617  26.951  1.00  0.00     0.012 A 
ATOM     61  C   UNL A   1      42.091  24.784  27.822  1.00  0.00     0.148 A 
ATOM     62  C   UNL A   1      43.844  25.820  25.882  1.00  0.00     0.002 A 
ATOM     63  C   UNL A   1      42.533  23.984  26.774  1.00  0.00     0.091 A 
ATOM     64  F   UNL A   1      41.225  24.333  28.741  1.00  0.00    -0.205 F 
ATOM     65  C   UNL A   1      43.402  24.502  25.800  1.00  0.00     0.022 A 
BRANCH  63  66
ATOM     66  S   UNL A   1      42.073  22.254  26.623  1.00  0.00     0.127 S 
ATOM     67  O   UNL A   1      42.763  21.871  25.392  1.00  0.00    -0.237 OA
ATOM     68  O   UNL A   1      42.636  21.675  27.843  1.00  0.00    -0.237 OA
ATOM     69  O   UNL A   1      40.618  22.233  26.561  1.00  0.00    -0.744 OA
ENDBRANCH  63  66
ENDBRANCH  45  59
BRANCH  46  70
ATOM     70  C   UNL A   1      39.414  31.905  35.431  1.00  0.00     0.023 A 
ATOM     71  C   UNL A   1      38.535  31.358  36.387  1.00  0.00     0.012 A 
ATOM     72  C   UNL A   1      39.851  33.235  35.581  1.00  0.00     0.148 A 
ATOM     73  C   UNL A   1      38.079  32.128  37.456  1.00  0.00     0.002 A 
ATOM     74  C   UNL A   1      39.433  33.981  36.678  1.00  0.00     0.091 A 
ATOM     75  F   UNL A   1      40.668  33.746  34.650  1.00  0.00    -0.205 F 
ATOM     76  C   UNL A   1      38.536  33.435  37.609  1.00  0.00     0.022 A 
BRANCH  74  77
ATOM     77  S   UNL A   1      40.071  35.626  37.017  1.00  0.00     0.127 S 
ATOM     78  O   UNL A   1      39.445  35.933  38.299  1.00  0.00    -0.237 OA
ATOM     79  O   UNL A   1      41.514  35.387  37.077  1.00  0.00    -0.237 OA
ATOM     80  O   UNL A   1      39.650  36.446  35.888  1.00  0.00    -0.744 OA
ENDBRANCH  74  77
ENDBRANCH  46  70
BRANCH  58  81
ATOM     81  C   UNL A   1      45.137  28.051  34.371  1.00  0.00     0.023 A 
ATOM     82  C   UNL A   1      46.255  28.907  34.294  1.00  0.00     0.012 A 
ATOM     83  C   UNL A   1      45.151  26.980  35.287  1.00  0.00     0.148 A 
ATOM     84  C   UNL A   1      47.379  28.681  35.089  1.00  0.00     0.002 A 
ATOM     85  C   UNL A   1      46.258  26.787  36.107  1.00  0.00     0.091 A 
ATOM     86  F   UNL A   1      44.089  26.161  35.334  1.00  0.00    -0.205 F 
ATOM     87  C   UNL A   1      47.376  27.629  36.002  1.00  0.00     0.022 A 
BRANCH  85  88
ATOM     88  S   UNL A   1      46.289  25.508  37.368  1.00  0.00     0.127 S 
ATOM     89  O   UNL A   1      45.131  25.861  38.184  1.00  0.00    -0.237 OA
ATOM     90  O   UNL A   1      46.130  24.282  36.582  1.00  0.00    -0.237 OA
ATOM     91  O   UNL A   1      47.587  25.634  38.019  1.00  0.00    -0.744 OA
ENDBRANCH  85  88
ENDBRANCH  58  81
ENDBRANCH  32  33
ENDBRANCH  25  27
ENDBRANCH  24  25
ENDBRANCH  23  24
ENDBRANCH   1  23
TORSDOF 19
ENDMDL
MODEL 2
REMARK VINA RESULT:     -10.3      4.984      7.512
REMARK SMILES CC(C)[C@H]([NH2+][C@@H](C)C[C@@H]1CCCC[NH2+]1)C(=O)OCCOC(=O)c1ccc(-c2c3nc(c(-c4cccc(S(=O)(=O)[O-])c4F)c4ccc([nH]4)c(-c4cccc(S(=O)(=O)[O-])c4F)c4nc(c(-c5cccc(S(=O)(=O)[O-])c5F)c5ccc2[nH]5)C=C4)C=C3)cc1
REMARK SMILES IDX 18 1 17 2 15 3 16 4 4 5 2 6 1 7 3 8 5 9 6 12 7 13 8 14 9 15
REMARK SMILES IDX 10 16 14 17 11 18 13 19 12 22 19 23 20 24 21 25 22 26 23 27
REMARK SMILES IDX 24 28 85 29 25 30 84 31 26 32 27 33 28 34 78 35 29 36 83 37
REMARK SMILES IDX 77 38 79 39 30 40 82 41 76 42 75 43 31 45 63 46 43 47 62 48
REMARK SMILES IDX 44 49 47 50 61 51 80 52 45 53 46 54 60 56 81 57 48 58 32 59
REMARK SMILES IDX 33 60 41 61 34 62 36 63 42 64 35 65 37 66 38 67 39 68 40 69
REMARK SMILES IDX 64 70 65 71 73 72 66 73 68 74 74 75 67 76 69 77 70 78 71 79
REMARK SMILES IDX 72 80 49 81 50 82 58 83 51 84 53 85 59 86 52 87 54 88 55 89
REMARK SMILES IDX 56 90 57 91
REMARK H PARENT 5 10 5 11 14 20 14 21 79 44 47 55
REMARK Flexibility Score: inf
ROOT
ATOM      1  C   UNL A   1      36.600  22.246  23.870  1.00  0.00     0.274 C 
ENDROOT
BRANCH   1   2
ATOM      2  O   UNL A   1      35.251  22.338  24.367  1.00  0.00    -0.458 OA
BRANCH   2   3
ATOM      3  C   UNL A   1      34.869  23.587  24.766  1.00  0.00     0.365 C 
ATOM      4  O   UNL A   1      35.579  24.334  25.436  1.00  0.00    -0.245 OA
BRANCH   3   5
ATOM      5  C   UNL A   1      33.399  23.919  24.450  1.00  0.00     0.296 C 
BRANCH   5   6
ATOM      6  C   UNL A   1      32.541  22.623  24.523  1.00  0.00     0.053 C 
ATOM      7  C   UNL A   1      31.426  22.628  25.577  1.00  0.00     0.014 C 
ATOM      8  C   UNL A   1      31.935  22.283  23.154  1.00  0.00     0.014 C 
ENDBRANCH   5   6
BRANCH   5   9
ATOM      9  N   UNL A   1      33.237  24.637  23.170  1.00  0.00    -0.332 N 
ATOM     10  H   UNL A   1      32.642  24.065  22.569  1.00  0.00     0.347 HD
ATOM     11  H   UNL A   1      34.184  24.779  22.821  1.00  0.00     0.347 HD
BRANCH   9  12
ATOM     12  C   UNL A   1      32.642  25.982  23.236  1.00  0.00     0.185 C 
ATOM     13  C   UNL A   1      32.143  26.275  21.806  1.00  0.00     0.075 C 
BRANCH  12  14
ATOM     14  C   UNL A   1      31.460  26.241  24.219  1.00  0.00     0.129 C 
BRANCH  14  15
ATOM     15  C   UNL A   1      31.545  27.395  25.261  1.00  0.00     0.188 C 
ATOM     16  C   UNL A   1      31.564  28.791  24.612  1.00  0.00     0.065 C 
ATOM     17  N   UNL A   1      32.653  27.180  26.196  1.00  0.00    -0.344 N 
ATOM     18  C   UNL A   1      31.751  29.905  25.636  1.00  0.00     0.012 C 
ATOM     19  C   UNL A   1      32.847  28.265  27.157  1.00  0.00     0.260 C 
ATOM     20  H   UNL A   1      33.512  27.076  25.656  1.00  0.00     0.346 HD
ATOM     21  H   UNL A   1      32.421  26.348  26.738  1.00  0.00     0.346 HD
ATOM     22  C   UNL A   1      32.988  29.618  26.473  1.00  0.00     0.062 C 
ENDBRANCH  14  15
ENDBRANCH  12  14
ENDBRANCH   9  12
ENDBRANCH   5   9
ENDBRANCH   3   5
ENDBRANCH   2   3
ENDBRANCH   1   2
BRANCH   1  23
ATOM     23  C   UNL A   1      37.404  21.099  24.483  1.00  0.00     0.275 C 
BRANCH  23  24
ATOM     24  O   UNL A   1      37.724  21.342  25.860  1.00  0.00    -0.458 OA
BRANCH  24  25
ATOM     25  C   UNL A   1      39.043  21.239  26.151  1.00  0.00     0.338 C 
ATOM     26  O   UNL A   1      39.782  20.307  25.881  1.00  0.00    -0.246 OA
BRANCH  25  27
ATOM     27  C   UNL A   1      39.525  22.486  26.767  1.00  0.00     0.060 A 
ATOM     28  C   UNL A   1      38.936  23.681  26.346  1.00  0.00     0.016 A 
ATOM     29  C   UNL A   1      40.597  22.498  27.660  1.00  0.00     0.016 A 
ATOM     30  C   UNL A   1      39.444  24.901  26.784  1.00  0.00     0.010 A 
ATOM     31  C   UNL A   1      41.108  23.724  28.099  1.00  0.00     0.010 A 
ATOM     32  C   UNL A   1      40.555  24.932  27.636  1.00  0.00    -0.014 A 
BRANCH  32  33
ATOM     33  C   UNL A   1      41.190  26.232  27.955  1.00  0.00     0.031 A 
ATOM     34  C   UNL A   1      42.583  26.517  27.465  1.00  0.00     0.074 A 
ATOM     35  C   UNL A   1      40.519  27.160  28.661  1.00  0.00     0.049 A 
ATOM     36  N   UNL A   1      43.305  27.599  27.609  1.00  0.00    -0.248 NA
ATOM     37  C   UNL A   1      43.254  25.442  26.716  1.00  0.00     0.031 C 
ATOM     38  C   UNL A   1      39.169  26.996  29.200  1.00  0.00     0.029 A 
ATOM     39  N   UNL A   1      40.890  28.419  29.058  1.00  0.00    -0.354 N 
ATOM     40  C   UNL A   1      44.519  27.331  26.990  1.00  0.00     0.074 A 
ATOM     41  C   UNL A   1      44.444  25.977  26.482  1.00  0.00     0.031 C 
ATOM     42  C   UNL A   1      38.832  28.109  29.872  1.00  0.00     0.029 A 
ATOM     43  C   UNL A   1      39.942  29.057  29.822  1.00  0.00     0.049 A 
ATOM     44  H   UNL A   1      41.753  28.828  28.818  1.00  0.00     0.167 HD
ATOM     45  C   UNL A   1      45.592  28.143  26.838  1.00  0.00     0.034 A 
ATOM     46  C   UNL A   1      39.970  30.267  30.415  1.00  0.00     0.034 A 
ATOM     47  C   UNL A   1      45.656  29.498  27.316  1.00  0.00     0.049 A 
ATOM     48  C   UNL A   1      41.171  31.155  30.218  1.00  0.00     0.074 A 
ATOM     49  C   UNL A   1      46.683  30.414  27.174  1.00  0.00     0.029 A 
ATOM     50  N   UNL A   1      44.653  30.131  28.033  1.00  0.00    -0.354 N 
ATOM     51  N   UNL A   1      42.258  30.934  29.519  1.00  0.00    -0.248 NA
ATOM     52  C   UNL A   1      41.131  32.478  30.859  1.00  0.00     0.031 C 
ATOM     53  C   UNL A   1      46.303  31.601  27.813  1.00  0.00     0.029 A 
ATOM     54  C   UNL A   1      45.036  31.426  28.343  1.00  0.00     0.049 A 
ATOM     55  H   UNL A   1      43.794  29.721  28.285  1.00  0.00     0.167 HD
ATOM     56  C   UNL A   1      43.014  32.098  29.607  1.00  0.00     0.074 A 
ATOM     57  C   UNL A   1      42.249  33.031  30.409  1.00  0.00     0.031 C 
ATOM     58  C   UNL A   1      44.238  32.364  29.089  1.00  0.00     0.034 A 
BRANCH  45  59
ATOM     59  C   UNL A   1      46.773  27.599  26.080  1.00  0.00     0.023 A 
ATOM     60  C   UNL A   1      46.862  27.818  24.689  1.00  0.00     0.012 A 
ATOM     61  C   UNL A   1      47.818  26.924  26.741  1.00  0.00     0.148 A 
ATOM     62  C   UNL A   1      47.957  27.348  23.965  1.00  0.00     0.002 A 
ATOM     63  C   UNL A   1      48.924  26.492  26.018  1.00  0.00     0.091 A 
ATOM     64  F   UNL A   1      47.703  26.702  28.059  1.00  0.00    -0.205 F 
ATOM     65  C   UNL A   1      48.991  26.695  24.630  1.00  0.00     0.022 A 
BRANCH  63  66
ATOM     66  S   UNL A   1      50.337  25.703  26.799  1.00  0.00     0.127 S 
ATOM     67  O   UNL A   1      51.228  25.498  25.658  1.00  0.00    -0.237 OA
ATOM     68  O   UNL A   1      50.783  26.728  27.743  1.00  0.00    -0.237 OA
ATOM     69  O   UNL A   1      49.823  24.491  27.421  1.00  0.00    -0.744 OA
ENDBRANCH  63  66
ENDBRANCH  45  59
BRANCH  46  70
ATOM     70  C   UNL A   1      38.792  30.737  31.195  1.00  0.00     0.023 A 
ATOM     71  C   UNL A   1      38.785  30.588  32.596  1.00  0.00     0.012 A 
ATOM     72  C   UNL A   1      37.693  31.351  30.564  1.00  0.00     0.148 A 
ATOM     73  C   UNL A   1      37.695  31.017  33.351  1.00  0.00     0.002 A 
ATOM     74  C   UNL A   1      36.631  31.823  31.328  1.00  0.00     0.091 A 
ATOM     75  F   UNL A   1      37.706  31.462  29.228  1.00  0.00    -0.205 F 
ATOM     76  C   UNL A   1      36.623  31.644  32.720  1.00  0.00     0.022 A 
BRANCH  74  77
ATOM     77  S   UNL A   1      35.272  32.752  30.609  1.00  0.00     0.127 S 
ATOM     78  O   UNL A   1      34.327  32.809  31.720  1.00  0.00    -0.237 OA
ATOM     79  O   UNL A   1      35.914  34.026  30.281  1.00  0.00    -0.237 OA
ATOM     80  O   UNL A   1      34.847  31.982  29.448  1.00  0.00    -0.744 OA
ENDBRANCH  74  77
ENDBRANCH  46  70
BRANCH  58  81
ATOM     81  C   UNL A   1      44.822  33.729  29.346  1.00  0.00     0.023 A 
ATOM     82  C   UNL A   1      45.512  33.977  30.550  1.00  0.00     0.012 A 
ATOM     83  C   UNL A   1      44.742  34.748  28.376  1.00  0.00     0.148 A 
ATOM     84  C   UNL A   1      46.083  35.225  30.798  1.00  0.00     0.002 A 
ATOM     85  C   UNL A   1      45.351  35.976  28.612  1.00  0.00     0.091 A 
ATOM     86  F   UNL A   1      44.062  34.506  27.244  1.00  0.00    -0.205 F 
ATOM     87  C   UNL A   1      46.012  36.220  29.826  1.00  0.00     0.022 A 
BRANCH  85  88
ATOM     88  S   UNL A   1      45.377  37.273  27.370  1.00  0.00     0.127 S 
ATOM     89  O   UNL A   1      43.953  37.476  27.116  1.00  0.00    -0.237 OA
ATOM     90  O   UNL A   1      46.034  38.377  28.075  1.00  0.00    -0.237 OA
ATOM     91  O   UNL A   1      46.149  36.734  26.258  1.00  0.00    -0.744 OA
ENDBRANCH  85  88
ENDBRANCH  58  81
ENDBRANCH  32  33
ENDBRANCH  25  27
ENDBRANCH  24  25
ENDBRANCH  23  24
ENDBRANCH   1  23
TORSDOF 19
ENDMDL
MODEL 3
REMARK VINA RESULT:     -10.3      5.044      9.964
REMARK SMILES CC(C)[C@H]([NH2+][C@@H](C)C[C@@H]1CCCC[NH2+]1)C(=O)OCCOC(=O)c1ccc(-c2c3nc(c(-c4cccc(S(=O)(=O)[O-])c4F)c4ccc([nH]4)c(-c4cccc(S(=O)(=O)[O-])c4F)c4nc(c(-c5cccc(S(=O)(=O)[O-])c5F)c5ccc2[nH]5)C=C4)C=C3)cc1
REMARK SMILES IDX 18 1 17 2 15 3 16 4 4 5 2 6 1 7 3 8 5 9 6 12 7 13 8 14 9 15
REMARK SMILES IDX 10 16 14 17 11 18 13 19 12 22 19 23 20 24 21 25 22 26 23 27
REMARK SMILES IDX 24 28 85 29 25 30 84 31 26 32 27 33 28 34 78 35 29 36 83 37
REMARK SMILES IDX 77 38 79 39 30 40 82 41 76 42 75 43 31 45 63 46 43 47 62 48
REMARK SMILES IDX 44 49 47 50 61 51 80 52 45 53 46 54 60 56 81 57 48 58 32 59
REMARK SMILES IDX 33 60 41 61 34 62 36 63 42 64 35 65 37 66 38 67 39 68 40 69
REMARK SMILES IDX 64 70 65 71 73 72 66 73 68 74 74 75 67 76 69 77 70 78 71 79
REMARK SMILES IDX 72 80 49 81 50 82 58 83 51 84 53 85 59 86 52 87 54 88 55 89
REMARK SMILES IDX 56 90 57 91
REMARK H PARENT 5 10 5 11 14 20 14 21 79 44 47 55
REMARK Flexibility Score: inf
ROOT
ATOM      1  C   UNL A   1      35.599  21.994  25.890  1.00  0.00     0.274 C 
ENDROOT
BRANCH   1   2
ATOM      2  O   UNL A   1      35.555  23.167  25.053  1.00  0.00    -0.458 OA
BRANCH   2   3
ATOM      3  C   UNL A   1      34.989  22.976  23.826  1.00  0.00     0.365 C 
ATOM      4  O   UNL A   1      35.625  22.974  22.775  1.00  0.00    -0.245 OA
BRANCH   3   5
ATOM      5  C   UNL A   1      33.449  22.935  23.852  1.00  0.00     0.296 C 
BRANCH   5   6
ATOM      6  C   UNL A   1      32.960  21.469  23.665  1.00  0.00     0.053 C 
ATOM      7  C   UNL A   1      32.155  20.888  24.833  1.00  0.00     0.014 C 
ATOM      8  C   UNL A   1      32.148  21.319  22.372  1.00  0.00     0.014 C 
ENDBRANCH   5   6
BRANCH   5   9
ATOM      9  N   UNL A   1      32.835  23.866  22.885  1.00  0.00    -0.332 N 
ATOM     10  H   UNL A   1      32.212  23.323  22.286  1.00  0.00     0.347 HD
ATOM     11  H   UNL A   1      33.619  24.303  22.400  1.00  0.00     0.347 HD
BRANCH   9  12
ATOM     12  C   UNL A   1      32.054  24.982  23.444  1.00  0.00     0.185 C 
ATOM     13  C   UNL A   1      30.599  24.473  23.499  1.00  0.00     0.075 C 
BRANCH  12  14
ATOM     14  C   UNL A   1      32.423  25.533  24.855  1.00  0.00     0.129 C 
BRANCH  14  15
ATOM     15  C   UNL A   1      32.599  27.065  25.078  1.00  0.00     0.188 C 
ATOM     16  C   UNL A   1      33.165  27.409  26.468  1.00  0.00     0.065 C 
ATOM     17  N   UNL A   1      31.364  27.789  24.762  1.00  0.00    -0.344 N 
ATOM     18  C   UNL A   1      33.235  28.913  26.709  1.00  0.00     0.012 C 
ATOM     19  C   UNL A   1      31.427  29.225  25.023  1.00  0.00     0.260 C 
ATOM     20  H   UNL A   1      30.611  27.395  25.326  1.00  0.00     0.346 HD
ATOM     21  H   UNL A   1      31.210  27.680  23.760  1.00  0.00     0.346 HD
ATOM     22  C   UNL A   1      31.869  29.531  26.448  1.00  0.00     0.062 C 
ENDBRANCH  14  15
ENDBRANCH  12  14
ENDBRANCH   9  12
ENDBRANCH   5   9
ENDBRANCH   3   5
ENDBRANCH   2   3
ENDBRANCH   1   2
BRANCH   1  23
ATOM     23  C   UNL A   1      36.560  20.916  25.387  1.00  0.00     0.275 C 
BRANCH  23  24
ATOM     24  O   UNL A   1      37.841  21.458  25.033  1.00  0.00    -0.458 OA
BRANCH  24  25
ATOM     25  C   UNL A   1      38.830  21.167  25.911  1.00  0.00     0.338 C 
ATOM     26  O   UNL A   1      39.282  20.063  26.164  1.00  0.00    -0.246 OA
BRANCH  25  27
ATOM     27  C   UNL A   1      39.392  22.407  26.470  1.00  0.00     0.060 A 
ATOM     28  C   UNL A   1      38.799  23.613  26.088  1.00  0.00     0.016 A 
ATOM     29  C   UNL A   1      40.536  22.399  27.270  1.00  0.00     0.016 A 
ATOM     30  C   UNL A   1      39.372  24.824  26.468  1.00  0.00     0.010 A 
ATOM     31  C   UNL A   1      41.112  23.616  27.651  1.00  0.00     0.010 A 
ATOM     32  C   UNL A   1      40.551  24.833  27.224  1.00  0.00    -0.014 A 
BRANCH  32  33
ATOM     33  C   UNL A   1      41.242  26.120  27.475  1.00  0.00     0.031 A 
ATOM     34  C   UNL A   1      40.550  27.189  28.275  1.00  0.00     0.074 A 
ATOM     35  C   UNL A   1      42.488  26.323  27.009  1.00  0.00     0.049 A 
ATOM     36  N   UNL A   1      40.990  28.368  28.634  1.00  0.00    -0.248 NA
ATOM     37  C   UNL A   1      39.183  26.893  28.733  1.00  0.00     0.031 C 
ATOM     38  C   UNL A   1      43.256  25.368  26.212  1.00  0.00     0.029 A 
ATOM     39  N   UNL A   1      43.317  27.409  27.128  1.00  0.00    -0.354 N 
ATOM     40  C   UNL A   1      39.950  28.964  29.337  1.00  0.00     0.074 A 
ATOM     41  C   UNL A   1      38.851  28.022  29.343  1.00  0.00     0.031 C 
ATOM     42  C   UNL A   1      44.441  25.919  25.899  1.00  0.00     0.029 A 
ATOM     43  C   UNL A   1      44.511  27.264  26.462  1.00  0.00     0.049 A 
ATOM     44  H   UNL A   1      43.081  28.215  27.642  1.00  0.00     0.167 HD
ATOM     45  C   UNL A   1      39.919  30.175  29.942  1.00  0.00     0.034 A 
ATOM     46  C   UNL A   1      45.540  28.123  26.321  1.00  0.00     0.034 A 
ATOM     47  C   UNL A   1      41.022  31.099  29.962  1.00  0.00     0.049 A 
ATOM     48  C   UNL A   1      45.484  29.459  27.016  1.00  0.00     0.074 A 
ATOM     49  C   UNL A   1      41.102  32.331  30.584  1.00  0.00     0.029 A 
ATOM     50  N   UNL A   1      42.237  30.892  29.327  1.00  0.00    -0.354 N 
ATOM     51  N   UNL A   1      44.545  29.952  27.785  1.00  0.00    -0.248 NA
ATOM     52  C   UNL A   1      46.651  30.341  26.855  1.00  0.00     0.031 C 
ATOM     53  C   UNL A   1      42.364  32.876  30.319  1.00  0.00     0.029 A 
ATOM     54  C   UNL A   1      43.073  31.976  29.540  1.00  0.00     0.049 A 
ATOM     55  H   UNL A   1      42.471  30.094  28.802  1.00  0.00     0.167 HD
ATOM     56  C   UNL A   1      45.019  31.183  28.228  1.00  0.00     0.074 A 
ATOM     57  C   UNL A   1      46.341  31.349  27.658  1.00  0.00     0.031 C 
ATOM     58  C   UNL A   1      44.409  32.101  29.018  1.00  0.00     0.034 A 
BRANCH  45  59
ATOM     59  C   UNL A   1      38.661  30.553  30.677  1.00  0.00     0.023 A 
ATOM     60  C   UNL A   1      38.542  30.242  32.047  1.00  0.00     0.012 A 
ATOM     61  C   UNL A   1      37.624  31.258  30.035  1.00  0.00     0.148 A 
ATOM     62  C   UNL A   1      37.398  30.602  32.760  1.00  0.00     0.002 A 
ATOM     63  C   UNL A   1      36.504  31.646  30.761  1.00  0.00     0.091 A 
ATOM     64  F   UNL A   1      37.745  31.520  28.725  1.00  0.00    -0.205 F 
ATOM     65  C   UNL A   1      36.386  31.312  32.120  1.00  0.00     0.022 A 
BRANCH  63  66
ATOM     66  S   UNL A   1      35.180  32.624  30.041  1.00  0.00     0.127 S 
ATOM     67  O   UNL A   1      34.667  31.716  29.015  1.00  0.00    -0.237 OA
ATOM     68  O   UNL A   1      34.285  32.823  31.181  1.00  0.00    -0.237 OA
ATOM     69  O   UNL A   1      35.807  33.841  29.546  1.00  0.00    -0.744 OA
ENDBRANCH  63  66
ENDBRANCH  45  59
BRANCH  46  70
ATOM     70  C   UNL A   1      46.742  27.717  25.542  1.00  0.00     0.023 A 
ATOM     71  C   UNL A   1      46.783  27.960  24.155  1.00  0.00     0.012 A 
ATOM     72  C   UNL A   1      47.852  27.116  26.167  1.00  0.00     0.148 A 
ATOM     73  C   UNL A   1      47.895  27.588  23.400  1.00  0.00     0.002 A 
ATOM     74  C   UNL A   1      48.979  26.795  25.417  1.00  0.00     0.091 A 
ATOM     75  F   UNL A   1      47.786  26.871  27.483  1.00  0.00    -0.205 F 
ATOM     76  C   UNL A   1      48.996  27.016  24.031  1.00  0.00     0.022 A 
BRANCH  74  77
ATOM     77  S   UNL A   1      50.485  26.173  26.172  1.00  0.00     0.127 S 
ATOM     78  O   UNL A   1      50.002  24.987  26.873  1.00  0.00    -0.237 OA
ATOM     79  O   UNL A   1      51.322  25.898  25.003  1.00  0.00    -0.237 OA
ATOM     80  O   UNL A   1      50.975  27.257  27.014  1.00  0.00    -0.744 OA
ENDBRANCH  74  77
ENDBRANCH  46  70
BRANCH  58  81
ATOM     81  C   UNL A   1      45.172  33.359  29.340  1.00  0.00     0.023 A 
ATOM     82  C   UNL A   1      46.033  33.387  30.456  1.00  0.00     0.012 A 
ATOM     83  C   UNL A   1      45.086  34.494  28.508  1.00  0.00     0.148 A 
ATOM     84  C   UNL A   1      46.769  34.533  30.758  1.00  0.00     0.002 A 
ATOM     85  C   UNL A   1      45.856  35.617  28.790  1.00  0.00     0.091 A 
ATOM     86  F   UNL A   1      44.246  34.461  27.462  1.00  0.00    -0.205 F 
ATOM     87  C   UNL A   1      46.688  35.643  29.920  1.00  0.00     0.022 A 
BRANCH  85  88
ATOM     88  S   UNL A   1      45.871  37.050  27.707  1.00  0.00     0.127 S 
ATOM     89  O   UNL A   1      46.311  36.467  26.443  1.00  0.00    -0.237 OA
ATOM     90  O   UNL A   1      44.471  37.479  27.726  1.00  0.00    -0.237 OA
ATOM     91  O   UNL A   1      46.792  37.996  28.324  1.00  0.00    -0.744 OA
ENDBRANCH  85  88
ENDBRANCH  58  81
ENDBRANCH  32  33
ENDBRANCH  25  27
ENDBRANCH  24  25
ENDBRANCH  23  24
ENDBRANCH   1  23
TORSDOF 19
ENDMDL
