MODEL 1
REMARK VINA RESULT:      -9.5      0.000      0.000
REMARK SMILES CSCC[NH2+]CC(C)(C)C(=O)OCCOC(=O)c1ccc(-c2c3nc(c(-c4cccc(S(=O)(=O)[O-])c4F)c4ccc([nH]4)c(-c4cccc(S(=O)(=O)[O-])c4F)c4nc(c(-c5cccc(S(=O)(=O)[O-])c5F)c5ccc2[nH]5)C=C4)C=C3)cc1
REMARK SMILES IDX 13 1 12 2 10 3 11 4 7 5 8 6 9 7 6 8 5 9 4 12 3 13 2 14 1 15
REMARK SMILES IDX 14 16 15 17 16 18 17 19 18 20 19 21 80 22 20 23 79 24 21 25
REMARK SMILES IDX 22 26 23 27 73 28 24 29 78 30 72 31 74 32 25 33 77 34 71 35
REMARK SMILES IDX 70 36 26 38 58 39 38 40 57 41 39 42 42 43 56 44 75 45 40 46
REMARK SMILES IDX 41 47 55 49 76 50 43 51 27 52 28 53 36 54 29 55 31 56 37 57
REMARK SMILES IDX 30 58 32 59 33 60 34 61 35 62 59 63 60 64 68 65 61 66 63 67
REMARK SMILES IDX 69 68 62 69 64 70 65 71 66 72 67 73 44 74 45 75 53 76 46 77
REMARK SMILES IDX 48 78 54 79 47 80 49 81 50 82 51 83 52 84
REMARK H PARENT 5 10 5 11 74 37 42 48
REMARK Flexibility Score: inf
ROOT
ATOM      1  C   UNL A   1      31.690  29.053  24.627  1.00  0.00     0.274 C 
ENDROOT
BRANCH   1   2
ATOM      2  O   UNL A   1      31.866  27.616  24.614  1.00  0.00    -0.461 OA
BRANCH   2   3
ATOM      3  C   UNL A   1      31.150  26.985  23.640  1.00  0.00     0.317 C 
ATOM      4  O   UNL A   1      31.335  27.247  22.461  1.00  0.00    -0.251 OA
BRANCH   3   5
ATOM      5  C   UNL A   1      30.099  25.991  24.177  1.00  0.00     0.111 C 
ATOM      6  C   UNL A   1      28.690  26.485  23.825  1.00  0.00     0.029 C 
ATOM      7  C   UNL A   1      30.254  25.957  25.716  1.00  0.00     0.029 C 
BRANCH   5   8
ATOM      8  C   UNL A   1      30.256  24.513  23.662  1.00  0.00     0.278 C 
BRANCH   8   9
ATOM      9  N   UNL A   1      31.321  24.066  22.750  1.00  0.00    -0.345 N 
ATOM     10  H   UNL A   1      30.886  23.545  21.989  1.00  0.00     0.346 HD
ATOM     11  H   UNL A   1      31.804  24.912  22.446  1.00  0.00     0.346 HD
BRANCH   9  12
ATOM     12  C   UNL A   1      32.350  23.211  23.352  1.00  0.00     0.271 C 
BRANCH  12  13
ATOM     13  C   UNL A   1      33.723  23.148  22.674  1.00  0.00     0.130 C 
BRANCH  13  14
ATOM     14  S   UNL A   1      35.110  23.611  23.773  1.00  0.00    -0.160 SA
ATOM     15  C   UNL A   1      34.239  24.685  24.926  1.00  0.00     0.085 C 
ENDBRANCH  13  14
ENDBRANCH  12  13
ENDBRANCH   9  12
ENDBRANCH   8   9
ENDBRANCH   5   8
ENDBRANCH   3   5
ENDBRANCH   2   3
ENDBRANCH   1   2
BRANCH   1  16
ATOM     16  C   UNL A   1      32.801  29.840  25.352  1.00  0.00     0.275 C 
BRANCH  16  17
ATOM     17  O   UNL A   1      32.457  30.247  26.696  1.00  0.00    -0.458 OA
BRANCH  17  18
ATOM     18  C   UNL A   1      33.016  31.410  27.116  1.00  0.00     0.338 C 
ATOM     19  O   UNL A   1      32.444  32.485  27.225  1.00  0.00    -0.246 OA
BRANCH  18  20
ATOM     20  C   UNL A   1      34.375  31.193  27.667  1.00  0.00     0.060 A 
ATOM     21  C   UNL A   1      34.625  29.915  28.164  1.00  0.00     0.016 A 
ATOM     22  C   UNL A   1      35.342  32.181  27.821  1.00  0.00     0.016 A 
ATOM     23  C   UNL A   1      35.839  29.576  28.755  1.00  0.00     0.010 A 
ATOM     24  C   UNL A   1      36.556  31.861  28.468  1.00  0.00     0.010 A 
ATOM     25  C   UNL A   1      36.814  30.555  28.938  1.00  0.00    -0.014 A 
BRANCH  25  26
ATOM     26  C   UNL A   1      38.024  30.231  29.742  1.00  0.00     0.031 A 
ATOM     27  C   UNL A   1      39.050  29.288  29.174  1.00  0.00     0.074 A 
ATOM     28  C   UNL A   1      38.251  30.806  30.939  1.00  0.00     0.049 A 
ATOM     29  N   UNL A   1      40.119  28.785  29.737  1.00  0.00    -0.248 NA
ATOM     30  C   UNL A   1      38.847  28.866  27.779  1.00  0.00     0.031 C 
ATOM     31  C   UNL A   1      37.398  31.811  31.570  1.00  0.00     0.029 A 
ATOM     32  N   UNL A   1      39.264  30.607  31.849  1.00  0.00    -0.354 N 
ATOM     33  C   UNL A   1      40.691  27.952  28.784  1.00  0.00     0.074 A 
ATOM     34  C   UNL A   1      39.860  28.029  27.602  1.00  0.00     0.031 C 
ATOM     35  C   UNL A   1      37.898  32.110  32.782  1.00  0.00     0.029 A 
ATOM     36  C   UNL A   1      39.080  31.283  33.033  1.00  0.00     0.049 A 
ATOM     37  H   UNL A   1      40.045  30.035  31.670  1.00  0.00     0.167 HD
ATOM     38  C   UNL A   1      41.807  27.189  28.883  1.00  0.00     0.034 A 
ATOM     39  C   UNL A   1      39.753  31.210  34.200  1.00  0.00     0.034 A 
ATOM     40  C   UNL A   1      42.646  27.122  30.049  1.00  0.00     0.049 A 
ATOM     41  C   UNL A   1      40.945  30.290  34.314  1.00  0.00     0.074 A 
ATOM     42  C   UNL A   1      43.795  26.372  30.240  1.00  0.00     0.029 A 
ATOM     43  N   UNL A   1      42.427  27.819  31.226  1.00  0.00    -0.354 N 
ATOM     44  N   UNL A   1      41.499  29.534  33.397  1.00  0.00    -0.248 NA
ATOM     45  C   UNL A   1      41.617  30.227  35.622  1.00  0.00     0.031 C 
ATOM     46  C   UNL A   1      44.249  26.590  31.545  1.00  0.00     0.029 A 
ATOM     47  C   UNL A   1      43.408  27.509  32.152  1.00  0.00     0.049 A 
ATOM     48  H   UNL A   1      41.681  28.444  31.382  1.00  0.00     0.167 HD
ATOM     49  C   UNL A   1      42.602  28.940  34.003  1.00  0.00     0.074 A 
ATOM     50  C   UNL A   1      42.651  29.437  35.361  1.00  0.00     0.031 C 
ATOM     51  C   UNL A   1      43.487  28.052  33.484  1.00  0.00     0.034 A 
BRANCH  38  52
ATOM     52  C   UNL A   1      42.177  26.342  27.693  1.00  0.00     0.023 A 
ATOM     53  C   UNL A   1      42.955  26.885  26.653  1.00  0.00     0.012 A 
ATOM     54  C   UNL A   1      41.785  24.990  27.632  1.00  0.00     0.148 A 
ATOM     55  C   UNL A   1      43.308  26.106  25.551  1.00  0.00     0.002 A 
ATOM     56  C   UNL A   1      42.178  24.207  26.553  1.00  0.00     0.091 A 
ATOM     57  F   UNL A   1      41.028  24.497  28.623  1.00  0.00    -0.205 F 
ATOM     58  C   UNL A   1      42.927  24.768  25.506  1.00  0.00     0.022 A 
BRANCH  56  59
ATOM     59  S   UNL A   1      41.804  22.454  26.440  1.00  0.00     0.127 S 
ATOM     60  O   UNL A   1      42.411  21.945  27.670  1.00  0.00    -0.237 OA
ATOM     61  O   UNL A   1      40.341  22.453  26.437  1.00  0.00    -0.237 OA
ATOM     62  O   UNL A   1      42.417  21.989  25.204  1.00  0.00    -0.744 OA
ENDBRANCH  56  59
ENDBRANCH  38  52
BRANCH  39  63
ATOM     63  C   UNL A   1      39.309  32.011  35.379  1.00  0.00     0.023 A 
ATOM     64  C   UNL A   1      38.377  31.469  36.286  1.00  0.00     0.012 A 
ATOM     65  C   UNL A   1      39.787  33.320  35.591  1.00  0.00     0.148 A 
ATOM     66  C   UNL A   1      37.902  32.228  37.358  1.00  0.00     0.002 A 
ATOM     67  C   UNL A   1      39.356  34.048  36.692  1.00  0.00     0.091 A 
ATOM     68  F   UNL A   1      40.655  33.829  34.705  1.00  0.00    -0.205 F 
ATOM     69  C   UNL A   1      38.398  33.512  37.567  1.00  0.00     0.022 A 
BRANCH  67  70
ATOM     70  S   UNL A   1      40.024  35.664  37.104  1.00  0.00     0.127 S 
ATOM     71  O   UNL A   1      39.657  36.447  35.926  1.00  0.00    -0.237 OA
ATOM     72  O   UNL A   1      39.280  35.995  38.319  1.00  0.00    -0.237 OA
ATOM     73  O   UNL A   1      41.452  35.460  37.306  1.00  0.00    -0.744 OA
ENDBRANCH  67  70
ENDBRANCH  39  63
BRANCH  51  74
ATOM     74  C   UNL A   1      44.626  27.591  34.360  1.00  0.00     0.023 A 
ATOM     75  C   UNL A   1      45.764  28.404  34.527  1.00  0.00     0.012 A 
ATOM     76  C   UNL A   1      44.530  26.384  35.082  1.00  0.00     0.148 A 
ATOM     77  C   UNL A   1      46.801  28.008  35.374  1.00  0.00     0.002 A 
ATOM     78  C   UNL A   1      45.542  26.022  35.963  1.00  0.00     0.091 A 
ATOM     79  F   UNL A   1      43.447  25.615  34.898  1.00  0.00    -0.205 F 
ATOM     80  C   UNL A   1      46.684  26.825  36.100  1.00  0.00     0.022 A 
BRANCH  78  81
ATOM     81  S   UNL A   1      45.433  24.569  37.014  1.00  0.00     0.127 S 
ATOM     82  O   UNL A   1      46.645  24.694  37.823  1.00  0.00    -0.237 OA
ATOM     83  O   UNL A   1      44.186  24.805  37.743  1.00  0.00    -0.237 OA
ATOM     84  O   UNL A   1      45.401  23.422  36.116  1.00  0.00    -0.744 OA
ENDBRANCH  78  81
ENDBRANCH  51  74
ENDBRANCH  25  26
ENDBRANCH  18  20
ENDBRANCH  17  18
ENDBRANCH  16  17
ENDBRANCH   1  16
TORSDOF 19
ENDMDL
MODEL 2
REMARK VINA RESULT:      -9.4      4.201     10.320
REMARK SMILES CSCC[NH2+]CC(C)(C)C(=O)OCCOC(=O)c1ccc(-c2c3nc(c(-c4cccc(S(=O)(=O)[O-])c4F)c4ccc([nH]4)c(-c4cccc(S(=O)(=O)[O-])c4F)c4nc(c(-c5cccc(S(=O)(=O)[O-])c5F)c5ccc2[nH]5)C=C4)C=C3)cc1
REMARK SMILES IDX 13 1 12 2 10 3 11 4 7 5 8 6 9 7 6 8 5 9 4 12 3 13 2 14 1 15
REMARK SMILES IDX 14 16 15 17 16 18 17 19 18 20 19 21 80 22 20 23 79 24 21 25
REMARK SMILES IDX 22 26 23 27 73 28 24 29 78 30 72 31 74 32 25 33 77 34 71 35
REMARK SMILES IDX 70 36 26 38 58 39 38 40 57 41 39 42 42 43 56 44 75 45 40 46
REMARK SMILES IDX 41 47 55 49 76 50 43 51 27 52 28 53 36 54 29 55 31 56 37 57
REMARK SMILES IDX 30 58 32 59 33 60 34 61 35 62 59 63 60 64 68 65 61 66 63 67
REMARK SMILES IDX 69 68 62 69 64 70 65 71 66 72 67 73 44 74 45 75 53 76 46 77
REMARK SMILES IDX 48 78 54 79 47 80 49 81 50 82 51 83 52 84
REMARK H PARENT 5 10 5 11 74 37 42 48
REMARK Flexibility Score: inf
ROOT
ATOM      1  C   UNL A   1      35.976  33.595  29.735  1.00  0.00     0.274 C 
ENDROOT
BRANCH   1   2
ATOM      2  O   UNL A   1      36.672  32.786  30.714  1.00  0.00    -0.461 OA
BRANCH   2   3
ATOM      3  C   UNL A   1      36.998  33.464  31.852  1.00  0.00     0.317 C 
ATOM      4  O   UNL A   1      37.609  34.520  31.795  1.00  0.00    -0.251 OA
BRANCH   3   5
ATOM      5  C   UNL A   1      36.571  32.751  33.152  1.00  0.00     0.111 C 
ATOM      6  C   UNL A   1      37.552  33.096  34.279  1.00  0.00     0.029 C 
ATOM      7  C   UNL A   1      36.633  31.230  32.875  1.00  0.00     0.029 C 
BRANCH   5   8
ATOM      8  C   UNL A   1      35.111  33.074  33.640  1.00  0.00     0.278 C 
BRANCH   8   9
ATOM      9  N   UNL A   1      34.726  34.319  34.326  1.00  0.00    -0.345 N 
ATOM     10  H   UNL A   1      33.856  34.145  34.828  1.00  0.00     0.346 HD
ATOM     11  H   UNL A   1      35.511  34.558  34.934  1.00  0.00     0.346 HD
BRANCH   9  12
ATOM     12  C   UNL A   1      34.522  35.481  33.456  1.00  0.00     0.271 C 
BRANCH  12  13
ATOM     13  C   UNL A   1      33.646  35.305  32.210  1.00  0.00     0.130 C 
BRANCH  13  14
ATOM     14  S   UNL A   1      33.167  36.882  31.416  1.00  0.00    -0.160 SA
ATOM     15  C   UNL A   1      33.115  36.352  29.696  1.00  0.00     0.085 C 
ENDBRANCH  13  14
ENDBRANCH  12  13
ENDBRANCH   9  12
ENDBRANCH   8   9
ENDBRANCH   5   8
ENDBRANCH   3   5
ENDBRANCH   2   3
ENDBRANCH   1   2
BRANCH   1  16
ATOM     16  C   UNL A   1      34.657  32.993  29.210  1.00  0.00     0.275 C 
BRANCH  16  17
ATOM     17  O   UNL A   1      34.780  32.312  27.940  1.00  0.00    -0.458 OA
BRANCH  17  18
ATOM     18  C   UNL A   1      34.653  30.962  27.986  1.00  0.00     0.338 C 
ATOM     19  O   UNL A   1      33.643  30.325  27.723  1.00  0.00    -0.246 OA
BRANCH  18  20
ATOM     20  C   UNL A   1      35.965  30.297  28.169  1.00  0.00     0.060 A 
ATOM     21  C   UNL A   1      36.139  29.635  29.383  1.00  0.00     0.016 A 
ATOM     22  C   UNL A   1      37.038  30.388  27.289  1.00  0.00     0.016 A 
ATOM     23  C   UNL A   1      37.335  29.005  29.718  1.00  0.00     0.010 A 
ATOM     24  C   UNL A   1      38.272  29.800  27.642  1.00  0.00     0.010 A 
ATOM     25  C   UNL A   1      38.428  29.102  28.859  1.00  0.00    -0.014 A 
BRANCH  25  26
ATOM     26  C   UNL A   1      39.752  28.594  29.313  1.00  0.00     0.031 A 
ATOM     27  C   UNL A   1      40.477  29.320  30.414  1.00  0.00     0.074 A 
ATOM     28  C   UNL A   1      40.289  27.469  28.803  1.00  0.00     0.049 A 
ATOM     29  N   UNL A   1      41.679  29.120  30.891  1.00  0.00    -0.248 NA
ATOM     30  C   UNL A   1      39.740  30.410  31.072  1.00  0.00     0.031 C 
ATOM     31  C   UNL A   1      39.659  26.608  27.804  1.00  0.00     0.029 A 
ATOM     32  N   UNL A   1      41.505  26.869  29.043  1.00  0.00    -0.354 N 
ATOM     33  C   UNL A   1      41.862  30.086  31.872  1.00  0.00     0.074 A 
ATOM     34  C   UNL A   1      40.641  30.862  31.932  1.00  0.00     0.031 C 
ATOM     35  C   UNL A   1      40.508  25.615  27.485  1.00  0.00     0.029 A 
ATOM     36  C   UNL A   1      41.760  25.796  28.221  1.00  0.00     0.049 A 
ATOM     37  H   UNL A   1      42.131  27.179  29.737  1.00  0.00     0.167 HD
ATOM     38  C   UNL A   1      42.947  30.311  32.652  1.00  0.00     0.034 A 
ATOM     39  C   UNL A   1      42.887  25.074  28.044  1.00  0.00     0.034 A 
ATOM     40  C   UNL A   1      44.156  29.532  32.607  1.00  0.00     0.049 A 
ATOM     41  C   UNL A   1      44.112  25.396  28.866  1.00  0.00     0.074 A 
ATOM     42  C   UNL A   1      45.308  29.691  33.358  1.00  0.00     0.029 A 
ATOM     43  N   UNL A   1      44.376  28.457  31.762  1.00  0.00    -0.354 N 
ATOM     44  N   UNL A   1      44.263  26.286  29.815  1.00  0.00    -0.248 NA
ATOM     45  C   UNL A   1      45.320  24.596  28.603  1.00  0.00     0.031 C 
ATOM     46  C   UNL A   1      46.238  28.733  32.941  1.00  0.00     0.029 A 
ATOM     47  C   UNL A   1      45.650  27.949  31.962  1.00  0.00     0.049 A 
ATOM     48  H   UNL A   1      43.723  28.105  31.114  1.00  0.00     0.167 HD
ATOM     49  C   UNL A   1      45.562  26.129  30.287  1.00  0.00     0.074 A 
ATOM     50  C   UNL A   1      46.153  25.045  29.534  1.00  0.00     0.031 C 
ATOM     51  C   UNL A   1      46.212  26.830  31.250  1.00  0.00     0.034 A 
BRANCH  38  52
ATOM     52  C   UNL A   1      42.883  31.468  33.614  1.00  0.00     0.023 A 
ATOM     53  C   UNL A   1      43.297  32.751  33.205  1.00  0.00     0.012 A 
ATOM     54  C   UNL A   1      42.369  31.288  34.914  1.00  0.00     0.148 A 
ATOM     55  C   UNL A   1      43.234  33.830  34.087  1.00  0.00     0.002 A 
ATOM     56  C   UNL A   1      42.268  32.376  35.772  1.00  0.00     0.091 A 
ATOM     57  F   UNL A   1      41.999  30.055  35.289  1.00  0.00    -0.205 F 
ATOM     58  C   UNL A   1      42.713  33.644  35.365  1.00  0.00     0.022 A 
BRANCH  56  59
ATOM     59  S   UNL A   1      41.539  32.254  37.408  1.00  0.00     0.127 S 
ATOM     60  O   UNL A   1      41.650  33.634  37.883  1.00  0.00    -0.237 OA
ATOM     61  O   UNL A   1      40.175  31.822  37.104  1.00  0.00    -0.237 OA
ATOM     62  O   UNL A   1      42.339  31.280  38.136  1.00  0.00    -0.744 OA
ENDBRANCH  56  59
ENDBRANCH  38  52
BRANCH  39  63
ATOM     63  C   UNL A   1      42.931  23.983  27.026  1.00  0.00     0.023 A 
ATOM     64  C   UNL A   1      43.588  24.194  25.798  1.00  0.00     0.012 A 
ATOM     65  C   UNL A   1      42.300  22.744  27.259  1.00  0.00     0.148 A 
ATOM     66  C   UNL A   1      43.585  23.208  24.809  1.00  0.00     0.002 A 
ATOM     67  C   UNL A   1      42.351  21.746  26.295  1.00  0.00     0.091 A 
ATOM     68  F   UNL A   1      41.658  22.569  28.423  1.00  0.00    -0.205 F 
ATOM     69  C   UNL A   1      42.976  21.982  25.061  1.00  0.00     0.022 A 
BRANCH  67  70
ATOM     70  S   UNL A   1      41.693  20.098  26.575  1.00  0.00     0.127 S 
ATOM     71  O   UNL A   1      40.258  20.362  26.672  1.00  0.00    -0.237 OA
ATOM     72  O   UNL A   1      42.110  19.398  25.360  1.00  0.00    -0.237 OA
ATOM     73  O   UNL A   1      42.330  19.622  27.796  1.00  0.00    -0.744 OA
ENDBRANCH  67  70
ENDBRANCH  39  63
BRANCH  51  74
ATOM     74  C   UNL A   1      47.623  26.421  31.596  1.00  0.00     0.023 A 
ATOM     75  C   UNL A   1      47.860  25.521  32.653  1.00  0.00     0.012 A 
ATOM     76  C   UNL A   1      48.708  26.869  30.817  1.00  0.00     0.148 A 
ATOM     77  C   UNL A   1      49.157  25.098  32.949  1.00  0.00     0.002 A 
ATOM     78  C   UNL A   1      49.991  26.404  31.083  1.00  0.00     0.091 A 
ATOM     79  F   UNL A   1      48.467  27.739  29.825  1.00  0.00    -0.205 F 
ATOM     80  C   UNL A   1      50.219  25.529  32.157  1.00  0.00     0.022 A 
BRANCH  78  81
ATOM     81  S   UNL A   1      51.404  26.825  30.057  1.00  0.00     0.127 S 
ATOM     82  O   UNL A   1      51.519  28.265  30.282  1.00  0.00    -0.237 OA
ATOM     83  O   UNL A   1      52.473  26.027  30.659  1.00  0.00    -0.237 OA
ATOM     84  O   UNL A   1      51.048  26.434  28.700  1.00  0.00    -0.744 OA
ENDBRANCH  78  81
ENDBRANCH  51  74
ENDBRANCH  25  26
ENDBRANCH  18  20
ENDBRANCH  17  18
ENDBRANCH  16  17
ENDBRANCH   1  16
TORSDOF 19
ENDMDL
MODEL 3
REMARK VINA RESULT:      -9.3      5.484     10.360
REMARK SMILES CSCC[NH2+]CC(C)(C)C(=O)OCCOC(=O)c1ccc(-c2c3nc(c(-c4cccc(S(=O)(=O)[O-])c4F)c4ccc([nH]4)c(-c4cccc(S(=O)(=O)[O-])c4F)c4nc(c(-c5cccc(S(=O)(=O)[O-])c5F)c5ccc2[nH]5)C=C4)C=C3)cc1
REMARK SMILES IDX 13 1 12 2 10 3 11 4 7 5 8 6 9 7 6 8 5 9 4 12 3 13 2 14 1 15
REMARK SMILES IDX 14 16 15 17 16 18 17 19 18 20 19 21 80 22 20 23 79 24 21 25
REMARK SMILES IDX 22 26 23 27 73 28 24 29 78 30 72 31 74 32 25 33 77 34 71 35
REMARK SMILES IDX 70 36 26 38 58 39 38 40 57 41 39 42 42 43 56 44 75 45 40 46
REMARK SMILES IDX 41 47 55 49 76 50 43 51 27 52 28 53 36 54 29 55 31 56 37 57
REMARK SMILES IDX 30 58 32 59 33 60 34 61 35 62 59 63 60 64 68 65 61 66 63 67
REMARK SMILES IDX 69 68 62 69 64 70 65 71 66 72 67 73 44 74 45 75 53 76 46 77
REMARK SMILES IDX 48 78 54 79 47 80 49 81 50 82 51 83 52 84
REMARK H PARENT 5 10 5 11 74 37 42 48
REMARK Flexibility Score: inf
ROOT
ATOM      1  C   UNL A   1      35.655  21.925  24.564  1.00  0.00     0.274 C 
ENDROOT
BRANCH   1   2
ATOM      2  O   UNL A   1      34.441  22.086  25.338  1.00  0.00    -0.461 OA
BRANCH   2   3
ATOM      3  C   UNL A   1      34.184  23.377  25.691  1.00  0.00     0.317 C 
ATOM      4  O   UNL A   1      35.090  24.193  25.775  1.00  0.00    -0.251 OA
BRANCH   3   5
ATOM      5  C   UNL A   1      32.700  23.660  26.006  1.00  0.00     0.111 C 
ATOM      6  C   UNL A   1      32.282  22.894  27.267  1.00  0.00     0.029 C 
ATOM      7  C   UNL A   1      31.877  23.141  24.802  1.00  0.00     0.029 C 
BRANCH   5   8
ATOM      8  C   UNL A   1      32.337  25.178  26.195  1.00  0.00     0.278 C 
BRANCH   8   9
ATOM      9  N   UNL A   1      32.936  26.274  25.416  1.00  0.00    -0.345 N 
ATOM     10  H   UNL A   1      33.697  26.672  25.966  1.00  0.00     0.346 HD
ATOM     11  H   UNL A   1      33.240  25.857  24.535  1.00  0.00     0.346 HD
BRANCH   9  12
ATOM     12  C   UNL A   1      32.023  27.362  25.052  1.00  0.00     0.271 C 
BRANCH  12  13
ATOM     13  C   UNL A   1      32.192  28.016  23.676  1.00  0.00     0.130 C 
BRANCH  13  14
ATOM     14  S   UNL A   1      30.946  27.483  22.447  1.00  0.00    -0.160 SA
ATOM     15  C   UNL A   1      31.772  26.023  21.792  1.00  0.00     0.085 C 
ENDBRANCH  13  14
ENDBRANCH  12  13
ENDBRANCH   9  12
ENDBRANCH   8   9
ENDBRANCH   5   8
ENDBRANCH   3   5
ENDBRANCH   2   3
ENDBRANCH   1   2
BRANCH   1  16
ATOM     16  C   UNL A   1      36.747  21.066  25.235  1.00  0.00     0.275 C 
BRANCH  16  17
ATOM     17  O   UNL A   1      38.095  21.537  25.004  1.00  0.00    -0.458 OA
BRANCH  17  18
ATOM     18  C   UNL A   1      39.012  21.160  25.929  1.00  0.00     0.338 C 
ATOM     19  O   UNL A   1      39.435  20.026  26.103  1.00  0.00    -0.246 OA
BRANCH  18  20
ATOM     20  C   UNL A   1      39.644  22.333  26.579  1.00  0.00     0.060 A 
ATOM     21  C   UNL A   1      39.261  23.576  26.078  1.00  0.00     0.016 A 
ATOM     22  C   UNL A   1      40.646  22.272  27.542  1.00  0.00     0.016 A 
ATOM     23  C   UNL A   1      39.804  24.767  26.554  1.00  0.00     0.010 A 
ATOM     24  C   UNL A   1      41.241  23.470  27.993  1.00  0.00     0.010 A 
ATOM     25  C   UNL A   1      40.823  24.726  27.504  1.00  0.00    -0.014 A 
BRANCH  25  26
ATOM     26  C   UNL A   1      41.529  25.987  27.862  1.00  0.00     0.031 A 
ATOM     27  C   UNL A   1      40.792  27.044  28.638  1.00  0.00     0.074 A 
ATOM     28  C   UNL A   1      42.828  26.179  27.560  1.00  0.00     0.049 A 
ATOM     29  N   UNL A   1      41.172  28.253  28.964  1.00  0.00    -0.248 NA
ATOM     30  C   UNL A   1      39.450  26.683  29.121  1.00  0.00     0.031 C 
ATOM     31  C   UNL A   1      43.696  25.206  26.900  1.00  0.00     0.029 A 
ATOM     32  N   UNL A   1      43.638  27.275  27.751  1.00  0.00    -0.354 N 
ATOM     33  C   UNL A   1      40.101  28.815  29.648  1.00  0.00     0.074 A 
ATOM     34  C   UNL A   1      39.062  27.809  29.704  1.00  0.00     0.031 C 
ATOM     35  C   UNL A   1      44.905  25.761  26.703  1.00  0.00     0.029 A 
ATOM     36  C   UNL A   1      44.883  27.145  27.179  1.00  0.00     0.049 A 
ATOM     37  H   UNL A   1      43.354  28.075  28.250  1.00  0.00     0.167 HD
ATOM     38  C   UNL A   1      39.990  30.056  30.181  1.00  0.00     0.034 A 
ATOM     39  C   UNL A   1      45.871  28.049  27.012  1.00  0.00     0.034 A 
ATOM     40  C   UNL A   1      41.025  31.053  30.142  1.00  0.00     0.049 A 
ATOM     41  C   UNL A   1      45.692  29.451  27.541  1.00  0.00     0.074 A 
ATOM     42  C   UNL A   1      40.998  32.340  30.653  1.00  0.00     0.029 A 
ATOM     43  N   UNL A   1      42.268  30.885  29.554  1.00  0.00    -0.354 N 
ATOM     44  N   UNL A   1      44.692  29.961  28.218  1.00  0.00    -0.248 NA
ATOM     45  C   UNL A   1      46.791  30.401  27.299  1.00  0.00     0.031 C 
ATOM     46  C   UNL A   1      42.212  32.961  30.341  1.00  0.00     0.029 A 
ATOM     47  C   UNL A   1      43.012  32.047  29.676  1.00  0.00     0.049 A 
ATOM     48  H   UNL A   1      42.577  30.060  29.113  1.00  0.00     0.167 HD
ATOM     49  C   UNL A   1      45.055  31.271  28.514  1.00  0.00     0.074 A 
ATOM     50  C   UNL A   1      46.377  31.474  27.960  1.00  0.00     0.031 C 
ATOM     51  C   UNL A   1      44.351  32.224  29.175  1.00  0.00     0.034 A 
BRANCH  38  52
ATOM     52  C   UNL A   1      38.683  30.414  30.839  1.00  0.00     0.023 A 
ATOM     53  C   UNL A   1      38.451  30.069  32.185  1.00  0.00     0.012 A 
ATOM     54  C   UNL A   1      37.701  31.135  30.130  1.00  0.00     0.148 A 
ATOM     55  C   UNL A   1      37.247  30.403  32.805  1.00  0.00     0.002 A 
ATOM     56  C   UNL A   1      36.523  31.503  30.767  1.00  0.00     0.091 A 
ATOM     57  F   UNL A   1      37.934  31.437  28.845  1.00  0.00    -0.205 F 
ATOM     58  C   UNL A   1      36.289  31.126  32.099  1.00  0.00     0.022 A 
BRANCH  56  59
ATOM     59  S   UNL A   1      35.262  32.502  29.969  1.00  0.00     0.127 S 
ATOM     60  O   UNL A   1      36.032  33.677  29.561  1.00  0.00    -0.237 OA
ATOM     61  O   UNL A   1      34.838  31.638  28.867  1.00  0.00    -0.237 OA
ATOM     62  O   UNL A   1      34.242  32.747  30.979  1.00  0.00    -0.744 OA
ENDBRANCH  56  59
ENDBRANCH  38  52
BRANCH  39  63
ATOM     63  C   UNL A   1      47.122  27.674  26.288  1.00  0.00     0.023 A 
ATOM     64  C   UNL A   1      48.222  27.161  27.005  1.00  0.00     0.012 A 
ATOM     65  C   UNL A   1      47.236  27.849  24.895  1.00  0.00     0.148 A 
ATOM     66  C   UNL A   1      49.421  26.866  26.354  1.00  0.00     0.002 A 
ATOM     67  C   UNL A   1      48.412  27.498  24.244  1.00  0.00     0.091 A 
ATOM     68  F   UNL A   1      46.190  28.361  24.232  1.00  0.00    -0.205 F 
ATOM     69  C   UNL A   1      49.513  27.024  24.974  1.00  0.00     0.022 A 
BRANCH  67  70
ATOM     70  S   UNL A   1      48.582  27.561  22.457  1.00  0.00     0.127 S 
ATOM     71  O   UNL A   1      49.879  28.218  22.304  1.00  0.00    -0.237 OA
ATOM     72  O   UNL A   1      48.566  26.141  22.104  1.00  0.00    -0.237 OA
ATOM     73  O   UNL A   1      47.433  28.315  21.977  1.00  0.00    -0.744 OA
ENDBRANCH  67  70
ENDBRANCH  39  63
BRANCH  51  74
ATOM     74  C   UNL A   1      45.006  33.566  29.393  1.00  0.00     0.023 A 
ATOM     75  C   UNL A   1      45.794  33.793  30.539  1.00  0.00     0.012 A 
ATOM     76  C   UNL A   1      44.904  34.579  28.417  1.00  0.00     0.148 A 
ATOM     77  C   UNL A   1      46.443  35.014  30.725  1.00  0.00     0.002 A 
ATOM     78  C   UNL A   1      45.595  35.773  28.583  1.00  0.00     0.091 A 
ATOM     79  F   UNL A   1      44.136  34.353  27.341  1.00  0.00    -0.205 F 
ATOM     80  C   UNL A   1      46.354  35.998  29.743  1.00  0.00     0.022 A 
BRANCH  78  81
ATOM     81  S   UNL A   1      45.621  37.058  27.327  1.00  0.00     0.127 S 
ATOM     82  O   UNL A   1      46.468  38.071  27.954  1.00  0.00    -0.237 OA
ATOM     83  O   UNL A   1      46.233  36.368  26.191  1.00  0.00    -0.237 OA
ATOM     84  O   UNL A   1      44.233  37.448  27.121  1.00  0.00    -0.744 OA
ENDBRANCH  78  81
ENDBRANCH  51  74
ENDBRANCH  25  26
ENDBRANCH  18  20
ENDBRANCH  17  18
ENDBRANCH  16  17
ENDBRANCH   1  16
TORSDOF 19
ENDMDL
