MODEL 1
REMARK VINA RESULT:     -13.5      0.000      0.000
REMARK SMILES Cc1ccccc1[C@@H]1[NH2+][C@@H](C(=O)OCCOC(=O)c2ccc(-c3c4nc(c(-c5cccc(S(=O)(=O)[O-])c5F)c5ccc([nH]5)c(-c5cccc(S(=O)(=O)[O-])c5F)c5nc(c(-c6cccc(S(=O)(=O)[O-])c6F)c6ccc3[nH]6)C=C5)C=C4)cc2)CC2=c3ccccc3=N[C@@H]21
REMARK SMILES IDX 15 1 14 2 13 3 11 4 12 5 10 6 8 7 9 8 91 9 83 12 90 13 82 14
REMARK SMILES IDX 84 15 89 16 85 17 88 18 86 19 87 20 7 21 1 22 2 23 3 24 4 25
REMARK SMILES IDX 6 26 5 27 16 28 17 29 18 30 19 31 20 32 81 33 21 34 80 35
REMARK SMILES IDX 22 36 23 37 24 38 74 39 25 40 79 41 73 42 75 43 26 44 78 45
REMARK SMILES IDX 72 46 71 47 27 49 59 50 39 51 58 52 40 53 43 54 57 55 76 56
REMARK SMILES IDX 41 57 42 58 56 60 77 61 44 62 28 63 29 64 37 65 30 66 32 67
REMARK SMILES IDX 38 68 31 69 33 70 34 71 35 72 36 73 60 74 61 75 69 76 62 77
REMARK SMILES IDX 64 78 70 79 63 80 65 81 66 82 67 83 68 84 45 85 46 86 54 87
REMARK SMILES IDX 47 88 49 89 55 90 48 91 50 92 51 93 52 94 53 95
REMARK H PARENT 9 10 9 11 75 48 43 59
REMARK Flexibility Score: inf
ROOT
ATOM      1  C   UNL A   1      34.481  30.350  27.611  1.00  0.00     0.275 C 
ENDROOT
BRANCH   1   2
ATOM      2  C   UNL A   1      32.980  30.593  27.523  1.00  0.00     0.274 C 
BRANCH   2   3
ATOM      3  O   UNL A   1      32.302  29.381  27.230  1.00  0.00    -0.458 OA
BRANCH   3   4
ATOM      4  C   UNL A   1      31.896  29.329  25.936  1.00  0.00     0.365 C 
ATOM      5  O   UNL A   1      31.317  30.235  25.352  1.00  0.00    -0.245 OA
BRANCH   4   6
ATOM      6  C   UNL A   1      31.774  27.887  25.527  1.00  0.00     0.298 C 
ATOM      7  C   UNL A   1      29.916  27.533  23.967  1.00  0.00     0.243 C 
ATOM      8  N   UNL A   1      31.306  28.036  24.126  1.00  0.00    -0.326 N 
ATOM      9  C   UNL A   1      30.076  25.970  24.052  1.00  0.00     0.196 C 
ATOM     10  H   UNL A   1      31.335  29.023  23.870  1.00  0.00     0.347 HD
ATOM     11  H   UNL A   1      31.920  27.489  23.522  1.00  0.00     0.347 HD
ATOM     12  C   UNL A   1      30.773  25.679  25.410  1.00  0.00    -0.024 C 
ATOM     13  N   UNL A   1      31.090  25.493  23.049  1.00  0.00    -0.270 NA
ATOM     14  C   UNL A   1      30.925  26.880  26.363  1.00  0.00     0.111 C 
ATOM     15  C   UNL A   1      31.847  24.888  25.253  1.00  0.00     0.002 A 
ATOM     16  C   UNL A   1      32.068  25.056  23.794  1.00  0.00     0.066 A 
ATOM     17  C   UNL A   1      32.964  24.716  26.149  1.00  0.00     0.010 A 
ATOM     18  C   UNL A   1      33.480  24.983  23.331  1.00  0.00     0.028 A 
ATOM     19  C   UNL A   1      34.214  24.770  25.667  1.00  0.00     0.001 A 
ATOM     20  C   UNL A   1      34.465  24.927  24.246  1.00  0.00     0.002 A 
BRANCH   7  21
ATOM     21  C   UNL A   1      29.258  28.390  22.876  1.00  0.00     0.015 A 
ATOM     22  C   UNL A   1      26.816  27.978  23.677  1.00  0.00     0.045 C 
ATOM     23  C   UNL A   1      27.885  28.763  22.956  1.00  0.00    -0.042 A 
ATOM     24  C   UNL A   1      27.473  29.995  22.406  1.00  0.00     0.004 A 
ATOM     25  C   UNL A   1      28.380  30.845  21.779  1.00  0.00     0.000 A 
ATOM     26  C   UNL A   1      30.110  29.189  22.083  1.00  0.00     0.010 A 
ATOM     27  C   UNL A   1      29.688  30.424  21.586  1.00  0.00     0.001 A 
ENDBRANCH   7  21
ENDBRANCH   4   6
ENDBRANCH   3   4
ENDBRANCH   2   3
ENDBRANCH   1   2
BRANCH   1  28
ATOM     28  O   UNL A   1      35.195  30.934  28.760  1.00  0.00    -0.458 OA
BRANCH  28  29
ATOM     29  C   UNL A   1      36.527  30.845  29.121  1.00  0.00     0.338 C 
ATOM     30  O   UNL A   1      36.999  31.595  29.957  1.00  0.00    -0.246 OA
BRANCH  29  31
ATOM     31  C   UNL A   1      37.339  29.790  28.455  1.00  0.00     0.060 A 
ATOM     32  C   UNL A   1      38.120  30.014  27.304  1.00  0.00     0.016 A 
ATOM     33  C   UNL A   1      37.589  28.702  29.236  1.00  0.00     0.016 A 
ATOM     34  C   UNL A   1      39.315  29.274  27.104  1.00  0.00     0.010 A 
ATOM     35  C   UNL A   1      38.892  28.288  29.220  1.00  0.00     0.010 A 
ATOM     36  C   UNL A   1      39.777  28.456  28.132  1.00  0.00    -0.014 A 
BRANCH  36  37
ATOM     37  C   UNL A   1      41.072  27.719  28.277  1.00  0.00     0.031 A 
ATOM     38  C   UNL A   1      41.386  26.293  27.906  1.00  0.00     0.074 A 
ATOM     39  C   UNL A   1      42.090  28.485  28.772  1.00  0.00     0.049 A 
ATOM     40  N   UNL A   1      42.488  25.714  28.276  1.00  0.00    -0.248 NA
ATOM     41  C   UNL A   1      40.575  25.384  27.095  1.00  0.00     0.031 C 
ATOM     42  C   UNL A   1      43.518  28.243  28.926  1.00  0.00     0.029 A 
ATOM     43  N   UNL A   1      41.932  29.710  29.458  1.00  0.00    -0.354 N 
ATOM     44  C   UNL A   1      42.643  24.513  27.608  1.00  0.00     0.074 A 
ATOM     45  C   UNL A   1      41.409  24.349  26.884  1.00  0.00     0.031 C 
ATOM     46  C   UNL A   1      43.968  29.017  29.939  1.00  0.00     0.029 A 
ATOM     47  C   UNL A   1      42.800  29.662  30.530  1.00  0.00     0.049 A 
ATOM     48  H   UNL A   1      41.325  30.448  29.221  1.00  0.00     0.167 HD
ATOM     49  C   UNL A   1      43.845  23.865  27.708  1.00  0.00     0.034 A 
ATOM     50  C   UNL A   1      42.272  29.513  31.778  1.00  0.00     0.034 A 
ATOM     51  C   UNL A   1      44.651  24.479  28.773  1.00  0.00     0.049 A 
ATOM     52  C   UNL A   1      42.892  28.344  32.470  1.00  0.00     0.074 A 
ATOM     53  C   UNL A   1      45.710  25.369  28.776  1.00  0.00     0.029 A 
ATOM     54  N   UNL A   1      44.223  24.359  30.089  1.00  0.00    -0.354 N 
ATOM     55  N   UNL A   1      43.415  27.334  31.839  1.00  0.00    -0.248 NA
ATOM     56  C   UNL A   1      43.061  28.266  33.911  1.00  0.00     0.031 C 
ATOM     57  C   UNL A   1      45.850  25.864  30.101  1.00  0.00     0.029 A 
ATOM     58  C   UNL A   1      44.904  25.244  30.903  1.00  0.00     0.049 A 
ATOM     59  H   UNL A   1      43.531  23.731  30.399  1.00  0.00     0.167 HD
ATOM     60  C   UNL A   1      43.993  26.486  32.733  1.00  0.00     0.074 A 
ATOM     61  C   UNL A   1      43.766  27.128  34.019  1.00  0.00     0.031 C 
ATOM     62  C   UNL A   1      44.593  25.329  32.326  1.00  0.00     0.034 A 
BRANCH  49  63
ATOM     63  C   UNL A   1      44.452  22.777  26.810  1.00  0.00     0.023 A 
ATOM     64  C   UNL A   1      45.670  23.108  26.153  1.00  0.00     0.012 A 
ATOM     65  C   UNL A   1      43.918  21.509  26.484  1.00  0.00     0.148 A 
ATOM     66  C   UNL A   1      46.281  22.291  25.195  1.00  0.00     0.002 A 
ATOM     67  C   UNL A   1      44.534  20.681  25.524  1.00  0.00     0.091 A 
ATOM     68  F   UNL A   1      42.814  21.078  27.098  1.00  0.00    -0.205 F 
ATOM     69  C   UNL A   1      45.706  21.078  24.869  1.00  0.00     0.022 A 
BRANCH  67  70
ATOM     70  S   UNL A   1      43.871  19.078  25.023  1.00  0.00     0.127 S 
ATOM     71  O   UNL A   1      44.385  18.946  23.659  1.00  0.00    -0.237 OA
ATOM     72  O   UNL A   1      44.483  18.166  25.989  1.00  0.00    -0.237 OA
ATOM     73  O   UNL A   1      42.420  19.185  25.114  1.00  0.00    -0.744 OA
ENDBRANCH  67  70
ENDBRANCH  49  63
BRANCH  50  74
ATOM     74  C   UNL A   1      40.846  29.992  31.926  1.00  0.00     0.023 A 
ATOM     75  C   UNL A   1      39.861  29.022  32.257  1.00  0.00     0.012 A 
ATOM     76  C   UNL A   1      40.494  31.351  32.056  1.00  0.00     0.148 A 
ATOM     77  C   UNL A   1      38.618  29.385  32.791  1.00  0.00     0.002 A 
ATOM     78  C   UNL A   1      39.243  31.707  32.578  1.00  0.00     0.091 A 
ATOM     79  F   UNL A   1      41.385  32.286  31.698  1.00  0.00    -0.205 F 
ATOM     80  C   UNL A   1      38.317  30.728  32.969  1.00  0.00     0.022 A 
BRANCH  78  81
ATOM     81  S   UNL A   1      38.782  33.431  32.844  1.00  0.00     0.127 S 
ATOM     82  O   UNL A   1      38.830  33.961  31.483  1.00  0.00    -0.237 OA
ATOM     83  O   UNL A   1      37.432  33.335  33.404  1.00  0.00    -0.237 OA
ATOM     84  O   UNL A   1      39.773  33.948  33.777  1.00  0.00    -0.744 OA
ENDBRANCH  78  81
ENDBRANCH  50  74
BRANCH  62  85
ATOM     85  C   UNL A   1      44.946  24.181  33.242  1.00  0.00     0.023 A 
ATOM     86  C   UNL A   1      44.128  23.040  33.354  1.00  0.00     0.012 A 
ATOM     87  C   UNL A   1      46.202  24.128  33.895  1.00  0.00     0.148 A 
ATOM     88  C   UNL A   1      44.492  21.936  34.127  1.00  0.00     0.002 A 
ATOM     89  C   UNL A   1      46.612  22.977  34.562  1.00  0.00     0.091 A 
ATOM     90  F   UNL A   1      47.015  25.194  33.884  1.00  0.00    -0.205 F 
ATOM     91  C   UNL A   1      45.747  21.894  34.712  1.00  0.00     0.022 A 
BRANCH  89  92
ATOM     92  S   UNL A   1      48.320  22.792  35.088  1.00  0.00     0.127 S 
ATOM     93  O   UNL A   1      48.411  21.354  35.326  1.00  0.00    -0.237 OA
ATOM     94  O   UNL A   1      49.065  23.265  33.920  1.00  0.00    -0.237 OA
ATOM     95  O   UNL A   1      48.442  23.652  36.258  1.00  0.00    -0.744 OA
ENDBRANCH  89  92
ENDBRANCH  62  85
ENDBRANCH  36  37
ENDBRANCH  29  31
ENDBRANCH  28  29
ENDBRANCH   1  28
TORSDOF 15
ENDMDL
MODEL 2
REMARK VINA RESULT:     -13.4      4.487     10.325
REMARK SMILES Cc1ccccc1[C@@H]1[NH2+][C@@H](C(=O)OCCOC(=O)c2ccc(-c3c4nc(c(-c5cccc(S(=O)(=O)[O-])c5F)c5ccc([nH]5)c(-c5cccc(S(=O)(=O)[O-])c5F)c5nc(c(-c6cccc(S(=O)(=O)[O-])c6F)c6ccc3[nH]6)C=C5)C=C4)cc2)CC2=c3ccccc3=N[C@@H]21
REMARK SMILES IDX 15 1 14 2 13 3 11 4 12 5 10 6 8 7 9 8 91 9 83 12 90 13 82 14
REMARK SMILES IDX 84 15 89 16 85 17 88 18 86 19 87 20 7 21 1 22 2 23 3 24 4 25
REMARK SMILES IDX 6 26 5 27 16 28 17 29 18 30 19 31 20 32 81 33 21 34 80 35
REMARK SMILES IDX 22 36 23 37 24 38 74 39 25 40 79 41 73 42 75 43 26 44 78 45
REMARK SMILES IDX 72 46 71 47 27 49 59 50 39 51 58 52 40 53 43 54 57 55 76 56
REMARK SMILES IDX 41 57 42 58 56 60 77 61 44 62 28 63 29 64 37 65 30 66 32 67
REMARK SMILES IDX 38 68 31 69 33 70 34 71 35 72 36 73 60 74 61 75 69 76 62 77
REMARK SMILES IDX 64 78 70 79 63 80 65 81 66 82 67 83 68 84 45 85 46 86 54 87
REMARK SMILES IDX 47 88 49 89 55 90 48 91 50 92 51 93 52 94 53 95
REMARK H PARENT 9 10 9 11 75 48 43 59
REMARK Flexibility Score: inf
ROOT
ATOM      1  C   UNL A   1      36.367  23.160  25.173  1.00  0.00     0.275 C 
ENDROOT
BRANCH   1   2
ATOM      2  C   UNL A   1      35.701  23.709  23.918  1.00  0.00     0.274 C 
BRANCH   2   3
ATOM      3  O   UNL A   1      34.940  24.865  24.230  1.00  0.00    -0.458 OA
BRANCH   3   4
ATOM      4  C   UNL A   1      34.011  25.131  23.277  1.00  0.00     0.365 C 
ATOM      5  O   UNL A   1      34.259  25.290  22.089  1.00  0.00    -0.245 OA
BRANCH   4   6
ATOM      6  C   UNL A   1      32.793  25.714  23.940  1.00  0.00     0.298 C 
ATOM      7  C   UNL A   1      31.575  24.036  25.248  1.00  0.00     0.243 C 
ATOM      8  N   UNL A   1      32.764  24.928  25.199  1.00  0.00    -0.326 N 
ATOM      9  C   UNL A   1      30.378  25.027  25.499  1.00  0.00     0.196 C 
ATOM     10  H   UNL A   1      33.609  24.360  25.257  1.00  0.00     0.347 HD
ATOM     11  H   UNL A   1      32.713  25.578  25.984  1.00  0.00     0.347 HD
ATOM     12  C   UNL A   1      30.427  26.065  24.343  1.00  0.00    -0.024 C 
ATOM     13  N   UNL A   1      30.645  25.870  26.715  1.00  0.00    -0.270 NA
ATOM     14  C   UNL A   1      31.420  25.763  23.205  1.00  0.00     0.111 C 
ATOM     15  C   UNL A   1      30.401  27.324  24.811  1.00  0.00     0.002 A 
ATOM     16  C   UNL A   1      30.782  27.072  26.224  1.00  0.00     0.066 A 
ATOM     17  C   UNL A   1      30.822  28.530  24.142  1.00  0.00     0.010 A 
ATOM     18  C   UNL A   1      31.563  28.146  26.896  1.00  0.00     0.028 A 
ATOM     19  C   UNL A   1      31.616  29.400  24.783  1.00  0.00     0.001 A 
ATOM     20  C   UNL A   1      32.002  29.187  26.166  1.00  0.00     0.002 A 
BRANCH   7  21
ATOM     21  C   UNL A   1      31.991  22.787  26.038  1.00  0.00     0.015 A 
ATOM     22  C   UNL A   1      32.256  21.251  23.954  1.00  0.00     0.045 C 
ATOM     23  C   UNL A   1      32.536  21.645  25.384  1.00  0.00    -0.042 A 
ATOM     24  C   UNL A   1      33.481  20.846  26.064  1.00  0.00     0.004 A 
ATOM     25  C   UNL A   1      33.879  21.148  27.363  1.00  0.00     0.000 A 
ATOM     26  C   UNL A   1      32.283  22.959  27.409  1.00  0.00     0.010 A 
ATOM     27  C   UNL A   1      33.253  22.182  28.046  1.00  0.00     0.001 A 
ENDBRANCH   7  21
ENDBRANCH   4   6
ENDBRANCH   3   4
ENDBRANCH   2   3
ENDBRANCH   1   2
BRANCH   1  28
ATOM     28  O   UNL A   1      37.434  23.971  25.783  1.00  0.00    -0.458 OA
BRANCH  28  29
ATOM     29  C   UNL A   1      38.581  23.580  26.450  1.00  0.00     0.338 C 
ATOM     30  O   UNL A   1      38.933  22.413  26.455  1.00  0.00    -0.246 OA
BRANCH  29  31
ATOM     31  C   UNL A   1      39.360  24.646  27.137  1.00  0.00     0.060 A 
ATOM     32  C   UNL A   1      40.086  25.644  26.459  1.00  0.00     0.016 A 
ATOM     33  C   UNL A   1      39.020  24.832  28.443  1.00  0.00     0.016 A 
ATOM     34  C   UNL A   1      40.231  26.933  27.039  1.00  0.00     0.010 A 
ATOM     35  C   UNL A   1      38.848  26.141  28.797  1.00  0.00     0.010 A 
ATOM     36  C   UNL A   1      39.513  27.232  28.194  1.00  0.00    -0.014 A 
BRANCH  36  37
ATOM     37  C   UNL A   1      39.325  28.535  28.908  1.00  0.00     0.031 A 
ATOM     38  C   UNL A   1      38.415  29.680  28.545  1.00  0.00     0.074 A 
ATOM     39  C   UNL A   1      40.057  28.646  30.056  1.00  0.00     0.049 A 
ATOM     40  N   UNL A   1      38.500  30.836  29.128  1.00  0.00    -0.248 NA
ATOM     41  C   UNL A   1      37.331  29.680  27.561  1.00  0.00     0.031 C 
ATOM     42  C   UNL A   1      40.069  29.636  31.124  1.00  0.00     0.029 A 
ATOM     43  N   UNL A   1      41.173  27.848  30.394  1.00  0.00    -0.354 N 
ATOM     44  C   UNL A   1      37.411  31.620  28.796  1.00  0.00     0.074 A 
ATOM     45  C   UNL A   1      36.710  30.849  27.802  1.00  0.00     0.031 C 
ATOM     46  C   UNL A   1      41.293  29.622  31.696  1.00  0.00     0.029 A 
ATOM     47  C   UNL A   1      42.118  28.712  30.907  1.00  0.00     0.049 A 
ATOM     48  H   UNL A   1      41.260  26.873  30.284  1.00  0.00     0.167 HD
ATOM     49  C   UNL A   1      37.218  32.789  29.482  1.00  0.00     0.034 A 
ATOM     50  C   UNL A   1      43.219  28.983  30.150  1.00  0.00     0.034 A 
ATOM     51  C   UNL A   1      38.420  33.104  30.270  1.00  0.00     0.049 A 
ATOM     52  C   UNL A   1      43.380  30.457  29.974  1.00  0.00     0.074 A 
ATOM     53  C   UNL A   1      38.747  32.969  31.606  1.00  0.00     0.029 A 
ATOM     54  N   UNL A   1      39.592  33.429  29.599  1.00  0.00    -0.354 N 
ATOM     55  N   UNL A   1      42.390  31.298  30.042  1.00  0.00    -0.248 NA
ATOM     56  C   UNL A   1      44.670  31.106  29.809  1.00  0.00     0.031 C 
ATOM     57  C   UNL A   1      40.157  33.117  31.719  1.00  0.00     0.029 A 
ATOM     58  C   UNL A   1      40.672  33.380  30.459  1.00  0.00     0.049 A 
ATOM     59  H   UNL A   1      39.646  33.661  28.644  1.00  0.00     0.167 HD
ATOM     60  C   UNL A   1      42.864  32.570  29.950  1.00  0.00     0.074 A 
ATOM     61  C   UNL A   1      44.304  32.398  29.829  1.00  0.00     0.031 C 
ATOM     62  C   UNL A   1      42.021  33.644  29.969  1.00  0.00     0.034 A 
BRANCH  49  63
ATOM     63  C   UNL A   1      35.951  33.642  29.634  1.00  0.00     0.023 A 
ATOM     64  C   UNL A   1      35.356  34.108  28.429  1.00  0.00     0.012 A 
ATOM     65  C   UNL A   1      35.337  34.097  30.823  1.00  0.00     0.148 A 
ATOM     66  C   UNL A   1      34.284  35.008  28.390  1.00  0.00     0.002 A 
ATOM     67  C   UNL A   1      34.255  35.000  30.788  1.00  0.00     0.091 A 
ATOM     68  F   UNL A   1      35.779  33.664  32.005  1.00  0.00    -0.205 F 
ATOM     69  C   UNL A   1      33.738  35.467  29.574  1.00  0.00     0.022 A 
BRANCH  67  70
ATOM     70  S   UNL A   1      33.465  35.662  32.272  1.00  0.00     0.127 S 
ATOM     71  O   UNL A   1      32.852  34.466  32.852  1.00  0.00    -0.237 OA
ATOM     72  O   UNL A   1      34.601  36.185  33.029  1.00  0.00    -0.237 OA
ATOM     73  O   UNL A   1      32.514  36.669  31.818  1.00  0.00    -0.744 OA
ENDBRANCH  67  70
ENDBRANCH  49  63
BRANCH  50  74
ATOM     74  C   UNL A   1      43.578  27.914  29.144  1.00  0.00     0.023 A 
ATOM     75  C   UNL A   1      43.608  26.568  29.601  1.00  0.00     0.012 A 
ATOM     76  C   UNL A   1      43.579  28.130  27.750  1.00  0.00     0.148 A 
ATOM     77  C   UNL A   1      43.541  25.486  28.716  1.00  0.00     0.002 A 
ATOM     78  C   UNL A   1      43.525  27.041  26.869  1.00  0.00     0.091 A 
ATOM     79  F   UNL A   1      43.606  29.389  27.292  1.00  0.00    -0.205 F 
ATOM     80  C   UNL A   1      43.479  25.723  27.350  1.00  0.00     0.022 A 
BRANCH  78  81
ATOM     81  S   UNL A   1      43.438  27.270  25.082  1.00  0.00     0.127 S 
ATOM     82  O   UNL A   1      43.081  25.927  24.630  1.00  0.00    -0.237 OA
ATOM     83  O   UNL A   1      42.371  28.261  24.923  1.00  0.00    -0.237 OA
ATOM     84  O   UNL A   1      44.755  27.755  24.698  1.00  0.00    -0.744 OA
ENDBRANCH  78  81
ENDBRANCH  50  74
BRANCH  62  85
ATOM     85  C   UNL A   1      42.402  35.039  29.534  1.00  0.00     0.023 A 
ATOM     86  C   UNL A   1      41.756  35.688  28.463  1.00  0.00     0.012 A 
ATOM     87  C   UNL A   1      43.306  35.820  30.295  1.00  0.00     0.148 A 
ATOM     88  C   UNL A   1      42.039  37.009  28.113  1.00  0.00     0.002 A 
ATOM     89  C   UNL A   1      43.493  37.171  30.018  1.00  0.00     0.091 A 
ATOM     90  F   UNL A   1      44.004  35.262  31.295  1.00  0.00    -0.205 F 
ATOM     91  C   UNL A   1      42.890  37.760  28.907  1.00  0.00     0.022 A 
BRANCH  89  92
ATOM     92  S   UNL A   1      44.366  38.225  31.181  1.00  0.00     0.127 S 
ATOM     93  O   UNL A   1      44.239  39.539  30.557  1.00  0.00    -0.237 OA
ATOM     94  O   UNL A   1      43.586  38.057  32.409  1.00  0.00    -0.237 OA
ATOM     95  O   UNL A   1      45.709  37.666  31.250  1.00  0.00    -0.744 OA
ENDBRANCH  89  92
ENDBRANCH  62  85
ENDBRANCH  36  37
ENDBRANCH  29  31
ENDBRANCH  28  29
ENDBRANCH   1  28
TORSDOF 15
ENDMDL
MODEL 3
REMARK VINA RESULT:     -13.3      1.469      1.959
REMARK SMILES Cc1ccccc1[C@@H]1[NH2+][C@@H](C(=O)OCCOC(=O)c2ccc(-c3c4nc(c(-c5cccc(S(=O)(=O)[O-])c5F)c5ccc([nH]5)c(-c5cccc(S(=O)(=O)[O-])c5F)c5nc(c(-c6cccc(S(=O)(=O)[O-])c6F)c6ccc3[nH]6)C=C5)C=C4)cc2)CC2=c3ccccc3=N[C@@H]21
REMARK SMILES IDX 15 1 14 2 13 3 11 4 12 5 10 6 8 7 9 8 91 9 83 12 90 13 82 14
REMARK SMILES IDX 84 15 89 16 85 17 88 18 86 19 87 20 7 21 1 22 2 23 3 24 4 25
REMARK SMILES IDX 6 26 5 27 16 28 17 29 18 30 19 31 20 32 81 33 21 34 80 35
REMARK SMILES IDX 22 36 23 37 24 38 74 39 25 40 79 41 73 42 75 43 26 44 78 45
REMARK SMILES IDX 72 46 71 47 27 49 59 50 39 51 58 52 40 53 43 54 57 55 76 56
REMARK SMILES IDX 41 57 42 58 56 60 77 61 44 62 28 63 29 64 37 65 30 66 32 67
REMARK SMILES IDX 38 68 31 69 33 70 34 71 35 72 36 73 60 74 61 75 69 76 62 77
REMARK SMILES IDX 64 78 70 79 63 80 65 81 66 82 67 83 68 84 45 85 46 86 54 87
REMARK SMILES IDX 47 88 49 89 55 90 48 91 50 92 51 93 52 94 53 95
REMARK H PARENT 9 10 9 11 75 48 43 59
REMARK Flexibility Score: inf
ROOT
ATOM      1  C   UNL A   1      34.282  28.933  27.149  1.00  0.00     0.275 C 
ENDROOT
BRANCH   1   2
ATOM      2  C   UNL A   1      32.862  29.481  27.173  1.00  0.00     0.274 C 
BRANCH   2   3
ATOM      3  O   UNL A   1      32.061  28.815  26.210  1.00  0.00    -0.458 OA
BRANCH   3   4
ATOM      4  C   UNL A   1      31.339  27.807  26.763  1.00  0.00     0.365 C 
ATOM      5  O   UNL A   1      30.975  27.772  27.931  1.00  0.00    -0.245 OA
BRANCH   4   6
ATOM      6  C   UNL A   1      31.523  26.569  25.929  1.00  0.00     0.298 C 
ATOM      7  C   UNL A   1      30.083  26.582  23.945  1.00  0.00     0.243 C 
ATOM      8  N   UNL A   1      31.321  27.123  24.566  1.00  0.00    -0.326 N 
ATOM      9  C   UNL A   1      30.462  25.095  23.598  1.00  0.00     0.196 C 
ATOM     10  H   UNL A   1      31.247  28.138  24.628  1.00  0.00     0.347 HD
ATOM     11  H   UNL A   1      32.117  26.854  23.988  1.00  0.00     0.347 HD
ATOM     12  C   UNL A   1      30.916  24.441  24.932  1.00  0.00    -0.024 C 
ATOM     13  N   UNL A   1      31.713  25.056  22.765  1.00  0.00    -0.270 NA
ATOM     14  C   UNL A   1      30.692  25.279  26.206  1.00  0.00     0.111 C 
ATOM     15  C   UNL A   1      32.109  23.837  24.803  1.00  0.00     0.002 A 
ATOM     16  C   UNL A   1      32.583  24.486  23.554  1.00  0.00     0.066 A 
ATOM     17  C   UNL A   1      33.043  23.480  25.843  1.00  0.00     0.010 A 
ATOM     18  C   UNL A   1      34.052  24.687  23.434  1.00  0.00     0.028 A 
ATOM     19  C   UNL A   1      34.339  23.793  25.705  1.00  0.00     0.001 A 
ATOM     20  C   UNL A   1      34.835  24.422  24.495  1.00  0.00     0.002 A 
BRANCH   7  21
ATOM     21  C   UNL A   1      29.527  27.687  23.034  1.00  0.00     0.015 A 
ATOM     22  C   UNL A   1      27.061  27.447  23.832  1.00  0.00     0.045 C 
ATOM     23  C   UNL A   1      28.213  28.206  23.219  1.00  0.00    -0.042 A 
ATOM     24  C   UNL A   1      27.953  29.555  22.897  1.00  0.00     0.004 A 
ATOM     25  C   UNL A   1      28.954  30.382  22.393  1.00  0.00     0.000 A 
ATOM     26  C   UNL A   1      30.464  28.499  22.360  1.00  0.00     0.010 A 
ATOM     27  C   UNL A   1      30.197  29.843  22.091  1.00  0.00     0.001 A 
ENDBRANCH   7  21
ENDBRANCH   4   6
ENDBRANCH   3   4
ENDBRANCH   2   3
ENDBRANCH   1   2
BRANCH   1  28
ATOM     28  O   UNL A   1      35.366  29.874  26.816  1.00  0.00    -0.458 OA
BRANCH  28  29
ATOM     29  C   UNL A   1      36.001  30.817  27.602  1.00  0.00     0.338 C 
ATOM     30  O   UNL A   1      35.612  31.972  27.628  1.00  0.00    -0.246 OA
BRANCH  29  31
ATOM     31  C   UNL A   1      37.157  30.352  28.416  1.00  0.00     0.060 A 
ATOM     32  C   UNL A   1      37.052  29.408  29.457  1.00  0.00     0.016 A 
ATOM     33  C   UNL A   1      38.372  30.596  27.850  1.00  0.00     0.016 A 
ATOM     34  C   UNL A   1      38.135  28.533  29.732  1.00  0.00     0.010 A 
ATOM     35  C   UNL A   1      39.227  29.529  27.876  1.00  0.00     0.010 A 
ATOM     36  C   UNL A   1      39.221  28.516  28.860  1.00  0.00    -0.014 A 
BRANCH  36  37
ATOM     37  C   UNL A   1      40.394  27.589  28.792  1.00  0.00     0.031 A 
ATOM     38  C   UNL A   1      40.398  26.093  28.607  1.00  0.00     0.074 A 
ATOM     39  C   UNL A   1      41.603  28.222  28.867  1.00  0.00     0.049 A 
ATOM     40  N   UNL A   1      41.471  25.383  28.775  1.00  0.00    -0.248 NA
ATOM     41  C   UNL A   1      39.277  25.242  28.204  1.00  0.00     0.031 C 
ATOM     42  C   UNL A   1      42.971  27.755  28.687  1.00  0.00     0.029 A 
ATOM     43  N   UNL A   1      41.810  29.535  29.346  1.00  0.00    -0.354 N 
ATOM     44  C   UNL A   1      41.271  24.096  28.310  1.00  0.00     0.074 A 
ATOM     45  C   UNL A   1      39.872  24.058  27.969  1.00  0.00     0.031 C 
ATOM     46  C   UNL A   1      43.788  28.564  29.398  1.00  0.00     0.029 A 
ATOM     47  C   UNL A   1      42.930  29.476  30.149  1.00  0.00     0.049 A 
ATOM     48  H   UNL A   1      41.264  30.330  29.148  1.00  0.00     0.167 HD
ATOM     49  C   UNL A   1      42.354  23.266  28.208  1.00  0.00     0.034 A 
ATOM     50  C   UNL A   1      42.761  29.587  31.497  1.00  0.00     0.034 A 
ATOM     51  C   UNL A   1      43.503  23.863  28.905  1.00  0.00     0.049 A 
ATOM     52  C   UNL A   1      43.390  28.429  32.198  1.00  0.00     0.074 A 
ATOM     53  C   UNL A   1      44.628  24.546  28.480  1.00  0.00     0.029 A 
ATOM     54  N   UNL A   1      43.452  23.994  30.287  1.00  0.00    -0.354 N 
ATOM     55  N   UNL A   1      43.573  27.269  31.640  1.00  0.00    -0.248 NA
ATOM     56  C   UNL A   1      43.946  28.512  33.538  1.00  0.00     0.031 C 
ATOM     57  C   UNL A   1      45.201  25.178  29.617  1.00  0.00     0.029 A 
ATOM     58  C   UNL A   1      44.445  24.845  30.731  1.00  0.00     0.049 A 
ATOM     59  H   UNL A   1      42.797  23.544  30.869  1.00  0.00     0.167 HD
ATOM     60  C   UNL A   1      44.262  26.457  32.488  1.00  0.00     0.074 A 
ATOM     61  C   UNL A   1      44.495  27.292  33.658  1.00  0.00     0.031 C 
ATOM     62  C   UNL A   1      44.564  25.169  32.149  1.00  0.00     0.034 A 
BRANCH  49  63
ATOM     63  C   UNL A   1      42.533  21.980  27.388  1.00  0.00     0.023 A 
ATOM     64  C   UNL A   1      41.645  20.911  27.690  1.00  0.00     0.012 A 
ATOM     65  C   UNL A   1      43.521  21.687  26.420  1.00  0.00     0.148 A 
ATOM     66  C   UNL A   1      41.760  19.628  27.140  1.00  0.00     0.002 A 
ATOM     67  C   UNL A   1      43.637  20.398  25.861  1.00  0.00     0.091 A 
ATOM     68  F   UNL A   1      44.360  22.644  26.019  1.00  0.00    -0.205 F 
ATOM     69  C   UNL A   1      42.767  19.366  26.231  1.00  0.00     0.022 A 
BRANCH  67  70
ATOM     70  S   UNL A   1      44.912  19.946  24.664  1.00  0.00     0.127 S 
ATOM     71  O   UNL A   1      44.604  20.830  23.539  1.00  0.00    -0.237 OA
ATOM     72  O   UNL A   1      46.146  20.281  25.374  1.00  0.00    -0.237 OA
ATOM     73  O   UNL A   1      44.730  18.527  24.386  1.00  0.00    -0.744 OA
ENDBRANCH  67  70
ENDBRANCH  49  63
BRANCH  50  74
ATOM     74  C   UNL A   1      41.511  30.324  31.922  1.00  0.00     0.023 A 
ATOM     75  C   UNL A   1      41.284  31.608  31.355  1.00  0.00     0.012 A 
ATOM     76  C   UNL A   1      40.434  29.704  32.586  1.00  0.00     0.148 A 
ATOM     77  C   UNL A   1      40.017  32.204  31.360  1.00  0.00     0.002 A 
ATOM     78  C   UNL A   1      39.171  30.312  32.600  1.00  0.00     0.091 A 
ATOM     79  F   UNL A   1      40.636  28.518  33.177  1.00  0.00    -0.205 F 
ATOM     80  C   UNL A   1      38.956  31.546  31.966  1.00  0.00     0.022 A 
BRANCH  78  81
ATOM     81  S   UNL A   1      37.743  29.517  33.362  1.00  0.00     0.127 S 
ATOM     82  O   UNL A   1      37.989  29.769  34.781  1.00  0.00    -0.237 OA
ATOM     83  O   UNL A   1      36.609  30.259  32.808  1.00  0.00    -0.237 OA
ATOM     84  O   UNL A   1      37.807  28.128  32.930  1.00  0.00    -0.744 OA
ENDBRANCH  78  81
ENDBRANCH  50  74
BRANCH  62  85
ATOM     85  C   UNL A   1      45.004  24.108  33.128  1.00  0.00     0.023 A 
ATOM     86  C   UNL A   1      44.240  22.947  33.362  1.00  0.00     0.012 A 
ATOM     87  C   UNL A   1      46.289  24.151  33.723  1.00  0.00     0.148 A 
ATOM     88  C   UNL A   1      44.684  21.919  34.196  1.00  0.00     0.002 A 
ATOM     89  C   UNL A   1      46.776  23.070  34.452  1.00  0.00     0.091 A 
ATOM     90  F   UNL A   1      47.056  25.244  33.595  1.00  0.00    -0.205 F 
ATOM     91  C   UNL A   1      45.964  21.969  34.722  1.00  0.00     0.022 A 
BRANCH  89  92
ATOM     92  S   UNL A   1      48.511  22.990  34.909  1.00  0.00     0.127 S 
ATOM     93  O   UNL A   1      48.667  21.583  35.268  1.00  0.00    -0.237 OA
ATOM     94  O   UNL A   1      49.184  23.380  33.668  1.00  0.00    -0.237 OA
ATOM     95  O   UNL A   1      48.654  23.955  35.990  1.00  0.00    -0.744 OA
ENDBRANCH  89  92
ENDBRANCH  62  85
ENDBRANCH  36  37
ENDBRANCH  29  31
ENDBRANCH  28  29
ENDBRANCH   1  28
TORSDOF 15
ENDMDL
