MODEL 1
REMARK VINA RESULT:     -11.3      0.000      0.000
REMARK SMILES Cn1ccnc1SCC[C@@H]1CCC[C@]1([NH3+])C(=O)OCCOC(=O)c1ccc(-c2c3nc(c(-c4cccc(S(=O)(=O)[O-])c4F)c4ccc([nH]4)c(-c4cccc(S(=O)(=O)[O-])c4F)c4nc(c(-c5cccc(S(=O)(=O)[O-])c5F)c5ccc2[nH]5)C=C4)C=C3)cc1
REMARK SMILES IDX 19 1 18 2 16 3 17 4 14 5 10 6 11 7 12 8 13 9 9 10 8 11 7 12
REMARK SMILES IDX 6 13 1 14 2 15 3 16 4 17 5 18 15 19 20 23 21 24 22 25 23 26
REMARK SMILES IDX 24 27 25 28 86 29 26 30 85 31 27 32 28 33 29 34 79 35 30 36
REMARK SMILES IDX 84 37 78 38 80 39 31 40 83 41 77 42 76 43 32 45 64 46 44 47
REMARK SMILES IDX 63 48 45 49 48 50 62 51 81 52 46 53 47 54 61 56 82 57 49 58
REMARK SMILES IDX 33 59 34 60 42 61 35 62 37 63 43 64 36 65 38 66 39 67 40 68
REMARK SMILES IDX 41 69 65 70 66 71 74 72 67 73 69 74 75 75 68 76 70 77 71 78
REMARK SMILES IDX 72 79 73 80 50 81 51 82 59 83 52 84 54 85 60 86 53 87 55 88
REMARK SMILES IDX 56 89 57 90 58 91
REMARK H PARENT 15 20 15 21 15 22 80 44 48 55
REMARK Flexibility Score: inf
ROOT
ATOM      1  C   UNL A   1      31.007  29.098  24.694  1.00  0.00     0.274 C 
ENDROOT
BRANCH   1   2
ATOM      2  O   UNL A   1      31.719  28.886  23.456  1.00  0.00    -0.457 OA
BRANCH   2   3
ATOM      3  C   UNL A   1      31.254  27.871  22.685  1.00  0.00     0.368 C 
ATOM      4  O   UNL A   1      30.091  27.790  22.292  1.00  0.00    -0.245 OA
BRANCH   3   5
ATOM      5  C   UNL A   1      32.256  26.693  22.483  1.00  0.00     0.195 C 
ATOM      6  C   UNL A   1      32.188  25.442  23.381  1.00  0.00     0.063 C 
ATOM      7  C   UNL A   1      32.700  25.945  24.724  1.00  0.00     0.011 C 
ATOM      8  C   UNL A   1      33.912  26.776  24.321  1.00  0.00     0.008 C 
ATOM      9  C   UNL A   1      33.673  27.209  22.864  1.00  0.00     0.081 C 
BRANCH   6  10
ATOM     10  C   UNL A   1      30.935  24.575  23.469  1.00  0.00     0.022 C 
BRANCH  10  11
ATOM     11  C   UNL A   1      31.201  23.067  23.579  1.00  0.00     0.079 C 
BRANCH  11  12
ATOM     12  S   UNL A   1      31.487  22.335  25.229  1.00  0.00    -0.088 SA
BRANCH  12  13
ATOM     13  C   UNL A   1      32.567  21.001  24.998  1.00  0.00     0.167 A 
ATOM     14  C   UNL A   1      34.715  22.256  24.486  1.00  0.00     0.152 C 
ATOM     15  N   UNL A   1      33.905  21.087  24.703  1.00  0.00    -0.329 N 
ATOM     16  C   UNL A   1      34.392  19.804  24.628  1.00  0.00     0.108 A 
ATOM     17  C   UNL A   1      33.303  18.993  24.839  1.00  0.00     0.132 A 
ATOM     18  N   UNL A   1      32.178  19.745  25.056  1.00  0.00    -0.231 NA
ENDBRANCH  12  13
ENDBRANCH  11  12
ENDBRANCH  10  11
ENDBRANCH   6  10
BRANCH   5  19
ATOM     19  N   UNL A   1      32.203  26.329  21.035  1.00  0.00    -0.343 N 
ATOM     20  H   UNL A   1      31.907  25.359  20.939  1.00  0.00     0.345 HD
ATOM     21  H   UNL A   1      33.128  26.445  20.621  1.00  0.00     0.345 HD
ATOM     22  H   UNL A   1      31.538  26.936  20.556  1.00  0.00     0.345 HD
ENDBRANCH   5  19
ENDBRANCH   3   5
ENDBRANCH   2   3
ENDBRANCH   1   2
BRANCH   1  23
ATOM     23  C   UNL A   1      31.418  30.401  25.369  1.00  0.00     0.275 C 
BRANCH  23  24
ATOM     24  O   UNL A   1      32.272  30.123  26.489  1.00  0.00    -0.458 OA
BRANCH  24  25
ATOM     25  C   UNL A   1      32.885  31.199  27.027  1.00  0.00     0.338 C 
ATOM     26  O   UNL A   1      32.374  32.291  27.257  1.00  0.00    -0.246 OA
BRANCH  25  27
ATOM     27  C   UNL A   1      34.285  30.895  27.369  1.00  0.00     0.060 A 
ATOM     28  C   UNL A   1      34.697  29.582  27.594  1.00  0.00     0.016 A 
ATOM     29  C   UNL A   1      35.153  31.950  27.647  1.00  0.00     0.016 A 
ATOM     30  C   UNL A   1      35.904  29.339  28.257  1.00  0.00     0.010 A 
ATOM     31  C   UNL A   1      36.411  31.689  28.197  1.00  0.00     0.010 A 
ATOM     32  C   UNL A   1      36.775  30.389  28.586  1.00  0.00    -0.014 A 
BRANCH  32  33
ATOM     33  C   UNL A   1      38.007  30.177  29.409  1.00  0.00     0.031 A 
ATOM     34  C   UNL A   1      39.151  29.360  28.848  1.00  0.00     0.074 A 
ATOM     35  C   UNL A   1      38.131  30.682  30.654  1.00  0.00     0.049 A 
ATOM     36  N   UNL A   1      40.141  28.778  29.474  1.00  0.00    -0.248 NA
ATOM     37  C   UNL A   1      39.160  29.144  27.391  1.00  0.00     0.031 C 
ATOM     38  C   UNL A   1      37.160  31.541  31.329  1.00  0.00     0.029 A 
ATOM     39  N   UNL A   1      39.138  30.534  31.579  1.00  0.00    -0.354 N 
ATOM     40  C   UNL A   1      40.811  28.027  28.514  1.00  0.00     0.074 A 
ATOM     41  C   UNL A   1      40.135  28.257  27.254  1.00  0.00     0.031 C 
ATOM     42  C   UNL A   1      37.637  31.885  32.534  1.00  0.00     0.029 A 
ATOM     43  C   UNL A   1      38.890  31.179  32.769  1.00  0.00     0.049 A 
ATOM     44  H   UNL A   1      39.957  30.016  31.406  1.00  0.00     0.167 HD
ATOM     45  C   UNL A   1      41.889  27.219  28.665  1.00  0.00     0.034 A 
ATOM     46  C   UNL A   1      39.562  31.166  33.938  1.00  0.00     0.034 A 
ATOM     47  C   UNL A   1      42.642  27.101  29.886  1.00  0.00     0.049 A 
ATOM     48  C   UNL A   1      40.783  30.301  34.077  1.00  0.00     0.074 A 
ATOM     49  C   UNL A   1      43.764  26.330  30.137  1.00  0.00     0.029 A 
ATOM     50  N   UNL A   1      42.378  27.811  31.046  1.00  0.00    -0.354 N 
ATOM     51  N   UNL A   1      41.370  29.550  33.177  1.00  0.00    -0.248 NA
ATOM     52  C   UNL A   1      41.430  30.277  35.396  1.00  0.00     0.031 C 
ATOM     53  C   UNL A   1      44.187  26.587  31.447  1.00  0.00     0.029 A 
ATOM     54  C   UNL A   1      43.328  27.516  32.010  1.00  0.00     0.049 A 
ATOM     55  H   UNL A   1      41.626  28.433  31.168  1.00  0.00     0.167 HD
ATOM     56  C   UNL A   1      42.464  28.978  33.814  1.00  0.00     0.074 A 
ATOM     57  C   UNL A   1      42.474  29.490  35.170  1.00  0.00     0.031 C 
ATOM     58  C   UNL A   1      43.363  28.085  33.331  1.00  0.00     0.034 A 
BRANCH  45  59
ATOM     59  C   UNL A   1      42.335  26.411  27.473  1.00  0.00     0.023 A 
ATOM     60  C   UNL A   1      43.094  27.015  26.452  1.00  0.00     0.012 A 
ATOM     61  C   UNL A   1      42.035  25.036  27.386  1.00  0.00     0.148 A 
ATOM     62  C   UNL A   1      43.519  26.273  25.349  1.00  0.00     0.002 A 
ATOM     63  C   UNL A   1      42.498  24.293  26.303  1.00  0.00     0.091 A 
ATOM     64  F   UNL A   1      41.288  24.477  28.350  1.00  0.00    -0.205 F 
ATOM     65  C   UNL A   1      43.229  24.912  25.279  1.00  0.00     0.022 A 
BRANCH  63  66
ATOM     66  S   UNL A   1      42.232  22.519  26.196  1.00  0.00     0.127 S 
ATOM     67  O   UNL A   1      42.798  22.053  27.461  1.00  0.00    -0.237 OA
ATOM     68  O   UNL A   1      40.774  22.417  26.111  1.00  0.00    -0.237 OA
ATOM     69  O   UNL A   1      42.930  22.098  24.989  1.00  0.00    -0.744 OA
ENDBRANCH  63  66
ENDBRANCH  45  59
BRANCH  46  70
ATOM     70  C   UNL A   1      39.097  32.025  35.063  1.00  0.00     0.023 A 
ATOM     71  C   UNL A   1      38.178  31.496  35.989  1.00  0.00     0.012 A 
ATOM     72  C   UNL A   1      39.606  33.323  35.267  1.00  0.00     0.148 A 
ATOM     73  C   UNL A   1      37.771  32.244  37.094  1.00  0.00     0.002 A 
ATOM     74  C   UNL A   1      39.249  34.035  36.405  1.00  0.00     0.091 A 
ATOM     75  F   UNL A   1      40.457  33.822  34.359  1.00  0.00    -0.205 F 
ATOM     76  C   UNL A   1      38.320  33.505  37.312  1.00  0.00     0.022 A 
BRANCH  74  77
ATOM     77  S   UNL A   1      40.038  35.589  36.847  1.00  0.00     0.127 S 
ATOM     78  O   UNL A   1      39.645  36.451  35.736  1.00  0.00    -0.237 OA
ATOM     79  O   UNL A   1      39.398  35.901  38.127  1.00  0.00    -0.237 OA
ATOM     80  O   UNL A   1      41.459  35.289  36.949  1.00  0.00    -0.744 OA
ENDBRANCH  74  77
ENDBRANCH  46  70
BRANCH  58  81
ATOM     81  C   UNL A   1      44.456  27.631  34.259  1.00  0.00     0.023 A 
ATOM     82  C   UNL A   1      45.680  28.328  34.284  1.00  0.00     0.012 A 
ATOM     83  C   UNL A   1      44.254  26.554  35.143  1.00  0.00     0.148 A 
ATOM     84  C   UNL A   1      46.696  27.943  35.158  1.00  0.00     0.002 A 
ATOM     85  C   UNL A   1      45.258  26.198  36.036  1.00  0.00     0.091 A 
ATOM     86  F   UNL A   1      43.092  25.885  35.086  1.00  0.00    -0.205 F 
ATOM     87  C   UNL A   1      46.482  26.886  36.041  1.00  0.00     0.022 A 
BRANCH  85  88
ATOM     88  S   UNL A   1      45.028  24.897  37.254  1.00  0.00     0.127 S 
ATOM     89  O   UNL A   1      45.034  23.699  36.418  1.00  0.00    -0.237 OA
ATOM     90  O   UNL A   1      46.205  25.050  38.110  1.00  0.00    -0.237 OA
ATOM     91  O   UNL A   1      43.765  25.202  37.916  1.00  0.00    -0.744 OA
ENDBRANCH  85  88
ENDBRANCH  58  81
ENDBRANCH  32  33
ENDBRANCH  25  27
ENDBRANCH  24  25
ENDBRANCH  23  24
ENDBRANCH   1  23
TORSDOF 19
ENDMDL
MODEL 2
REMARK VINA RESULT:     -11.1      4.900     10.116
REMARK SMILES Cn1ccnc1SCC[C@@H]1CCC[C@]1([NH3+])C(=O)OCCOC(=O)c1ccc(-c2c3nc(c(-c4cccc(S(=O)(=O)[O-])c4F)c4ccc([nH]4)c(-c4cccc(S(=O)(=O)[O-])c4F)c4nc(c(-c5cccc(S(=O)(=O)[O-])c5F)c5ccc2[nH]5)C=C4)C=C3)cc1
REMARK SMILES IDX 19 1 18 2 16 3 17 4 14 5 10 6 11 7 12 8 13 9 9 10 8 11 7 12
REMARK SMILES IDX 6 13 1 14 2 15 3 16 4 17 5 18 15 19 20 23 21 24 22 25 23 26
REMARK SMILES IDX 24 27 25 28 86 29 26 30 85 31 27 32 28 33 29 34 79 35 30 36
REMARK SMILES IDX 84 37 78 38 80 39 31 40 83 41 77 42 76 43 32 45 64 46 44 47
REMARK SMILES IDX 63 48 45 49 48 50 62 51 81 52 46 53 47 54 61 56 82 57 49 58
REMARK SMILES IDX 33 59 34 60 42 61 35 62 37 63 43 64 36 65 38 66 39 67 40 68
REMARK SMILES IDX 41 69 65 70 66 71 74 72 67 73 69 74 75 75 68 76 70 77 71 78
REMARK SMILES IDX 72 79 73 80 50 81 51 82 59 83 52 84 54 85 60 86 53 87 55 88
REMARK SMILES IDX 56 89 57 90 58 91
REMARK H PARENT 15 20 15 21 15 22 80 44 48 55
REMARK Flexibility Score: inf
ROOT
ATOM      1  C   UNL A   1      34.908  21.163  25.396  1.00  0.00     0.274 C 
ENDROOT
BRANCH   1   2
ATOM      2  O   UNL A   1      33.990  21.238  24.284  1.00  0.00    -0.457 OA
BRANCH   2   3
ATOM      3  C   UNL A   1      33.840  22.471  23.737  1.00  0.00     0.368 C 
ATOM      4  O   UNL A   1      34.769  23.258  23.561  1.00  0.00    -0.245 OA
BRANCH   3   5
ATOM      5  C   UNL A   1      32.360  22.912  23.516  1.00  0.00     0.195 C 
ATOM      6  C   UNL A   1      31.984  24.405  23.478  1.00  0.00     0.063 C 
ATOM      7  C   UNL A   1      32.135  24.844  24.929  1.00  0.00     0.011 C 
ATOM      8  C   UNL A   1      31.467  23.702  25.686  1.00  0.00     0.008 C 
ATOM      9  C   UNL A   1      31.546  22.470  24.767  1.00  0.00     0.081 C 
BRANCH   6  10
ATOM     10  C   UNL A   1      32.591  25.368  22.462  1.00  0.00     0.022 C 
BRANCH  10  11
ATOM     11  C   UNL A   1      33.496  26.454  23.064  1.00  0.00     0.079 C 
BRANCH  11  12
ATOM     12  S   UNL A   1      33.282  28.187  22.523  1.00  0.00    -0.088 SA
BRANCH  12  13
ATOM     13  C   UNL A   1      31.624  28.596  22.816  1.00  0.00     0.167 A 
ATOM     14  C   UNL A   1      31.816  29.565  25.155  1.00  0.00     0.152 C 
ATOM     15  N   UNL A   1      31.126  29.183  23.952  1.00  0.00    -0.329 N 
ATOM     16  C   UNL A   1      29.775  29.355  23.766  1.00  0.00     0.108 A 
ATOM     17  C   UNL A   1      29.510  28.817  22.530  1.00  0.00     0.132 A 
ATOM     18  N   UNL A   1      30.660  28.340  21.956  1.00  0.00    -0.231 NA
ENDBRANCH  12  13
ENDBRANCH  11  12
ENDBRANCH  10  11
ENDBRANCH   6  10
BRANCH   5  19
ATOM     19  N   UNL A   1      31.877  22.195  22.298  1.00  0.00    -0.343 N 
ATOM     20  H   UNL A   1      32.235  21.241  22.301  1.00  0.00     0.345 HD
ATOM     21  H   UNL A   1      32.209  22.680  21.465  1.00  0.00     0.345 HD
ATOM     22  H   UNL A   1      30.857  22.176  22.296  1.00  0.00     0.345 HD
ENDBRANCH   5  19
ENDBRANCH   3   5
ENDBRANCH   2   3
ENDBRANCH   1   2
BRANCH   1  23
ATOM     23  C   UNL A   1      36.189  20.424  25.025  1.00  0.00     0.275 C 
BRANCH  23  24
ATOM     24  O   UNL A   1      37.262  21.363  24.857  1.00  0.00    -0.458 OA
BRANCH  24  25
ATOM     25  C   UNL A   1      38.408  21.047  25.497  1.00  0.00     0.338 C 
ATOM     26  O   UNL A   1      39.014  19.982  25.426  1.00  0.00    -0.246 OA
BRANCH  25  27
ATOM     27  C   UNL A   1      38.903  22.186  26.289  1.00  0.00     0.060 A 
ATOM     28  C   UNL A   1      38.373  23.463  26.113  1.00  0.00     0.016 A 
ATOM     29  C   UNL A   1      40.033  22.008  27.087  1.00  0.00     0.016 A 
ATOM     30  C   UNL A   1      39.074  24.575  26.589  1.00  0.00     0.010 A 
ATOM     31  C   UNL A   1      40.659  23.118  27.662  1.00  0.00     0.010 A 
ATOM     32  C   UNL A   1      40.239  24.424  27.357  1.00  0.00    -0.014 A 
BRANCH  32  33
ATOM     33  C   UNL A   1      41.083  25.590  27.768  1.00  0.00     0.031 A 
ATOM     34  C   UNL A   1      40.488  26.673  28.644  1.00  0.00     0.074 A 
ATOM     35  C   UNL A   1      42.365  25.721  27.370  1.00  0.00     0.049 A 
ATOM     36  N   UNL A   1      40.900  27.898  28.845  1.00  0.00    -0.248 NA
ATOM     37  C   UNL A   1      39.248  26.337  29.363  1.00  0.00     0.031 C 
ATOM     38  C   UNL A   1      43.118  24.749  26.579  1.00  0.00     0.029 A 
ATOM     39  N   UNL A   1      43.262  26.742  27.578  1.00  0.00    -0.354 N 
ATOM     40  C   UNL A   1      39.908  28.514  29.601  1.00  0.00     0.074 A 
ATOM     41  C   UNL A   1      38.891  27.516  29.855  1.00  0.00     0.031 C 
ATOM     42  C   UNL A   1      44.372  25.193  26.412  1.00  0.00     0.029 A 
ATOM     43  C   UNL A   1      44.483  26.532  26.979  1.00  0.00     0.049 A 
ATOM     44  H   UNL A   1      43.052  27.546  28.106  1.00  0.00     0.167 HD
ATOM     45  C   UNL A   1      39.848  29.794  30.044  1.00  0.00     0.034 A 
ATOM     46  C   UNL A   1      45.555  27.339  26.850  1.00  0.00     0.034 A 
ATOM     47  C   UNL A   1      40.921  30.744  29.910  1.00  0.00     0.049 A 
ATOM     48  C   UNL A   1      45.491  28.741  27.387  1.00  0.00     0.074 A 
ATOM     49  C   UNL A   1      40.972  32.057  30.345  1.00  0.00     0.029 A 
ATOM     50  N   UNL A   1      42.153  30.466  29.338  1.00  0.00    -0.354 N 
ATOM     51  N   UNL A   1      44.524  29.329  28.048  1.00  0.00    -0.248 NA
ATOM     52  C   UNL A   1      46.666  29.593  27.154  1.00  0.00     0.031 C 
ATOM     53  C   UNL A   1      42.241  32.569  30.049  1.00  0.00     0.029 A 
ATOM     54  C   UNL A   1      42.979  31.574  29.428  1.00  0.00     0.049 A 
ATOM     55  H   UNL A   1      42.403  29.608  28.926  1.00  0.00     0.167 HD
ATOM     56  C   UNL A   1      44.979  30.613  28.325  1.00  0.00     0.074 A 
ATOM     57  C   UNL A   1      46.319  30.708  27.783  1.00  0.00     0.031 C 
ATOM     58  C   UNL A   1      44.334  31.632  28.945  1.00  0.00     0.034 A 
BRANCH  45  59
ATOM     59  C   UNL A   1      38.586  30.240  30.735  1.00  0.00     0.023 A 
ATOM     60  C   UNL A   1      38.400  29.981  32.107  1.00  0.00     0.012 A 
ATOM     61  C   UNL A   1      37.597  30.957  30.031  1.00  0.00     0.148 A 
ATOM     62  C   UNL A   1      37.238  30.398  32.758  1.00  0.00     0.002 A 
ATOM     63  C   UNL A   1      36.460  31.406  30.696  1.00  0.00     0.091 A 
ATOM     64  F   UNL A   1      37.771  31.175  28.718  1.00  0.00    -0.205 F 
ATOM     65  C   UNL A   1      36.274  31.118  32.056  1.00  0.00     0.022 A 
BRANCH  63  66
ATOM     66  S   UNL A   1      35.220  32.412  29.870  1.00  0.00     0.127 S 
ATOM     67  O   UNL A   1      34.319  32.744  30.972  1.00  0.00    -0.237 OA
ATOM     68  O   UNL A   1      36.005  33.540  29.366  1.00  0.00    -0.237 OA
ATOM     69  O   UNL A   1      34.667  31.559  28.827  1.00  0.00    -0.744 OA
ENDBRANCH  63  66
ENDBRANCH  45  59
BRANCH  46  70
ATOM     70  C   UNL A   1      46.792  26.821  26.198  1.00  0.00     0.023 A 
ATOM     71  C   UNL A   1      46.958  27.003  24.812  1.00  0.00     0.012 A 
ATOM     72  C   UNL A   1      47.828  26.222  26.941  1.00  0.00     0.148 A 
ATOM     73  C   UNL A   1      48.131  26.594  24.177  1.00  0.00     0.002 A 
ATOM     74  C   UNL A   1      49.020  25.880  26.314  1.00  0.00     0.091 A 
ATOM     75  F   UNL A   1      47.640  26.029  28.255  1.00  0.00    -0.205 F 
ATOM     76  C   UNL A   1      49.168  26.051  24.930  1.00  0.00     0.022 A 
BRANCH  74  77
ATOM     77  S   UNL A   1      50.463  25.334  27.237  1.00  0.00     0.127 S 
ATOM     78  O   UNL A   1      49.943  24.165  27.941  1.00  0.00    -0.237 OA
ATOM     79  O   UNL A   1      51.414  25.036  26.164  1.00  0.00    -0.237 OA
ATOM     80  O   UNL A   1      50.841  26.465  28.072  1.00  0.00    -0.744 OA
ENDBRANCH  74  77
ENDBRANCH  46  70
BRANCH  58  81
ATOM     81  C   UNL A   1      45.079  32.928  29.106  1.00  0.00     0.023 A 
ATOM     82  C   UNL A   1      45.953  33.095  30.198  1.00  0.00     0.012 A 
ATOM     83  C   UNL A   1      44.959  33.956  28.151  1.00  0.00     0.148 A 
ATOM     84  C   UNL A   1      46.677  34.277  30.350  1.00  0.00     0.002 A 
ATOM     85  C   UNL A   1      45.710  35.116  28.290  1.00  0.00     0.091 A 
ATOM     86  F   UNL A   1      44.101  33.789  27.132  1.00  0.00    -0.205 F 
ATOM     87  C   UNL A   1      46.565  35.282  29.392  1.00  0.00     0.022 A 
BRANCH  85  88
ATOM     88  S   UNL A   1      45.675  36.423  27.057  1.00  0.00     0.127 S 
ATOM     89  O   UNL A   1      46.515  37.444  27.677  1.00  0.00    -0.237 OA
ATOM     90  O   UNL A   1      46.268  35.773  25.888  1.00  0.00    -0.237 OA
ATOM     91  O   UNL A   1      44.268  36.770  26.897  1.00  0.00    -0.744 OA
ENDBRANCH  85  88
ENDBRANCH  58  81
ENDBRANCH  32  33
ENDBRANCH  25  27
ENDBRANCH  24  25
ENDBRANCH  23  24
ENDBRANCH   1  23
TORSDOF 19
ENDMDL
MODEL 3
REMARK VINA RESULT:     -11.1      1.117      1.781
REMARK SMILES Cn1ccnc1SCC[C@@H]1CCC[C@]1([NH3+])C(=O)OCCOC(=O)c1ccc(-c2c3nc(c(-c4cccc(S(=O)(=O)[O-])c4F)c4ccc([nH]4)c(-c4cccc(S(=O)(=O)[O-])c4F)c4nc(c(-c5cccc(S(=O)(=O)[O-])c5F)c5ccc2[nH]5)C=C4)C=C3)cc1
REMARK SMILES IDX 19 1 18 2 16 3 17 4 14 5 10 6 11 7 12 8 13 9 9 10 8 11 7 12
REMARK SMILES IDX 6 13 1 14 2 15 3 16 4 17 5 18 15 19 20 23 21 24 22 25 23 26
REMARK SMILES IDX 24 27 25 28 86 29 26 30 85 31 27 32 28 33 29 34 79 35 30 36
REMARK SMILES IDX 84 37 78 38 80 39 31 40 83 41 77 42 76 43 32 45 64 46 44 47
REMARK SMILES IDX 63 48 45 49 48 50 62 51 81 52 46 53 47 54 61 56 82 57 49 58
REMARK SMILES IDX 33 59 34 60 42 61 35 62 37 63 43 64 36 65 38 66 39 67 40 68
REMARK SMILES IDX 41 69 65 70 66 71 74 72 67 73 69 74 75 75 68 76 70 77 71 78
REMARK SMILES IDX 72 79 73 80 50 81 51 82 59 83 52 84 54 85 60 86 53 87 55 88
REMARK SMILES IDX 56 89 57 90 58 91
REMARK H PARENT 15 20 15 21 15 22 80 44 48 55
REMARK Flexibility Score: inf
ROOT
ATOM      1  C   UNL A   1      31.417  29.288  25.046  1.00  0.00     0.274 C 
ENDROOT
BRANCH   1   2
ATOM      2  O   UNL A   1      32.152  28.254  25.736  1.00  0.00    -0.457 OA
BRANCH   2   3
ATOM      3  C   UNL A   1      31.396  27.379  26.445  1.00  0.00     0.368 C 
ATOM      4  O   UNL A   1      30.962  27.608  27.573  1.00  0.00    -0.245 OA
BRANCH   3   5
ATOM      5  C   UNL A   1      31.270  25.960  25.806  1.00  0.00     0.195 C 
ATOM      6  C   UNL A   1      31.892  25.663  24.428  1.00  0.00     0.063 C 
ATOM      7  C   UNL A   1      30.992  26.424  23.464  1.00  0.00     0.011 C 
ATOM      8  C   UNL A   1      29.600  26.090  23.984  1.00  0.00     0.008 C 
ATOM      9  C   UNL A   1      29.768  25.728  25.470  1.00  0.00     0.081 C 
BRANCH   6  10
ATOM     10  C   UNL A   1      33.385  25.827  24.160  1.00  0.00     0.022 C 
BRANCH  10  11
ATOM     11  C   UNL A   1      34.027  24.684  23.362  1.00  0.00     0.079 C 
BRANCH  11  12
ATOM     12  S   UNL A   1      33.344  22.996  23.522  1.00  0.00    -0.088 SA
BRANCH  12  13
ATOM     13  C   UNL A   1      33.684  22.477  25.139  1.00  0.00     0.167 A 
ATOM     14  C   UNL A   1      32.503  20.228  25.137  1.00  0.00     0.152 C 
ATOM     15  N   UNL A   1      33.291  21.289  25.705  1.00  0.00    -0.329 N 
ATOM     16  C   UNL A   1      33.787  21.262  26.987  1.00  0.00     0.108 A 
ATOM     17  C   UNL A   1      34.423  22.468  27.152  1.00  0.00     0.132 A 
ATOM     18  N   UNL A   1      34.344  23.216  26.006  1.00  0.00    -0.231 NA
ENDBRANCH  12  13
ENDBRANCH  11  12
ENDBRANCH  10  11
ENDBRANCH   6  10
BRANCH   5  19
ATOM     19  N   UNL A   1      31.733  24.984  26.838  1.00  0.00    -0.343 N 
ATOM     20  H   UNL A   1      32.195  25.485  27.596  1.00  0.00     0.345 HD
ATOM     21  H   UNL A   1      32.388  24.328  26.414  1.00  0.00     0.345 HD
ATOM     22  H   UNL A   1      30.931  24.473  27.207  1.00  0.00     0.345 HD
ENDBRANCH   5  19
ENDBRANCH   3   5
ENDBRANCH   2   3
ENDBRANCH   1   2
BRANCH   1  23
ATOM     23  C   UNL A   1      31.455  30.611  25.801  1.00  0.00     0.275 C 
BRANCH  23  24
ATOM     24  O   UNL A   1      32.291  30.488  26.961  1.00  0.00    -0.458 OA
BRANCH  24  25
ATOM     25  C   UNL A   1      33.010  31.588  27.272  1.00  0.00     0.338 C 
ATOM     26  O   UNL A   1      32.593  32.740  27.333  1.00  0.00    -0.246 OA
BRANCH  25  27
ATOM     27  C   UNL A   1      34.405  31.235  27.592  1.00  0.00     0.060 A 
ATOM     28  C   UNL A   1      34.778  29.908  27.794  1.00  0.00     0.016 A 
ATOM     29  C   UNL A   1      35.309  32.260  27.871  1.00  0.00     0.016 A 
ATOM     30  C   UNL A   1      35.986  29.618  28.437  1.00  0.00     0.010 A 
ATOM     31  C   UNL A   1      36.565  31.952  28.401  1.00  0.00     0.010 A 
ATOM     32  C   UNL A   1      36.893  30.636  28.768  1.00  0.00    -0.014 A 
BRANCH  32  33
ATOM     33  C   UNL A   1      38.129  30.375  29.572  1.00  0.00     0.031 A 
ATOM     34  C   UNL A   1      39.234  29.522  28.989  1.00  0.00     0.074 A 
ATOM     35  C   UNL A   1      38.288  30.868  30.818  1.00  0.00     0.049 A 
ATOM     36  N   UNL A   1      40.212  28.901  29.597  1.00  0.00    -0.248 NA
ATOM     37  C   UNL A   1      39.215  29.316  27.531  1.00  0.00     0.031 C 
ATOM     38  C   UNL A   1      37.358  31.756  31.512  1.00  0.00     0.029 A 
ATOM     39  N   UNL A   1      39.303  30.677  31.727  1.00  0.00    -0.354 N 
ATOM     40  C   UNL A   1      40.841  28.133  28.623  1.00  0.00     0.074 A 
ATOM     41  C   UNL A   1      40.156  28.395  27.374  1.00  0.00     0.031 C 
ATOM     42  C   UNL A   1      37.864  32.075  32.712  1.00  0.00     0.029 A 
ATOM     43  C   UNL A   1      39.095  31.323  32.924  1.00  0.00     0.049 A 
ATOM     44  H   UNL A   1      40.100  30.132  31.540  1.00  0.00     0.167 HD
ATOM     45  C   UNL A   1      41.892  27.286  28.753  1.00  0.00     0.034 A 
ATOM     46  C   UNL A   1      39.783  31.279  34.083  1.00  0.00     0.034 A 
ATOM     47  C   UNL A   1      42.657  27.133  29.962  1.00  0.00     0.049 A 
ATOM     48  C   UNL A   1      40.974  30.370  34.199  1.00  0.00     0.074 A 
ATOM     49  C   UNL A   1      43.755  26.321  30.192  1.00  0.00     0.029 A 
ATOM     50  N   UNL A   1      42.436  27.845  31.130  1.00  0.00    -0.354 N 
ATOM     51  N   UNL A   1      41.521  29.604  33.287  1.00  0.00    -0.248 NA
ATOM     52  C   UNL A   1      41.639  30.314  35.509  1.00  0.00     0.031 C 
ATOM     53  C   UNL A   1      44.206  26.554  31.497  1.00  0.00     0.029 A 
ATOM     54  C   UNL A   1      43.388  27.510  32.078  1.00  0.00     0.049 A 
ATOM     55  H   UNL A   1      41.708  28.492  31.267  1.00  0.00     0.167 HD
ATOM     56  C   UNL A   1      42.603  28.990  33.904  1.00  0.00     0.074 A 
ATOM     57  C   UNL A   1      42.651  29.492  35.262  1.00  0.00     0.031 C 
ATOM     58  C   UNL A   1      43.463  28.068  33.403  1.00  0.00     0.034 A 
BRANCH  45  59
ATOM     59  C   UNL A   1      42.291  26.471  27.550  1.00  0.00     0.023 A 
ATOM     60  C   UNL A   1      43.068  27.050  26.528  1.00  0.00     0.012 A 
ATOM     61  C   UNL A   1      41.931  25.111  27.453  1.00  0.00     0.148 A 
ATOM     62  C   UNL A   1      43.449  26.301  25.414  1.00  0.00     0.002 A 
ATOM     63  C   UNL A   1      42.351  24.359  26.360  1.00  0.00     0.091 A 
ATOM     64  F   UNL A   1      41.168  24.576  28.419  1.00  0.00    -0.205 F 
ATOM     65  C   UNL A   1      43.100  24.954  25.335  1.00  0.00     0.022 A 
BRANCH  63  66
ATOM     66  S   UNL A   1      42.006  22.599  26.239  1.00  0.00     0.127 S 
ATOM     67  O   UNL A   1      42.678  22.246  24.990  1.00  0.00    -0.237 OA
ATOM     68  O   UNL A   1      42.643  22.064  27.444  1.00  0.00    -0.237 OA
ATOM     69  O   UNL A   1      40.553  22.491  26.236  1.00  0.00    -0.744 OA
ENDBRANCH  63  66
ENDBRANCH  45  59
BRANCH  46  70
ATOM     70  C   UNL A   1      39.365  32.147  35.221  1.00  0.00     0.023 A 
ATOM     71  C   UNL A   1      38.537  31.605  36.223  1.00  0.00     0.012 A 
ATOM     72  C   UNL A   1      39.834  33.468  35.358  1.00  0.00     0.148 A 
ATOM     73  C   UNL A   1      38.181  32.363  37.338  1.00  0.00     0.002 A 
ATOM     74  C   UNL A   1      39.531  34.194  36.503  1.00  0.00     0.091 A 
ATOM     75  F   UNL A   1      40.596  33.978  34.379  1.00  0.00    -0.205 F 
ATOM     76  C   UNL A   1      38.692  33.650  37.488  1.00  0.00     0.022 A 
BRANCH  74  77
ATOM     77  S   UNL A   1      40.284  35.788  36.852  1.00  0.00     0.127 S 
ATOM     78  O   UNL A   1      39.745  36.616  35.777  1.00  0.00    -0.237 OA
ATOM     79  O   UNL A   1      39.758  36.087  38.186  1.00  0.00    -0.237 OA
ATOM     80  O   UNL A   1      41.721  35.555  36.817  1.00  0.00    -0.744 OA
ENDBRANCH  74  77
ENDBRANCH  46  70
BRANCH  58  81
ATOM     81  C   UNL A   1      44.552  27.570  34.312  1.00  0.00     0.023 A 
ATOM     82  C   UNL A   1      45.785  28.251  34.358  1.00  0.00     0.012 A 
ATOM     83  C   UNL A   1      44.339  26.465  35.159  1.00  0.00     0.148 A 
ATOM     84  C   UNL A   1      46.797  27.824  35.215  1.00  0.00     0.002 A 
ATOM     85  C   UNL A   1      45.341  26.067  36.037  1.00  0.00     0.091 A 
ATOM     86  F   UNL A   1      43.169  25.813  35.082  1.00  0.00    -0.205 F 
ATOM     87  C   UNL A   1      46.573  26.740  36.062  1.00  0.00     0.022 A 
BRANCH  85  88
ATOM     88  S   UNL A   1      45.097  24.728  37.209  1.00  0.00     0.127 S 
ATOM     89  O   UNL A   1      43.786  25.053  37.768  1.00  0.00    -0.237 OA
ATOM     90  O   UNL A   1      45.116  23.544  36.349  1.00  0.00    -0.237 OA
ATOM     91  O   UNL A   1      46.219  24.811  38.135  1.00  0.00    -0.744 OA
ENDBRANCH  85  88
ENDBRANCH  58  81
ENDBRANCH  32  33
ENDBRANCH  25  27
ENDBRANCH  24  25
ENDBRANCH  23  24
ENDBRANCH   1  23
TORSDOF 19
ENDMDL
