MODEL 1
REMARK VINA RESULT:     -10.1      0.000      0.000
REMARK SMILES NC(=S)S/C=C/C(=O)OCCOC(=O)c1ccc(-c2c3nc(c(-c4cccc(S(=O)(=O)[O-])c4F)c4ccc([nH]4)c(-c4cccc(S(=O)(=O)[O-])c4F)c4nc(c(-c5cccc(S(=O)(=O)[O-])c5F)c5ccc2[nH]5)C=C4)C=C3)cc1
REMARK SMILES IDX 10 1 9 2 7 3 8 4 6 5 5 6 4 7 2 8 3 9 1 10 11 13 12 14 13 15
REMARK SMILES IDX 14 16 15 17 16 18 77 19 17 20 76 21 18 22 19 23 20 24 70 25
REMARK SMILES IDX 21 26 75 27 69 28 71 29 22 30 74 31 68 32 67 33 23 35 55 36
REMARK SMILES IDX 35 37 54 38 36 39 39 40 53 41 72 42 37 43 38 44 52 46 73 47
REMARK SMILES IDX 40 48 24 49 25 50 33 51 26 52 28 53 34 54 27 55 29 56 30 57
REMARK SMILES IDX 31 58 32 59 56 60 57 61 65 62 58 63 60 64 66 65 59 66 61 67
REMARK SMILES IDX 62 68 63 69 64 70 41 71 42 72 50 73 43 74 45 75 51 76 44 77
REMARK SMILES IDX 46 78 47 79 48 80 49 81
REMARK H PARENT 1 11 1 12 71 34 39 45
REMARK Flexibility Score: inf
ROOT
ATOM      1  C   UNL A   1      36.191  20.782  24.670  1.00  0.00     0.275 C 
ENDROOT
BRANCH   1   2
ATOM      2  O   UNL A   1      35.604  21.668  25.645  1.00  0.00    -0.459 OA
BRANCH   2   3
ATOM      3  C   UNL A   1      34.361  21.338  26.070  1.00  0.00     0.331 C 
ATOM      4  O   UNL A   1      33.763  21.847  27.007  1.00  0.00    -0.247 OA
BRANCH   3   5
ATOM      5  C   UNL A   1      33.782  20.204  25.320  1.00  0.00     0.101 C 
ATOM      6  C   UNL A   1      32.784  20.302  24.432  1.00  0.00     0.056 C 
BRANCH   6   7
ATOM      7  S   UNL A   1      32.222  18.957  23.492  1.00  0.00    -0.069 SA
BRANCH   7   8
ATOM      8  C   UNL A   1      32.933  17.507  24.152  1.00  0.00     0.135 C 
ATOM      9  S   UNL A   1      34.460  16.890  24.016  1.00  0.00    -0.053 S 
BRANCH   8  10
ATOM     10  N   UNL A   1      32.009  16.811  24.869  1.00  0.00    -0.384 N 
ATOM     11  H   UNL A   1      31.357  17.291  25.430  1.00  0.00     0.158 HD
ATOM     12  H   UNL A   1      31.993  15.827  24.828  1.00  0.00     0.158 HD
ENDBRANCH   8  10
ENDBRANCH   7   8
ENDBRANCH   6   7
ENDBRANCH   3   5
ENDBRANCH   2   3
ENDBRANCH   1   2
BRANCH   1  13
ATOM     13  C   UNL A   1      37.649  20.449  24.999  1.00  0.00     0.275 C 
BRANCH  13  14
ATOM     14  O   UNL A   1      38.409  21.622  25.334  1.00  0.00    -0.458 OA
BRANCH  14  15
ATOM     15  C   UNL A   1      39.461  21.387  26.152  1.00  0.00     0.338 C 
ATOM     16  O   UNL A   1      40.097  20.348  26.242  1.00  0.00    -0.246 OA
BRANCH  15  17
ATOM     17  C   UNL A   1      39.850  22.615  26.864  1.00  0.00     0.060 A 
ATOM     18  C   UNL A   1      39.224  23.795  26.468  1.00  0.00     0.016 A 
ATOM     19  C   UNL A   1      40.892  22.646  27.793  1.00  0.00     0.016 A 
ATOM     20  C   UNL A   1      39.677  25.022  26.942  1.00  0.00     0.010 A 
ATOM     21  C   UNL A   1      41.334  23.883  28.285  1.00  0.00     0.010 A 
ATOM     22  C   UNL A   1      40.757  25.083  27.832  1.00  0.00    -0.014 A 
BRANCH  22  23
ATOM     23  C   UNL A   1      41.321  26.411  28.189  1.00  0.00     0.031 A 
ATOM     24  C   UNL A   1      42.740  26.751  27.811  1.00  0.00     0.074 A 
ATOM     25  C   UNL A   1      40.550  27.337  28.792  1.00  0.00     0.049 A 
ATOM     26  N   UNL A   1      43.415  27.851  28.032  1.00  0.00    -0.248 NA
ATOM     27  C   UNL A   1      43.501  25.718  27.090  1.00  0.00     0.031 C 
ATOM     28  C   UNL A   1      39.158  27.142  29.198  1.00  0.00     0.029 A 
ATOM     29  N   UNL A   1      40.831  28.628  29.170  1.00  0.00    -0.354 N 
ATOM     30  C   UNL A   1      44.683  27.634  27.503  1.00  0.00     0.074 A 
ATOM     31  C   UNL A   1      44.691  26.290  26.967  1.00  0.00     0.031 C 
ATOM     32  C   UNL A   1      38.709  28.269  29.775  1.00  0.00     0.029 A 
ATOM     33  C   UNL A   1      39.785  29.256  29.804  1.00  0.00     0.049 A 
ATOM     34  H   UNL A   1      41.699  29.062  29.003  1.00  0.00     0.167 HD
ATOM     35  C   UNL A   1      45.737  28.483  27.446  1.00  0.00     0.034 A 
ATOM     36  C   UNL A   1      39.704  30.485  30.353  1.00  0.00     0.034 A 
ATOM     37  C   UNL A   1      45.720  29.834  27.940  1.00  0.00     0.049 A 
ATOM     38  C   UNL A   1      40.886  31.412  30.256  1.00  0.00     0.074 A 
ATOM     39  C   UNL A   1      46.745  30.765  27.939  1.00  0.00     0.029 A 
ATOM     40  N   UNL A   1      44.619  30.455  28.508  1.00  0.00    -0.354 N 
ATOM     41  N   UNL A   1      42.053  31.210  29.693  1.00  0.00    -0.248 NA
ATOM     42  C   UNL A   1      40.727  32.756  30.833  1.00  0.00     0.031 C 
ATOM     43  C   UNL A   1      46.261  31.951  28.502  1.00  0.00     0.029 A 
ATOM     44  C   UNL A   1      44.932  31.763  28.842  1.00  0.00     0.049 A 
ATOM     45  H   UNL A   1      43.743  30.029  28.653  1.00  0.00     0.167 HD
ATOM     46  C   UNL A   1      42.749  32.407  29.817  1.00  0.00     0.074 A 
ATOM     47  C   UNL A   1      41.864  33.338  30.483  1.00  0.00     0.031 C 
ATOM     48  C   UNL A   1      44.017  32.702  29.436  1.00  0.00     0.034 A 
BRANCH  35  49
ATOM     49  C   UNL A   1      46.993  27.992  26.773  1.00  0.00     0.023 A 
ATOM     50  C   UNL A   1      48.015  27.418  27.556  1.00  0.00     0.012 A 
ATOM     51  C   UNL A   1      47.136  28.036  25.372  1.00  0.00     0.148 A 
ATOM     52  C   UNL A   1      49.172  26.920  26.959  1.00  0.00     0.002 A 
ATOM     53  C   UNL A   1      48.276  27.502  24.781  1.00  0.00     0.091 A 
ATOM     54  F   UNL A   1      46.161  28.602  24.647  1.00  0.00    -0.205 F 
ATOM     55  C   UNL A   1      49.298  26.952  25.573  1.00  0.00     0.022 A 
BRANCH  53  56
ATOM     56  S   UNL A   1      48.503  27.431  23.000  1.00  0.00     0.127 S 
ATOM     57  O   UNL A   1      49.859  27.961  22.854  1.00  0.00    -0.237 OA
ATOM     58  O   UNL A   1      48.377  25.999  22.729  1.00  0.00    -0.237 OA
ATOM     59  O   UNL A   1      47.447  28.253  22.426  1.00  0.00    -0.744 OA
ENDBRANCH  53  56
ENDBRANCH  35  49
BRANCH  36  60
ATOM     60  C   UNL A   1      38.441  30.929  31.007  1.00  0.00     0.023 A 
ATOM     61  C   UNL A   1      38.251  30.705  32.385  1.00  0.00     0.012 A 
ATOM     62  C   UNL A   1      37.427  31.575  30.273  1.00  0.00     0.148 A 
ATOM     63  C   UNL A   1      37.061  31.082  33.010  1.00  0.00     0.002 A 
ATOM     64  C   UNL A   1      36.268  31.999  30.913  1.00  0.00     0.091 A 
ATOM     65  F   UNL A   1      37.610  31.759  28.957  1.00  0.00    -0.205 F 
ATOM     66  C   UNL A   1      36.075  31.737  32.277  1.00  0.00     0.022 A 
BRANCH  64  67
ATOM     67  S   UNL A   1      35.018  32.966  30.061  1.00  0.00     0.127 S 
ATOM     68  O   UNL A   1      34.480  31.995  29.112  1.00  0.00    -0.237 OA
ATOM     69  O   UNL A   1      34.110  33.330  31.149  1.00  0.00    -0.237 OA
ATOM     70  O   UNL A   1      35.737  34.095  29.484  1.00  0.00    -0.744 OA
ENDBRANCH  64  67
ENDBRANCH  36  60
BRANCH  48  71
ATOM     71  C   UNL A   1      44.512  34.102  29.684  1.00  0.00     0.023 A 
ATOM     72  C   UNL A   1      45.092  34.429  30.927  1.00  0.00     0.012 A 
ATOM     73  C   UNL A   1      44.452  35.081  28.672  1.00  0.00     0.148 A 
ATOM     74  C   UNL A   1      45.570  35.716  31.170  1.00  0.00     0.002 A 
ATOM     75  C   UNL A   1      44.970  36.350  28.908  1.00  0.00     0.091 A 
ATOM     76  F   UNL A   1      43.877  34.762  27.503  1.00  0.00    -0.205 F 
ATOM     77  C   UNL A   1      45.517  36.673  30.159  1.00  0.00     0.022 A 
BRANCH  75  78
ATOM     78  S   UNL A   1      45.018  37.607  27.625  1.00  0.00     0.127 S 
ATOM     79  O   UNL A   1      43.600  37.764  27.304  1.00  0.00    -0.237 OA
ATOM     80  O   UNL A   1      45.614  38.749  28.321  1.00  0.00    -0.237 OA
ATOM     81  O   UNL A   1      45.851  37.054  26.566  1.00  0.00    -0.744 OA
ENDBRANCH  75  78
ENDBRANCH  48  71
ENDBRANCH  22  23
ENDBRANCH  15  17
ENDBRANCH  14  15
ENDBRANCH  13  14
ENDBRANCH   1  13
TORSDOF 17
ENDMDL
MODEL 2
REMARK VINA RESULT:      -9.6      5.841     10.890
REMARK SMILES NC(=S)S/C=C/C(=O)OCCOC(=O)c1ccc(-c2c3nc(c(-c4cccc(S(=O)(=O)[O-])c4F)c4ccc([nH]4)c(-c4cccc(S(=O)(=O)[O-])c4F)c4nc(c(-c5cccc(S(=O)(=O)[O-])c5F)c5ccc2[nH]5)C=C4)C=C3)cc1
REMARK SMILES IDX 10 1 9 2 7 3 8 4 6 5 5 6 4 7 2 8 3 9 1 10 11 13 12 14 13 15
REMARK SMILES IDX 14 16 15 17 16 18 77 19 17 20 76 21 18 22 19 23 20 24 70 25
REMARK SMILES IDX 21 26 75 27 69 28 71 29 22 30 74 31 68 32 67 33 23 35 55 36
REMARK SMILES IDX 35 37 54 38 36 39 39 40 53 41 72 42 37 43 38 44 52 46 73 47
REMARK SMILES IDX 40 48 24 49 25 50 33 51 26 52 28 53 34 54 27 55 29 56 30 57
REMARK SMILES IDX 31 58 32 59 56 60 57 61 65 62 58 63 60 64 66 65 59 66 61 67
REMARK SMILES IDX 62 68 63 69 64 70 41 71 42 72 50 73 43 74 45 75 51 76 44 77
REMARK SMILES IDX 46 78 47 79 48 80 49 81
REMARK H PARENT 1 11 1 12 71 34 39 45
REMARK Flexibility Score: inf
ROOT
ATOM      1  C   UNL A   1      31.726  29.533  25.546  1.00  0.00     0.275 C 
ENDROOT
BRANCH   1   2
ATOM      2  O   UNL A   1      31.816  29.103  24.173  1.00  0.00    -0.459 OA
BRANCH   2   3
ATOM      3  C   UNL A   1      30.692  28.559  23.649  1.00  0.00     0.331 C 
ATOM      4  O   UNL A   1      29.630  29.138  23.468  1.00  0.00    -0.247 OA
BRANCH   3   5
ATOM      5  C   UNL A   1      30.833  27.116  23.366  1.00  0.00     0.101 C 
ATOM      6  C   UNL A   1      31.838  26.344  23.803  1.00  0.00     0.056 C 
BRANCH   6   7
ATOM      7  S   UNL A   1      31.894  24.631  23.540  1.00  0.00    -0.069 SA
BRANCH   7   8
ATOM      8  C   UNL A   1      31.225  23.849  24.949  1.00  0.00     0.135 C 
ATOM      9  S   UNL A   1      31.794  22.597  25.867  1.00  0.00    -0.053 S 
BRANCH   8  10
ATOM     10  N   UNL A   1      30.026  24.405  25.275  1.00  0.00    -0.384 N 
ATOM     11  H   UNL A   1      29.614  24.208  26.147  1.00  0.00     0.158 HD
ATOM     12  H   UNL A   1      29.571  25.003  24.639  1.00  0.00     0.158 HD
ENDBRANCH   8  10
ENDBRANCH   7   8
ENDBRANCH   6   7
ENDBRANCH   3   5
ENDBRANCH   2   3
ENDBRANCH   1   2
BRANCH   1  13
ATOM     13  C   UNL A   1      32.906  30.422  25.951  1.00  0.00     0.275 C 
BRANCH  13  14
ATOM     14  O   UNL A   1      32.793  30.884  27.308  1.00  0.00    -0.458 OA
BRANCH  14  15
ATOM     15  C   UNL A   1      33.593  31.934  27.604  1.00  0.00     0.338 C 
ATOM     16  O   UNL A   1      33.256  33.106  27.691  1.00  0.00    -0.246 OA
BRANCH  15  17
ATOM     17  C   UNL A   1      34.948  31.475  27.947  1.00  0.00     0.060 A 
ATOM     18  C   UNL A   1      35.086  30.133  28.297  1.00  0.00     0.016 A 
ATOM     19  C   UNL A   1      36.031  32.349  28.061  1.00  0.00     0.016 A 
ATOM     20  C   UNL A   1      36.284  29.667  28.829  1.00  0.00     0.010 A 
ATOM     21  C   UNL A   1      37.244  31.872  28.579  1.00  0.00     0.010 A 
ATOM     22  C   UNL A   1      37.367  30.538  29.005  1.00  0.00    -0.014 A 
BRANCH  22  23
ATOM     23  C   UNL A   1      38.572  30.050  29.727  1.00  0.00     0.031 A 
ATOM     24  C   UNL A   1      38.871  30.554  31.116  1.00  0.00     0.074 A 
ATOM     25  C   UNL A   1      39.363  29.112  29.172  1.00  0.00     0.049 A 
ATOM     26  N   UNL A   1      39.869  30.253  31.909  1.00  0.00    -0.248 NA
ATOM     27  C   UNL A   1      37.924  31.524  31.689  1.00  0.00     0.031 C 
ATOM     28  C   UNL A   1      39.178  28.530  27.843  1.00  0.00     0.029 A 
ATOM     29  N   UNL A   1      40.485  28.484  29.658  1.00  0.00    -0.354 N 
ATOM     30  C   UNL A   1      39.686  31.013  33.059  1.00  0.00     0.074 A 
ATOM     31  C   UNL A   1      38.492  31.804  32.854  1.00  0.00     0.031 C 
ATOM     32  C   UNL A   1      40.156  27.637  27.615  1.00  0.00     0.029 A 
ATOM     33  C   UNL A   1      41.050  27.600  28.769  1.00  0.00     0.049 A 
ATOM     34  H   UNL A   1      40.849  28.651  30.557  1.00  0.00     0.167 HD
ATOM     35  C   UNL A   1      40.427  31.034  34.192  1.00  0.00     0.034 A 
ATOM     36  C   UNL A   1      42.166  26.851  28.869  1.00  0.00     0.034 A 
ATOM     37  C   UNL A   1      41.591  30.218  34.416  1.00  0.00     0.049 A 
ATOM     38  C   UNL A   1      42.959  26.881  30.148  1.00  0.00     0.074 A 
ATOM     39  C   UNL A   1      42.417  30.180  35.527  1.00  0.00     0.029 A 
ATOM     40  N   UNL A   1      42.086  29.284  33.521  1.00  0.00    -0.354 N 
ATOM     41  N   UNL A   1      42.731  27.557  31.249  1.00  0.00    -0.248 NA
ATOM     42  C   UNL A   1      44.143  26.010  30.218  1.00  0.00     0.031 C 
ATOM     43  C   UNL A   1      43.408  29.218  35.305  1.00  0.00     0.029 A 
ATOM     44  C   UNL A   1      43.194  28.649  34.061  1.00  0.00     0.049 A 
ATOM     45  H   UNL A   1      41.708  29.098  32.631  1.00  0.00     0.167 HD
ATOM     46  C   UNL A   1      43.718  27.168  32.148  1.00  0.00     0.074 A 
ATOM     47  C   UNL A   1      44.529  26.176  31.475  1.00  0.00     0.031 C 
ATOM     48  C   UNL A   1      43.946  27.610  33.410  1.00  0.00     0.034 A 
BRANCH  35  49
ATOM     49  C   UNL A   1      39.970  31.935  35.309  1.00  0.00     0.023 A 
ATOM     50  C   UNL A   1      40.386  33.282  35.323  1.00  0.00     0.012 A 
ATOM     51  C   UNL A   1      39.084  31.474  36.304  1.00  0.00     0.148 A 
ATOM     52  C   UNL A   1      39.949  34.150  36.322  1.00  0.00     0.002 A 
ATOM     53  C   UNL A   1      38.623  32.357  37.275  1.00  0.00     0.091 A 
ATOM     54  F   UNL A   1      38.716  30.186  36.285  1.00  0.00    -0.205 F 
ATOM     55  C   UNL A   1      39.060  33.691  37.290  1.00  0.00     0.022 A 
BRANCH  53  56
ATOM     56  S   UNL A   1      37.422  31.883  38.524  1.00  0.00     0.127 S 
ATOM     57  O   UNL A   1      38.191  32.062  39.756  1.00  0.00    -0.237 OA
ATOM     58  O   UNL A   1      36.359  32.868  38.321  1.00  0.00    -0.237 OA
ATOM     59  O   UNL A   1      37.044  30.510  38.220  1.00  0.00    -0.744 OA
ENDBRANCH  53  56
ENDBRANCH  35  49
BRANCH  36  60
ATOM     60  C   UNL A   1      42.580  25.972  27.738  1.00  0.00     0.023 A 
ATOM     61  C   UNL A   1      43.498  26.449  26.782  1.00  0.00     0.012 A 
ATOM     62  C   UNL A   1      42.072  24.665  27.607  1.00  0.00     0.148 A 
ATOM     63  C   UNL A   1      43.871  25.656  25.697  1.00  0.00     0.002 A 
ATOM     64  C   UNL A   1      42.492  23.860  26.555  1.00  0.00     0.091 A 
ATOM     65  F   UNL A   1      41.180  24.233  28.510  1.00  0.00    -0.205 F 
ATOM     66  C   UNL A   1      43.377  24.358  25.588  1.00  0.00     0.022 A 
BRANCH  64  67
ATOM     67  S   UNL A   1      42.000  22.137  26.430  1.00  0.00     0.127 S 
ATOM     68  O   UNL A   1      42.419  21.610  27.726  1.00  0.00    -0.237 OA
ATOM     69  O   UNL A   1      40.552  22.238  26.246  1.00  0.00    -0.237 OA
ATOM     70  O   UNL A   1      42.713  21.620  25.268  1.00  0.00    -0.744 OA
ENDBRANCH  64  67
ENDBRANCH  36  60
BRANCH  48  71
ATOM     71  C   UNL A   1      45.092  26.992  34.167  1.00  0.00     0.023 A 
ATOM     72  C   UNL A   1      46.377  27.563  34.079  1.00  0.00     0.012 A 
ATOM     73  C   UNL A   1      44.886  25.880  35.008  1.00  0.00     0.148 A 
ATOM     74  C   UNL A   1      47.447  27.014  34.785  1.00  0.00     0.002 A 
ATOM     75  C   UNL A   1      45.949  25.366  35.743  1.00  0.00     0.091 A 
ATOM     76  F   UNL A   1      43.663  25.334  35.065  1.00  0.00    -0.205 F 
ATOM     77  C   UNL A   1      47.232  25.923  35.623  1.00  0.00     0.022 A 
BRANCH  75  78
ATOM     78  S   UNL A   1      45.729  24.017  36.910  1.00  0.00     0.127 S 
ATOM     79  O   UNL A   1      47.087  23.840  37.423  1.00  0.00    -0.237 OA
ATOM     80  O   UNL A   1      44.784  24.583  37.875  1.00  0.00    -0.237 OA
ATOM     81  O   UNL A   1      45.195  22.909  36.131  1.00  0.00    -0.744 OA
ENDBRANCH  75  78
ENDBRANCH  48  71
ENDBRANCH  22  23
ENDBRANCH  15  17
ENDBRANCH  14  15
ENDBRANCH  13  14
ENDBRANCH   1  13
TORSDOF 17
ENDMDL
MODEL 3
REMARK VINA RESULT:      -9.6      2.802      3.340
REMARK SMILES NC(=S)S/C=C/C(=O)OCCOC(=O)c1ccc(-c2c3nc(c(-c4cccc(S(=O)(=O)[O-])c4F)c4ccc([nH]4)c(-c4cccc(S(=O)(=O)[O-])c4F)c4nc(c(-c5cccc(S(=O)(=O)[O-])c5F)c5ccc2[nH]5)C=C4)C=C3)cc1
REMARK SMILES IDX 10 1 9 2 7 3 8 4 6 5 5 6 4 7 2 8 3 9 1 10 11 13 12 14 13 15
REMARK SMILES IDX 14 16 15 17 16 18 77 19 17 20 76 21 18 22 19 23 20 24 70 25
REMARK SMILES IDX 21 26 75 27 69 28 71 29 22 30 74 31 68 32 67 33 23 35 55 36
REMARK SMILES IDX 35 37 54 38 36 39 39 40 53 41 72 42 37 43 38 44 52 46 73 47
REMARK SMILES IDX 40 48 24 49 25 50 33 51 26 52 28 53 34 54 27 55 29 56 30 57
REMARK SMILES IDX 31 58 32 59 56 60 57 61 65 62 58 63 60 64 66 65 59 66 61 67
REMARK SMILES IDX 62 68 63 69 64 70 41 71 42 72 50 73 43 74 45 75 51 76 44 77
REMARK SMILES IDX 46 78 47 79 48 80 49 81
REMARK H PARENT 1 11 1 12 71 34 39 45
REMARK Flexibility Score: inf
ROOT
ATOM      1  C   UNL A   1      35.289  21.879  25.426  1.00  0.00     0.275 C 
ENDROOT
BRANCH   1   2
ATOM      2  O   UNL A   1      34.712  22.173  24.138  1.00  0.00    -0.459 OA
BRANCH   2   3
ATOM      3  C   UNL A   1      34.384  23.468  23.918  1.00  0.00     0.331 C 
ATOM      4  O   UNL A   1      34.753  24.153  22.975  1.00  0.00    -0.247 OA
BRANCH   3   5
ATOM      5  C   UNL A   1      33.560  24.041  25.002  1.00  0.00     0.101 C 
ATOM      6  C   UNL A   1      32.656  25.017  24.844  1.00  0.00     0.056 C 
BRANCH   6   7
ATOM      7  S   UNL A   1      31.632  25.571  26.130  1.00  0.00    -0.069 SA
BRANCH   7   8
ATOM      8  C   UNL A   1      32.218  27.130  26.649  1.00  0.00     0.135 C 
ATOM      9  S   UNL A   1      33.541  28.002  26.179  1.00  0.00    -0.053 S 
BRANCH   8  10
ATOM     10  N   UNL A   1      31.410  27.641  27.618  1.00  0.00    -0.384 N 
ATOM     11  H   UNL A   1      31.742  28.354  28.210  1.00  0.00     0.158 HD
ATOM     12  H   UNL A   1      30.494  27.297  27.726  1.00  0.00     0.158 HD
ENDBRANCH   8  10
ENDBRANCH   7   8
ENDBRANCH   6   7
ENDBRANCH   3   5
ENDBRANCH   2   3
ENDBRANCH   1   2
BRANCH   1  13
ATOM     13  C   UNL A   1      36.490  20.935  25.319  1.00  0.00     0.275 C 
BRANCH  13  14
ATOM     14  O   UNL A   1      37.701  21.638  24.991  1.00  0.00    -0.458 OA
BRANCH  14  15
ATOM     15  C   UNL A   1      38.761  21.306  25.763  1.00  0.00     0.338 C 
ATOM     16  O   UNL A   1      39.328  20.223  25.798  1.00  0.00    -0.246 OA
BRANCH  15  17
ATOM     17  C   UNL A   1      39.258  22.479  26.498  1.00  0.00     0.060 A 
ATOM     18  C   UNL A   1      38.686  23.709  26.177  1.00  0.00     0.016 A 
ATOM     19  C   UNL A   1      40.342  22.414  27.375  1.00  0.00     0.016 A 
ATOM     20  C   UNL A   1      39.234  24.888  26.672  1.00  0.00     0.010 A 
ATOM     21  C   UNL A   1      40.882  23.603  27.888  1.00  0.00     0.010 A 
ATOM     22  C   UNL A   1      40.357  24.851  27.508  1.00  0.00    -0.014 A 
BRANCH  22  23
ATOM     23  C   UNL A   1      41.017  26.129  27.884  1.00  0.00     0.031 A 
ATOM     24  C   UNL A   1      42.434  26.400  27.447  1.00  0.00     0.074 A 
ATOM     25  C   UNL A   1      40.333  27.074  28.558  1.00  0.00     0.049 A 
ATOM     26  N   UNL A   1      43.184  27.449  27.673  1.00  0.00    -0.248 NA
ATOM     27  C   UNL A   1      43.096  25.353  26.652  1.00  0.00     0.031 C 
ATOM     28  C   UNL A   1      38.954  26.945  29.027  1.00  0.00     0.029 A 
ATOM     29  N   UNL A   1      40.710  28.330  28.968  1.00  0.00    -0.354 N 
ATOM     30  C   UNL A   1      44.409  27.179  27.074  1.00  0.00     0.074 A 
ATOM     31  C   UNL A   1      44.310  25.859  26.490  1.00  0.00     0.031 C 
ATOM     32  C   UNL A   1      38.601  28.073  29.667  1.00  0.00     0.029 A 
ATOM     33  C   UNL A   1      39.735  28.993  29.677  1.00  0.00     0.049 A 
ATOM     34  H   UNL A   1      41.593  28.719  28.773  1.00  0.00     0.167 HD
ATOM     35  C   UNL A   1      45.509  27.966  26.994  1.00  0.00     0.034 A 
ATOM     36  C   UNL A   1      39.755  30.202  30.273  1.00  0.00     0.034 A 
ATOM     37  C   UNL A   1      45.597  29.296  27.537  1.00  0.00     0.049 A 
ATOM     38  C   UNL A   1      40.985  31.061  30.151  1.00  0.00     0.074 A 
ATOM     39  C   UNL A   1      46.675  30.165  27.518  1.00  0.00     0.029 A 
ATOM     40  N   UNL A   1      44.565  29.957  28.182  1.00  0.00    -0.354 N 
ATOM     41  N   UNL A   1      42.109  30.814  29.522  1.00  0.00    -0.248 NA
ATOM     42  C   UNL A   1      40.935  32.389  30.784  1.00  0.00     0.031 C 
ATOM     43  C   UNL A   1      46.291  31.354  28.147  1.00  0.00     0.029 A 
ATOM     44  C   UNL A   1      44.971  31.230  28.547  1.00  0.00     0.049 A 
ATOM     45  H   UNL A   1      43.672  29.578  28.355  1.00  0.00     0.167 HD
ATOM     46  C   UNL A   1      42.881  31.963  29.654  1.00  0.00     0.074 A 
ATOM     47  C   UNL A   1      42.087  32.917  30.397  1.00  0.00     0.031 C 
ATOM     48  C   UNL A   1      44.145  32.198  29.220  1.00  0.00     0.034 A 
BRANCH  35  49
ATOM     49  C   UNL A   1      46.698  27.430  26.241  1.00  0.00     0.023 A 
ATOM     50  C   UNL A   1      46.800  27.664  24.855  1.00  0.00     0.012 A 
ATOM     51  C   UNL A   1      47.740  26.755  26.907  1.00  0.00     0.148 A 
ATOM     52  C   UNL A   1      47.907  27.214  24.138  1.00  0.00     0.002 A 
ATOM     53  C   UNL A   1      48.860  26.342  26.191  1.00  0.00     0.091 A 
ATOM     54  F   UNL A   1      47.617  26.525  28.222  1.00  0.00    -0.205 F 
ATOM     55  C   UNL A   1      48.940  26.563  24.806  1.00  0.00     0.022 A 
BRANCH  53  56
ATOM     56  S   UNL A   1      50.276  25.558  26.971  1.00  0.00     0.127 S 
ATOM     57  O   UNL A   1      50.653  26.557  27.971  1.00  0.00    -0.237 OA
ATOM     58  O   UNL A   1      49.689  24.337  27.522  1.00  0.00    -0.237 OA
ATOM     59  O   UNL A   1      51.250  25.339  25.910  1.00  0.00    -0.744 OA
ENDBRANCH  53  56
ENDBRANCH  35  49
BRANCH  36  60
ATOM     60  C   UNL A   1      38.554  30.693  31.006  1.00  0.00     0.023 A 
ATOM     61  C   UNL A   1      38.458  30.501  32.399  1.00  0.00     0.012 A 
ATOM     62  C   UNL A   1      37.508  31.353  30.333  1.00  0.00     0.148 A 
ATOM     63  C   UNL A   1      37.327  30.922  33.099  1.00  0.00     0.002 A 
ATOM     64  C   UNL A   1      36.409  31.820  31.045  1.00  0.00     0.091 A 
ATOM     65  F   UNL A   1      37.600  31.506  29.004  1.00  0.00    -0.205 F 
ATOM     66  C   UNL A   1      36.307  31.590  32.425  1.00  0.00     0.022 A 
BRANCH  64  67
ATOM     67  S   UNL A   1      35.126  32.805  30.264  1.00  0.00     0.127 S 
ATOM     68  O   UNL A   1      34.605  31.880  29.261  1.00  0.00    -0.237 OA
ATOM     69  O   UNL A   1      34.219  33.077  31.379  1.00  0.00    -0.237 OA
ATOM     70  O   UNL A   1      35.811  33.986  29.752  1.00  0.00    -0.744 OA
ENDBRANCH  64  67
ENDBRANCH  36  60
BRANCH  48  71
ATOM     71  C   UNL A   1      44.734  33.556  29.494  1.00  0.00     0.023 A 
ATOM     72  C   UNL A   1      44.579  34.589  28.548  1.00  0.00     0.012 A 
ATOM     73  C   UNL A   1      45.394  33.826  30.709  1.00  0.00     0.148 A 
ATOM     74  C   UNL A   1      45.104  35.858  28.792  1.00  0.00     0.002 A 
ATOM     75  C   UNL A   1      45.877  35.105  30.962  1.00  0.00     0.091 A 
ATOM     76  F   UNL A   1      45.554  32.827  31.590  1.00  0.00    -0.205 F 
ATOM     77  C   UNL A   1      45.744  36.119  30.001  1.00  0.00     0.022 A 
BRANCH  75  78
ATOM     78  S   UNL A   1      46.634  35.539  32.534  1.00  0.00     0.127 S 
ATOM     79  O   UNL A   1      45.560  35.236  33.478  1.00  0.00    -0.237 OA
ATOM     80  O   UNL A   1      47.776  34.626  32.599  1.00  0.00    -0.237 OA
ATOM     81  O   UNL A   1      47.000  36.944  32.417  1.00  0.00    -0.744 OA
ENDBRANCH  75  78
ENDBRANCH  48  71
ENDBRANCH  22  23
ENDBRANCH  15  17
ENDBRANCH  14  15
ENDBRANCH  13  14
ENDBRANCH   1  13
TORSDOF 17
ENDMDL
