MODEL 1
REMARK VINA RESULT:     -13.5      0.000      0.000
REMARK SMILES Cc1ccc(S(=O)(=O)N2CCCC2)cc1C(=O)N[C@H](CC1=c2ccccc2=NC1)C(=O)OCCOC(=O)c1ccc(-c2c3nc(c(-c4cccc(S(=O)(=O)[O-])c4F)c4ccc([nH]4)c(-c4cccc(S(=O)(=O)[O-])c4F)c4nc(c(-c5cccc(S(=O)(=O)[O-])c5F)c5ccc2[nH]5)C=C4)C=C3)cc1
REMARK SMILES IDX 33 1 32 2 30 3 31 4 19 5 18 6 16 7 17 8 15 10 1 11 2 12 3 13
REMARK SMILES IDX 4 14 14 15 5 16 6 17 7 18 8 19 9 20 10 21 13 22 11 23 12 24
REMARK SMILES IDX 20 25 21 26 22 27 29 28 23 29 27 30 28 31 24 32 26 33 25 34
REMARK SMILES IDX 34 35 35 36 36 37 37 38 38 39 39 40 100 41 40 42 99 43 41 44
REMARK SMILES IDX 42 45 43 46 93 47 44 48 98 49 92 50 94 51 45 52 97 53 91 54
REMARK SMILES IDX 90 55 46 57 78 58 58 59 77 60 59 61 62 62 76 63 95 64 60 65
REMARK SMILES IDX 61 66 75 68 96 69 63 70 47 71 48 72 56 73 49 74 51 75 57 76
REMARK SMILES IDX 50 77 52 78 53 79 54 80 55 81 79 82 80 83 88 84 81 85 83 86
REMARK SMILES IDX 89 87 82 88 84 89 85 90 86 91 87 92 64 93 65 94 73 95 66 96
REMARK SMILES IDX 68 97 74 98 67 99 69 100 70 101 71 102 72 103
REMARK H PARENT 18 9 94 56 62 67
REMARK Flexibility Score: inf
ROOT
ATOM      1  C   UNL A   1      38.971  22.155  26.173  1.00  0.00     0.274 C 
ENDROOT
BRANCH   1   2
ATOM      2  O   UNL A   1      37.218  22.917  25.537  1.00  0.00    -0.461 OA
BRANCH   2   3
ATOM      3  C   UNL A   1      35.966  23.337  25.092  1.00  0.00     0.329 C 
ATOM      4  O   UNL A   1      35.979  24.174  24.182  1.00  0.00    -0.250 OA
BRANCH   3   5
ATOM      5  C   UNL A   1      34.556  22.727  25.560  1.00  0.00     0.196 C 
BRANCH   5   6
ATOM      6  N   UNL A   1      33.261  23.289  26.209  1.00  0.00    -0.338 N 
ATOM      7  C   UNL A   1      32.335  24.284  26.408  1.00  0.00     0.252 C 
ATOM      8  O   UNL A   1      31.584  24.074  27.372  1.00  0.00    -0.269 OA
ATOM      9  H   UNL A   1      32.935  22.546  26.767  1.00  0.00     0.164 HD
BRANCH   7  10
ATOM     10  C   UNL A   1      31.998  25.533  25.632  1.00  0.00     0.044 A 
ATOM     11  C   UNL A   1      32.574  24.695  23.337  1.00  0.00     0.045 C 
ATOM     12  C   UNL A   1      31.921  25.664  24.245  1.00  0.00    -0.038 A 
ATOM     13  C   UNL A   1      31.422  26.838  23.649  1.00  0.00     0.005 A 
ATOM     14  C   UNL A   1      31.232  27.981  24.401  1.00  0.00     0.022 A 
ATOM     15  C   UNL A   1      31.861  26.739  26.380  1.00  0.00     0.035 A 
ATOM     16  C   UNL A   1      31.570  27.962  25.752  1.00  0.00     0.083 A 
BRANCH  16  17
ATOM     17  S   UNL A   1      31.874  29.573  26.462  1.00  0.00     0.243 S 
ATOM     18  O   UNL A   1      31.375  30.521  25.484  1.00  0.00    -0.207 OA
ATOM     19  O   UNL A   1      31.303  29.533  27.795  1.00  0.00    -0.207 OA
BRANCH  17  20
ATOM     20  N   UNL A   1      33.501  29.806  26.625  1.00  0.00    -0.198 NA
ATOM     21  C   UNL A   1      34.475  28.705  26.566  1.00  0.00     0.102 C 
ATOM     22  C   UNL A   1      34.034  30.931  27.408  1.00  0.00     0.102 C 
ATOM     23  C   UNL A   1      35.534  29.093  27.586  1.00  0.00     0.018 C 
ATOM     24  C   UNL A   1      35.512  30.609  27.537  1.00  0.00     0.018 C 
ENDBRANCH  17  20
ENDBRANCH  16  17
ENDBRANCH   7  10
ENDBRANCH   5   6
BRANCH   5  25
ATOM     25  C   UNL A   1      34.637  21.146  25.728  1.00  0.00     0.070 C 
BRANCH  25  26
ATOM     26  C   UNL A   1      33.911  20.258  24.741  1.00  0.00    -0.037 C 
ATOM     27  C   UNL A   1      34.187  18.990  24.441  1.00  0.00     0.001 A 
ATOM     28  C   UNL A   1      32.719  20.686  23.943  1.00  0.00     0.174 C 
ATOM     29  C   UNL A   1      35.195  18.062  24.817  1.00  0.00     0.010 A 
ATOM     30  C   UNL A   1      33.026  18.566  23.648  1.00  0.00     0.065 A 
ATOM     31  N   UNL A   1      32.213  19.489  23.235  1.00  0.00    -0.280 NA
ATOM     32  C   UNL A   1      35.002  16.755  24.582  1.00  0.00     0.001 A 
ATOM     33  C   UNL A   1      32.855  17.112  23.454  1.00  0.00     0.028 A 
ATOM     34  C   UNL A   1      33.788  16.278  23.945  1.00  0.00     0.002 A 
ENDBRANCH  25  26
ENDBRANCH   5  25
ENDBRANCH   3   5
ENDBRANCH   2   3
ENDBRANCH   1   2
BRANCH   1  35
ATOM     35  C   UNL A   1      39.590  20.669  25.793  1.00  0.00     0.275 C 
BRANCH  35  36
ATOM     36  O   UNL A   1      40.577  20.027  26.629  1.00  0.00    -0.458 OA
BRANCH  36  37
ATOM     37  C   UNL A   1      41.808  19.818  26.108  1.00  0.00     0.338 C 
ATOM     38  O   UNL A   1      42.267  18.759  25.739  1.00  0.00    -0.246 OA
BRANCH  37  39
ATOM     39  C   UNL A   1      42.541  21.010  26.445  1.00  0.00     0.060 A 
ATOM     40  C   UNL A   1      42.885  22.279  25.190  1.00  0.00     0.016 A 
ATOM     41  C   UNL A   1      42.104  21.478  28.107  1.00  0.00     0.016 A 
ATOM     42  C   UNL A   1      42.868  24.037  25.663  1.00  0.00     0.010 A 
ATOM     43  C   UNL A   1      42.080  23.190  28.559  1.00  0.00     0.010 A 
ATOM     44  C   UNL A   1      42.482  24.504  27.375  1.00  0.00    -0.014 A 
BRANCH  44  45
ATOM     45  C   UNL A   1      42.382  25.878  27.933  1.00  0.00     0.031 A 
ATOM     46  C   UNL A   1      41.226  26.812  28.048  1.00  0.00     0.074 A 
ATOM     47  C   UNL A   1      43.538  26.433  28.363  1.00  0.00     0.049 A 
ATOM     48  N   UNL A   1      41.386  28.053  28.401  1.00  0.00    -0.248 NA
ATOM     49  C   UNL A   1      39.838  26.518  27.724  1.00  0.00     0.031 C 
ATOM     50  C   UNL A   1      43.751  27.184  29.591  1.00  0.00     0.029 A 
ATOM     51  N   UNL A   1      44.788  26.389  27.772  1.00  0.00    -0.354 N 
ATOM     52  C   UNL A   1      40.156  28.621  28.620  1.00  0.00     0.074 A 
ATOM     53  C   UNL A   1      39.228  27.661  28.073  1.00  0.00     0.031 C 
ATOM     54  C   UNL A   1      45.040  27.550  29.665  1.00  0.00     0.029 A 
ATOM     55  C   UNL A   1      45.711  27.188  28.426  1.00  0.00     0.049 A 
ATOM     56  H   UNL A   1      44.999  25.850  26.975  1.00  0.00     0.167 HD
ATOM     57  C   UNL A   1      40.070  29.750  29.383  1.00  0.00     0.034 A 
ATOM     58  C   UNL A   1      46.804  27.766  27.857  1.00  0.00     0.034 A 
ATOM     59  C   UNL A   1      41.404  30.285  29.735  1.00  0.00     0.049 A 
ATOM     60  C   UNL A   1      46.669  29.265  27.957  1.00  0.00     0.074 A 
ATOM     61  C   UNL A   1      42.201  30.147  30.861  1.00  0.00     0.029 A 
ATOM     62  N   UNL A   1      42.201  30.912  28.782  1.00  0.00    -0.354 N 
ATOM     63  N   UNL A   1      45.779  29.877  28.684  1.00  0.00    -0.248 NA
ATOM     64  C   UNL A   1      47.373  30.159  27.044  1.00  0.00     0.031 C 
ATOM     65  C   UNL A   1      43.473  30.714  30.588  1.00  0.00     0.029 A 
ATOM     66  C   UNL A   1      43.462  31.217  29.298  1.00  0.00     0.049 A 
ATOM     67  H   UNL A   1      41.912  31.116  27.863  1.00  0.00     0.167 HD
ATOM     68  C   UNL A   1      45.550  31.109  28.127  1.00  0.00     0.074 A 
ATOM     69  C   UNL A   1      46.580  31.235  27.108  1.00  0.00     0.031 C 
ATOM     70  C   UNL A   1      44.466  31.879  28.458  1.00  0.00     0.034 A 
BRANCH  57  71
ATOM     71  C   UNL A   1      38.805  30.183  30.136  1.00  0.00     0.023 A 
ATOM     72  C   UNL A   1      38.168  29.195  30.928  1.00  0.00     0.012 A 
ATOM     73  C   UNL A   1      38.135  31.427  30.070  1.00  0.00     0.148 A 
ATOM     74  C   UNL A   1      36.906  29.374  31.507  1.00  0.00     0.002 A 
ATOM     75  C   UNL A   1      36.856  31.600  30.626  1.00  0.00     0.091 A 
ATOM     76  F   UNL A   1      38.721  32.476  29.488  1.00  0.00    -0.205 F 
ATOM     77  C   UNL A   1      36.233  30.569  31.332  1.00  0.00     0.022 A 
BRANCH  75  78
ATOM     78  S   UNL A   1      35.949  33.145  30.428  1.00  0.00     0.127 S 
ATOM     79  O   UNL A   1      36.577  34.003  31.433  1.00  0.00    -0.237 OA
ATOM     80  O   UNL A   1      36.233  33.532  29.045  1.00  0.00    -0.237 OA
ATOM     81  O   UNL A   1      34.553  32.804  30.673  1.00  0.00    -0.744 OA
ENDBRANCH  75  78
ENDBRANCH  57  71
BRANCH  58  82
ATOM     82  C   UNL A   1      47.259  27.058  26.619  1.00  0.00     0.023 A 
ATOM     83  C   UNL A   1      46.766  27.499  25.369  1.00  0.00     0.012 A 
ATOM     84  C   UNL A   1      48.484  26.383  26.664  1.00  0.00     0.148 A 
ATOM     85  C   UNL A   1      47.565  27.403  24.224  1.00  0.00     0.002 A 
ATOM     86  C   UNL A   1      49.312  26.400  25.558  1.00  0.00     0.091 A 
ATOM     87  F   UNL A   1      48.948  25.940  27.837  1.00  0.00    -0.205 F 
ATOM     88  C   UNL A   1      48.862  26.898  24.331  1.00  0.00     0.022 A 
BRANCH  86  89
ATOM     89  S   UNL A   1      51.065  26.209  25.897  1.00  0.00     0.127 S 
ATOM     90  O   UNL A   1      51.164  24.869  26.461  1.00  0.00    -0.237 OA
ATOM     91  O   UNL A   1      51.623  26.369  24.556  1.00  0.00    -0.237 OA
ATOM     92  O   UNL A   1      51.361  27.265  26.857  1.00  0.00    -0.744 OA
ENDBRANCH  86  89
ENDBRANCH  58  82
BRANCH  70  93
ATOM     93  C   UNL A   1      44.281  33.316  27.988  1.00  0.00     0.023 A 
ATOM     94  C   UNL A   1      44.061  33.641  26.632  1.00  0.00     0.012 A 
ATOM     95  C   UNL A   1      44.440  34.420  28.861  1.00  0.00     0.148 A 
ATOM     96  C   UNL A   1      43.833  34.944  26.186  1.00  0.00     0.002 A 
ATOM     97  C   UNL A   1      44.281  35.728  28.406  1.00  0.00     0.091 A 
ATOM     98  F   UNL A   1      44.819  34.216  30.127  1.00  0.00    -0.205 F 
ATOM     99  C   UNL A   1      43.930  35.991  27.080  1.00  0.00     0.022 A 
BRANCH  97 100
ATOM    100  S   UNL A   1      44.594  37.157  29.449  1.00  0.00     0.127 S 
ATOM    101  O   UNL A   1      46.041  37.058  29.644  1.00  0.00    -0.237 OA
ATOM    102  O   UNL A   1      44.170  38.261  28.586  1.00  0.00    -0.237 OA
ATOM    103  O   UNL A   1      43.788  36.973  30.644  1.00  0.00    -0.744 OA
ENDBRANCH  97 100
ENDBRANCH  70  93
ENDBRANCH  44  45
ENDBRANCH  37  39
ENDBRANCH  36  37
ENDBRANCH  35  36
ENDBRANCH   1  35
TORSDOF 20
ENDMDL
MODEL 2
REMARK VINA RESULT:     -13.5      4.903     11.120
REMARK SMILES Cc1ccc(S(=O)(=O)N2CCCC2)cc1C(=O)N[C@H](CC1=c2ccccc2=NC1)C(=O)OCCOC(=O)c1ccc(-c2c3nc(c(-c4cccc(S(=O)(=O)[O-])c4F)c4ccc([nH]4)c(-c4cccc(S(=O)(=O)[O-])c4F)c4nc(c(-c5cccc(S(=O)(=O)[O-])c5F)c5ccc2[nH]5)C=C4)C=C3)cc1
REMARK SMILES IDX 33 1 32 2 30 3 31 4 19 5 18 6 16 7 17 8 15 10 1 11 2 12 3 13
REMARK SMILES IDX 4 14 14 15 5 16 6 17 7 18 8 19 9 20 10 21 13 22 11 23 12 24
REMARK SMILES IDX 20 25 21 26 22 27 29 28 23 29 27 30 28 31 24 32 26 33 25 34
REMARK SMILES IDX 34 35 35 36 36 37 37 38 38 39 39 40 100 41 40 42 99 43 41 44
REMARK SMILES IDX 42 45 43 46 93 47 44 48 98 49 92 50 94 51 45 52 97 53 91 54
REMARK SMILES IDX 90 55 46 57 78 58 58 59 77 60 59 61 62 62 76 63 95 64 60 65
REMARK SMILES IDX 61 66 75 68 96 69 63 70 47 71 48 72 56 73 49 74 51 75 57 76
REMARK SMILES IDX 50 77 52 78 53 79 54 80 55 81 79 82 80 83 88 84 81 85 83 86
REMARK SMILES IDX 89 87 82 88 84 89 85 90 86 91 87 92 64 93 65 94 73 95 66 96
REMARK SMILES IDX 68 97 74 98 67 99 69 100 70 101 71 102 72 103
REMARK H PARENT 18 9 94 56 62 67
REMARK Flexibility Score: inf
ROOT
ATOM      1  C   UNL A   1      34.003  32.449  28.090  1.00  0.00     0.274 C 
ENDROOT
BRANCH   1   2
ATOM      2  O   UNL A   1      33.734  30.618  27.294  1.00  0.00    -0.461 OA
BRANCH   2   3
ATOM      3  C   UNL A   1      33.460  29.395  26.685  1.00  0.00     0.329 C 
ATOM      4  O   UNL A   1      33.688  28.395  27.376  1.00  0.00    -0.250 OA
BRANCH   3   5
ATOM      5  C   UNL A   1      32.756  29.201  25.255  1.00  0.00     0.196 C 
BRANCH   5   6
ATOM      6  N   UNL A   1      33.230  28.827  23.823  1.00  0.00    -0.338 N 
ATOM      7  C   UNL A   1      33.642  27.918  22.878  1.00  0.00     0.252 C 
ATOM      8  O   UNL A   1      34.139  28.444  21.872  1.00  0.00    -0.269 OA
ATOM      9  H   UNL A   1      33.240  29.687  23.345  1.00  0.00     0.164 HD
BRANCH   7  10
ATOM     10  C   UNL A   1      33.526  26.416  22.790  1.00  0.00     0.044 A 
ATOM     11  C   UNL A   1      31.842  26.295  20.933  1.00  0.00     0.045 C 
ATOM     12  C   UNL A   1      32.871  25.682  21.801  1.00  0.00    -0.038 A 
ATOM     13  C   UNL A   1      32.987  24.280  21.735  1.00  0.00     0.005 A 
ATOM     14  C   UNL A   1      33.541  23.571  22.784  1.00  0.00     0.022 A 
ATOM     15  C   UNL A   1      34.032  25.665  23.892  1.00  0.00     0.035 A 
ATOM     16  C   UNL A   1      33.953  24.263  23.920  1.00  0.00     0.083 A 
BRANCH  16  17
ATOM     17  S   UNL A   1      34.062  23.262  25.396  1.00  0.00     0.243 S 
ATOM     18  O   UNL A   1      35.439  23.380  25.836  1.00  0.00    -0.207 OA
ATOM     19  O   UNL A   1      32.982  23.705  26.257  1.00  0.00    -0.207 OA
BRANCH  17  20
ATOM     20  N   UNL A   1      33.775  21.681  25.013  1.00  0.00    -0.198 NA
ATOM     21  C   UNL A   1      32.458  21.047  25.175  1.00  0.00     0.102 C 
ATOM     22  C   UNL A   1      34.847  20.676  25.074  1.00  0.00     0.102 C 
ATOM     23  C   UNL A   1      32.782  19.628  25.618  1.00  0.00     0.018 C 
ATOM     24  C   UNL A   1      34.110  19.356  24.937  1.00  0.00     0.018 C 
ENDBRANCH  17  20
ENDBRANCH  16  17
ENDBRANCH   7  10
ENDBRANCH   5   6
BRANCH   5  25
ATOM     25  C   UNL A   1      31.322  29.892  25.218  1.00  0.00     0.070 C 
BRANCH  25  26
ATOM     26  C   UNL A   1      30.352  29.527  24.114  1.00  0.00    -0.037 C 
ATOM     27  C   UNL A   1      29.494  30.334  23.494  1.00  0.00     0.001 A 
ATOM     28  C   UNL A   1      30.227  28.157  23.523  1.00  0.00     0.174 C 
ATOM     29  C   UNL A   1      29.115  31.697  23.629  1.00  0.00     0.010 A 
ATOM     30  C   UNL A   1      29.019  29.525  22.366  1.00  0.00     0.065 A 
ATOM     31  N   UNL A   1      29.300  28.258  22.374  1.00  0.00    -0.280 NA
ATOM     32  C   UNL A   1      28.448  32.293  22.629  1.00  0.00     0.001 A 
ATOM     33  C   UNL A   1      28.319  30.248  21.283  1.00  0.00     0.028 A 
ATOM     34  C   UNL A   1      28.102  31.567  21.420  1.00  0.00     0.002 A 
ENDBRANCH  25  26
ENDBRANCH   5  25
ENDBRANCH   3   5
ENDBRANCH   2   3
ENDBRANCH   1   2
BRANCH   1  35
ATOM     35  C   UNL A   1      32.956  33.725  27.989  1.00  0.00     0.275 C 
BRANCH  35  36
ATOM     36  O   UNL A   1      32.473  34.400  29.171  1.00  0.00    -0.458 OA
BRANCH  36  37
ATOM     37  C   UNL A   1      33.058  35.570  29.516  1.00  0.00     0.338 C 
ATOM     38  O   UNL A   1      32.832  36.660  29.036  1.00  0.00    -0.246 OA
BRANCH  37  39
ATOM     39  C   UNL A   1      34.222  35.176  30.263  1.00  0.00     0.060 A 
ATOM     40  C   UNL A   1      34.083  34.042  31.678  1.00  0.00     0.016 A 
ATOM     41  C   UNL A   1      35.589  35.041  29.128  1.00  0.00     0.016 A 
ATOM     42  C   UNL A   1      35.400  32.822  31.983  1.00  0.00     0.010 A 
ATOM     43  C   UNL A   1      36.860  33.846  29.425  1.00  0.00     0.010 A 
ATOM     44  C   UNL A   1      36.821  32.731  30.856  1.00  0.00    -0.014 A 
BRANCH  44  45
ATOM     45  C   UNL A   1      37.962  31.781  30.920  1.00  0.00     0.031 A 
ATOM     46  C   UNL A   1      38.147  30.424  30.333  1.00  0.00     0.074 A 
ATOM     47  C   UNL A   1      39.008  32.157  31.691  1.00  0.00     0.049 A 
ATOM     48  N   UNL A   1      39.154  29.670  30.663  1.00  0.00    -0.248 NA
ATOM     49  C   UNL A   1      37.241  29.744  29.420  1.00  0.00     0.031 C 
ATOM     50  C   UNL A   1      40.423  32.049  31.368  1.00  0.00     0.029 A 
ATOM     51  N   UNL A   1      38.989  32.760  32.936  1.00  0.00    -0.354 N 
ATOM     52  C   UNL A   1      39.188  28.577  29.834  1.00  0.00     0.074 A 
ATOM     53  C   UNL A   1      37.913  28.612  29.160  1.00  0.00     0.031 C 
ATOM     54  C   UNL A   1      41.145  32.547  32.384  1.00  0.00     0.029 A 
ATOM     55  C   UNL A   1      40.255  32.874  33.487  1.00  0.00     0.049 A 
ATOM     56  H   UNL A   1      38.169  33.074  33.380  1.00  0.00     0.167 HD
ATOM     57  C   UNL A   1      40.353  27.878  29.702  1.00  0.00     0.034 A 
ATOM     58  C   UNL A   1      40.539  32.919  34.817  1.00  0.00     0.034 A 
ATOM     59  C   UNL A   1      41.394  28.351  30.642  1.00  0.00     0.049 A 
ATOM     60  C   UNL A   1      41.392  31.726  35.173  1.00  0.00     0.074 A 
ATOM     61  C   UNL A   1      42.453  29.234  30.500  1.00  0.00     0.029 A 
ATOM     62  N   UNL A   1      41.310  28.078  32.005  1.00  0.00    -0.354 N 
ATOM     63  N   UNL A   1      41.956  30.940  34.303  1.00  0.00    -0.248 NA
ATOM     64  C   UNL A   1      41.450  31.207  36.535  1.00  0.00     0.031 C 
ATOM     65  C   UNL A   1      43.018  29.475  31.780  1.00  0.00     0.029 A 
ATOM     66  C   UNL A   1      42.321  28.730  32.714  1.00  0.00     0.049 A 
ATOM     67  H   UNL A   1      40.627  27.500  32.414  1.00  0.00     0.167 HD
ATOM     68  C   UNL A   1      42.132  29.714  34.891  1.00  0.00     0.074 A 
ATOM     69  C   UNL A   1      41.807  29.941  36.290  1.00  0.00     0.031 C 
ATOM     70  C   UNL A   1      42.415  28.582  34.171  1.00  0.00     0.034 A 
BRANCH  57  71
ATOM     71  C   UNL A   1      40.703  27.014  28.483  1.00  0.00     0.023 A 
ATOM     72  C   UNL A   1      40.080  25.744  28.404  1.00  0.00     0.012 A 
ATOM     73  C   UNL A   1      41.646  27.287  27.464  1.00  0.00     0.148 A 
ATOM     74  C   UNL A   1      40.447  24.767  27.472  1.00  0.00     0.002 A 
ATOM     75  C   UNL A   1      42.036  26.299  26.544  1.00  0.00     0.091 A 
ATOM     76  F   UNL A   1      42.173  28.509  27.345  1.00  0.00    -0.205 F 
ATOM     77  C   UNL A   1      41.449  25.033  26.557  1.00  0.00     0.022 A 
BRANCH  75  78
ATOM     78  S   UNL A   1      43.332  26.608  25.330  1.00  0.00     0.127 S 
ATOM     79  O   UNL A   1      43.497  25.291  24.714  1.00  0.00    -0.237 OA
ATOM     80  O   UNL A   1      42.739  27.614  24.447  1.00  0.00    -0.237 OA
ATOM     81  O   UNL A   1      44.471  27.093  26.099  1.00  0.00    -0.744 OA
ENDBRANCH  75  78
ENDBRANCH  57  71
BRANCH  58  82
ATOM     82  C   UNL A   1      39.380  33.384  35.645  1.00  0.00     0.023 A 
ATOM     83  C   UNL A   1      38.431  32.427  36.073  1.00  0.00     0.012 A 
ATOM     84  C   UNL A   1      39.535  34.563  36.383  1.00  0.00     0.148 A 
ATOM     85  C   UNL A   1      37.774  32.588  37.298  1.00  0.00     0.002 A 
ATOM     86  C   UNL A   1      38.975  34.656  37.642  1.00  0.00     0.091 A 
ATOM     87  F   UNL A   1      40.412  35.484  35.974  1.00  0.00    -0.205 F 
ATOM     88  C   UNL A   1      38.087  33.681  38.108  1.00  0.00     0.022 A 
BRANCH  86  89
ATOM     89  S   UNL A   1      39.793  35.784  38.774  1.00  0.00     0.127 S 
ATOM     90  O   UNL A   1      39.638  37.086  38.137  1.00  0.00    -0.237 OA
ATOM     91  O   UNL A   1      39.002  35.579  39.986  1.00  0.00    -0.237 OA
ATOM     92  O   UNL A   1      41.173  35.318  38.810  1.00  0.00    -0.744 OA
ENDBRANCH  86  89
ENDBRANCH  58  82
BRANCH  70  93
ATOM     93  C   UNL A   1      42.787  27.251  34.810  1.00  0.00     0.023 A 
ATOM     94  C   UNL A   1      41.812  26.338  35.266  1.00  0.00     0.012 A 
ATOM     95  C   UNL A   1      44.130  26.902  35.095  1.00  0.00     0.148 A 
ATOM     96  C   UNL A   1      42.127  25.088  35.803  1.00  0.00     0.002 A 
ATOM     97  C   UNL A   1      44.446  25.683  35.693  1.00  0.00     0.091 A 
ATOM     98  F   UNL A   1      45.110  27.779  34.854  1.00  0.00    -0.205 F 
ATOM     99  C   UNL A   1      43.450  24.754  36.005  1.00  0.00     0.022 A 
BRANCH  97 100
ATOM    100  S   UNL A   1      46.121  25.255  36.183  1.00  0.00     0.127 S 
ATOM    101  O   UNL A   1      46.129  25.684  37.582  1.00  0.00    -0.237 OA
ATOM    102  O   UNL A   1      46.131  23.803  35.993  1.00  0.00    -0.237 OA
ATOM    103  O   UNL A   1      47.005  25.993  35.296  1.00  0.00    -0.744 OA
ENDBRANCH  97 100
ENDBRANCH  70  93
ENDBRANCH  44  45
ENDBRANCH  37  39
ENDBRANCH  36  37
ENDBRANCH  35  36
ENDBRANCH   1  35
TORSDOF 20
ENDMDL
MODEL 3
REMARK VINA RESULT:     -13.2      2.713      4.081
REMARK SMILES Cc1ccc(S(=O)(=O)N2CCCC2)cc1C(=O)N[C@H](CC1=c2ccccc2=NC1)C(=O)OCCOC(=O)c1ccc(-c2c3nc(c(-c4cccc(S(=O)(=O)[O-])c4F)c4ccc([nH]4)c(-c4cccc(S(=O)(=O)[O-])c4F)c4nc(c(-c5cccc(S(=O)(=O)[O-])c5F)c5ccc2[nH]5)C=C4)C=C3)cc1
REMARK SMILES IDX 33 1 32 2 30 3 31 4 19 5 18 6 16 7 17 8 15 10 1 11 2 12 3 13
REMARK SMILES IDX 4 14 14 15 5 16 6 17 7 18 8 19 9 20 10 21 13 22 11 23 12 24
REMARK SMILES IDX 20 25 21 26 22 27 29 28 23 29 27 30 28 31 24 32 26 33 25 34
REMARK SMILES IDX 34 35 35 36 36 37 37 38 38 39 39 40 100 41 40 42 99 43 41 44
REMARK SMILES IDX 42 45 43 46 93 47 44 48 98 49 92 50 94 51 45 52 97 53 91 54
REMARK SMILES IDX 90 55 46 57 78 58 58 59 77 60 59 61 62 62 76 63 95 64 60 65
REMARK SMILES IDX 61 66 75 68 96 69 63 70 47 71 48 72 56 73 49 74 51 75 57 76
REMARK SMILES IDX 50 77 52 78 53 79 54 80 55 81 79 82 80 83 88 84 81 85 83 86
REMARK SMILES IDX 89 87 82 88 84 89 85 90 86 91 87 92 64 93 65 94 73 95 66 96
REMARK SMILES IDX 68 97 74 98 67 99 69 100 70 101 71 102 72 103
REMARK H PARENT 18 9 94 56 62 67
REMARK Flexibility Score: inf
ROOT
ATOM      1  C   UNL A   1      37.708  21.428  25.406  1.00  0.00     0.274 C 
ENDROOT
BRANCH   1   2
ATOM      2  O   UNL A   1      35.961  22.004  26.225  1.00  0.00    -0.461 OA
BRANCH   2   3
ATOM      3  C   UNL A   1      34.714  22.297  26.775  1.00  0.00     0.329 C 
ATOM      4  O   UNL A   1      34.316  21.510  27.641  1.00  0.00    -0.250 OA
BRANCH   3   5
ATOM      5  C   UNL A   1      33.852  23.619  26.481  1.00  0.00     0.196 C 
BRANCH   5   6
ATOM      6  N   UNL A   1      32.352  24.014  26.576  1.00  0.00    -0.338 N 
ATOM      7  C   UNL A   1      31.337  24.941  26.576  1.00  0.00     0.252 C 
ATOM      8  O   UNL A   1      30.258  24.491  26.989  1.00  0.00    -0.269 OA
ATOM      9  H   UNL A   1      31.888  23.155  26.703  1.00  0.00     0.164 HD
BRANCH   7  10
ATOM     10  C   UNL A   1      31.259  26.367  26.090  1.00  0.00     0.044 A 
ATOM     11  C   UNL A   1      31.703  27.516  28.277  1.00  0.00     0.045 C 
ATOM     12  C   UNL A   1      31.608  27.516  26.800  1.00  0.00    -0.038 A 
ATOM     13  C   UNL A   1      31.659  28.775  26.172  1.00  0.00     0.005 A 
ATOM     14  C   UNL A   1      31.127  28.952  24.910  1.00  0.00     0.022 A 
ATOM     15  C   UNL A   1      30.654  26.581  24.817  1.00  0.00     0.035 A 
ATOM     16  C   UNL A   1      30.512  27.872  24.281  1.00  0.00     0.083 A 
BRANCH  16  17
ATOM     17  S   UNL A   1      29.355  28.324  22.996  1.00  0.00     0.243 S 
ATOM     18  O   UNL A   1      30.055  28.079  21.750  1.00  0.00    -0.207 OA
ATOM     19  O   UNL A   1      28.128  27.610  23.297  1.00  0.00    -0.207 OA
BRANCH  17  20
ATOM     20  N   UNL A   1      29.025  29.940  23.095  1.00  0.00    -0.198 NA
ATOM     21  C   UNL A   1      27.745  30.465  23.595  1.00  0.00     0.102 C 
ATOM     22  C   UNL A   1      29.663  30.904  22.185  1.00  0.00     0.102 C 
ATOM     23  C   UNL A   1      27.485  31.690  22.731  1.00  0.00     0.018 C 
ATOM     24  C   UNL A   1      28.885  32.186  22.418  1.00  0.00     0.018 C 
ENDBRANCH  17  20
ENDBRANCH  16  17
ENDBRANCH   7  10
ENDBRANCH   5   6
BRANCH   5  25
ATOM     25  C   UNL A   1      34.648  24.634  25.547  1.00  0.00     0.070 C 
BRANCH  25  26
ATOM     26  C   UNL A   1      34.045  25.052  24.223  1.00  0.00    -0.037 C 
ATOM     27  C   UNL A   1      33.905  26.290  23.755  1.00  0.00     0.001 A 
ATOM     28  C   UNL A   1      33.517  24.095  23.200  1.00  0.00     0.174 C 
ATOM     29  C   UNL A   1      34.164  27.593  24.259  1.00  0.00     0.010 A 
ATOM     30  C   UNL A   1      33.518  26.084  22.354  1.00  0.00     0.065 A 
ATOM     31  N   UNL A   1      33.175  24.885  21.996  1.00  0.00    -0.280 NA
ATOM     32  C   UNL A   1      34.212  28.628  23.406  1.00  0.00     0.001 A 
ATOM     33  C   UNL A   1      33.624  27.257  21.461  1.00  0.00     0.028 A 
ATOM     34  C   UNL A   1      33.996  28.438  21.983  1.00  0.00     0.002 A 
ENDBRANCH  25  26
ENDBRANCH   5  25
ENDBRANCH   3   5
ENDBRANCH   2   3
ENDBRANCH   1   2
BRANCH   1  35
ATOM     35  C   UNL A   1      39.213  21.970  25.826  1.00  0.00     0.275 C 
BRANCH  35  36
ATOM     36  O   UNL A   1      40.116  21.159  26.609  1.00  0.00    -0.458 OA
BRANCH  36  37
ATOM     37  C   UNL A   1      41.372  20.979  26.142  1.00  0.00     0.338 C 
ATOM     38  O   UNL A   1      41.859  19.936  25.760  1.00  0.00    -0.246 OA
BRANCH  37  39
ATOM     39  C   UNL A   1      42.076  22.164  26.555  1.00  0.00     0.060 A 
ATOM     40  C   UNL A   1      42.273  23.573  25.423  1.00  0.00     0.016 A 
ATOM     41  C   UNL A   1      41.741  22.434  28.283  1.00  0.00     0.016 A 
ATOM     42  C   UNL A   1      42.216  25.269  26.083  1.00  0.00     0.010 A 
ATOM     43  C   UNL A   1      41.677  24.085  28.917  1.00  0.00     0.010 A 
ATOM     44  C   UNL A   1      41.935  25.535  27.857  1.00  0.00    -0.014 A 
BRANCH  44  45
ATOM     45  C   UNL A   1      41.817  26.836  28.565  1.00  0.00     0.031 A 
ATOM     46  C   UNL A   1      40.795  27.917  28.474  1.00  0.00     0.074 A 
ATOM     47  C   UNL A   1      42.832  27.155  29.401  1.00  0.00     0.049 A 
ATOM     48  N   UNL A   1      40.972  29.072  29.046  1.00  0.00    -0.248 NA
ATOM     49  C   UNL A   1      39.557  27.877  27.711  1.00  0.00     0.031 C 
ATOM     50  C   UNL A   1      42.728  27.722  30.737  1.00  0.00     0.029 A 
ATOM     51  N   UNL A   1      44.192  26.987  29.208  1.00  0.00    -0.354 N 
ATOM     52  C   UNL A   1      39.806  29.793  28.974  1.00  0.00     0.074 A 
ATOM     53  C   UNL A   1      38.998  29.054  28.034  1.00  0.00     0.031 C 
ATOM     54  C   UNL A   1      43.960  27.876  31.246  1.00  0.00     0.029 A 
ATOM     55  C   UNL A   1      44.943  27.557  30.222  1.00  0.00     0.049 A 
ATOM     56  H   UNL A   1      44.582  26.516  28.437  1.00  0.00     0.167 HD
ATOM     57  C   UNL A   1      39.609  30.828  29.841  1.00  0.00     0.034 A 
ATOM     58  C   UNL A   1      46.217  28.020  30.101  1.00  0.00     0.034 A 
ATOM     59  C   UNL A   1      40.815  31.110  30.653  1.00  0.00     0.049 A 
ATOM     60  C   UNL A   1      46.224  29.502  30.386  1.00  0.00     0.074 A 
ATOM     61  C   UNL A   1      41.195  30.726  31.929  1.00  0.00     0.029 A 
ATOM     62  N   UNL A   1      41.937  31.711  30.089  1.00  0.00    -0.354 N 
ATOM     63  N   UNL A   1      45.225  30.157  30.901  1.00  0.00    -0.248 NA
ATOM     64  C   UNL A   1      47.276  30.375  29.873  1.00  0.00     0.031 C 
ATOM     65  C   UNL A   1      42.544  31.118  32.138  1.00  0.00     0.029 A 
ATOM     66  C   UNL A   1      42.996  31.758  30.998  1.00  0.00     0.049 A 
ATOM     67  H   UNL A   1      41.977  32.059  29.168  1.00  0.00     0.167 HD
ATOM     68  C   UNL A   1      45.321  31.464  30.498  1.00  0.00     0.074 A 
ATOM     69  C   UNL A   1      46.627  31.545  29.864  1.00  0.00     0.031 C 
ATOM     70  C   UNL A   1      44.280  32.350  30.606  1.00  0.00     0.034 A 
BRANCH  57  71
ATOM     71  C   UNL A   1      38.228  31.362  30.242  1.00  0.00     0.023 A 
ATOM     72  C   UNL A   1      37.678  30.861  31.448  1.00  0.00     0.012 A 
ATOM     73  C   UNL A   1      37.384  32.230  29.510  1.00  0.00     0.148 A 
ATOM     74  C   UNL A   1      36.355  31.092  31.841  1.00  0.00     0.002 A 
ATOM     75  C   UNL A   1      36.047  32.442  29.887  1.00  0.00     0.091 A 
ATOM     76  F   UNL A   1      37.854  32.886  28.446  1.00  0.00    -0.205 F 
ATOM     77  C   UNL A   1      35.526  31.861  31.045  1.00  0.00     0.022 A 
BRANCH  75  78
ATOM     78  S   UNL A   1      34.936  33.444  28.882  1.00  0.00     0.127 S 
ATOM     79  O   UNL A   1      35.569  34.761  28.941  1.00  0.00    -0.237 OA
ATOM     80  O   UNL A   1      34.999  32.805  27.565  1.00  0.00    -0.237 OA
ATOM     81  O   UNL A   1      33.634  33.339  29.528  1.00  0.00    -0.744 OA
ENDBRANCH  75  78
ENDBRANCH  57  71
BRANCH  58  82
ATOM     82  C   UNL A   1      46.959  27.395  28.960  1.00  0.00     0.023 A 
ATOM     83  C   UNL A   1      47.572  26.137  29.163  1.00  0.00     0.012 A 
ATOM     84  C   UNL A   1      46.602  27.774  27.661  1.00  0.00     0.148 A 
ATOM     85  C   UNL A   1      47.672  25.225  28.106  1.00  0.00     0.002 A 
ATOM     86  C   UNL A   1      46.595  26.828  26.654  1.00  0.00     0.091 A 
ATOM     87  F   UNL A   1      46.043  28.970  27.455  1.00  0.00    -0.205 F 
ATOM     88  C   UNL A   1      47.135  25.554  26.860  1.00  0.00     0.022 A 
BRANCH  86  89
ATOM     89  S   UNL A   1      45.468  27.150  25.294  1.00  0.00     0.127 S 
ATOM     90  O   UNL A   1      45.316  25.849  24.655  1.00  0.00    -0.237 OA
ATOM     91  O   UNL A   1      44.295  27.636  26.018  1.00  0.00    -0.237 OA
ATOM     92  O   UNL A   1      46.172  28.123  24.468  1.00  0.00    -0.744 OA
ENDBRANCH  86  89
ENDBRANCH  58  82
BRANCH  70  93
ATOM     93  C   UNL A   1      44.414  33.842  30.330  1.00  0.00     0.023 A 
ATOM     94  C   UNL A   1      44.487  34.794  31.369  1.00  0.00     0.012 A 
ATOM     95  C   UNL A   1      44.352  34.373  29.019  1.00  0.00     0.148 A 
ATOM     96  C   UNL A   1      44.667  36.160  31.142  1.00  0.00     0.002 A 
ATOM     97  C   UNL A   1      44.463  35.744  28.791  1.00  0.00     0.091 A 
ATOM     98  F   UNL A   1      44.112  33.560  27.984  1.00  0.00    -0.205 F 
ATOM     99  C   UNL A   1      44.668  36.635  29.846  1.00  0.00     0.022 A 
BRANCH  97 100
ATOM    100  S   UNL A   1      44.266  36.469  27.159  1.00  0.00     0.127 S 
ATOM    101  O   UNL A   1      44.394  37.894  27.460  1.00  0.00    -0.237 OA
ATOM    102  O   UNL A   1      45.401  35.896  26.433  1.00  0.00    -0.237 OA
ATOM    103  O   UNL A   1      42.960  36.045  26.681  1.00  0.00    -0.744 OA
ENDBRANCH  97 100
ENDBRANCH  70  93
ENDBRANCH  44  45
ENDBRANCH  37  39
ENDBRANCH  36  37
ENDBRANCH  35  36
ENDBRANCH   1  35
TORSDOF 20
ENDMDL
