MODEL 1
REMARK VINA RESULT:     -11.7      0.000      0.000
REMARK SMILES O=C(CCC(=O)OCCOC(=O)c1ccc(-c2c3nc(c(-c4cccc(S(=O)(=O)[O-])c4F)c4ccc([nH]4)c(-c4cccc(S(=O)(=O)[O-])c4F)c4nc(c(-c5cccc(S(=O)(=O)[O-])c5F)c5ccc2[nH]5)C=C4)C=C3)cc1)Nc1ccc(N2CCN(c3ccc(F)cc3)CC2)cc1
REMARK SMILES IDX 8 1 7 2 5 3 6 4 4 5 3 6 2 7 1 8 76 9 77 11 78 12 95 13 79 14
REMARK SMILES IDX 94 15 80 16 81 17 82 18 93 19 83 20 92 21 84 22 85 23 86 24
REMARK SMILES IDX 91 25 87 26 90 27 88 28 89 29 9 30 10 31 11 32 12 33 13 34
REMARK SMILES IDX 14 35 75 36 15 37 74 38 16 39 17 40 18 41 68 42 19 43 73 44
REMARK SMILES IDX 67 45 69 46 20 47 72 48 66 49 65 50 21 52 53 53 33 54 52 55
REMARK SMILES IDX 34 56 37 57 51 58 70 59 35 60 36 61 50 63 71 64 38 65 22 66
REMARK SMILES IDX 23 67 31 68 24 69 26 70 32 71 25 72 27 73 28 74 29 75 30 76
REMARK SMILES IDX 54 77 55 78 63 79 56 80 58 81 64 82 57 83 59 84 60 85 61 86
REMARK SMILES IDX 62 87 39 88 40 89 48 90 41 91 43 92 49 93 42 94 44 95 45 96
REMARK SMILES IDX 46 97 47 98
REMARK H PARENT 76 10 69 51 37 62
REMARK Flexibility Score: inf
ROOT
ATOM      1  C   UNL A   1      31.012  31.077  24.914  1.00  0.00     0.274 C 
ENDROOT
BRANCH   1   2
ATOM      2  O   UNL A   1      29.666  31.593  24.770  1.00  0.00    -0.462 OA
BRANCH   2   3
ATOM      3  C   UNL A   1      29.357  32.273  23.635  1.00  0.00     0.306 C 
ATOM      4  O   UNL A   1      29.527  33.475  23.483  1.00  0.00    -0.252 OA
BRANCH   3   5
ATOM      5  C   UNL A   1      28.677  31.396  22.593  1.00  0.00     0.132 C 
BRANCH   5   6
ATOM      6  C   UNL A   1      27.584  30.441  23.083  1.00  0.00     0.112 C 
BRANCH   6   7
ATOM      7  C   UNL A   1      28.017  28.979  23.105  1.00  0.00     0.224 C 
ATOM      8  O   UNL A   1      27.200  28.064  23.130  1.00  0.00    -0.275 OA
ATOM      9  N   UNL A   1      29.383  28.845  23.148  1.00  0.00    -0.326 N 
ATOM     10  H   UNL A   1      29.894  29.682  23.067  1.00  0.00     0.169 HD
BRANCH   9  11
ATOM     11  C   UNL A   1      30.146  27.685  23.288  1.00  0.00     0.041 A 
ATOM     12  C   UNL A   1      30.900  27.312  22.174  1.00  0.00     0.028 A 
ATOM     13  C   UNL A   1      30.182  26.899  24.432  1.00  0.00     0.028 A 
ATOM     14  C   UNL A   1      31.705  26.182  22.213  1.00  0.00     0.028 A 
ATOM     15  C   UNL A   1      30.951  25.725  24.443  1.00  0.00     0.028 A 
ATOM     16  C   UNL A   1      31.734  25.360  23.339  1.00  0.00     0.037 A 
BRANCH  16  17
ATOM     17  N   UNL A   1      32.545  24.246  23.316  1.00  0.00    -0.368 N 
ATOM     18  C   UNL A   1      33.979  24.448  23.048  1.00  0.00     0.138 C 
ATOM     19  C   UNL A   1      32.185  23.002  24.004  1.00  0.00     0.138 C 
ATOM     20  C   UNL A   1      34.801  24.286  24.347  1.00  0.00     0.138 C 
ATOM     21  C   UNL A   1      33.053  22.756  25.255  1.00  0.00     0.138 C 
ATOM     22  N   UNL A   1      34.484  23.000  24.998  1.00  0.00    -0.368 N 
BRANCH  22  23
ATOM     23  C   UNL A   1      35.427  21.996  25.002  1.00  0.00     0.037 A 
ATOM     24  C   UNL A   1      36.794  22.326  25.024  1.00  0.00     0.029 A 
ATOM     25  C   UNL A   1      35.084  20.638  24.982  1.00  0.00     0.029 A 
ATOM     26  C   UNL A   1      37.782  21.340  25.032  1.00  0.00     0.041 A 
ATOM     27  C   UNL A   1      36.068  19.644  24.974  1.00  0.00     0.041 A 
ATOM     28  C   UNL A   1      37.408  20.006  25.003  1.00  0.00     0.123 A 
ATOM     29  F   UNL A   1      38.352  19.054  25.003  1.00  0.00    -0.207 F 
ENDBRANCH  22  23
ENDBRANCH  16  17
ENDBRANCH   9  11
ENDBRANCH   6   7
ENDBRANCH   5   6
ENDBRANCH   3   5
ENDBRANCH   2   3
ENDBRANCH   1   2
BRANCH   1  30
ATOM     30  C   UNL A   1      31.380  30.944  26.394  1.00  0.00     0.275 C 
BRANCH  30  31
ATOM     31  O   UNL A   1      32.806  30.989  26.548  1.00  0.00    -0.458 OA
BRANCH  31  32
ATOM     32  C   UNL A   1      33.275  32.048  27.249  1.00  0.00     0.338 C 
ATOM     33  O   UNL A   1      32.703  33.095  27.468  1.00  0.00    -0.246 OA
BRANCH  32  34
ATOM     34  C   UNL A   1      34.539  31.644  27.883  1.00  0.00     0.060 A 
ATOM     35  C   UNL A   1      35.553  32.597  28.016  1.00  0.00     0.016 A 
ATOM     36  C   UNL A   1      34.706  30.346  28.359  1.00  0.00     0.016 A 
ATOM     37  C   UNL A   1      36.742  32.259  28.655  1.00  0.00     0.010 A 
ATOM     38  C   UNL A   1      35.895  30.009  29.003  1.00  0.00     0.010 A 
ATOM     39  C   UNL A   1      36.915  30.965  29.160  1.00  0.00    -0.014 A 
BRANCH  39  40
ATOM     40  C   UNL A   1      38.157  30.600  29.877  1.00  0.00     0.031 A 
ATOM     41  C   UNL A   1      39.101  29.605  29.279  1.00  0.00     0.074 A 
ATOM     42  C   UNL A   1      38.386  31.116  31.099  1.00  0.00     0.049 A 
ATOM     43  N   UNL A   1      40.163  29.056  29.804  1.00  0.00    -0.248 NA
ATOM     44  C   UNL A   1      38.802  29.158  27.909  1.00  0.00     0.031 C 
ATOM     45  C   UNL A   1      37.523  32.083  31.780  1.00  0.00     0.029 A 
ATOM     46  N   UNL A   1      39.388  30.864  32.002  1.00  0.00    -0.354 N 
ATOM     47  C   UNL A   1      40.639  28.166  28.851  1.00  0.00     0.074 A 
ATOM     48  C   UNL A   1      39.745  28.247  27.714  1.00  0.00     0.031 C 
ATOM     49  C   UNL A   1      38.009  32.310  33.010  1.00  0.00     0.029 A 
ATOM     50  C   UNL A   1      39.186  31.473  33.218  1.00  0.00     0.049 A 
ATOM     51  H   UNL A   1      40.171  30.302  31.800  1.00  0.00     0.167 HD
ATOM     52  C   UNL A   1      41.727  27.362  28.916  1.00  0.00     0.034 A 
ATOM     53  C   UNL A   1      39.846  31.334  34.384  1.00  0.00     0.034 A 
ATOM     54  C   UNL A   1      42.609  27.299  30.051  1.00  0.00     0.049 A 
ATOM     55  C   UNL A   1      41.036  30.418  34.444  1.00  0.00     0.074 A 
ATOM     56  C   UNL A   1      43.773  26.566  30.196  1.00  0.00     0.029 A 
ATOM     57  N   UNL A   1      42.412  27.976  31.246  1.00  0.00    -0.354 N 
ATOM     58  N   UNL A   1      41.552  29.675  33.493  1.00  0.00    -0.248 NA
ATOM     59  C   UNL A   1      41.751  30.337  35.724  1.00  0.00     0.031 C 
ATOM     60  C   UNL A   1      44.258  26.769  31.493  1.00  0.00     0.029 A 
ATOM     61  C   UNL A   1      43.417  27.658  32.143  1.00  0.00     0.049 A 
ATOM     62  H   UNL A   1      41.667  28.592  31.430  1.00  0.00     0.167 HD
ATOM     63  C   UNL A   1      42.663  29.056  34.053  1.00  0.00     0.074 A 
ATOM     64  C   UNL A   1      42.759  29.531  35.418  1.00  0.00     0.031 C 
ATOM     65  C   UNL A   1      43.517  28.163  33.491  1.00  0.00     0.034 A 
BRANCH  52  66
ATOM     66  C   UNL A   1      42.017  26.488  27.724  1.00  0.00     0.023 A 
ATOM     67  C   UNL A   1      42.583  27.050  26.561  1.00  0.00     0.012 A 
ATOM     68  C   UNL A   1      41.753  25.105  27.764  1.00  0.00     0.148 A 
ATOM     69  C   UNL A   1      42.838  26.260  25.441  1.00  0.00     0.002 A 
ATOM     70  C   UNL A   1      42.054  24.315  26.660  1.00  0.00     0.091 A 
ATOM     71  F   UNL A   1      41.193  24.590  28.868  1.00  0.00    -0.205 F 
ATOM     72  C   UNL A   1      42.582  24.892  25.494  1.00  0.00     0.022 A 
BRANCH  70  73
ATOM     73  S   UNL A   1      41.832  22.532  26.659  1.00  0.00     0.127 S 
ATOM     74  O   UNL A   1      40.386  22.416  26.849  1.00  0.00    -0.237 OA
ATOM     75  O   UNL A   1      42.302  22.164  25.324  1.00  0.00    -0.237 OA
ATOM     76  O   UNL A   1      42.651  22.026  27.751  1.00  0.00    -0.744 OA
ENDBRANCH  70  73
ENDBRANCH  52  66
BRANCH  53  77
ATOM     77  C   UNL A   1      39.381  32.086  35.582  1.00  0.00     0.023 A 
ATOM     78  C   UNL A   1      39.618  33.470  35.675  1.00  0.00     0.012 A 
ATOM     79  C   UNL A   1      38.647  31.443  36.600  1.00  0.00     0.148 A 
ATOM     80  C   UNL A   1      39.150  34.198  36.769  1.00  0.00     0.002 A 
ATOM     81  C   UNL A   1      38.135  32.183  37.657  1.00  0.00     0.091 A 
ATOM     82  F   UNL A   1      38.444  30.122  36.498  1.00  0.00    -0.205 F 
ATOM     83  C   UNL A   1      38.398  33.559  37.752  1.00  0.00     0.022 A 
BRANCH  81  84
ATOM     84  S   UNL A   1      37.042  31.473  38.894  1.00  0.00     0.127 S 
ATOM     85  O   UNL A   1      36.858  30.116  38.388  1.00  0.00    -0.237 OA
ATOM     86  O   UNL A   1      37.857  31.574  40.107  1.00  0.00    -0.237 OA
ATOM     87  O   UNL A   1      35.851  32.312  38.900  1.00  0.00    -0.744 OA
ENDBRANCH  81  84
ENDBRANCH  53  77
BRANCH  65  88
ATOM     88  C   UNL A   1      44.648  27.650  34.345  1.00  0.00     0.023 A 
ATOM     89  C   UNL A   1      45.812  28.427  34.506  1.00  0.00     0.012 A 
ATOM     90  C   UNL A   1      44.522  26.438  35.051  1.00  0.00     0.148 A 
ATOM     91  C   UNL A   1      46.846  27.991  35.334  1.00  0.00     0.002 A 
ATOM     92  C   UNL A   1      45.534  26.035  35.914  1.00  0.00     0.091 A 
ATOM     93  F   UNL A   1      43.413  25.706  34.871  1.00  0.00    -0.205 F 
ATOM     94  C   UNL A   1      46.702  26.804  36.048  1.00  0.00     0.022 A 
BRANCH  92  95
ATOM     95  S   UNL A   1      45.398  24.571  36.947  1.00  0.00     0.127 S 
ATOM     96  O   UNL A   1      44.799  23.609  36.023  1.00  0.00    -0.237 OA
ATOM     97  O   UNL A   1      46.795  24.303  37.287  1.00  0.00    -0.237 OA
ATOM     98  O   UNL A   1      44.560  24.950  38.078  1.00  0.00    -0.744 OA
ENDBRANCH  92  95
ENDBRANCH  65  88
ENDBRANCH  39  40
ENDBRANCH  32  34
ENDBRANCH  31  32
ENDBRANCH  30  31
ENDBRANCH   1  30
TORSDOF 19
ENDMDL
MODEL 2
REMARK VINA RESULT:     -11.6      3.046      9.962
REMARK SMILES O=C(CCC(=O)OCCOC(=O)c1ccc(-c2c3nc(c(-c4cccc(S(=O)(=O)[O-])c4F)c4ccc([nH]4)c(-c4cccc(S(=O)(=O)[O-])c4F)c4nc(c(-c5cccc(S(=O)(=O)[O-])c5F)c5ccc2[nH]5)C=C4)C=C3)cc1)Nc1ccc(N2CCN(c3ccc(F)cc3)CC2)cc1
REMARK SMILES IDX 8 1 7 2 5 3 6 4 4 5 3 6 2 7 1 8 76 9 77 11 78 12 95 13 79 14
REMARK SMILES IDX 94 15 80 16 81 17 82 18 93 19 83 20 92 21 84 22 85 23 86 24
REMARK SMILES IDX 91 25 87 26 90 27 88 28 89 29 9 30 10 31 11 32 12 33 13 34
REMARK SMILES IDX 14 35 75 36 15 37 74 38 16 39 17 40 18 41 68 42 19 43 73 44
REMARK SMILES IDX 67 45 69 46 20 47 72 48 66 49 65 50 21 52 53 53 33 54 52 55
REMARK SMILES IDX 34 56 37 57 51 58 70 59 35 60 36 61 50 63 71 64 38 65 22 66
REMARK SMILES IDX 23 67 31 68 24 69 26 70 32 71 25 72 27 73 28 74 29 75 30 76
REMARK SMILES IDX 54 77 55 78 63 79 56 80 58 81 64 82 57 83 59 84 60 85 61 86
REMARK SMILES IDX 62 87 39 88 40 89 48 90 41 91 43 92 49 93 42 94 44 95 45 96
REMARK SMILES IDX 46 97 47 98
REMARK H PARENT 76 10 69 51 37 62
REMARK Flexibility Score: inf
ROOT
ATOM      1  C   UNL A   1      44.902  21.553  23.841  1.00  0.00     0.274 C 
ENDROOT
BRANCH   1   2
ATOM      2  O   UNL A   1      45.322  20.510  24.755  1.00  0.00    -0.462 OA
BRANCH   2   3
ATOM      3  C   UNL A   1      44.404  19.586  25.141  1.00  0.00     0.306 C 
ATOM      4  O   UNL A   1      44.401  18.419  24.773  1.00  0.00    -0.252 OA
BRANCH   3   5
ATOM      5  C   UNL A   1      43.307  20.181  26.014  1.00  0.00     0.132 C 
BRANCH   5   6
ATOM      6  C   UNL A   1      41.944  19.483  26.001  1.00  0.00     0.112 C 
BRANCH   6   7
ATOM      7  C   UNL A   1      40.812  20.345  26.550  1.00  0.00     0.224 C 
ATOM      8  O   UNL A   1      40.672  20.539  27.753  1.00  0.00    -0.275 OA
ATOM      9  N   UNL A   1      39.982  20.801  25.556  1.00  0.00    -0.326 N 
ATOM     10  H   UNL A   1      40.268  20.597  24.637  1.00  0.00     0.169 HD
BRANCH   9  11
ATOM     11  C   UNL A   1      38.788  21.516  25.670  1.00  0.00     0.041 A 
ATOM     12  C   UNL A   1      37.631  20.837  25.283  1.00  0.00     0.028 A 
ATOM     13  C   UNL A   1      38.694  22.827  26.118  1.00  0.00     0.028 A 
ATOM     14  C   UNL A   1      36.390  21.452  25.370  1.00  0.00     0.028 A 
ATOM     15  C   UNL A   1      37.442  23.462  26.146  1.00  0.00     0.028 A 
ATOM     16  C   UNL A   1      36.273  22.778  25.787  1.00  0.00     0.037 A 
BRANCH  16  17
ATOM     17  N   UNL A   1      35.015  23.337  25.844  1.00  0.00    -0.368 N 
ATOM     18  C   UNL A   1      34.909  24.801  25.713  1.00  0.00     0.138 C 
ATOM     19  C   UNL A   1      33.804  22.572  25.533  1.00  0.00     0.138 C 
ATOM     20  C   UNL A   1      34.367  25.181  24.316  1.00  0.00     0.138 C 
ATOM     21  C   UNL A   1      33.176  22.994  24.189  1.00  0.00     0.138 C 
ATOM     22  N   UNL A   1      33.111  24.458  24.039  1.00  0.00    -0.368 N 
BRANCH  22  23
ATOM     23  C   UNL A   1      31.923  25.156  24.015  1.00  0.00     0.037 A 
ATOM     24  C   UNL A   1      30.995  24.986  25.057  1.00  0.00     0.029 A 
ATOM     25  C   UNL A   1      31.588  26.040  22.981  1.00  0.00     0.029 A 
ATOM     26  C   UNL A   1      29.781  25.676  25.074  1.00  0.00     0.041 A 
ATOM     27  C   UNL A   1      30.367  26.722  22.981  1.00  0.00     0.041 A 
ATOM     28  C   UNL A   1      29.477  26.536  24.031  1.00  0.00     0.123 A 
ATOM     29  F   UNL A   1      28.310  27.195  24.036  1.00  0.00    -0.207 F 
ENDBRANCH  22  23
ENDBRANCH  16  17
ENDBRANCH   9  11
ENDBRANCH   6   7
ENDBRANCH   5   6
ENDBRANCH   3   5
ENDBRANCH   2   3
ENDBRANCH   1   2
BRANCH   1  30
ATOM     30  C   UNL A   1      45.480  22.904  24.268  1.00  0.00     0.275 C 
BRANCH  30  31
ATOM     31  O   UNL A   1      44.751  23.411  25.396  1.00  0.00    -0.458 OA
BRANCH  31  32
ATOM     32  C   UNL A   1      43.438  23.651  25.169  1.00  0.00     0.338 C 
ATOM     33  O   UNL A   1      42.702  23.054  24.413  1.00  0.00    -0.246 OA
BRANCH  32  34
ATOM     34  C   UNL A   1      42.987  24.649  26.152  1.00  0.00     0.060 A 
ATOM     35  C   UNL A   1      42.018  24.274  27.087  1.00  0.00     0.016 A 
ATOM     36  C   UNL A   1      43.535  25.929  26.159  1.00  0.00     0.016 A 
ATOM     37  C   UNL A   1      41.608  25.180  28.060  1.00  0.00     0.010 A 
ATOM     38  C   UNL A   1      43.127  26.834  27.137  1.00  0.00     0.010 A 
ATOM     39  C   UNL A   1      42.167  26.462  28.095  1.00  0.00    -0.014 A 
BRANCH  39  40
ATOM     40  C   UNL A   1      41.771  27.424  29.148  1.00  0.00     0.031 A 
ATOM     41  C   UNL A   1      42.536  27.482  30.433  1.00  0.00     0.074 A 
ATOM     42  C   UNL A   1      40.677  28.186  28.965  1.00  0.00     0.049 A 
ATOM     43  N   UNL A   1      42.270  28.152  31.522  1.00  0.00    -0.248 NA
ATOM     44  C   UNL A   1      43.759  26.666  30.507  1.00  0.00     0.031 C 
ATOM     45  C   UNL A   1      39.851  28.196  27.756  1.00  0.00     0.029 A 
ATOM     46  N   UNL A   1      40.046  29.062  29.811  1.00  0.00    -0.354 N 
ATOM     47  C   UNL A   1      43.264  27.810  32.429  1.00  0.00     0.074 A 
ATOM     48  C   UNL A   1      44.138  26.867  31.760  1.00  0.00     0.031 C 
ATOM     49  C   UNL A   1      38.799  29.006  27.954  1.00  0.00     0.029 A 
ATOM     50  C   UNL A   1      38.853  29.532  29.314  1.00  0.00     0.049 A 
ATOM     51  H   UNL A   1      40.411  29.328  30.687  1.00  0.00     0.167 HD
ATOM     52  C   UNL A   1      43.435  28.248  33.699  1.00  0.00     0.034 A 
ATOM     53  C   UNL A   1      37.887  30.261  29.905  1.00  0.00     0.034 A 
ATOM     54  C   UNL A   1      42.561  29.190  34.345  1.00  0.00     0.049 A 
ATOM     55  C   UNL A   1      38.084  30.718  31.324  1.00  0.00     0.074 A 
ATOM     56  C   UNL A   1      42.678  29.747  35.605  1.00  0.00     0.029 A 
ATOM     57  N   UNL A   1      41.392  29.695  33.792  1.00  0.00    -0.354 N 
ATOM     58  N   UNL A   1      39.094  30.490  32.130  1.00  0.00    -0.248 NA
ATOM     59  C   UNL A   1      37.026  31.552  31.908  1.00  0.00     0.031 C 
ATOM     60  C   UNL A   1      41.559  30.559  35.829  1.00  0.00     0.029 A 
ATOM     61  C   UNL A   1      40.765  30.537  34.694  1.00  0.00     0.049 A 
ATOM     62  H   UNL A   1      41.058  29.486  32.890  1.00  0.00     0.167 HD
ATOM     63  C   UNL A   1      38.804  31.168  33.308  1.00  0.00     0.074 A 
ATOM     64  C   UNL A   1      37.535  31.836  33.099  1.00  0.00     0.031 C 
ATOM     65  C   UNL A   1      39.516  31.220  34.461  1.00  0.00     0.034 A 
BRANCH  52  66
ATOM     66  C   UNL A   1      44.613  27.709  34.466  1.00  0.00     0.023 A 
ATOM     67  C   UNL A   1      44.478  26.530  35.227  1.00  0.00     0.012 A 
ATOM     68  C   UNL A   1      45.863  28.357  34.414  1.00  0.00     0.148 A 
ATOM     69  C   UNL A   1      45.554  26.028  35.960  1.00  0.00     0.002 A 
ATOM     70  C   UNL A   1      46.944  27.826  35.110  1.00  0.00     0.091 A 
ATOM     71  F   UNL A   1      45.970  29.490  33.706  1.00  0.00    -0.205 F 
ATOM     72  C   UNL A   1      46.787  26.671  35.895  1.00  0.00     0.022 A 
BRANCH  70  73
ATOM     73  S   UNL A   1      48.591  28.538  35.027  1.00  0.00     0.127 S 
ATOM     74  O   UNL A   1      49.372  27.562  35.787  1.00  0.00    -0.237 OA
ATOM     75  O   UNL A   1      48.853  28.538  33.587  1.00  0.00    -0.237 OA
ATOM     76  O   UNL A   1      48.486  29.861  35.625  1.00  0.00    -0.744 OA
ENDBRANCH  70  73
ENDBRANCH  52  66
BRANCH  53  77
ATOM     77  C   UNL A   1      36.653  30.595  29.144  1.00  0.00     0.023 A 
ATOM     78  C   UNL A   1      35.835  29.562  28.649  1.00  0.00     0.012 A 
ATOM     79  C   UNL A   1      36.253  31.935  28.965  1.00  0.00     0.148 A 
ATOM     80  C   UNL A   1      34.652  29.857  27.972  1.00  0.00     0.002 A 
ATOM     81  C   UNL A   1      35.045  32.220  28.341  1.00  0.00     0.091 A 
ATOM     82  F   UNL A   1      37.053  32.903  29.434  1.00  0.00    -0.205 F 
ATOM     83  C   UNL A   1      34.250  31.183  27.830  1.00  0.00     0.022 A 
BRANCH  81  84
ATOM     84  S   UNL A   1      34.382  33.887  28.236  1.00  0.00     0.127 S 
ATOM     85  O   UNL A   1      35.235  34.484  27.211  1.00  0.00    -0.237 OA
ATOM     86  O   UNL A   1      33.002  33.634  27.818  1.00  0.00    -0.237 OA
ATOM     87  O   UNL A   1      34.512  34.451  29.572  1.00  0.00    -0.744 OA
ENDBRANCH  81  84
ENDBRANCH  53  77
BRANCH  65  88
ATOM     88  C   UNL A   1      38.952  32.044  35.591  1.00  0.00     0.023 A 
ATOM     89  C   UNL A   1      39.001  33.450  35.525  1.00  0.00     0.012 A 
ATOM     90  C   UNL A   1      38.301  31.425  36.676  1.00  0.00     0.148 A 
ATOM     91  C   UNL A   1      38.438  34.227  36.536  1.00  0.00     0.002 A 
ATOM     92  C   UNL A   1      37.697  32.206  37.654  1.00  0.00     0.091 A 
ATOM     93  F   UNL A   1      38.280  30.085  36.728  1.00  0.00    -0.205 F 
ATOM     94  C   UNL A   1      37.774  33.607  37.592  1.00  0.00     0.022 A 
BRANCH  92  95
ATOM     95  S   UNL A   1      36.740  31.500  39.000  1.00  0.00     0.127 S 
ATOM     96  O   UNL A   1      37.706  31.523  40.097  1.00  0.00    -0.237 OA
ATOM     97  O   UNL A   1      35.642  32.459  39.133  1.00  0.00    -0.237 OA
ATOM     98  O   UNL A   1      36.335  30.173  38.556  1.00  0.00    -0.744 OA
ENDBRANCH  92  95
ENDBRANCH  65  88
ENDBRANCH  39  40
ENDBRANCH  32  34
ENDBRANCH  31  32
ENDBRANCH  30  31
ENDBRANCH   1  30
TORSDOF 19
ENDMDL
MODEL 3
REMARK VINA RESULT:     -11.5      2.620      9.460
REMARK SMILES O=C(CCC(=O)OCCOC(=O)c1ccc(-c2c3nc(c(-c4cccc(S(=O)(=O)[O-])c4F)c4ccc([nH]4)c(-c4cccc(S(=O)(=O)[O-])c4F)c4nc(c(-c5cccc(S(=O)(=O)[O-])c5F)c5ccc2[nH]5)C=C4)C=C3)cc1)Nc1ccc(N2CCN(c3ccc(F)cc3)CC2)cc1
REMARK SMILES IDX 8 1 7 2 5 3 6 4 4 5 3 6 2 7 1 8 76 9 77 11 78 12 95 13 79 14
REMARK SMILES IDX 94 15 80 16 81 17 82 18 93 19 83 20 92 21 84 22 85 23 86 24
REMARK SMILES IDX 91 25 87 26 90 27 88 28 89 29 9 30 10 31 11 32 12 33 13 34
REMARK SMILES IDX 14 35 75 36 15 37 74 38 16 39 17 40 18 41 68 42 19 43 73 44
REMARK SMILES IDX 67 45 69 46 20 47 72 48 66 49 65 50 21 52 53 53 33 54 52 55
REMARK SMILES IDX 34 56 37 57 51 58 70 59 35 60 36 61 50 63 71 64 38 65 22 66
REMARK SMILES IDX 23 67 31 68 24 69 26 70 32 71 25 72 27 73 28 74 29 75 30 76
REMARK SMILES IDX 54 77 55 78 63 79 56 80 58 81 64 82 57 83 59 84 60 85 61 86
REMARK SMILES IDX 62 87 39 88 40 89 48 90 41 91 43 92 49 93 42 94 44 95 45 96
REMARK SMILES IDX 46 97 47 98
REMARK H PARENT 76 10 69 51 37 62
REMARK Flexibility Score: inf
ROOT
ATOM      1  C   UNL A   1      44.925  21.664  25.305  1.00  0.00     0.274 C 
ENDROOT
BRANCH   1   2
ATOM      2  O   UNL A   1      43.891  21.703  26.319  1.00  0.00    -0.462 OA
BRANCH   2   3
ATOM      3  C   UNL A   1      42.616  21.962  25.927  1.00  0.00     0.306 C 
ATOM      4  O   UNL A   1      42.317  22.575  24.912  1.00  0.00    -0.252 OA
BRANCH   3   5
ATOM      5  C   UNL A   1      41.584  21.491  26.943  1.00  0.00     0.132 C 
BRANCH   5   6
ATOM      6  C   UNL A   1      40.231  21.019  26.403  1.00  0.00     0.112 C 
BRANCH   6   7
ATOM      7  C   UNL A   1      39.205  22.139  26.264  1.00  0.00     0.224 C 
ATOM      8  O   UNL A   1      39.331  23.208  26.852  1.00  0.00    -0.275 OA
ATOM      9  N   UNL A   1      38.146  21.773  25.469  1.00  0.00    -0.326 N 
ATOM     10  H   UNL A   1      38.228  20.896  25.031  1.00  0.00     0.169 HD
BRANCH   9  11
ATOM     11  C   UNL A   1      36.970  22.475  25.198  1.00  0.00     0.041 A 
ATOM     12  C   UNL A   1      36.706  22.723  23.850  1.00  0.00     0.028 A 
ATOM     13  C   UNL A   1      36.088  22.938  26.165  1.00  0.00     0.028 A 
ATOM     14  C   UNL A   1      35.556  23.402  23.470  1.00  0.00     0.028 A 
ATOM     15  C   UNL A   1      34.958  23.675  25.776  1.00  0.00     0.028 A 
ATOM     16  C   UNL A   1      34.670  23.903  24.423  1.00  0.00     0.037 A 
BRANCH  16  17
ATOM     17  N   UNL A   1      33.550  24.576  23.986  1.00  0.00    -0.368 N 
ATOM     18  C   UNL A   1      32.490  24.856  24.970  1.00  0.00     0.138 C 
ATOM     19  C   UNL A   1      33.567  25.431  22.795  1.00  0.00     0.138 C 
ATOM     20  C   UNL A   1      32.504  26.349  25.371  1.00  0.00     0.138 C 
ATOM     21  C   UNL A   1      33.481  26.929  23.151  1.00  0.00     0.138 C 
ATOM     22  N   UNL A   1      32.451  27.203  24.168  1.00  0.00    -0.368 N 
BRANCH  22  23
ATOM     23  C   UNL A   1      31.304  27.917  23.899  1.00  0.00     0.037 A 
ATOM     24  C   UNL A   1      31.255  29.291  24.190  1.00  0.00     0.029 A 
ATOM     25  C   UNL A   1      30.161  27.327  23.341  1.00  0.00     0.029 A 
ATOM     26  C   UNL A   1      30.114  30.053  23.929  1.00  0.00     0.041 A 
ATOM     27  C   UNL A   1      29.009  28.080  23.093  1.00  0.00     0.041 A 
ATOM     28  C   UNL A   1      28.999  29.437  23.386  1.00  0.00     0.123 A 
ATOM     29  F   UNL A   1      27.897  30.160  23.141  1.00  0.00    -0.207 F 
ENDBRANCH  22  23
ENDBRANCH  16  17
ENDBRANCH   9  11
ENDBRANCH   6   7
ENDBRANCH   5   6
ENDBRANCH   3   5
ENDBRANCH   2   3
ENDBRANCH   1   2
BRANCH   1  30
ATOM     30  C   UNL A   1      45.778  22.934  25.360  1.00  0.00     0.275 C 
BRANCH  30  31
ATOM     31  O   UNL A   1      45.225  23.850  26.317  1.00  0.00    -0.458 OA
BRANCH  31  32
ATOM     32  C   UNL A   1      44.708  24.986  25.791  1.00  0.00     0.338 C 
ATOM     33  O   UNL A   1      44.665  25.300  24.621  1.00  0.00    -0.246 OA
BRANCH  32  34
ATOM     34  C   UNL A   1      44.016  25.706  26.870  1.00  0.00     0.060 A 
ATOM     35  C   UNL A   1      43.070  25.017  27.633  1.00  0.00     0.016 A 
ATOM     36  C   UNL A   1      44.320  27.040  27.135  1.00  0.00     0.016 A 
ATOM     37  C   UNL A   1      42.434  25.657  28.693  1.00  0.00     0.010 A 
ATOM     38  C   UNL A   1      43.686  27.679  28.200  1.00  0.00     0.010 A 
ATOM     39  C   UNL A   1      42.747  26.990  28.986  1.00  0.00    -0.014 A 
BRANCH  39  40
ATOM     40  C   UNL A   1      42.110  27.673  30.135  1.00  0.00     0.031 A 
ATOM     41  C   UNL A   1      40.892  28.516  29.920  1.00  0.00     0.074 A 
ATOM     42  C   UNL A   1      42.680  27.586  31.351  1.00  0.00     0.049 A 
ATOM     43  N   UNL A   1      40.271  29.298  30.762  1.00  0.00    -0.248 NA
ATOM     44  C   UNL A   1      40.302  28.487  28.573  1.00  0.00     0.031 C 
ATOM     45  C   UNL A   1      43.876  26.802  31.665  1.00  0.00     0.029 A 
ATOM     46  N   UNL A   1      42.356  28.198  32.535  1.00  0.00    -0.354 N 
ATOM     47  C   UNL A   1      39.242  29.888  30.042  1.00  0.00     0.074 A 
ATOM     48  C   UNL A   1      39.326  29.376  28.689  1.00  0.00     0.031 C 
ATOM     49  C   UNL A   1      44.210  27.014  32.948  1.00  0.00     0.029 A 
ATOM     50  C   UNL A   1      43.283  27.980  33.527  1.00  0.00     0.049 A 
ATOM     51  H   UNL A   1      41.544  28.740  32.661  1.00  0.00     0.167 HD
ATOM     52  C   UNL A   1      38.309  30.771  30.472  1.00  0.00     0.034 A 
ATOM     53  C   UNL A   1      43.401  28.535  34.749  1.00  0.00     0.034 A 
ATOM     54  C   UNL A   1      38.236  31.265  31.821  1.00  0.00     0.049 A 
ATOM     55  C   UNL A   1      42.369  29.531  35.200  1.00  0.00     0.074 A 
ATOM     56  C   UNL A   1      37.295  32.111  32.377  1.00  0.00     0.029 A 
ATOM     57  N   UNL A   1      39.154  30.976  32.821  1.00  0.00    -0.354 N 
ATOM     58  N   UNL A   1      41.325  29.987  34.549  1.00  0.00    -0.248 NA
ATOM     59  C   UNL A   1      42.513  30.072  36.558  1.00  0.00     0.031 C 
ATOM     60  C   UNL A   1      37.666  32.367  33.702  1.00  0.00     0.029 A 
ATOM     61  C   UNL A   1      38.818  31.649  33.983  1.00  0.00     0.049 A 
ATOM     62  H   UNL A   1      39.932  30.381  32.719  1.00  0.00     0.167 HD
ATOM     63  C   UNL A   1      40.676  30.850  35.424  1.00  0.00     0.074 A 
ATOM     64  C   UNL A   1      41.432  30.833  36.660  1.00  0.00     0.031 C 
ATOM     65  C   UNL A   1      39.564  31.599  35.217  1.00  0.00     0.034 A 
BRANCH  52  66
ATOM     66  C   UNL A   1      37.296  31.254  29.468  1.00  0.00     0.023 A 
ATOM     67  C   UNL A   1      37.363  32.575  28.980  1.00  0.00     0.012 A 
ATOM     68  C   UNL A   1      36.290  30.392  28.988  1.00  0.00     0.148 A 
ATOM     69  C   UNL A   1      36.421  33.045  28.065  1.00  0.00     0.002 A 
ATOM     70  C   UNL A   1      35.382  30.853  28.042  1.00  0.00     0.091 A 
ATOM     71  F   UNL A   1      36.224  29.147  29.480  1.00  0.00    -0.205 F 
ATOM     72  C   UNL A   1      35.437  32.182  27.591  1.00  0.00     0.022 A 
BRANCH  70  73
ATOM     73  S   UNL A   1      34.126  29.796  27.313  1.00  0.00     0.127 S 
ATOM     74  O   UNL A   1      34.015  28.737  28.316  1.00  0.00    -0.237 OA
ATOM     75  O   UNL A   1      32.971  30.691  27.244  1.00  0.00    -0.237 OA
ATOM     76  O   UNL A   1      34.651  29.383  26.020  1.00  0.00    -0.744 OA
ENDBRANCH  70  73
ENDBRANCH  52  66
BRANCH  53  77
ATOM     77  C   UNL A   1      44.546  28.152  35.620  1.00  0.00     0.023 A 
ATOM     78  C   UNL A   1      45.791  28.789  35.458  1.00  0.00     0.012 A 
ATOM     79  C   UNL A   1      44.386  27.204  36.650  1.00  0.00     0.148 A 
ATOM     80  C   UNL A   1      46.862  28.474  36.295  1.00  0.00     0.002 A 
ATOM     81  C   UNL A   1      45.438  26.937  37.516  1.00  0.00     0.091 A 
ATOM     82  F   UNL A   1      43.195  26.601  36.778  1.00  0.00    -0.205 F 
ATOM     83  C   UNL A   1      46.683  27.560  37.331  1.00  0.00     0.022 A 
BRANCH  81  84
ATOM     84  S   UNL A   1      45.260  25.881  38.958  1.00  0.00     0.127 S 
ATOM     85  O   UNL A   1      46.568  26.017  39.593  1.00  0.00    -0.237 OA
ATOM     86  O   UNL A   1      44.158  26.530  39.671  1.00  0.00    -0.237 OA
ATOM     87  O   UNL A   1      44.944  24.556  38.442  1.00  0.00    -0.744 OA
ENDBRANCH  81  84
ENDBRANCH  53  77
BRANCH  65  88
ATOM     88  C   UNL A   1      39.079  32.455  36.359  1.00  0.00     0.023 A 
ATOM     89  C   UNL A   1      39.429  33.819  36.409  1.00  0.00     0.012 A 
ATOM     90  C   UNL A   1      38.212  31.927  37.335  1.00  0.00     0.148 A 
ATOM     91  C   UNL A   1      38.946  34.637  37.430  1.00  0.00     0.002 A 
ATOM     92  C   UNL A   1      37.694  32.759  38.319  1.00  0.00     0.091 A 
ATOM     93  F   UNL A   1      37.905  30.623  37.278  1.00  0.00    -0.205 F 
ATOM     94  C   UNL A   1      38.069  34.112  38.376  1.00  0.00     0.022 A 
BRANCH  92  95
ATOM     95  S   UNL A   1      36.485  32.197  39.523  1.00  0.00     0.127 S 
ATOM     96  O   UNL A   1      36.819  30.779  39.643  1.00  0.00    -0.237 OA
ATOM     97  O   UNL A   1      36.820  33.004  40.697  1.00  0.00    -0.237 OA
ATOM     98  O   UNL A   1      35.177  32.480  38.945  1.00  0.00    -0.744 OA
ENDBRANCH  92  95
ENDBRANCH  65  88
ENDBRANCH  39  40
ENDBRANCH  32  34
ENDBRANCH  31  32
ENDBRANCH  30  31
ENDBRANCH   1  30
TORSDOF 19
ENDMDL
