MODEL 1
REMARK VINA RESULT:     -11.3      0.000      0.000
REMARK SMILES Cc1ncccc1NS(=O)(=O)[C@@H](C)C(=O)OCCOC(=O)c1ccc(-c2c3nc(c(-c4cccc(S(=O)(=O)[O-])c4F)c4ccc([nH]4)c(-c4cccc(S(=O)(=O)[O-])c4F)c4nc(c(-c5cccc(S(=O)(=O)[O-])c5F)c5ccc2[nH]5)C=C4)C=C3)cc1
REMARK SMILES IDX 17 1 16 2 14 3 15 4 12 5 13 6 9 7 10 8 11 9 8 10 7 12 1 13
REMARK SMILES IDX 2 14 3 15 4 16 6 17 5 18 18 19 19 20 20 21 21 22 22 23 23 24
REMARK SMILES IDX 84 25 24 26 83 27 25 28 26 29 27 30 77 31 28 32 82 33 76 34
REMARK SMILES IDX 78 35 29 36 81 37 75 38 74 39 30 41 62 42 42 43 61 44 43 45
REMARK SMILES IDX 46 46 60 47 79 48 44 49 45 50 59 52 80 53 47 54 31 55 32 56
REMARK SMILES IDX 40 57 33 58 35 59 41 60 34 61 36 62 37 63 38 64 39 65 63 66
REMARK SMILES IDX 64 67 72 68 65 69 67 70 73 71 66 72 68 73 69 74 70 75 71 76
REMARK SMILES IDX 48 77 49 78 57 79 50 80 52 81 58 82 51 83 53 84 54 85 55 86
REMARK SMILES IDX 56 87
REMARK H PARENT 8 11 78 40 46 51
REMARK Flexibility Score: inf
ROOT
ATOM      1  C   UNL A   1      35.181  20.837  24.979  1.00  0.00     0.274 C 
ENDROOT
BRANCH   1   2
ATOM      2  O   UNL A   1      35.057  22.265  24.795  1.00  0.00    -0.461 OA
BRANCH   2   3
ATOM      3  C   UNL A   1      34.304  22.685  23.744  1.00  0.00     0.326 C 
ATOM      4  O   UNL A   1      34.773  23.241  22.756  1.00  0.00    -0.251 OA
BRANCH   3   5
ATOM      5  C   UNL A   1      32.851  22.335  23.886  1.00  0.00     0.235 C 
ATOM      6  C   UNL A   1      32.327  21.680  22.606  1.00  0.00     0.039 C 
BRANCH   5   7
ATOM      7  S   UNL A   1      31.810  23.721  24.349  1.00  0.00     0.246 S 
ATOM      8  O   UNL A   1      31.815  23.768  25.800  1.00  0.00    -0.206 OA
ATOM      9  O   UNL A   1      30.548  23.650  23.642  1.00  0.00    -0.206 OA
BRANCH   7  10
ATOM     10  N   UNL A   1      32.568  25.112  23.891  1.00  0.00    -0.281 N 
ATOM     11  H   UNL A   1      33.552  25.099  23.850  1.00  0.00     0.180 HD
BRANCH  10  12
ATOM     12  C   UNL A   1      31.916  26.334  23.551  1.00  0.00     0.070 A 
ATOM     13  C   UNL A   1      32.162  25.840  21.068  1.00  0.00     0.069 C 
ATOM     14  C   UNL A   1      31.565  26.596  22.221  1.00  0.00     0.061 A 
ATOM     15  N   UNL A   1      30.730  27.612  21.865  1.00  0.00    -0.259 NA
ATOM     16  C   UNL A   1      30.245  28.397  22.850  1.00  0.00     0.111 A 
ATOM     17  C   UNL A   1      31.455  27.223  24.523  1.00  0.00     0.030 A 
ATOM     18  C   UNL A   1      30.592  28.256  24.177  1.00  0.00     0.022 A 
ENDBRANCH  10  12
ENDBRANCH   7  10
ENDBRANCH   5   7
ENDBRANCH   3   5
ENDBRANCH   2   3
ENDBRANCH   1   2
BRANCH   1  19
ATOM     19  C   UNL A   1      36.657  20.437  24.998  1.00  0.00     0.275 C 
BRANCH  19  20
ATOM     20  O   UNL A   1      37.464  21.555  25.406  1.00  0.00    -0.458 OA
BRANCH  20  21
ATOM     21  C   UNL A   1      38.674  21.217  25.904  1.00  0.00     0.338 C 
ATOM     22  O   UNL A   1      39.262  20.150  25.772  1.00  0.00    -0.246 OA
BRANCH  21  23
ATOM     23  C   UNL A   1      39.296  22.403  26.490  1.00  0.00     0.060 A 
ATOM     24  C   UNL A   1      38.800  23.654  26.116  1.00  0.00     0.016 A 
ATOM     25  C   UNL A   1      40.407  22.293  27.324  1.00  0.00     0.016 A 
ATOM     26  C   UNL A   1      39.447  24.811  26.527  1.00  0.00     0.010 A 
ATOM     27  C   UNL A   1      41.038  23.457  27.762  1.00  0.00     0.010 A 
ATOM     28  C   UNL A   1      40.578  24.719  27.343  1.00  0.00    -0.014 A 
BRANCH  28  29
ATOM     29  C   UNL A   1      41.318  25.946  27.713  1.00  0.00     0.031 A 
ATOM     30  C   UNL A   1      40.630  27.008  28.519  1.00  0.00     0.074 A 
ATOM     31  C   UNL A   1      42.596  26.097  27.319  1.00  0.00     0.049 A 
ATOM     32  N   UNL A   1      41.052  28.203  28.838  1.00  0.00    -0.248 NA
ATOM     33  C   UNL A   1      39.285  26.688  29.026  1.00  0.00     0.031 C 
ATOM     34  C   UNL A   1      43.366  25.113  26.556  1.00  0.00     0.029 A 
ATOM     35  N   UNL A   1      43.465  27.143  27.490  1.00  0.00    -0.354 N 
ATOM     36  C   UNL A   1      40.010  28.797  29.537  1.00  0.00     0.074 A 
ATOM     37  C   UNL A   1      38.935  27.829  29.602  1.00  0.00     0.031 C 
ATOM     38  C   UNL A   1      44.590  25.608  26.315  1.00  0.00     0.029 A 
ATOM     39  C   UNL A   1      44.673  26.958  26.862  1.00  0.00     0.049 A 
ATOM     40  H   UNL A   1      43.245  27.948  28.012  1.00  0.00     0.167 HD
ATOM     41  C   UNL A   1      39.960  30.034  30.084  1.00  0.00     0.034 A 
ATOM     42  C   UNL A   1      45.717  27.797  26.718  1.00  0.00     0.034 A 
ATOM     43  C   UNL A   1      41.054  30.966  30.057  1.00  0.00     0.049 A 
ATOM     44  C   UNL A   1      45.633  29.167  27.334  1.00  0.00     0.074 A 
ATOM     45  C   UNL A   1      41.117  32.235  30.602  1.00  0.00     0.029 A 
ATOM     46  N   UNL A   1      42.279  30.725  29.454  1.00  0.00    -0.354 N 
ATOM     47  N   UNL A   1      44.664  29.693  28.044  1.00  0.00    -0.248 NA
ATOM     48  C   UNL A   1      46.790  30.053  27.143  1.00  0.00     0.031 C 
ATOM     49  C   UNL A   1      42.384  32.763  30.328  1.00  0.00     0.029 A 
ATOM     50  C   UNL A   1      43.109  31.820  29.616  1.00  0.00     0.049 A 
ATOM     51  H   UNL A   1      42.523  29.897  28.982  1.00  0.00     0.167 HD
ATOM     52  C   UNL A   1      45.101  30.961  28.404  1.00  0.00     0.074 A 
ATOM     53  C   UNL A   1      46.433  31.115  27.855  1.00  0.00     0.031 C 
ATOM     54  C   UNL A   1      44.451  31.924  29.104  1.00  0.00     0.034 A 
BRANCH  41  55
ATOM     55  C   UNL A   1      38.691  30.434  30.786  1.00  0.00     0.023 A 
ATOM     56  C   UNL A   1      38.532  30.143  32.154  1.00  0.00     0.012 A 
ATOM     57  C   UNL A   1      37.675  31.132  30.102  1.00  0.00     0.148 A 
ATOM     58  C   UNL A   1      37.371  30.518  32.829  1.00  0.00     0.002 A 
ATOM     59  C   UNL A   1      36.535  31.533  30.791  1.00  0.00     0.091 A 
ATOM     60  F   UNL A   1      37.832  31.372  28.794  1.00  0.00    -0.205 F 
ATOM     61  C   UNL A   1      36.378  31.222  32.151  1.00  0.00     0.022 A 
BRANCH  59  62
ATOM     62  S   UNL A   1      35.232  32.495  30.013  1.00  0.00     0.127 S 
ATOM     63  O   UNL A   1      34.764  31.576  28.977  1.00  0.00    -0.237 OA
ATOM     64  O   UNL A   1      34.292  32.697  31.117  1.00  0.00    -0.237 OA
ATOM     65  O   UNL A   1      35.869  33.714  29.533  1.00  0.00    -0.744 OA
ENDBRANCH  59  62
ENDBRANCH  41  55
BRANCH  42  66
ATOM     66  C   UNL A   1      46.936  27.347  25.988  1.00  0.00     0.023 A 
ATOM     67  C   UNL A   1      47.842  26.482  26.628  1.00  0.00     0.012 A 
ATOM     68  C   UNL A   1      47.175  27.726  24.653  1.00  0.00     0.148 A 
ATOM     69  C   UNL A   1      48.974  26.016  25.958  1.00  0.00     0.002 A 
ATOM     70  C   UNL A   1      48.274  27.214  23.972  1.00  0.00     0.091 A 
ATOM     71  F   UNL A   1      46.315  28.571  24.065  1.00  0.00    -0.205 F 
ATOM     72  C   UNL A   1      49.183  26.370  24.627  1.00  0.00     0.022 A 
BRANCH  70  73
ATOM     73  S   UNL A   1      48.524  27.512  22.218  1.00  0.00     0.127 S 
ATOM     74  O   UNL A   1      49.763  28.285  22.217  1.00  0.00    -0.237 OA
ATOM     75  O   UNL A   1      48.646  26.154  21.687  1.00  0.00    -0.237 OA
ATOM     76  O   UNL A   1      47.327  28.216  21.776  1.00  0.00    -0.744 OA
ENDBRANCH  70  73
ENDBRANCH  42  66
BRANCH  54  77
ATOM     77  C   UNL A   1      45.178  33.221  29.331  1.00  0.00     0.023 A 
ATOM     78  C   UNL A   1      45.951  33.386  30.497  1.00  0.00     0.012 A 
ATOM     79  C   UNL A   1      45.157  34.241  28.360  1.00  0.00     0.148 A 
ATOM     80  C   UNL A   1      46.676  34.557  30.704  1.00  0.00     0.002 A 
ATOM     81  C   UNL A   1      45.916  35.390  28.556  1.00  0.00     0.091 A 
ATOM     82  F   UNL A   1      44.396  34.074  27.269  1.00  0.00    -0.205 F 
ATOM     83  C   UNL A   1      46.668  35.553  29.730  1.00  0.00     0.022 A 
BRANCH  81  84
ATOM     84  S   UNL A   1      46.025  36.680  27.311  1.00  0.00     0.127 S 
ATOM     85  O   UNL A   1      44.670  37.225  27.324  1.00  0.00    -0.237 OA
ATOM     86  O   UNL A   1      47.046  37.569  27.867  1.00  0.00    -0.237 OA
ATOM     87  O   UNL A   1      46.424  36.007  26.082  1.00  0.00    -0.744 OA
ENDBRANCH  81  84
ENDBRANCH  54  77
ENDBRANCH  28  29
ENDBRANCH  21  23
ENDBRANCH  20  21
ENDBRANCH  19  20
ENDBRANCH   1  19
TORSDOF 17
ENDMDL
MODEL 2
REMARK VINA RESULT:     -11.2      5.441     10.360
REMARK SMILES Cc1ncccc1NS(=O)(=O)[C@@H](C)C(=O)OCCOC(=O)c1ccc(-c2c3nc(c(-c4cccc(S(=O)(=O)[O-])c4F)c4ccc([nH]4)c(-c4cccc(S(=O)(=O)[O-])c4F)c4nc(c(-c5cccc(S(=O)(=O)[O-])c5F)c5ccc2[nH]5)C=C4)C=C3)cc1
REMARK SMILES IDX 17 1 16 2 14 3 15 4 12 5 13 6 9 7 10 8 11 9 8 10 7 12 1 13
REMARK SMILES IDX 2 14 3 15 4 16 6 17 5 18 18 19 19 20 20 21 21 22 22 23 23 24
REMARK SMILES IDX 84 25 24 26 83 27 25 28 26 29 27 30 77 31 28 32 82 33 76 34
REMARK SMILES IDX 78 35 29 36 81 37 75 38 74 39 30 41 62 42 42 43 61 44 43 45
REMARK SMILES IDX 46 46 60 47 79 48 44 49 45 50 59 52 80 53 47 54 31 55 32 56
REMARK SMILES IDX 40 57 33 58 35 59 41 60 34 61 36 62 37 63 38 64 39 65 63 66
REMARK SMILES IDX 64 67 72 68 65 69 67 70 73 71 66 72 68 73 69 74 70 75 71 76
REMARK SMILES IDX 48 77 49 78 57 79 50 80 52 81 58 82 51 83 53 84 54 85 55 86
REMARK SMILES IDX 56 87
REMARK H PARENT 8 11 78 40 46 51
REMARK Flexibility Score: inf
ROOT
ATOM      1  C   UNL A   1      31.093  29.062  24.982  1.00  0.00     0.274 C 
ENDROOT
BRANCH   1   2
ATOM      2  O   UNL A   1      30.946  29.157  23.547  1.00  0.00    -0.461 OA
BRANCH   2   3
ATOM      3  C   UNL A   1      31.407  28.110  22.813  1.00  0.00     0.326 C 
ATOM      4  O   UNL A   1      30.778  27.604  21.889  1.00  0.00    -0.251 OA
BRANCH   3   5
ATOM      5  C   UNL A   1      32.792  27.682  23.204  1.00  0.00     0.235 C 
ATOM      6  C   UNL A   1      33.840  28.585  22.548  1.00  0.00     0.039 C 
BRANCH   5   7
ATOM      7  S   UNL A   1      33.148  25.958  22.857  1.00  0.00     0.246 S 
ATOM      8  O   UNL A   1      33.944  25.474  23.971  1.00  0.00    -0.206 OA
ATOM      9  O   UNL A   1      33.651  25.819  21.507  1.00  0.00    -0.206 OA
BRANCH   7  10
ATOM     10  N   UNL A   1      31.737  25.109  22.961  1.00  0.00    -0.281 N 
ATOM     11  H   UNL A   1      31.086  25.224  22.231  1.00  0.00     0.180 HD
BRANCH  10  12
ATOM     12  C   UNL A   1      31.385  24.223  24.021  1.00  0.00     0.070 A 
ATOM     13  C   UNL A   1      32.346  22.236  22.757  1.00  0.00     0.069 C 
ATOM     14  C   UNL A   1      31.829  22.895  24.004  1.00  0.00     0.061 A 
ATOM     15  N   UNL A   1      31.743  22.075  25.088  1.00  0.00    -0.259 NA
ATOM     16  C   UNL A   1      31.186  22.578  26.210  1.00  0.00     0.111 A 
ATOM     17  C   UNL A   1      30.742  24.669  25.176  1.00  0.00     0.030 A 
ATOM     18  C   UNL A   1      30.657  23.849  26.295  1.00  0.00     0.022 A 
ENDBRANCH  10  12
ENDBRANCH   7  10
ENDBRANCH   5   7
ENDBRANCH   3   5
ENDBRANCH   2   3
ENDBRANCH   1   2
BRANCH   1  19
ATOM     19  C   UNL A   1      31.587  30.395  25.547  1.00  0.00     0.275 C 
BRANCH  19  20
ATOM     20  O   UNL A   1      32.855  30.211  26.201  1.00  0.00    -0.458 OA
BRANCH  20  21
ATOM     21  C   UNL A   1      33.229  31.242  26.991  1.00  0.00     0.338 C 
ATOM     22  O   UNL A   1      32.552  32.206  27.327  1.00  0.00    -0.246 OA
BRANCH  21  23
ATOM     23  C   UNL A   1      34.541  30.950  27.566  1.00  0.00     0.060 A 
ATOM     24  C   UNL A   1      34.804  29.636  27.960  1.00  0.00     0.016 A 
ATOM     25  C   UNL A   1      35.465  31.966  27.797  1.00  0.00     0.016 A 
ATOM     26  C   UNL A   1      35.974  29.335  28.643  1.00  0.00     0.010 A 
ATOM     27  C   UNL A   1      36.655  31.657  28.456  1.00  0.00     0.010 A 
ATOM     28  C   UNL A   1      36.902  30.347  28.907  1.00  0.00    -0.014 A 
BRANCH  28  29
ATOM     29  C   UNL A   1      38.109  30.046  29.707  1.00  0.00     0.031 A 
ATOM     30  C   UNL A   1      39.149  29.116  29.155  1.00  0.00     0.074 A 
ATOM     31  C   UNL A   1      38.259  30.604  30.922  1.00  0.00     0.049 A 
ATOM     32  N   UNL A   1      40.209  28.625  29.739  1.00  0.00    -0.248 NA
ATOM     33  C   UNL A   1      38.968  28.673  27.762  1.00  0.00     0.031 C 
ATOM     34  C   UNL A   1      37.320  31.543  31.541  1.00  0.00     0.029 A 
ATOM     35  N   UNL A   1      39.245  30.449  31.861  1.00  0.00    -0.354 N 
ATOM     36  C   UNL A   1      40.794  27.776  28.808  1.00  0.00     0.074 A 
ATOM     37  C   UNL A   1      39.974  27.822  27.616  1.00  0.00     0.031 C 
ATOM     38  C   UNL A   1      37.772  31.871  32.762  1.00  0.00     0.029 A 
ATOM     39  C   UNL A   1      39.000  31.131  33.029  1.00  0.00     0.049 A 
ATOM     40  H   UNL A   1      40.051  29.903  31.713  1.00  0.00     0.167 HD
ATOM     41  C   UNL A   1      41.918  27.034  28.935  1.00  0.00     0.034 A 
ATOM     42  C   UNL A   1      39.676  31.131  34.195  1.00  0.00     0.034 A 
ATOM     43  C   UNL A   1      42.751  27.036  30.107  1.00  0.00     0.049 A 
ATOM     44  C   UNL A   1      40.921  30.295  34.308  1.00  0.00     0.074 A 
ATOM     45  C   UNL A   1      43.926  26.341  30.330  1.00  0.00     0.029 A 
ATOM     46  N   UNL A   1      42.498  27.776  31.251  1.00  0.00    -0.354 N 
ATOM     47  N   UNL A   1      41.496  29.545  33.399  1.00  0.00    -0.248 NA
ATOM     48  C   UNL A   1      41.620  30.318  35.600  1.00  0.00     0.031 C 
ATOM     49  C   UNL A   1      44.383  26.661  31.613  1.00  0.00     0.029 A 
ATOM     50  C   UNL A   1      43.495  27.559  32.186  1.00  0.00     0.049 A 
ATOM     51  H   UNL A   1      41.724  28.370  31.380  1.00  0.00     0.167 HD
ATOM     52  C   UNL A   1      42.634  29.022  33.999  1.00  0.00     0.074 A 
ATOM     53  C   UNL A   1      42.682  29.563  35.343  1.00  0.00     0.031 C 
ATOM     54  C   UNL A   1      43.545  28.154  33.496  1.00  0.00     0.034 A 
BRANCH  41  55
ATOM     55  C   UNL A   1      42.327  26.184  27.763  1.00  0.00     0.023 A 
ATOM     56  C   UNL A   1      43.169  26.726  26.772  1.00  0.00     0.012 A 
ATOM     57  C   UNL A   1      41.913  24.841  27.663  1.00  0.00     0.148 A 
ATOM     58  C   UNL A   1      43.574  25.952  25.686  1.00  0.00     0.002 A 
ATOM     59  C   UNL A   1      42.350  24.065  26.594  1.00  0.00     0.091 A 
ATOM     60  F   UNL A   1      41.088  24.353  28.600  1.00  0.00    -0.205 F 
ATOM     61  C   UNL A   1      43.174  24.620  25.601  1.00  0.00     0.022 A 
BRANCH  59  62
ATOM     62  S   UNL A   1      41.933  22.325  26.436  1.00  0.00     0.127 S 
ATOM     63  O   UNL A   1      40.505  22.390  26.127  1.00  0.00    -0.237 OA
ATOM     64  O   UNL A   1      42.780  21.901  25.320  1.00  0.00    -0.237 OA
ATOM     65  O   UNL A   1      42.273  21.717  27.716  1.00  0.00    -0.744 OA
ENDBRANCH  59  62
ENDBRANCH  41  55
BRANCH  42  66
ATOM     66  C   UNL A   1      39.202  31.976  35.326  1.00  0.00     0.023 A 
ATOM     67  C   UNL A   1      39.361  33.373  35.257  1.00  0.00     0.012 A 
ATOM     68  C   UNL A   1      38.550  31.414  36.441  1.00  0.00     0.148 A 
ATOM     69  C   UNL A   1      38.896  34.193  36.287  1.00  0.00     0.002 A 
ATOM     70  C   UNL A   1      38.039  32.240  37.436  1.00  0.00     0.091 A 
ATOM     71  F   UNL A   1      38.429  30.080  36.504  1.00  0.00    -0.205 F 
ATOM     72  C   UNL A   1      38.223  33.629  37.368  1.00  0.00     0.022 A 
BRANCH  70  73
ATOM     73  S   UNL A   1      37.037  31.594  38.781  1.00  0.00     0.127 S 
ATOM     74  O   UNL A   1      35.880  32.484  38.748  1.00  0.00    -0.237 OA
ATOM     75  O   UNL A   1      36.773  30.224  38.341  1.00  0.00    -0.237 OA
ATOM     76  O   UNL A   1      37.883  31.684  39.963  1.00  0.00    -0.744 OA
ENDBRANCH  70  73
ENDBRANCH  42  66
BRANCH  54  77
ATOM     77  C   UNL A   1      44.681  27.748  34.395  1.00  0.00     0.023 A 
ATOM     78  C   UNL A   1      45.914  28.422  34.298  1.00  0.00     0.012 A 
ATOM     79  C   UNL A   1      44.505  26.758  35.382  1.00  0.00     0.148 A 
ATOM     80  C   UNL A   1      46.964  28.101  35.155  1.00  0.00     0.002 A 
ATOM     81  C   UNL A   1      45.544  26.473  36.260  1.00  0.00     0.091 A 
ATOM     82  F   UNL A   1      43.331  26.112  35.441  1.00  0.00    -0.205 F 
ATOM     83  C   UNL A   1      46.776  27.136  36.142  1.00  0.00     0.022 A 
BRANCH  81  84
ATOM     84  S   UNL A   1      45.353  25.304  37.610  1.00  0.00     0.127 S 
ATOM     85  O   UNL A   1      46.597  25.496  38.351  1.00  0.00    -0.237 OA
ATOM     86  O   UNL A   1      44.155  25.801  38.290  1.00  0.00    -0.237 OA
ATOM     87  O   UNL A   1      45.186  24.001  36.982  1.00  0.00    -0.744 OA
ENDBRANCH  81  84
ENDBRANCH  54  77
ENDBRANCH  28  29
ENDBRANCH  21  23
ENDBRANCH  20  21
ENDBRANCH  19  20
ENDBRANCH   1  19
TORSDOF 17
ENDMDL
MODEL 3
REMARK VINA RESULT:     -11.0      1.574      1.933
REMARK SMILES Cc1ncccc1NS(=O)(=O)[C@@H](C)C(=O)OCCOC(=O)c1ccc(-c2c3nc(c(-c4cccc(S(=O)(=O)[O-])c4F)c4ccc([nH]4)c(-c4cccc(S(=O)(=O)[O-])c4F)c4nc(c(-c5cccc(S(=O)(=O)[O-])c5F)c5ccc2[nH]5)C=C4)C=C3)cc1
REMARK SMILES IDX 17 1 16 2 14 3 15 4 12 5 13 6 9 7 10 8 11 9 8 10 7 12 1 13
REMARK SMILES IDX 2 14 3 15 4 16 6 17 5 18 18 19 19 20 20 21 21 22 22 23 23 24
REMARK SMILES IDX 84 25 24 26 83 27 25 28 26 29 27 30 77 31 28 32 82 33 76 34
REMARK SMILES IDX 78 35 29 36 81 37 75 38 74 39 30 41 62 42 42 43 61 44 43 45
REMARK SMILES IDX 46 46 60 47 79 48 44 49 45 50 59 52 80 53 47 54 31 55 32 56
REMARK SMILES IDX 40 57 33 58 35 59 41 60 34 61 36 62 37 63 38 64 39 65 63 66
REMARK SMILES IDX 64 67 72 68 65 69 67 70 73 71 66 72 68 73 69 74 70 75 71 76
REMARK SMILES IDX 48 77 49 78 57 79 50 80 52 81 58 82 51 83 53 84 54 85 55 86
REMARK SMILES IDX 56 87
REMARK H PARENT 8 11 78 40 46 51
REMARK Flexibility Score: inf
ROOT
ATOM      1  C   UNL A   1      35.142  20.906  25.740  1.00  0.00     0.274 C 
ENDROOT
BRANCH   1   2
ATOM      2  O   UNL A   1      34.089  21.186  24.790  1.00  0.00    -0.461 OA
BRANCH   2   3
ATOM      3  C   UNL A   1      33.510  22.413  24.860  1.00  0.00     0.326 C 
ATOM      4  O   UNL A   1      33.023  22.874  25.888  1.00  0.00    -0.251 OA
BRANCH   3   5
ATOM      5  C   UNL A   1      33.589  23.175  23.568  1.00  0.00     0.235 C 
ATOM      6  C   UNL A   1      34.879  23.997  23.506  1.00  0.00     0.039 C 
BRANCH   5   7
ATOM      7  S   UNL A   1      32.166  24.221  23.251  1.00  0.00     0.246 S 
ATOM      8  O   UNL A   1      31.024  23.332  23.136  1.00  0.00    -0.206 OA
ATOM      9  O   UNL A   1      32.461  25.145  22.176  1.00  0.00    -0.206 OA
BRANCH   7  10
ATOM     10  N   UNL A   1      31.863  25.107  24.609  1.00  0.00    -0.281 N 
ATOM     11  H   UNL A   1      31.296  24.694  25.300  1.00  0.00     0.180 HD
BRANCH  10  12
ATOM     12  C   UNL A   1      32.355  26.421  24.864  1.00  0.00     0.070 A 
ATOM     13  C   UNL A   1      30.278  27.461  23.827  1.00  0.00     0.069 C 
ATOM     14  C   UNL A   1      31.529  27.533  24.655  1.00  0.00     0.061 A 
ATOM     15  N   UNL A   1      31.842  28.779  25.108  1.00  0.00    -0.259 NA
ATOM     16  C   UNL A   1      33.010  28.929  25.767  1.00  0.00     0.111 A 
ATOM     17  C   UNL A   1      33.588  26.644  25.477  1.00  0.00     0.030 A 
ATOM     18  C   UNL A   1      33.916  27.907  25.956  1.00  0.00     0.022 A 
ENDBRANCH  10  12
ENDBRANCH   7  10
ENDBRANCH   5   7
ENDBRANCH   3   5
ENDBRANCH   2   3
ENDBRANCH   1   2
BRANCH   1  19
ATOM     19  C   UNL A   1      36.430  20.542  25.002  1.00  0.00     0.275 C 
BRANCH  19  20
ATOM     20  O   UNL A   1      37.404  21.587  25.169  1.00  0.00    -0.458 OA
BRANCH  20  21
ATOM     21  C   UNL A   1      38.541  21.194  25.786  1.00  0.00     0.338 C 
ATOM     22  O   UNL A   1      39.066  20.088  25.748  1.00  0.00    -0.246 OA
BRANCH  21  23
ATOM     23  C   UNL A   1      39.188  22.363  26.381  1.00  0.00     0.060 A 
ATOM     24  C   UNL A   1      38.666  23.623  26.079  1.00  0.00     0.016 A 
ATOM     25  C   UNL A   1      40.341  22.231  27.151  1.00  0.00     0.016 A 
ATOM     26  C   UNL A   1      39.327  24.769  26.497  1.00  0.00     0.010 A 
ATOM     27  C   UNL A   1      40.989  23.383  27.597  1.00  0.00     0.010 A 
ATOM     28  C   UNL A   1      40.501  24.656  27.248  1.00  0.00    -0.014 A 
BRANCH  28  29
ATOM     29  C   UNL A   1      41.253  25.874  27.623  1.00  0.00     0.031 A 
ATOM     30  C   UNL A   1      40.570  26.948  28.417  1.00  0.00     0.074 A 
ATOM     31  C   UNL A   1      42.537  26.006  27.244  1.00  0.00     0.049 A 
ATOM     32  N   UNL A   1      41.005  28.138  28.738  1.00  0.00    -0.248 NA
ATOM     33  C   UNL A   1      39.215  26.648  28.910  1.00  0.00     0.031 C 
ATOM     34  C   UNL A   1      43.302  25.009  26.493  1.00  0.00     0.029 A 
ATOM     35  N   UNL A   1      43.418  27.041  27.422  1.00  0.00    -0.354 N 
ATOM     36  C   UNL A   1      39.962  28.748  29.423  1.00  0.00     0.074 A 
ATOM     37  C   UNL A   1      38.874  27.796  29.478  1.00  0.00     0.031 C 
ATOM     38  C   UNL A   1      44.536  25.487  26.265  1.00  0.00     0.029 A 
ATOM     39  C   UNL A   1      44.631  26.837  26.808  1.00  0.00     0.049 A 
ATOM     40  H   UNL A   1      43.203  27.851  27.938  1.00  0.00     0.167 HD
ATOM     41  C   UNL A   1      39.922  29.988  29.965  1.00  0.00     0.034 A 
ATOM     42  C   UNL A   1      45.688  27.662  26.674  1.00  0.00     0.034 A 
ATOM     43  C   UNL A   1      41.029  30.905  29.947  1.00  0.00     0.049 A 
ATOM     44  C   UNL A   1      45.615  29.035  27.285  1.00  0.00     0.074 A 
ATOM     45  C   UNL A   1      41.104  32.175  30.490  1.00  0.00     0.029 A 
ATOM     46  N   UNL A   1      42.258  30.646  29.360  1.00  0.00    -0.354 N 
ATOM     47  N   UNL A   1      44.646  29.576  27.982  1.00  0.00    -0.248 NA
ATOM     48  C   UNL A   1      46.786  29.904  27.105  1.00  0.00     0.031 C 
ATOM     49  C   UNL A   1      42.380  32.685  30.229  1.00  0.00     0.029 A 
ATOM     50  C   UNL A   1      43.101  31.730  29.528  1.00  0.00     0.049 A 
ATOM     51  H   UNL A   1      42.496  29.812  28.894  1.00  0.00     0.167 HD
ATOM     52  C   UNL A   1      45.095  30.840  28.343  1.00  0.00     0.074 A 
ATOM     53  C   UNL A   1      46.436  30.973  27.809  1.00  0.00     0.031 C 
ATOM     54  C   UNL A   1      44.451  31.813  29.032  1.00  0.00     0.034 A 
BRANCH  41  55
ATOM     55  C   UNL A   1      38.651  30.408  30.650  1.00  0.00     0.023 A 
ATOM     56  C   UNL A   1      38.470  30.118  32.016  1.00  0.00     0.012 A 
ATOM     57  C   UNL A   1      37.656  31.122  29.955  1.00  0.00     0.148 A 
ATOM     58  C   UNL A   1      37.306  30.511  32.677  1.00  0.00     0.002 A 
ATOM     59  C   UNL A   1      36.513  31.541  30.628  1.00  0.00     0.091 A 
ATOM     60  F   UNL A   1      37.833  31.361  28.648  1.00  0.00    -0.205 F 
ATOM     61  C   UNL A   1      36.333  31.231  31.986  1.00  0.00     0.022 A 
BRANCH  59  62
ATOM     62  S   UNL A   1      35.236  32.523  29.835  1.00  0.00     0.127 S 
ATOM     63  O   UNL A   1      34.750  31.604  28.807  1.00  0.00    -0.237 OA
ATOM     64  O   UNL A   1      34.297  32.761  30.933  1.00  0.00    -0.237 OA
ATOM     65  O   UNL A   1      35.903  33.722  29.343  1.00  0.00    -0.744 OA
ENDBRANCH  59  62
ENDBRANCH  41  55
BRANCH  42  66
ATOM     66  C   UNL A   1      46.909  27.193  25.960  1.00  0.00     0.023 A 
ATOM     67  C   UNL A   1      47.031  27.425  24.578  1.00  0.00     0.012 A 
ATOM     68  C   UNL A   1      47.968  26.568  26.647  1.00  0.00     0.148 A 
ATOM     69  C   UNL A   1      48.178  27.028  23.889  1.00  0.00     0.002 A 
ATOM     70  C   UNL A   1      49.131  26.225  25.967  1.00  0.00     0.091 A 
ATOM     71  F   UNL A   1      47.826  26.332  27.960  1.00  0.00    -0.205 F 
ATOM     72  C   UNL A   1      49.233  26.441  24.584  1.00  0.00     0.022 A 
BRANCH  70  73
ATOM     73  S   UNL A   1      50.581  25.602  26.824  1.00  0.00     0.127 S 
ATOM     74  O   UNL A   1      50.952  26.742  27.658  1.00  0.00    -0.237 OA
ATOM     75  O   UNL A   1      50.041  24.455  27.555  1.00  0.00    -0.237 OA
ATOM     76  O   UNL A   1      51.522  25.243  25.771  1.00  0.00    -0.744 OA
ENDBRANCH  70  73
ENDBRANCH  42  66
BRANCH  54  77
ATOM     77  C   UNL A   1      45.192  33.102  29.263  1.00  0.00     0.023 A 
ATOM     78  C   UNL A   1      46.009  33.234  30.402  1.00  0.00     0.012 A 
ATOM     79  C   UNL A   1      45.140  34.146  28.319  1.00  0.00     0.148 A 
ATOM     80  C   UNL A   1      46.748  34.396  30.611  1.00  0.00     0.002 A 
ATOM     81  C   UNL A   1      45.911  35.286  28.514  1.00  0.00     0.091 A 
ATOM     82  F   UNL A   1      44.337  34.009  27.254  1.00  0.00    -0.205 F 
ATOM     83  C   UNL A   1      46.708  35.416  29.663  1.00  0.00     0.022 A 
BRANCH  81  84
ATOM     84  S   UNL A   1      45.980  36.606  27.299  1.00  0.00     0.127 S 
ATOM     85  O   UNL A   1      44.600  37.084  27.296  1.00  0.00    -0.237 OA
ATOM     86  O   UNL A   1      46.945  37.532  27.893  1.00  0.00    -0.237 OA
ATOM     87  O   UNL A   1      46.435  35.980  26.064  1.00  0.00    -0.744 OA
ENDBRANCH  81  84
ENDBRANCH  54  77
ENDBRANCH  28  29
ENDBRANCH  21  23
ENDBRANCH  20  21
ENDBRANCH  19  20
ENDBRANCH   1  19
TORSDOF 17
ENDMDL
