MODEL 1
REMARK VINA RESULT:     -10.8      0.000      0.000
REMARK SMILES C[C@H](C(=O)OCCOC(=O)c1ccc(-c2c3nc(c(-c4cccc(S(=O)(=O)[O-])c4F)c4ccc([nH]4)c(-c4cccc(S(=O)(=O)[O-])c4F)c4nc(c(-c5cccc(S(=O)(=O)[O-])c5F)c5ccc2[nH]5)C=C4)C=C3)cc1)[C@@H](C)[NH2+]Cc1ccc(F)c(F)c1
REMARK SMILES IDX 6 1 5 2 3 3 4 4 2 5 1 6 74 7 75 8 76 9 77 12 78 13 79 14
REMARK SMILES IDX 85 15 80 16 83 17 81 18 84 19 82 20 7 21 8 22 9 23 10 24
REMARK SMILES IDX 11 25 12 26 73 27 13 28 72 29 14 30 15 31 16 32 66 33 17 34
REMARK SMILES IDX 71 35 65 36 67 37 18 38 70 39 64 40 63 41 19 43 51 44 31 45
REMARK SMILES IDX 50 46 32 47 35 48 49 49 68 50 33 51 34 52 48 54 69 55 36 56
REMARK SMILES IDX 20 57 21 58 29 59 22 60 24 61 30 62 23 63 25 64 26 65 27 66
REMARK SMILES IDX 28 67 52 68 53 69 61 70 54 71 56 72 62 73 55 74 57 75 58 76
REMARK SMILES IDX 59 77 60 78 37 79 38 80 46 81 39 82 41 83 47 84 40 85 42 86
REMARK SMILES IDX 43 87 44 88 45 89
REMARK H PARENT 76 10 76 11 67 42 35 53
REMARK Flexibility Score: inf
ROOT
ATOM      1  C   UNL A   1      32.998  28.154  25.239  1.00  0.00     0.274 C 
ENDROOT
BRANCH   1   2
ATOM      2  O   UNL A   1      31.827  27.651  25.918  1.00  0.00    -0.462 OA
BRANCH   2   3
ATOM      3  C   UNL A   1      31.661  26.300  25.902  1.00  0.00     0.314 C 
ATOM      4  O   UNL A   1      31.042  25.678  26.755  1.00  0.00    -0.252 OA
BRANCH   3   5
ATOM      5  C   UNL A   1      32.371  25.662  24.707  1.00  0.00     0.154 C 
ATOM      6  C   UNL A   1      33.074  24.380  25.198  1.00  0.00     0.026 C 
BRANCH   5   7
ATOM      7  C   UNL A   1      31.428  25.356  23.497  1.00  0.00     0.193 C 
ATOM      8  C   UNL A   1      30.937  23.905  23.498  1.00  0.00     0.076 C 
BRANCH   7   9
ATOM      9  N   UNL A   1      30.309  26.324  23.528  1.00  0.00    -0.340 N 
ATOM     10  H   UNL A   1      30.242  26.680  24.482  1.00  0.00     0.346 HD
ATOM     11  H   UNL A   1      29.503  25.794  23.198  1.00  0.00     0.346 HD
BRANCH   9  12
ATOM     12  C   UNL A   1      30.382  27.483  22.634  1.00  0.00     0.297 C 
BRANCH  12  13
ATOM     13  C   UNL A   1      29.464  28.620  23.035  1.00  0.00     0.009 A 
ATOM     14  C   UNL A   1      28.085  28.577  22.752  1.00  0.00     0.013 A 
ATOM     15  C   UNL A   1      29.998  29.780  23.622  1.00  0.00     0.052 A 
ATOM     16  C   UNL A   1      27.284  29.704  22.945  1.00  0.00     0.043 A 
ATOM     17  C   UNL A   1      29.190  30.898  23.814  1.00  0.00     0.159 A 
ATOM     18  C   UNL A   1      27.848  30.866  23.457  1.00  0.00     0.158 A 
ATOM     19  F   UNL A   1      29.728  32.022  24.307  1.00  0.00    -0.204 F 
ATOM     20  F   UNL A   1      27.085  31.959  23.593  1.00  0.00    -0.204 F 
ENDBRANCH  12  13
ENDBRANCH   9  12
ENDBRANCH   7   9
ENDBRANCH   5   7
ENDBRANCH   3   5
ENDBRANCH   2   3
ENDBRANCH   1   2
BRANCH   1  21
ATOM     21  C   UNL A   1      33.004  29.686  25.237  1.00  0.00     0.275 C 
BRANCH  21  22
ATOM     22  O   UNL A   1      32.472  30.165  26.484  1.00  0.00    -0.458 OA
BRANCH  22  23
ATOM     23  C   UNL A   1      32.981  31.316  26.968  1.00  0.00     0.338 C 
ATOM     24  O   UNL A   1      32.493  32.437  26.877  1.00  0.00    -0.246 OA
BRANCH  23  25
ATOM     25  C   UNL A   1      34.256  31.030  27.648  1.00  0.00     0.060 A 
ATOM     26  C   UNL A   1      34.522  29.747  28.130  1.00  0.00     0.016 A 
ATOM     27  C   UNL A   1      35.178  32.056  27.854  1.00  0.00     0.016 A 
ATOM     28  C   UNL A   1      35.689  29.486  28.844  1.00  0.00     0.010 A 
ATOM     29  C   UNL A   1      36.380  31.779  28.511  1.00  0.00     0.010 A 
ATOM     30  C   UNL A   1      36.640  30.496  29.029  1.00  0.00    -0.014 A 
BRANCH  30  31
ATOM     31  C   UNL A   1      37.894  30.223  29.776  1.00  0.00     0.031 A 
ATOM     32  C   UNL A   1      38.952  29.344  29.169  1.00  0.00     0.074 A 
ATOM     33  C   UNL A   1      38.074  30.737  31.010  1.00  0.00     0.049 A 
ATOM     34  N   UNL A   1      40.038  28.860  29.714  1.00  0.00    -0.248 NA
ATOM     35  C   UNL A   1      38.756  28.944  27.765  1.00  0.00     0.031 C 
ATOM     36  C   UNL A   1      37.130  31.611  31.708  1.00  0.00     0.029 A 
ATOM     37  N   UNL A   1      39.104  30.578  31.904  1.00  0.00    -0.354 N 
ATOM     38  C   UNL A   1      40.619  28.049  28.748  1.00  0.00     0.074 A 
ATOM     39  C   UNL A   1      39.771  28.112  27.577  1.00  0.00     0.031 C 
ATOM     40  C   UNL A   1      37.623  31.910  32.920  1.00  0.00     0.029 A 
ATOM     41  C   UNL A   1      38.887  31.207  33.109  1.00  0.00     0.049 A 
ATOM     42  H   UNL A   1      39.920  30.065  31.702  1.00  0.00     0.167 HD
ATOM     43  C   UNL A   1      41.761  27.326  28.825  1.00  0.00     0.034 A 
ATOM     44  C   UNL A   1      39.606  31.192  34.248  1.00  0.00     0.034 A 
ATOM     45  C   UNL A   1      42.638  27.318  29.965  1.00  0.00     0.049 A 
ATOM     46  C   UNL A   1      40.881  30.397  34.299  1.00  0.00     0.074 A 
ATOM     47  C   UNL A   1      43.842  26.653  30.119  1.00  0.00     0.029 A 
ATOM     48  N   UNL A   1      42.413  28.017  31.140  1.00  0.00    -0.354 N 
ATOM     49  N   UNL A   1      41.451  29.689  33.354  1.00  0.00    -0.248 NA
ATOM     50  C   UNL A   1      41.624  30.410  35.569  1.00  0.00     0.031 C 
ATOM     51  C   UNL A   1      44.344  26.948  31.391  1.00  0.00     0.029 A 
ATOM     52  C   UNL A   1      43.456  27.802  32.026  1.00  0.00     0.049 A 
ATOM     53  H   UNL A   1      41.628  28.584  31.320  1.00  0.00     0.167 HD
ATOM     54  C   UNL A   1      42.624  29.189  33.905  1.00  0.00     0.074 A 
ATOM     55  C   UNL A   1      42.700  29.698  35.260  1.00  0.00     0.031 C 
ATOM     56  C   UNL A   1      43.544  28.362  33.350  1.00  0.00     0.034 A 
BRANCH  43  57
ATOM     57  C   UNL A   1      42.149  26.505  27.625  1.00  0.00     0.023 A 
ATOM     58  C   UNL A   1      42.876  27.105  26.577  1.00  0.00     0.012 A 
ATOM     59  C   UNL A   1      41.840  25.133  27.556  1.00  0.00     0.148 A 
ATOM     60  C   UNL A   1      43.268  26.356  25.467  1.00  0.00     0.002 A 
ATOM     61  C   UNL A   1      42.266  24.385  26.464  1.00  0.00     0.091 A 
ATOM     62  F   UNL A   1      41.123  24.587  28.550  1.00  0.00    -0.205 F 
ATOM     63  C   UNL A   1      42.972  24.996  25.416  1.00  0.00     0.022 A 
BRANCH  61  64
ATOM     64  S   UNL A   1      41.991  22.613  26.348  1.00  0.00     0.127 S 
ATOM     65  O   UNL A   1      42.600  22.138  27.589  1.00  0.00    -0.237 OA
ATOM     66  O   UNL A   1      40.531  22.525  26.315  1.00  0.00    -0.237 OA
ATOM     67  O   UNL A   1      42.649  22.191  25.119  1.00  0.00    -0.744 OA
ENDBRANCH  61  64
ENDBRANCH  43  57
BRANCH  44  68
ATOM     68  C   UNL A   1      39.146  31.987  35.423  1.00  0.00     0.023 A 
ATOM     69  C   UNL A   1      38.232  31.414  36.326  1.00  0.00     0.012 A 
ATOM     70  C   UNL A   1      39.645  33.280  35.677  1.00  0.00     0.148 A 
ATOM     71  C   UNL A   1      37.808  32.120  37.453  1.00  0.00     0.002 A 
ATOM     72  C   UNL A   1      39.263  33.954  36.831  1.00  0.00     0.091 A 
ATOM     73  F   UNL A   1      40.495  33.821  34.792  1.00  0.00    -0.205 F 
ATOM     74  C   UNL A   1      38.335  33.382  37.714  1.00  0.00     0.022 A 
BRANCH  72  75
ATOM     75  S   UNL A   1      40.004  35.520  37.308  1.00  0.00     0.127 S 
ATOM     76  O   UNL A   1      39.372  35.771  38.599  1.00  0.00    -0.237 OA
ATOM     77  O   UNL A   1      41.426  35.182  37.373  1.00  0.00    -0.237 OA
ATOM     78  O   UNL A   1      39.663  36.449  36.238  1.00  0.00    -0.744 OA
ENDBRANCH  72  75
ENDBRANCH  44  68
BRANCH  56  79
ATOM     79  C   UNL A   1      44.724  27.967  34.195  1.00  0.00     0.023 A 
ATOM     80  C   UNL A   1      45.863  28.796  34.223  1.00  0.00     0.012 A 
ATOM     81  C   UNL A   1      44.677  26.825  35.018  1.00  0.00     0.148 A 
ATOM     82  C   UNL A   1      46.949  28.480  35.038  1.00  0.00     0.002 A 
ATOM     83  C   UNL A   1      45.747  26.539  35.858  1.00  0.00     0.091 A 
ATOM     84  F   UNL A   1      43.594  26.037  34.960  1.00  0.00    -0.205 F 
ATOM     85  C   UNL A   1      46.887  27.360  35.864  1.00  0.00     0.022 A 
BRANCH  83  86
ATOM     86  S   UNL A   1      45.711  25.163  37.013  1.00  0.00     0.127 S 
ATOM     87  O   UNL A   1      45.895  24.019  36.121  1.00  0.00    -0.237 OA
ATOM     88  O   UNL A   1      46.854  25.448  37.880  1.00  0.00    -0.237 OA
ATOM     89  O   UNL A   1      44.418  25.241  37.679  1.00  0.00    -0.744 OA
ENDBRANCH  83  86
ENDBRANCH  56  79
ENDBRANCH  30  31
ENDBRANCH  23  25
ENDBRANCH  22  23
ENDBRANCH  21  22
ENDBRANCH   1  21
TORSDOF 18
ENDMDL
MODEL 2
REMARK VINA RESULT:     -10.7      2.445      3.601
REMARK SMILES C[C@H](C(=O)OCCOC(=O)c1ccc(-c2c3nc(c(-c4cccc(S(=O)(=O)[O-])c4F)c4ccc([nH]4)c(-c4cccc(S(=O)(=O)[O-])c4F)c4nc(c(-c5cccc(S(=O)(=O)[O-])c5F)c5ccc2[nH]5)C=C4)C=C3)cc1)[C@@H](C)[NH2+]Cc1ccc(F)c(F)c1
REMARK SMILES IDX 6 1 5 2 3 3 4 4 2 5 1 6 74 7 75 8 76 9 77 12 78 13 79 14
REMARK SMILES IDX 85 15 80 16 83 17 81 18 84 19 82 20 7 21 8 22 9 23 10 24
REMARK SMILES IDX 11 25 12 26 73 27 13 28 72 29 14 30 15 31 16 32 66 33 17 34
REMARK SMILES IDX 71 35 65 36 67 37 18 38 70 39 64 40 63 41 19 43 51 44 31 45
REMARK SMILES IDX 50 46 32 47 35 48 49 49 68 50 33 51 34 52 48 54 69 55 36 56
REMARK SMILES IDX 20 57 21 58 29 59 22 60 24 61 30 62 23 63 25 64 26 65 27 66
REMARK SMILES IDX 28 67 52 68 53 69 61 70 54 71 56 72 62 73 55 74 57 75 58 76
REMARK SMILES IDX 59 77 60 78 37 79 38 80 46 81 39 82 41 83 47 84 40 85 42 86
REMARK SMILES IDX 43 87 44 88 45 89
REMARK H PARENT 76 10 76 11 67 42 35 53
REMARK Flexibility Score: inf
ROOT
ATOM      1  C   UNL A   1      31.755  28.377  26.281  1.00  0.00     0.274 C 
ENDROOT
BRANCH   1   2
ATOM      2  O   UNL A   1      31.619  27.418  25.211  1.00  0.00    -0.462 OA
BRANCH   2   3
ATOM      3  C   UNL A   1      32.720  27.229  24.433  1.00  0.00     0.314 C 
ATOM      4  O   UNL A   1      33.840  27.014  24.875  1.00  0.00    -0.252 OA
BRANCH   3   5
ATOM      5  C   UNL A   1      32.383  27.354  22.946  1.00  0.00     0.154 C 
ATOM      6  C   UNL A   1      33.651  27.829  22.208  1.00  0.00     0.026 C 
BRANCH   5   7
ATOM      7  C   UNL A   1      31.823  26.039  22.309  1.00  0.00     0.193 C 
ATOM      8  C   UNL A   1      32.527  25.688  20.993  1.00  0.00     0.076 C 
BRANCH   7   9
ATOM      9  N   UNL A   1      31.939  24.956  23.310  1.00  0.00    -0.340 N 
ATOM     10  H   UNL A   1      31.058  24.922  23.825  1.00  0.00     0.346 HD
ATOM     11  H   UNL A   1      32.762  25.203  23.860  1.00  0.00     0.346 HD
BRANCH   9  12
ATOM     12  C   UNL A   1      32.212  23.601  22.824  1.00  0.00     0.297 C 
BRANCH  12  13
ATOM     13  C   UNL A   1      33.336  22.903  23.565  1.00  0.00     0.009 A 
ATOM     14  C   UNL A   1      34.629  23.459  23.616  1.00  0.00     0.013 A 
ATOM     15  C   UNL A   1      33.119  21.639  24.140  1.00  0.00     0.052 A 
ATOM     16  C   UNL A   1      35.699  22.722  24.126  1.00  0.00     0.043 A 
ATOM     17  C   UNL A   1      34.193  20.913  24.650  1.00  0.00     0.159 A 
ATOM     18  C   UNL A   1      35.476  21.443  24.623  1.00  0.00     0.158 A 
ATOM     19  F   UNL A   1      33.985  19.680  25.130  1.00  0.00    -0.204 F 
ATOM     20  F   UNL A   1      36.516  20.722  25.065  1.00  0.00    -0.204 F 
ENDBRANCH  12  13
ENDBRANCH   9  12
ENDBRANCH   7   9
ENDBRANCH   5   7
ENDBRANCH   3   5
ENDBRANCH   2   3
ENDBRANCH   1   2
BRANCH   1  21
ATOM     21  C   UNL A   1      31.687  29.807  25.733  1.00  0.00     0.275 C 
BRANCH  21  22
ATOM     22  O   UNL A   1      32.982  30.422  25.849  1.00  0.00    -0.458 OA
BRANCH  22  23
ATOM     23  C   UNL A   1      33.153  31.312  26.848  1.00  0.00     0.338 C 
ATOM     24  O   UNL A   1      32.411  32.240  27.147  1.00  0.00    -0.246 OA
BRANCH  23  25
ATOM     25  C   UNL A   1      34.407  31.004  27.556  1.00  0.00     0.060 A 
ATOM     26  C   UNL A   1      34.697  29.691  27.933  1.00  0.00     0.016 A 
ATOM     27  C   UNL A   1      35.283  32.034  27.896  1.00  0.00     0.016 A 
ATOM     28  C   UNL A   1      35.840  29.402  28.674  1.00  0.00     0.010 A 
ATOM     29  C   UNL A   1      36.465  31.735  28.580  1.00  0.00     0.010 A 
ATOM     30  C   UNL A   1      36.747  30.419  28.992  1.00  0.00    -0.014 A 
BRANCH  30  31
ATOM     31  C   UNL A   1      37.977  30.118  29.768  1.00  0.00     0.031 A 
ATOM     32  C   UNL A   1      39.038  29.231  29.177  1.00  0.00     0.074 A 
ATOM     33  C   UNL A   1      38.130  30.612  31.013  1.00  0.00     0.049 A 
ATOM     34  N   UNL A   1      40.101  28.724  29.744  1.00  0.00    -0.248 NA
ATOM     35  C   UNL A   1      38.873  28.854  27.763  1.00  0.00     0.031 C 
ATOM     36  C   UNL A   1      37.181  31.490  31.698  1.00  0.00     0.029 A 
ATOM     37  N   UNL A   1      39.134  30.426  31.932  1.00  0.00    -0.354 N 
ATOM     38  C   UNL A   1      40.696  27.917  28.782  1.00  0.00     0.074 A 
ATOM     39  C   UNL A   1      39.881  28.009  27.590  1.00  0.00     0.031 C 
ATOM     40  C   UNL A   1      37.646  31.766  32.927  1.00  0.00     0.029 A 
ATOM     41  C   UNL A   1      38.894  31.042  33.139  1.00  0.00     0.049 A 
ATOM     42  H   UNL A   1      39.948  29.904  31.745  1.00  0.00     0.167 HD
ATOM     43  C   UNL A   1      41.826  27.177  28.879  1.00  0.00     0.034 A 
ATOM     44  C   UNL A   1      39.582  31.001  34.297  1.00  0.00     0.034 A 
ATOM     45  C   UNL A   1      42.671  27.141  30.042  1.00  0.00     0.049 A 
ATOM     46  C   UNL A   1      40.844  30.186  34.371  1.00  0.00     0.074 A 
ATOM     47  C   UNL A   1      43.861  26.456  30.219  1.00  0.00     0.029 A 
ATOM     48  N   UNL A   1      42.426  27.827  31.220  1.00  0.00    -0.354 N 
ATOM     49  N   UNL A   1      41.429  29.483  33.431  1.00  0.00    -0.248 NA
ATOM     50  C   UNL A   1      41.553  30.171  35.659  1.00  0.00     0.031 C 
ATOM     51  C   UNL A   1      44.333  26.726  31.508  1.00  0.00     0.029 A 
ATOM     52  C   UNL A   1      43.441  27.585  32.130  1.00  0.00     0.049 A 
ATOM     53  H   UNL A   1      41.644  28.403  31.387  1.00  0.00     0.167 HD
ATOM     54  C   UNL A   1      42.580  28.958  34.006  1.00  0.00     0.074 A 
ATOM     55  C   UNL A   1      42.626  29.447  35.369  1.00  0.00     0.031 C 
ATOM     56  C   UNL A   1      43.502  28.125  33.464  1.00  0.00     0.034 A 
BRANCH  43  57
ATOM     57  C   UNL A   1      42.234  26.367  27.679  1.00  0.00     0.023 A 
ATOM     58  C   UNL A   1      43.031  26.958  26.679  1.00  0.00     0.012 A 
ATOM     59  C   UNL A   1      41.872  25.011  27.564  1.00  0.00     0.148 A 
ATOM     60  C   UNL A   1      43.442  26.219  25.570  1.00  0.00     0.002 A 
ATOM     61  C   UNL A   1      42.316  24.269  26.475  1.00  0.00     0.091 A 
ATOM     62  F   UNL A   1      41.089  24.473  28.511  1.00  0.00    -0.205 F 
ATOM     63  C   UNL A   1      43.094  24.873  25.473  1.00  0.00     0.022 A 
BRANCH  61  64
ATOM     64  S   UNL A   1      41.975  22.513  26.305  1.00  0.00     0.127 S 
ATOM     65  O   UNL A   1      42.647  22.202  25.045  1.00  0.00    -0.237 OA
ATOM     66  O   UNL A   1      42.620  21.954  27.494  1.00  0.00    -0.237 OA
ATOM     67  O   UNL A   1      40.524  22.392  26.293  1.00  0.00    -0.744 OA
ENDBRANCH  61  64
ENDBRANCH  43  57
BRANCH  44  68
ATOM     68  C   UNL A   1      39.103  31.786  35.470  1.00  0.00     0.023 A 
ATOM     69  C   UNL A   1      38.222  31.184  36.388  1.00  0.00     0.012 A 
ATOM     70  C   UNL A   1      39.551  33.100  35.709  1.00  0.00     0.148 A 
ATOM     71  C   UNL A   1      37.782  31.882  37.514  1.00  0.00     0.002 A 
ATOM     72  C   UNL A   1      39.154  33.768  36.861  1.00  0.00     0.091 A 
ATOM     73  F   UNL A   1      40.369  33.668  34.810  1.00  0.00    -0.205 F 
ATOM     74  C   UNL A   1      38.259  33.167  37.758  1.00  0.00     0.022 A 
BRANCH  72  75
ATOM     75  S   UNL A   1      39.836  35.368  37.317  1.00  0.00     0.127 S 
ATOM     76  O   UNL A   1      39.155  35.635  38.580  1.00  0.00    -0.237 OA
ATOM     77  O   UNL A   1      41.264  35.072  37.437  1.00  0.00    -0.237 OA
ATOM     78  O   UNL A   1      39.504  36.257  36.211  1.00  0.00    -0.744 OA
ENDBRANCH  72  75
ENDBRANCH  44  68
BRANCH  56  79
ATOM     79  C   UNL A   1      44.653  27.701  34.334  1.00  0.00     0.023 A 
ATOM     80  C   UNL A   1      45.815  28.497  34.379  1.00  0.00     0.012 A 
ATOM     81  C   UNL A   1      44.556  26.567  35.163  1.00  0.00     0.148 A 
ATOM     82  C   UNL A   1      46.875  28.154  35.217  1.00  0.00     0.002 A 
ATOM     83  C   UNL A   1      45.601  26.255  36.026  1.00  0.00     0.091 A 
ATOM     84  F   UNL A   1      43.451  25.811  35.090  1.00  0.00    -0.205 F 
ATOM     85  C   UNL A   1      46.764  27.043  36.049  1.00  0.00     0.022 A 
BRANCH  83  86
ATOM     86  S   UNL A   1      45.501  24.889  37.189  1.00  0.00     0.127 S 
ATOM     87  O   UNL A   1      46.787  24.988  37.878  1.00  0.00    -0.237 OA
ATOM     88  O   UNL A   1      44.343  25.254  38.006  1.00  0.00    -0.237 OA
ATOM     89  O   UNL A   1      45.311  23.694  36.378  1.00  0.00    -0.744 OA
ENDBRANCH  83  86
ENDBRANCH  56  79
ENDBRANCH  30  31
ENDBRANCH  23  25
ENDBRANCH  22  23
ENDBRANCH  21  22
ENDBRANCH   1  21
TORSDOF 18
ENDMDL
MODEL 3
REMARK VINA RESULT:     -10.6      5.870     10.431
REMARK SMILES C[C@H](C(=O)OCCOC(=O)c1ccc(-c2c3nc(c(-c4cccc(S(=O)(=O)[O-])c4F)c4ccc([nH]4)c(-c4cccc(S(=O)(=O)[O-])c4F)c4nc(c(-c5cccc(S(=O)(=O)[O-])c5F)c5ccc2[nH]5)C=C4)C=C3)cc1)[C@@H](C)[NH2+]Cc1ccc(F)c(F)c1
REMARK SMILES IDX 6 1 5 2 3 3 4 4 2 5 1 6 74 7 75 8 76 9 77 12 78 13 79 14
REMARK SMILES IDX 85 15 80 16 83 17 81 18 84 19 82 20 7 21 8 22 9 23 10 24
REMARK SMILES IDX 11 25 12 26 73 27 13 28 72 29 14 30 15 31 16 32 66 33 17 34
REMARK SMILES IDX 71 35 65 36 67 37 18 38 70 39 64 40 63 41 19 43 51 44 31 45
REMARK SMILES IDX 50 46 32 47 35 48 49 49 68 50 33 51 34 52 48 54 69 55 36 56
REMARK SMILES IDX 20 57 21 58 29 59 22 60 24 61 30 62 23 63 25 64 26 65 27 66
REMARK SMILES IDX 28 67 52 68 53 69 61 70 54 71 56 72 62 73 55 74 57 75 58 76
REMARK SMILES IDX 59 77 60 78 37 79 38 80 46 81 39 82 41 83 47 84 40 85 42 86
REMARK SMILES IDX 43 87 44 88 45 89
REMARK H PARENT 76 10 76 11 67 42 35 53
REMARK Flexibility Score: inf
ROOT
ATOM      1  C   UNL A   1      36.565  22.995  23.806  1.00  0.00     0.274 C 
ENDROOT
BRANCH   1   2
ATOM      2  O   UNL A   1      35.129  22.993  23.651  1.00  0.00    -0.462 OA
BRANCH   2   3
ATOM      3  C   UNL A   1      34.500  24.176  23.894  1.00  0.00     0.314 C 
ATOM      4  O   UNL A   1      34.022  24.887  23.022  1.00  0.00    -0.252 OA
BRANCH   3   5
ATOM      5  C   UNL A   1      34.498  24.513  25.387  1.00  0.00     0.154 C 
ATOM      6  C   UNL A   1      34.029  25.974  25.545  1.00  0.00     0.026 C 
BRANCH   5   7
ATOM      7  C   UNL A   1      33.626  23.546  26.255  1.00  0.00     0.193 C 
ATOM      8  C   UNL A   1      32.133  23.666  25.932  1.00  0.00     0.076 C 
BRANCH   7   9
ATOM      9  N   UNL A   1      34.132  22.169  26.060  1.00  0.00    -0.340 N 
ATOM     10  H   UNL A   1      35.006  22.090  26.581  1.00  0.00     0.346 HD
ATOM     11  H   UNL A   1      34.210  22.066  25.048  1.00  0.00     0.346 HD
BRANCH   9  12
ATOM     12  C   UNL A   1      33.272  21.059  26.480  1.00  0.00     0.297 C 
BRANCH  12  13
ATOM     13  C   UNL A   1      32.835  20.162  25.338  1.00  0.00     0.009 A 
ATOM     14  C   UNL A   1      32.849  18.760  25.468  1.00  0.00     0.013 A 
ATOM     15  C   UNL A   1      32.490  20.723  24.096  1.00  0.00     0.052 A 
ATOM     16  C   UNL A   1      32.637  17.942  24.357  1.00  0.00     0.043 A 
ATOM     17  C   UNL A   1      32.277  19.898  22.995  1.00  0.00     0.159 A 
ATOM     18  C   UNL A   1      32.372  18.518  23.121  1.00  0.00     0.158 A 
ATOM     19  F   UNL A   1      32.020  20.448  21.800  1.00  0.00    -0.204 F 
ATOM     20  F   UNL A   1      32.219  17.729  22.049  1.00  0.00    -0.204 F 
ENDBRANCH  12  13
ENDBRANCH   9  12
ENDBRANCH   7   9
ENDBRANCH   5   7
ENDBRANCH   3   5
ENDBRANCH   2   3
ENDBRANCH   1   2
BRANCH   1  21
ATOM     21  C   UNL A   1      37.046  21.659  24.380  1.00  0.00     0.275 C 
BRANCH  21  22
ATOM     22  O   UNL A   1      37.427  21.842  25.754  1.00  0.00    -0.458 OA
BRANCH  22  23
ATOM     23  C   UNL A   1      38.707  21.567  26.080  1.00  0.00     0.338 C 
ATOM     24  O   UNL A   1      39.278  20.487  25.987  1.00  0.00    -0.246 OA
BRANCH  23  25
ATOM     25  C   UNL A   1      39.348  22.793  26.586  1.00  0.00     0.060 A 
ATOM     26  C   UNL A   1      38.966  24.041  26.089  1.00  0.00     0.016 A 
ATOM     27  C   UNL A   1      40.373  22.702  27.526  1.00  0.00     0.016 A 
ATOM     28  C   UNL A   1      39.623  25.198  26.501  1.00  0.00     0.010 A 
ATOM     29  C   UNL A   1      40.986  23.870  27.991  1.00  0.00     0.010 A 
ATOM     30  C   UNL A   1      40.630  25.128  27.470  1.00  0.00    -0.014 A 
BRANCH  30  31
ATOM     31  C   UNL A   1      41.324  26.359  27.927  1.00  0.00     0.031 A 
ATOM     32  C   UNL A   1      40.565  27.408  28.691  1.00  0.00     0.074 A 
ATOM     33  C   UNL A   1      42.625  26.552  27.632  1.00  0.00     0.049 A 
ATOM     34  N   UNL A   1      40.941  28.610  29.040  1.00  0.00    -0.248 NA
ATOM     35  C   UNL A   1      39.195  27.063  29.107  1.00  0.00     0.031 C 
ATOM     36  C   UNL A   1      43.477  25.609  26.906  1.00  0.00     0.029 A 
ATOM     37  N   UNL A   1      43.453  27.618  27.889  1.00  0.00    -0.354 N 
ATOM     38  C   UNL A   1      39.838  29.190  29.655  1.00  0.00     0.074 A 
ATOM     39  C   UNL A   1      38.780  28.203  29.641  1.00  0.00     0.031 C 
ATOM     40  C   UNL A   1      44.704  26.138  26.774  1.00  0.00     0.029 A 
ATOM     41  C   UNL A   1      44.713  27.476  27.354  1.00  0.00     0.049 A 
ATOM     42  H   UNL A   1      43.172  28.407  28.407  1.00  0.00     0.167 HD
ATOM     43  C   UNL A   1      39.722  30.427  30.193  1.00  0.00     0.034 A 
ATOM     44  C   UNL A   1      45.747  28.337  27.306  1.00  0.00     0.034 A 
ATOM     45  C   UNL A   1      40.795  31.381  30.267  1.00  0.00     0.049 A 
ATOM     46  C   UNL A   1      45.597  29.698  27.930  1.00  0.00     0.074 A 
ATOM     47  C   UNL A   1      40.786  32.643  30.835  1.00  0.00     0.029 A 
ATOM     48  N   UNL A   1      42.072  31.175  29.770  1.00  0.00    -0.354 N 
ATOM     49  N   UNL A   1      44.569  30.205  28.566  1.00  0.00    -0.248 NA
ATOM     50  C   UNL A   1      46.754  30.602  27.843  1.00  0.00     0.031 C 
ATOM     51  C   UNL A   1      42.059  33.202  30.677  1.00  0.00     0.029 A 
ATOM     52  C   UNL A   1      42.862  32.284  30.018  1.00  0.00     0.049 A 
ATOM     53  H   UNL A   1      42.375  30.358  29.308  1.00  0.00     0.167 HD
ATOM     54  C   UNL A   1      44.959  31.475  28.973  1.00  0.00     0.074 A 
ATOM     55  C   UNL A   1      46.329  31.651  28.534  1.00  0.00     0.031 C 
ATOM     56  C   UNL A   1      44.241  32.421  29.626  1.00  0.00     0.034 A 
BRANCH  43  57
ATOM     57  C   UNL A   1      38.390  30.810  30.779  1.00  0.00     0.023 A 
ATOM     58  C   UNL A   1      38.125  30.547  32.137  1.00  0.00     0.012 A 
ATOM     59  C   UNL A   1      37.421  31.474  30.000  1.00  0.00     0.148 A 
ATOM     60  C   UNL A   1      36.906  30.916  32.706  1.00  0.00     0.002 A 
ATOM     61  C   UNL A   1      36.224  31.873  30.584  1.00  0.00     0.091 A 
ATOM     62  F   UNL A   1      37.680  31.690  28.702  1.00  0.00    -0.205 F 
ATOM     63  C   UNL A   1      35.961  31.587  31.934  1.00  0.00     0.022 A 
BRANCH  61  64
ATOM     64  S   UNL A   1      34.980  32.804  29.682  1.00  0.00     0.127 S 
ATOM     65  O   UNL A   1      34.025  33.124  30.741  1.00  0.00    -0.237 OA
ATOM     66  O   UNL A   1      35.746  33.949  29.186  1.00  0.00    -0.237 OA
ATOM     67  O   UNL A   1      34.493  31.909  28.642  1.00  0.00    -0.744 OA
ENDBRANCH  61  64
ENDBRANCH  43  57
BRANCH  44  68
ATOM     68  C   UNL A   1      47.029  27.920  26.669  1.00  0.00     0.023 A 
ATOM     69  C   UNL A   1      48.097  27.498  27.482  1.00  0.00     0.012 A 
ATOM     70  C   UNL A   1      47.178  27.890  25.268  1.00  0.00     0.148 A 
ATOM     71  C   UNL A   1      49.298  27.070  26.914  1.00  0.00     0.002 A 
ATOM     72  C   UNL A   1      48.355  27.408  24.708  1.00  0.00     0.091 A 
ATOM     73  F   UNL A   1      46.160  28.321  24.509  1.00  0.00    -0.205 F 
ATOM     74  C   UNL A   1      49.422  27.011  25.528  1.00  0.00     0.022 A 
BRANCH  72  75
ATOM     75  S   UNL A   1      48.538  27.168  22.937  1.00  0.00     0.127 S 
ATOM     76  O   UNL A   1      47.544  28.096  22.404  1.00  0.00    -0.237 OA
ATOM     77  O   UNL A   1      49.930  27.561  22.713  1.00  0.00    -0.237 OA
ATOM     78  O   UNL A   1      48.277  25.752  22.711  1.00  0.00    -0.744 OA
ENDBRANCH  72  75
ENDBRANCH  44  68
BRANCH  56  79
ATOM     79  C   UNL A   1      44.924  33.728  29.927  1.00  0.00     0.023 A 
ATOM     80  C   UNL A   1      45.566  33.902  31.169  1.00  0.00     0.012 A 
ATOM     81  C   UNL A   1      44.998  34.748  28.959  1.00  0.00     0.148 A 
ATOM     82  C   UNL A   1      46.250  35.083  31.453  1.00  0.00     0.002 A 
ATOM     83  C   UNL A   1      45.716  35.906  29.235  1.00  0.00     0.091 A 
ATOM     84  F   UNL A   1      44.361  34.572  27.792  1.00  0.00    -0.205 F 
ATOM     85  C   UNL A   1      46.336  36.078  30.483  1.00  0.00     0.022 A 
BRANCH  83  86
ATOM     86  S   UNL A   1      45.945  37.199  28.009  1.00  0.00     0.127 S 
ATOM     87  O   UNL A   1      46.587  36.468  26.918  1.00  0.00    -0.237 OA
ATOM     88  O   UNL A   1      44.570  37.620  27.733  1.00  0.00    -0.237 OA
ATOM     89  O   UNL A   1      46.764  38.216  28.655  1.00  0.00    -0.744 OA
ENDBRANCH  83  86
ENDBRANCH  56  79
ENDBRANCH  30  31
ENDBRANCH  23  25
ENDBRANCH  22  23
ENDBRANCH  21  22
ENDBRANCH   1  21
TORSDOF 18
ENDMDL
