MODEL 1
REMARK VINA RESULT:     -11.4      0.000      0.000
REMARK SMILES Cc1nsc(N(C)C(=O)[C@@H](C)NC(N)=O)c1C(=O)OCCOC(=O)c1ccc(-c2c3nc(c(-c4cccc(S(=O)(=O)[O-])c4F)c4ccc([nH]4)c(-c4cccc(S(=O)(=O)[O-])c4F)c4nc(c(-c5cccc(S(=O)(=O)[O-])c5F)c5ccc2[nH]5)C=C4)C=C3)cc1
REMARK SMILES IDX 20 1 19 2 17 3 18 4 16 5 1 6 2 7 3 8 4 9 5 10 6 11 7 12 8 13
REMARK SMILES IDX 9 14 10 15 11 16 12 17 13 18 14 20 15 21 21 24 22 25 23 26
REMARK SMILES IDX 24 27 25 28 26 29 87 30 27 31 86 32 28 33 29 34 30 35 80 36
REMARK SMILES IDX 31 37 85 38 79 39 81 40 32 41 84 42 78 43 77 44 33 46 65 47
REMARK SMILES IDX 45 48 64 49 46 50 49 51 63 52 82 53 47 54 48 55 62 57 83 58
REMARK SMILES IDX 50 59 34 60 35 61 43 62 36 63 38 64 44 65 37 66 39 67 40 68
REMARK SMILES IDX 41 69 42 70 66 71 67 72 75 73 68 74 70 75 76 76 69 77 71 78
REMARK SMILES IDX 72 79 73 80 74 81 51 82 52 83 60 84 53 85 55 86 61 87 54 88
REMARK SMILES IDX 56 89 57 90 58 91 59 92
REMARK H PARENT 12 19 14 22 14 23 81 45 49 56
REMARK Flexibility Score: inf
ROOT
ATOM      1  C   UNL A   1      37.580  22.167  24.437  1.00  0.00     0.275 C 
ENDROOT
BRANCH   1   2
ATOM      2  O   UNL A   1      36.173  21.972  24.228  1.00  0.00    -0.458 OA
BRANCH   2   3
ATOM      3  C   UNL A   1      35.564  20.934  24.872  1.00  0.00     0.343 C 
ATOM      4  O   UNL A   1      36.088  19.835  25.051  1.00  0.00    -0.246 OA
BRANCH   3   5
ATOM      5  C   UNL A   1      34.170  21.234  25.180  1.00  0.00     0.117 A 
ATOM      6  C   UNL A   1      34.770  23.082  26.962  1.00  0.00     0.069 C 
ATOM      7  C   UNL A   1      33.819  22.285  26.129  1.00  0.00     0.068 A 
ATOM      8  N   UNL A   1      32.527  22.571  26.248  1.00  0.00    -0.195 NA
ATOM      9  S   UNL A   1      31.673  21.518  25.337  1.00  0.00    -0.017 S 
ATOM     10  C   UNL A   1      33.006  20.623  24.685  1.00  0.00     0.133 A 
BRANCH  10  11
ATOM     11  N   UNL A   1      32.662  19.487  23.873  1.00  0.00    -0.303 N 
ATOM     12  C   UNL A   1      32.140  19.654  22.513  1.00  0.00     0.154 C 
BRANCH  11  13
ATOM     13  C   UNL A   1      32.654  18.210  24.469  1.00  0.00     0.249 C 
ATOM     14  O   UNL A   1      31.792  17.867  25.282  1.00  0.00    -0.272 OA
BRANCH  13  15
ATOM     15  C   UNL A   1      33.717  17.121  24.084  1.00  0.00     0.170 C 
ATOM     16  C   UNL A   1      34.083  17.008  22.606  1.00  0.00     0.041 C 
BRANCH  15  17
ATOM     17  N   UNL A   1      34.913  17.139  24.923  1.00  0.00    -0.327 N 
ATOM     18  C   UNL A   1      35.462  15.998  25.419  1.00  0.00     0.312 C 
ATOM     19  H   UNL A   1      35.334  18.003  25.135  1.00  0.00     0.166 HD
ATOM     20  N   UNL A   1      36.573  16.228  26.158  1.00  0.00    -0.352 N 
ATOM     21  O   UNL A   1      35.051  14.863  25.240  1.00  0.00    -0.249 OA
ATOM     22  H   UNL A   1      36.892  17.149  26.294  1.00  0.00     0.161 HD
ATOM     23  H   UNL A   1      37.060  15.473  26.560  1.00  0.00     0.161 HD
ENDBRANCH  15  17
ENDBRANCH  13  15
ENDBRANCH  11  13
ENDBRANCH  10  11
ENDBRANCH   3   5
ENDBRANCH   2   3
ENDBRANCH   1   2
BRANCH   1  24
ATOM     24  C   UNL A   1      37.865  22.036  25.926  1.00  0.00     0.275 C 
BRANCH  24  25
ATOM     25  O   UNL A   1      38.654  23.136  26.351  1.00  0.00    -0.458 OA
BRANCH  25  26
ATOM     26  C   UNL A   1      39.881  22.858  26.850  1.00  0.00     0.338 C 
ATOM     27  O   UNL A   1      40.298  21.796  27.268  1.00  0.00    -0.246 OA
BRANCH  26  28
ATOM     28  C   UNL A   1      40.581  24.138  27.010  1.00  0.00     0.060 A 
ATOM     29  C   UNL A   1      41.593  24.207  27.974  1.00  0.00     0.016 A 
ATOM     30  C   UNL A   1      40.014  25.280  26.428  1.00  0.00     0.016 A 
ATOM     31  C   UNL A   1      41.868  25.434  28.530  1.00  0.00     0.010 A 
ATOM     32  C   UNL A   1      40.242  26.486  27.018  1.00  0.00     0.010 A 
ATOM     33  C   UNL A   1      41.106  26.523  28.107  1.00  0.00    -0.014 A 
BRANCH  33  34
ATOM     34  C   UNL A   1      41.199  27.769  28.815  1.00  0.00     0.031 A 
ATOM     35  C   UNL A   1      42.224  28.678  28.257  1.00  0.00     0.074 A 
ATOM     36  C   UNL A   1      40.280  28.063  29.753  1.00  0.00     0.049 A 
ATOM     37  N   UNL A   1      43.319  29.058  28.824  1.00  0.00    -0.248 NA
ATOM     38  C   UNL A   1      42.134  29.046  26.834  1.00  0.00     0.031 C 
ATOM     39  C   UNL A   1      39.058  27.332  30.111  1.00  0.00     0.029 A 
ATOM     40  N   UNL A   1      40.174  29.196  30.483  1.00  0.00    -0.354 N 
ATOM     41  C   UNL A   1      43.938  29.906  27.910  1.00  0.00     0.074 A 
ATOM     42  C   UNL A   1      43.293  29.678  26.648  1.00  0.00     0.031 C 
ATOM     43  C   UNL A   1      38.225  28.167  30.774  1.00  0.00     0.029 A 
ATOM     44  C   UNL A   1      38.902  29.435  30.982  1.00  0.00     0.049 A 
ATOM     45  H   UNL A   1      40.934  29.799  30.646  1.00  0.00     0.167 HD
ATOM     46  C   UNL A   1      44.764  30.903  28.330  1.00  0.00     0.034 A 
ATOM     47  C   UNL A   1      38.439  30.638  31.406  1.00  0.00     0.034 A 
ATOM     48  C   UNL A   1      45.128  30.713  29.713  1.00  0.00     0.049 A 
ATOM     49  C   UNL A   1      39.633  31.481  31.696  1.00  0.00     0.074 A 
ATOM     50  C   UNL A   1      45.793  29.724  30.408  1.00  0.00     0.029 A 
ATOM     51  N   UNL A   1      44.404  31.418  30.648  1.00  0.00    -0.354 N 
ATOM     52  N   UNL A   1      40.489  31.191  32.639  1.00  0.00    -0.248 NA
ATOM     53  C   UNL A   1      40.153  32.315  30.619  1.00  0.00     0.031 C 
ATOM     54  C   UNL A   1      45.054  29.574  31.618  1.00  0.00     0.029 A 
ATOM     55  C   UNL A   1      44.042  30.536  31.636  1.00  0.00     0.049 A 
ATOM     56  H   UNL A   1      44.185  32.377  30.615  1.00  0.00     0.167 HD
ATOM     57  C   UNL A   1      41.736  31.400  32.058  1.00  0.00     0.074 A 
ATOM     58  C   UNL A   1      41.465  32.185  30.849  1.00  0.00     0.031 C 
ATOM     59  C   UNL A   1      42.825  30.653  32.413  1.00  0.00     0.034 A 
BRANCH  46  60
ATOM     60  C   UNL A   1      44.963  32.234  27.642  1.00  0.00     0.023 A 
ATOM     61  C   UNL A   1      46.220  32.447  27.031  1.00  0.00     0.012 A 
ATOM     62  C   UNL A   1      44.128  33.364  27.795  1.00  0.00     0.148 A 
ATOM     63  C   UNL A   1      46.656  33.725  26.670  1.00  0.00     0.002 A 
ATOM     64  C   UNL A   1      44.541  34.625  27.378  1.00  0.00     0.091 A 
ATOM     65  F   UNL A   1      42.973  33.266  28.454  1.00  0.00    -0.205 F 
ATOM     66  C   UNL A   1      45.817  34.816  26.847  1.00  0.00     0.022 A 
BRANCH  64  67
ATOM     67  S   UNL A   1      43.487  36.072  27.551  1.00  0.00     0.127 S 
ATOM     68  O   UNL A   1      43.333  36.149  29.001  1.00  0.00    -0.237 OA
ATOM     69  O   UNL A   1      44.320  37.118  26.959  1.00  0.00    -0.237 OA
ATOM     70  O   UNL A   1      42.278  35.772  26.795  1.00  0.00    -0.744 OA
ENDBRANCH  64  67
ENDBRANCH  46  60
BRANCH  47  71
ATOM     71  C   UNL A   1      37.074  31.193  31.222  1.00  0.00     0.023 A 
ATOM     72  C   UNL A   1      36.342  31.679  32.322  1.00  0.00     0.012 A 
ATOM     73  C   UNL A   1      36.578  31.471  29.925  1.00  0.00     0.148 A 
ATOM     74  C   UNL A   1      35.164  32.419  32.136  1.00  0.00     0.002 A 
ATOM     75  C   UNL A   1      35.401  32.190  29.746  1.00  0.00     0.091 A 
ATOM     76  F   UNL A   1      37.311  31.117  28.862  1.00  0.00    -0.205 F 
ATOM     77  C   UNL A   1      34.693  32.675  30.849  1.00  0.00     0.022 A 
BRANCH  75  78
ATOM     78  S   UNL A   1      34.759  32.561  28.106  1.00  0.00     0.127 S 
ATOM     79  O   UNL A   1      33.518  33.269  28.418  1.00  0.00    -0.237 OA
ATOM     80  O   UNL A   1      35.819  33.396  27.549  1.00  0.00    -0.237 OA
ATOM     81  O   UNL A   1      34.561  31.270  27.458  1.00  0.00    -0.744 OA
ENDBRANCH  75  78
ENDBRANCH  47  71
BRANCH  59  82
ATOM     82  C   UNL A   1      42.678  29.669  33.554  1.00  0.00     0.023 A 
ATOM     83  C   UNL A   1      42.123  28.383  33.377  1.00  0.00     0.012 A 
ATOM     84  C   UNL A   1      43.310  29.960  34.771  1.00  0.00     0.148 A 
ATOM     85  C   UNL A   1      42.176  27.420  34.390  1.00  0.00     0.002 A 
ATOM     86  C   UNL A   1      43.405  28.986  35.760  1.00  0.00     0.091 A 
ATOM     87  F   UNL A   1      43.851  31.179  34.928  1.00  0.00    -0.205 F 
ATOM     88  C   UNL A   1      42.830  27.719  35.579  1.00  0.00     0.022 A 
BRANCH  86  89
ATOM     89  S   UNL A   1      44.364  29.263  37.249  1.00  0.00     0.127 S 
ATOM     90  O   UNL A   1      43.630  30.355  37.885  1.00  0.00    -0.237 OA
ATOM     91  O   UNL A   1      44.261  27.974  37.936  1.00  0.00    -0.237 OA
ATOM     92  O   UNL A   1      45.713  29.588  36.801  1.00  0.00    -0.744 OA
ENDBRANCH  86  89
ENDBRANCH  59  82
ENDBRANCH  33  34
ENDBRANCH  26  28
ENDBRANCH  25  26
ENDBRANCH  24  25
ENDBRANCH   1  24
TORSDOF 18
ENDMDL
MODEL 2
REMARK VINA RESULT:     -11.1      4.253      9.325
REMARK SMILES Cc1nsc(N(C)C(=O)[C@@H](C)NC(N)=O)c1C(=O)OCCOC(=O)c1ccc(-c2c3nc(c(-c4cccc(S(=O)(=O)[O-])c4F)c4ccc([nH]4)c(-c4cccc(S(=O)(=O)[O-])c4F)c4nc(c(-c5cccc(S(=O)(=O)[O-])c5F)c5ccc2[nH]5)C=C4)C=C3)cc1
REMARK SMILES IDX 20 1 19 2 17 3 18 4 16 5 1 6 2 7 3 8 4 9 5 10 6 11 7 12 8 13
REMARK SMILES IDX 9 14 10 15 11 16 12 17 13 18 14 20 15 21 21 24 22 25 23 26
REMARK SMILES IDX 24 27 25 28 26 29 87 30 27 31 86 32 28 33 29 34 30 35 80 36
REMARK SMILES IDX 31 37 85 38 79 39 81 40 32 41 84 42 78 43 77 44 33 46 65 47
REMARK SMILES IDX 45 48 64 49 46 50 49 51 63 52 82 53 47 54 48 55 62 57 83 58
REMARK SMILES IDX 50 59 34 60 35 61 43 62 36 63 38 64 44 65 37 66 39 67 40 68
REMARK SMILES IDX 41 69 42 70 66 71 67 72 75 73 68 74 70 75 76 76 69 77 71 78
REMARK SMILES IDX 72 79 73 80 74 81 51 82 52 83 60 84 53 85 55 86 61 87 54 88
REMARK SMILES IDX 56 89 57 90 58 91 59 92
REMARK H PARENT 12 19 14 22 14 23 81 45 49 56
REMARK Flexibility Score: inf
ROOT
ATOM      1  C   UNL A   1      32.829  28.126  27.250  1.00  0.00     0.275 C 
ENDROOT
BRANCH   1   2
ATOM      2  O   UNL A   1      32.575  27.565  25.953  1.00  0.00    -0.458 OA
BRANCH   2   3
ATOM      3  C   UNL A   1      33.201  26.398  25.623  1.00  0.00     0.343 C 
ATOM      4  O   UNL A   1      34.406  26.198  25.771  1.00  0.00    -0.246 OA
BRANCH   3   5
ATOM      5  C   UNL A   1      32.300  25.482  24.931  1.00  0.00     0.117 A 
ATOM      6  C   UNL A   1      32.262  23.737  26.907  1.00  0.00     0.069 C 
ATOM      7  C   UNL A   1      31.830  24.259  25.575  1.00  0.00     0.068 A 
ATOM      8  N   UNL A   1      30.916  23.555  24.918  1.00  0.00    -0.195 NA
ATOM      9  S   UNL A   1      30.676  24.245  23.457  1.00  0.00    -0.017 S 
ATOM     10  C   UNL A   1      31.772  25.576  23.633  1.00  0.00     0.133 A 
BRANCH  10  11
ATOM     11  N   UNL A   1      31.940  26.409  22.473  1.00  0.00    -0.303 N 
ATOM     12  C   UNL A   1      32.538  25.886  21.240  1.00  0.00     0.154 C 
BRANCH  11  13
ATOM     13  C   UNL A   1      31.695  27.791  22.594  1.00  0.00     0.249 C 
ATOM     14  O   UNL A   1      32.601  28.607  22.781  1.00  0.00    -0.272 OA
BRANCH  13  15
ATOM     15  C   UNL A   1      30.250  28.383  22.437  1.00  0.00     0.170 C 
ATOM     16  C   UNL A   1      29.164  27.796  23.336  1.00  0.00     0.041 C 
BRANCH  15  17
ATOM     17  N   UNL A   1      30.205  29.843  22.442  1.00  0.00    -0.327 N 
ATOM     18  C   UNL A   1      29.276  30.538  21.732  1.00  0.00     0.312 C 
ATOM     19  H   UNL A   1      30.866  30.339  22.977  1.00  0.00     0.166 HD
ATOM     20  N   UNL A   1      29.394  31.878  21.882  1.00  0.00    -0.352 N 
ATOM     21  O   UNL A   1      28.400  30.061  21.030  1.00  0.00    -0.249 OA
ATOM     22  H   UNL A   1      30.106  32.249  22.452  1.00  0.00     0.161 HD
ATOM     23  H   UNL A   1      28.768  32.481  21.421  1.00  0.00     0.161 HD
ENDBRANCH  15  17
ENDBRANCH  13  15
ENDBRANCH  11  13
ENDBRANCH  10  11
ENDBRANCH   3   5
ENDBRANCH   2   3
ENDBRANCH   1   2
BRANCH   1  24
ATOM     24  C   UNL A   1      33.287  29.566  27.068  1.00  0.00     0.275 C 
BRANCH  24  25
ATOM     25  O   UNL A   1      34.664  29.666  27.395  1.00  0.00    -0.458 OA
BRANCH  25  26
ATOM     26  C   UNL A   1      35.116  30.876  27.797  1.00  0.00     0.338 C 
ATOM     27  O   UNL A   1      34.813  31.971  27.366  1.00  0.00    -0.246 OA
BRANCH  26  28
ATOM     28  C   UNL A   1      36.229  30.636  28.722  1.00  0.00     0.060 A 
ATOM     29  C   UNL A   1      37.253  31.588  28.767  1.00  0.00     0.016 A 
ATOM     30  C   UNL A   1      36.366  29.354  29.273  1.00  0.00     0.016 A 
ATOM     31  C   UNL A   1      38.503  31.170  29.154  1.00  0.00     0.010 A 
ATOM     32  C   UNL A   1      37.616  28.923  29.601  1.00  0.00     0.010 A 
ATOM     33  C   UNL A   1      38.670  29.819  29.460  1.00  0.00    -0.014 A 
BRANCH  33  34
ATOM     34  C   UNL A   1      39.993  29.294  29.647  1.00  0.00     0.031 A 
ATOM     35  C   UNL A   1      40.433  29.320  31.059  1.00  0.00     0.074 A 
ATOM     36  C   UNL A   1      40.614  28.691  28.616  1.00  0.00     0.049 A 
ATOM     37  N   UNL A   1      41.381  30.032  31.566  1.00  0.00    -0.248 NA
ATOM     38  C   UNL A   1      39.599  28.640  32.064  1.00  0.00     0.031 C 
ATOM     39  C   UNL A   1      40.086  28.355  27.287  1.00  0.00     0.029 A 
ATOM     40  N   UNL A   1      41.828  28.098  28.613  1.00  0.00    -0.354 N 
ATOM     41  C   UNL A   1      41.414  29.704  32.918  1.00  0.00     0.074 A 
ATOM     42  C   UNL A   1      40.174  29.037  33.199  1.00  0.00     0.031 C 
ATOM     43  C   UNL A   1      40.868  27.401  26.732  1.00  0.00     0.029 A 
ATOM     44  C   UNL A   1      41.998  27.154  27.610  1.00  0.00     0.049 A 
ATOM     45  H   UNL A   1      42.531  28.317  29.265  1.00  0.00     0.167 HD
ATOM     46  C   UNL A   1      42.569  29.793  33.633  1.00  0.00     0.034 A 
ATOM     47  C   UNL A   1      42.937  26.174  27.607  1.00  0.00     0.034 A 
ATOM     48  C   UNL A   1      43.559  30.549  32.906  1.00  0.00     0.049 A 
ATOM     49  C   UNL A   1      44.000  26.592  28.563  1.00  0.00     0.074 A 
ATOM     50  C   UNL A   1      43.627  31.844  32.432  1.00  0.00     0.029 A 
ATOM     51  N   UNL A   1      44.487  29.830  32.188  1.00  0.00    -0.354 N 
ATOM     52  N   UNL A   1      44.740  27.653  28.376  1.00  0.00    -0.248 NA
ATOM     53  C   UNL A   1      43.877  26.157  29.949  1.00  0.00     0.031 C 
ATOM     54  C   UNL A   1      44.217  31.725  31.140  1.00  0.00     0.029 A 
ATOM     55  C   UNL A   1      44.559  30.386  30.936  1.00  0.00     0.049 A 
ATOM     56  H   UNL A   1      45.006  29.058  32.513  1.00  0.00     0.167 HD
ATOM     57  C   UNL A   1      44.784  28.274  29.620  1.00  0.00     0.074 A 
ATOM     58  C   UNL A   1      44.320  27.258  30.569  1.00  0.00     0.031 C 
ATOM     59  C   UNL A   1      44.869  29.634  29.737  1.00  0.00     0.034 A 
BRANCH  46  60
ATOM     60  C   UNL A   1      42.954  28.916  34.801  1.00  0.00     0.023 A 
ATOM     61  C   UNL A   1      43.453  29.575  35.947  1.00  0.00     0.012 A 
ATOM     62  C   UNL A   1      43.121  27.514  34.748  1.00  0.00     0.148 A 
ATOM     63  C   UNL A   1      44.154  28.891  36.944  1.00  0.00     0.002 A 
ATOM     64  C   UNL A   1      43.765  26.827  35.772  1.00  0.00     0.091 A 
ATOM     65  F   UNL A   1      42.772  26.832  33.657  1.00  0.00    -0.205 F 
ATOM     66  C   UNL A   1      44.314  27.515  36.855  1.00  0.00     0.022 A 
BRANCH  64  67
ATOM     67  S   UNL A   1      43.974  25.041  35.730  1.00  0.00     0.127 S 
ATOM     68  O   UNL A   1      45.052  24.897  34.756  1.00  0.00    -0.237 OA
ATOM     69  O   UNL A   1      44.348  24.754  37.115  1.00  0.00    -0.237 OA
ATOM     70  O   UNL A   1      42.680  24.501  35.337  1.00  0.00    -0.744 OA
ENDBRANCH  64  67
ENDBRANCH  46  60
BRANCH  47  71
ATOM     71  C   UNL A   1      42.780  24.779  27.121  1.00  0.00     0.023 A 
ATOM     72  C   UNL A   1      41.535  24.127  27.202  1.00  0.00     0.012 A 
ATOM     73  C   UNL A   1      43.797  24.165  26.351  1.00  0.00     0.148 A 
ATOM     74  C   UNL A   1      41.311  22.912  26.536  1.00  0.00     0.002 A 
ATOM     75  C   UNL A   1      43.576  22.953  25.706  1.00  0.00     0.091 A 
ATOM     76  F   UNL A   1      44.952  24.816  26.166  1.00  0.00    -0.205 F 
ATOM     77  C   UNL A   1      42.330  22.325  25.788  1.00  0.00     0.022 A 
BRANCH  75  78
ATOM     78  S   UNL A   1      44.853  22.160  24.716  1.00  0.00     0.127 S 
ATOM     79  O   UNL A   1      45.972  22.096  25.656  1.00  0.00    -0.237 OA
ATOM     80  O   UNL A   1      44.237  20.873  24.405  1.00  0.00    -0.237 OA
ATOM     81  O   UNL A   1      45.079  23.046  23.581  1.00  0.00    -0.744 OA
ENDBRANCH  75  78
ENDBRANCH  47  71
BRANCH  59  82
ATOM     82  C   UNL A   1      45.047  30.453  28.476  1.00  0.00     0.023 A 
ATOM     83  C   UNL A   1      43.953  30.892  27.699  1.00  0.00     0.012 A 
ATOM     84  C   UNL A   1      46.317  30.974  28.193  1.00  0.00     0.148 A 
ATOM     85  C   UNL A   1      44.120  31.807  26.656  1.00  0.00     0.002 A 
ATOM     86  C   UNL A   1      46.475  31.922  27.187  1.00  0.00     0.091 A 
ATOM     87  F   UNL A   1      47.351  30.566  28.945  1.00  0.00    -0.205 F 
ATOM     88  C   UNL A   1      45.383  32.333  26.408  1.00  0.00     0.022 A 
BRANCH  86  89
ATOM     89  S   UNL A   1      48.046  32.744  26.921  1.00  0.00     0.127 S 
ATOM     90  O   UNL A   1      47.715  33.700  25.867  1.00  0.00    -0.237 OA
ATOM     91  O   UNL A   1      48.314  33.344  28.230  1.00  0.00    -0.237 OA
ATOM     92  O   UNL A   1      48.988  31.696  26.548  1.00  0.00    -0.744 OA
ENDBRANCH  86  89
ENDBRANCH  59  82
ENDBRANCH  33  34
ENDBRANCH  26  28
ENDBRANCH  25  26
ENDBRANCH  24  25
ENDBRANCH   1  24
TORSDOF 18
ENDMDL
MODEL 3
REMARK VINA RESULT:     -11.1      3.273      8.382
REMARK SMILES Cc1nsc(N(C)C(=O)[C@@H](C)NC(N)=O)c1C(=O)OCCOC(=O)c1ccc(-c2c3nc(c(-c4cccc(S(=O)(=O)[O-])c4F)c4ccc([nH]4)c(-c4cccc(S(=O)(=O)[O-])c4F)c4nc(c(-c5cccc(S(=O)(=O)[O-])c5F)c5ccc2[nH]5)C=C4)C=C3)cc1
REMARK SMILES IDX 20 1 19 2 17 3 18 4 16 5 1 6 2 7 3 8 4 9 5 10 6 11 7 12 8 13
REMARK SMILES IDX 9 14 10 15 11 16 12 17 13 18 14 20 15 21 21 24 22 25 23 26
REMARK SMILES IDX 24 27 25 28 26 29 87 30 27 31 86 32 28 33 29 34 30 35 80 36
REMARK SMILES IDX 31 37 85 38 79 39 81 40 32 41 84 42 78 43 77 44 33 46 65 47
REMARK SMILES IDX 45 48 64 49 46 50 49 51 63 52 82 53 47 54 48 55 62 57 83 58
REMARK SMILES IDX 50 59 34 60 35 61 43 62 36 63 38 64 44 65 37 66 39 67 40 68
REMARK SMILES IDX 41 69 42 70 66 71 67 72 75 73 68 74 70 75 76 76 69 77 71 78
REMARK SMILES IDX 72 79 73 80 74 81 51 82 52 83 60 84 53 85 55 86 61 87 54 88
REMARK SMILES IDX 56 89 57 90 58 91 59 92
REMARK H PARENT 12 19 14 22 14 23 81 45 49 56
REMARK Flexibility Score: inf
ROOT
ATOM      1  C   UNL A   1      32.757  29.274  25.988  1.00  0.00     0.275 C 
ENDROOT
BRANCH   1   2
ATOM      2  O   UNL A   1      33.081  27.876  25.940  1.00  0.00    -0.458 OA
BRANCH   2   3
ATOM      3  C   UNL A   1      32.054  26.977  25.941  1.00  0.00     0.343 C 
ATOM      4  O   UNL A   1      31.219  26.888  26.840  1.00  0.00    -0.246 OA
BRANCH   3   5
ATOM      5  C   UNL A   1      32.161  26.037  24.830  1.00  0.00     0.117 A 
ATOM      6  C   UNL A   1      31.504  27.828  23.011  1.00  0.00     0.069 C 
ATOM      7  C   UNL A   1      31.948  26.472  23.453  1.00  0.00     0.068 A 
ATOM      8  N   UNL A   1      32.191  25.577  22.503  1.00  0.00    -0.195 NA
ATOM      9  S   UNL A   1      32.555  24.151  23.210  1.00  0.00    -0.017 S 
ATOM     10  C   UNL A   1      32.446  24.662  24.862  1.00  0.00     0.133 A 
BRANCH  10  11
ATOM     11  N   UNL A   1      32.606  23.631  25.851  1.00  0.00    -0.303 N 
ATOM     12  C   UNL A   1      31.532  23.309  26.797  1.00  0.00     0.154 C 
BRANCH  11  13
ATOM     13  C   UNL A   1      33.881  23.056  26.026  1.00  0.00     0.249 C 
ATOM     14  O   UNL A   1      34.699  23.501  26.835  1.00  0.00    -0.272 OA
BRANCH  13  15
ATOM     15  C   UNL A   1      34.315  21.771  25.236  1.00  0.00     0.170 C 
ATOM     16  C   UNL A   1      35.713  21.780  24.622  1.00  0.00     0.041 C 
BRANCH  15  17
ATOM     17  N   UNL A   1      34.063  20.523  25.953  1.00  0.00    -0.327 N 
ATOM     18  C   UNL A   1      32.943  19.782  25.737  1.00  0.00     0.312 C 
ATOM     19  H   UNL A   1      34.723  20.209  26.611  1.00  0.00     0.166 HD
ATOM     20  N   UNL A   1      32.906  18.656  26.487  1.00  0.00    -0.352 N 
ATOM     21  O   UNL A   1      32.044  20.045  24.955  1.00  0.00    -0.249 OA
ATOM     22  H   UNL A   1      33.638  18.457  27.113  1.00  0.00     0.161 HD
ATOM     23  H   UNL A   1      32.145  18.037  26.406  1.00  0.00     0.161 HD
ENDBRANCH  15  17
ENDBRANCH  13  15
ENDBRANCH  11  13
ENDBRANCH  10  11
ENDBRANCH   3   5
ENDBRANCH   2   3
ENDBRANCH   1   2
BRANCH   1  24
ATOM     24  C   UNL A   1      33.290  29.845  27.294  1.00  0.00     0.275 C 
BRANCH  24  25
ATOM     25  O   UNL A   1      34.692  30.034  27.185  1.00  0.00    -0.458 OA
BRANCH  25  26
ATOM     26  C   UNL A   1      35.211  31.141  27.766  1.00  0.00     0.338 C 
ATOM     27  O   UNL A   1      34.979  32.305  27.506  1.00  0.00    -0.246 OA
BRANCH  26  28
ATOM     28  C   UNL A   1      36.298  30.695  28.646  1.00  0.00     0.060 A 
ATOM     29  C   UNL A   1      37.316  31.611  28.933  1.00  0.00     0.016 A 
ATOM     30  C   UNL A   1      36.425  29.322  28.899  1.00  0.00     0.016 A 
ATOM     31  C   UNL A   1      38.557  31.114  29.253  1.00  0.00     0.010 A 
ATOM     32  C   UNL A   1      37.666  28.826  29.157  1.00  0.00     0.010 A 
ATOM     33  C   UNL A   1      38.720  29.728  29.252  1.00  0.00    -0.014 A 
BRANCH  33  34
ATOM     34  C   UNL A   1      40.039  29.171  29.355  1.00  0.00     0.031 A 
ATOM     35  C   UNL A   1      40.498  29.021  30.753  1.00  0.00     0.074 A 
ATOM     36  C   UNL A   1      40.640  28.692  28.250  1.00  0.00     0.049 A 
ATOM     37  N   UNL A   1      41.461  29.657  31.329  1.00  0.00    -0.248 NA
ATOM     38  C   UNL A   1      39.670  28.232  31.681  1.00  0.00     0.031 C 
ATOM     39  C   UNL A   1      40.090  28.525  26.898  1.00  0.00     0.029 A 
ATOM     40  N   UNL A   1      41.847  28.092  28.157  1.00  0.00    -0.354 N 
ATOM     41  C   UNL A   1      41.507  29.167  32.631  1.00  0.00     0.074 A 
ATOM     42  C   UNL A   1      40.263  28.484  32.847  1.00  0.00     0.031 C 
ATOM     43  C   UNL A   1      40.854  27.637  26.220  1.00  0.00     0.029 A 
ATOM     44  C   UNL A   1      41.993  27.275  27.046  1.00  0.00     0.049 A 
ATOM     45  H   UNL A   1      42.561  28.222  28.822  1.00  0.00     0.167 HD
ATOM     46  C   UNL A   1      42.673  29.157  33.334  1.00  0.00     0.034 A 
ATOM     47  C   UNL A   1      42.920  26.293  26.910  1.00  0.00     0.034 A 
ATOM     48  C   UNL A   1      43.662  29.987  32.690  1.00  0.00     0.049 A 
ATOM     49  C   UNL A   1      44.001  26.582  27.894  1.00  0.00     0.074 A 
ATOM     50  C   UNL A   1      43.738  31.329  32.377  1.00  0.00     0.029 A 
ATOM     51  N   UNL A   1      44.572  29.350  31.878  1.00  0.00    -0.354 N 
ATOM     52  N   UNL A   1      44.750  27.650  27.826  1.00  0.00    -0.248 NA
ATOM     53  C   UNL A   1      43.890  25.983  29.218  1.00  0.00     0.031 C 
ATOM     54  C   UNL A   1      44.310  31.361  31.071  1.00  0.00     0.029 A 
ATOM     55  C   UNL A   1      44.633  30.054  30.701  1.00  0.00     0.049 A 
ATOM     56  H   UNL A   1      45.086  28.540  32.099  1.00  0.00     0.167 HD
ATOM     57  C   UNL A   1      44.817  28.115  29.136  1.00  0.00     0.074 A 
ATOM     58  C   UNL A   1      44.354  26.996  29.961  1.00  0.00     0.031 C 
ATOM     59  C   UNL A   1      44.920  29.450  29.416  1.00  0.00     0.034 A 
BRANCH  46  60
ATOM     60  C   UNL A   1      43.063  28.141  34.382  1.00  0.00     0.023 A 
ATOM     61  C   UNL A   1      43.331  28.641  35.677  1.00  0.00     0.012 A 
ATOM     62  C   UNL A   1      43.449  26.807  34.121  1.00  0.00     0.148 A 
ATOM     63  C   UNL A   1      44.020  27.886  36.631  1.00  0.00     0.002 A 
ATOM     64  C   UNL A   1      44.080  26.037  35.093  1.00  0.00     0.091 A 
ATOM     65  F   UNL A   1      43.326  26.296  32.896  1.00  0.00    -0.205 F 
ATOM     66  C   UNL A   1      44.398  26.583  36.337  1.00  0.00     0.022 A 
BRANCH  64  67
ATOM     67  S   UNL A   1      44.565  24.333  34.784  1.00  0.00     0.127 S 
ATOM     68  O   UNL A   1      43.598  23.935  33.764  1.00  0.00    -0.237 OA
ATOM     69  O   UNL A   1      45.937  24.497  34.307  1.00  0.00    -0.237 OA
ATOM     70  O   UNL A   1      44.456  23.652  36.068  1.00  0.00    -0.744 OA
ENDBRANCH  64  67
ENDBRANCH  46  60
BRANCH  47  71
ATOM     71  C   UNL A   1      42.741  24.970  26.260  1.00  0.00     0.023 A 
ATOM     72  C   UNL A   1      43.658  24.514  25.294  1.00  0.00     0.012 A 
ATOM     73  C   UNL A   1      41.799  24.041  26.764  1.00  0.00     0.148 A 
ATOM     74  C   UNL A   1      43.641  23.182  24.852  1.00  0.00     0.002 A 
ATOM     75  C   UNL A   1      41.774  22.726  26.311  1.00  0.00     0.091 A 
ATOM     76  F   UNL A   1      40.988  24.417  27.762  1.00  0.00    -0.205 F 
ATOM     77  C   UNL A   1      42.700  22.288  25.360  1.00  0.00     0.022 A 
BRANCH  75  78
ATOM     78  S   UNL A   1      40.589  21.528  26.945  1.00  0.00     0.127 S 
ATOM     79  O   UNL A   1      39.315  22.097  26.505  1.00  0.00    -0.237 OA
ATOM     80  O   UNL A   1      40.991  20.310  26.248  1.00  0.00    -0.237 OA
ATOM     81  O   UNL A   1      40.770  21.522  28.391  1.00  0.00    -0.744 OA
ENDBRANCH  75  78
ENDBRANCH  47  71
BRANCH  59  82
ATOM     82  C   UNL A   1      45.091  30.414  28.261  1.00  0.00     0.023 A 
ATOM     83  C   UNL A   1      43.991  30.998  27.595  1.00  0.00     0.012 A 
ATOM     84  C   UNL A   1      46.374  30.909  27.989  1.00  0.00     0.148 A 
ATOM     85  C   UNL A   1      44.164  32.030  26.668  1.00  0.00     0.002 A 
ATOM     86  C   UNL A   1      46.541  31.969  27.104  1.00  0.00     0.091 A 
ATOM     87  F   UNL A   1      47.414  30.362  28.638  1.00  0.00    -0.205 F 
ATOM     88  C   UNL A   1      45.442  32.525  26.432  1.00  0.00     0.022 A 
BRANCH  86  89
ATOM     89  S   UNL A   1      48.140  32.746  26.875  1.00  0.00     0.127 S 
ATOM     90  O   UNL A   1      47.856  33.723  25.826  1.00  0.00    -0.237 OA
ATOM     91  O   UNL A   1      48.403  33.324  28.195  1.00  0.00    -0.237 OA
ATOM     92  O   UNL A   1      49.056  31.674  26.506  1.00  0.00    -0.744 OA
ENDBRANCH  86  89
ENDBRANCH  59  82
ENDBRANCH  33  34
ENDBRANCH  26  28
ENDBRANCH  25  26
ENDBRANCH  24  25
ENDBRANCH   1  24
TORSDOF 18
ENDMDL
