MODEL 1
REMARK VINA RESULT:     -11.4      0.000      0.000
REMARK SMILES O=C(Cc1ccn[nH]1)NC[C@H]1CCCC[C@H]1C(=O)OCCOC(=O)c1ccc(-c2c3nc(c(-c4cccc(S(=O)(=O)[O-])c4F)c4ccc([nH]4)c(-c4cccc(S(=O)(=O)[O-])c4F)c4nc(c(-c5cccc(S(=O)(=O)[O-])c5F)c5ccc2[nH]5)C=C4)C=C3)cc1
REMARK SMILES IDX 20 1 19 2 17 3 18 4 16 5 11 6 12 7 13 8 15 9 14 10 10 11
REMARK SMILES IDX 9 12 1 13 2 14 3 16 4 17 5 18 8 19 6 20 7 21 21 23 22 24
REMARK SMILES IDX 23 25 24 26 25 27 26 28 87 29 27 30 86 31 28 32 29 33 30 34
REMARK SMILES IDX 80 35 31 36 85 37 79 38 81 39 32 40 84 41 78 42 77 43 33 45
REMARK SMILES IDX 65 46 45 47 64 48 46 49 49 50 63 51 82 52 47 53 48 54 62 56
REMARK SMILES IDX 83 57 50 58 34 59 35 60 43 61 36 62 38 63 44 64 37 65 39 66
REMARK SMILES IDX 40 67 41 68 42 69 66 70 67 71 75 72 68 73 70 74 76 75 69 76
REMARK SMILES IDX 71 77 72 78 73 79 74 80 51 81 52 82 60 83 53 84 55 85 61 86
REMARK SMILES IDX 54 87 56 88 57 89 58 90 59 91
REMARK H PARENT 9 15 8 22 81 44 49 55
REMARK Flexibility Score: inf
ROOT
ATOM      1  C   UNL A   1      31.839  29.865  24.952  1.00  0.00     0.274 C 
ENDROOT
BRANCH   1   2
ATOM      2  O   UNL A   1      33.055  29.178  25.312  1.00  0.00    -0.462 OA
BRANCH   2   3
ATOM      3  C   UNL A   1      33.363  28.080  24.583  1.00  0.00     0.309 C 
ATOM      4  O   UNL A   1      33.776  28.107  23.429  1.00  0.00    -0.252 OA
BRANCH   3   5
ATOM      5  C   UNL A   1      33.121  26.768  25.314  1.00  0.00     0.104 C 
ATOM      6  C   UNL A   1      31.660  26.285  25.514  1.00  0.00     0.022 C 
ATOM      7  C   UNL A   1      31.692  25.050  26.447  1.00  0.00     0.006 C 
ATOM      8  C   UNL A   1      32.623  23.940  25.955  1.00  0.00     0.000 C 
ATOM      9  C   UNL A   1      34.029  25.665  24.757  1.00  0.00     0.016 C 
ATOM     10  C   UNL A   1      34.033  24.454  25.687  1.00  0.00     0.001 C 
BRANCH   6  11
ATOM     11  C   UNL A   1      30.882  26.082  24.192  1.00  0.00     0.120 C 
BRANCH  11  12
ATOM     12  N   UNL A   1      29.679  26.878  24.075  1.00  0.00    -0.355 N 
ATOM     13  O   UNL A   1      30.254  28.111  22.209  1.00  0.00    -0.275 OA
ATOM     14  C   UNL A   1      29.450  27.802  23.082  1.00  0.00     0.226 C 
ATOM     15  H   UNL A   1      28.977  26.751  24.753  1.00  0.00     0.163 HD
BRANCH  14  16
ATOM     16  C   UNL A   1      28.041  28.382  23.126  1.00  0.00     0.155 C 
BRANCH  16  17
ATOM     17  C   UNL A   1      28.082  29.787  22.626  1.00  0.00     0.044 A 
ATOM     18  C   UNL A   1      28.085  31.004  23.274  1.00  0.00     0.045 A 
ATOM     19  N   UNL A   1      28.049  30.078  21.287  1.00  0.00    -0.282 N 
ATOM     20  C   UNL A   1      28.036  31.957  22.242  1.00  0.00     0.135 A 
ATOM     21  N   UNL A   1      28.023  31.398  21.032  1.00  0.00    -0.184 NA
ATOM     22  H   UNL A   1      28.043  29.390  20.582  1.00  0.00     0.190 HD
ENDBRANCH  16  17
ENDBRANCH  14  16
ENDBRANCH  11  12
ENDBRANCH   6  11
ENDBRANCH   3   5
ENDBRANCH   2   3
ENDBRANCH   1   2
BRANCH   1  23
ATOM     23  C   UNL A   1      31.430  30.870  26.032  1.00  0.00     0.275 C 
BRANCH  23  24
ATOM     24  O   UNL A   1      32.322  30.830  27.161  1.00  0.00    -0.458 OA
BRANCH  24  25
ATOM     25  C   UNL A   1      33.084  31.938  27.326  1.00  0.00     0.338 C 
ATOM     26  O   UNL A   1      32.747  33.095  27.147  1.00  0.00    -0.246 OA
BRANCH  25  27
ATOM     27  C   UNL A   1      34.383  31.571  27.907  1.00  0.00     0.060 A 
ATOM     28  C   UNL A   1      34.556  30.254  28.340  1.00  0.00     0.016 A 
ATOM     29  C   UNL A   1      35.385  32.520  28.108  1.00  0.00     0.016 A 
ATOM     30  C   UNL A   1      35.730  29.874  28.983  1.00  0.00     0.010 A 
ATOM     31  C   UNL A   1      36.565  32.138  28.754  1.00  0.00     0.010 A 
ATOM     32  C   UNL A   1      36.739  30.818  29.207  1.00  0.00    -0.014 A 
BRANCH  32  33
ATOM     33  C   UNL A   1      37.961  30.424  29.947  1.00  0.00     0.031 A 
ATOM     34  C   UNL A   1      38.931  29.458  29.329  1.00  0.00     0.074 A 
ATOM     35  C   UNL A   1      38.186  30.925  31.176  1.00  0.00     0.049 A 
ATOM     36  N   UNL A   1      40.011  28.932  29.845  1.00  0.00    -0.248 NA
ATOM     37  C   UNL A   1      38.650  29.023  27.951  1.00  0.00     0.031 C 
ATOM     38  C   UNL A   1      37.315  31.871  31.875  1.00  0.00     0.029 A 
ATOM     39  N   UNL A   1      39.203  30.684  32.068  1.00  0.00    -0.354 N 
ATOM     40  C   UNL A   1      40.511  28.068  28.880  1.00  0.00     0.074 A 
ATOM     41  C   UNL A   1      39.624  28.147  27.739  1.00  0.00     0.031 C 
ATOM     42  C   UNL A   1      37.818  32.108  33.097  1.00  0.00     0.029 A 
ATOM     43  C   UNL A   1      39.025  31.307  33.281  1.00  0.00     0.049 A 
ATOM     44  H   UNL A   1      39.982  30.120  31.859  1.00  0.00     0.167 HD
ATOM     45  C   UNL A   1      41.614  27.285  28.938  1.00  0.00     0.034 A 
ATOM     46  C   UNL A   1      39.738  31.217  34.421  1.00  0.00     0.034 A 
ATOM     47  C   UNL A   1      42.521  27.249  30.054  1.00  0.00     0.049 A 
ATOM     48  C   UNL A   1      40.967  30.349  34.448  1.00  0.00     0.074 A 
ATOM     49  C   UNL A   1      43.702  26.539  30.178  1.00  0.00     0.029 A 
ATOM     50  N   UNL A   1      42.347  27.948  31.238  1.00  0.00    -0.354 N 
ATOM     51  N   UNL A   1      41.493  29.633  33.483  1.00  0.00    -0.248 NA
ATOM     52  C   UNL A   1      41.718  30.295  35.711  1.00  0.00     0.031 C 
ATOM     53  C   UNL A   1      44.237  26.798  31.444  1.00  0.00     0.029 A 
ATOM     54  C   UNL A   1      43.395  27.679  32.101  1.00  0.00     0.049 A 
ATOM     55  H   UNL A   1      41.592  28.548  31.435  1.00  0.00     0.167 HD
ATOM     56  C   UNL A   1      42.648  29.069  34.012  1.00  0.00     0.074 A 
ATOM     57  C   UNL A   1      42.759  29.547  35.374  1.00  0.00     0.031 C 
ATOM     58  C   UNL A   1      43.525  28.216  33.431  1.00  0.00     0.034 A 
BRANCH  45  59
ATOM     59  C   UNL A   1      41.932  26.419  27.750  1.00  0.00     0.023 A 
ATOM     60  C   UNL A   1      42.691  26.947  26.688  1.00  0.00     0.012 A 
ATOM     61  C   UNL A   1      41.559  25.060  27.732  1.00  0.00     0.148 A 
ATOM     62  C   UNL A   1      43.064  26.137  25.615  1.00  0.00     0.002 A 
ATOM     63  C   UNL A   1      41.964  24.252  26.676  1.00  0.00     0.091 A 
ATOM     64  F   UNL A   1      40.819  24.587  28.745  1.00  0.00    -0.205 F 
ATOM     65  C   UNL A   1      42.711  24.790  25.616  1.00  0.00     0.022 A 
BRANCH  63  66
ATOM     66  S   UNL A   1      41.622  22.489  26.617  1.00  0.00     0.127 S 
ATOM     67  O   UNL A   1      42.281  22.104  25.370  1.00  0.00    -0.237 OA
ATOM     68  O   UNL A   1      42.282  22.007  27.831  1.00  0.00    -0.237 OA
ATOM     69  O   UNL A   1      40.171  22.360  26.621  1.00  0.00    -0.744 OA
ENDBRANCH  63  66
ENDBRANCH  45  59
BRANCH  46  70
ATOM     70  C   UNL A   1      39.320  31.988  35.625  1.00  0.00     0.023 A 
ATOM     71  C   UNL A   1      39.686  33.343  35.745  1.00  0.00     0.012 A 
ATOM     72  C   UNL A   1      38.552  31.393  36.646  1.00  0.00     0.148 A 
ATOM     73  C   UNL A   1      39.322  34.081  36.872  1.00  0.00     0.002 A 
ATOM     74  C   UNL A   1      38.145  32.150  37.738  1.00  0.00     0.091 A 
ATOM     75  F   UNL A   1      38.234  30.096  36.532  1.00  0.00    -0.205 F 
ATOM     76  C   UNL A   1      38.543  33.490  37.863  1.00  0.00     0.022 A 
BRANCH  74  77
ATOM     77  S   UNL A   1      37.028  31.486  38.979  1.00  0.00     0.127 S 
ATOM     78  O   UNL A   1      35.879  32.377  38.858  1.00  0.00    -0.237 OA
ATOM     79  O   UNL A   1      36.803  30.121  38.501  1.00  0.00    -0.237 OA
ATOM     80  O   UNL A   1      37.771  31.559  40.233  1.00  0.00    -0.744 OA
ENDBRANCH  74  77
ENDBRANCH  46  70
BRANCH  58  81
ATOM     81  C   UNL A   1      44.703  27.761  34.250  1.00  0.00     0.023 A 
ATOM     82  C   UNL A   1      45.889  28.520  34.244  1.00  0.00     0.012 A 
ATOM     83  C   UNL A   1      44.608  26.632  35.087  1.00  0.00     0.148 A 
ATOM     84  C   UNL A   1      46.973  28.148  35.038  1.00  0.00     0.002 A 
ATOM     85  C   UNL A   1      45.676  26.291  35.908  1.00  0.00     0.091 A 
ATOM     86  F   UNL A   1      43.478  25.910  35.063  1.00  0.00    -0.205 F 
ATOM     87  C   UNL A   1      46.863  27.042  35.878  1.00  0.00     0.022 A 
BRANCH  85  88
ATOM     88  S   UNL A   1      45.582  24.938  37.087  1.00  0.00     0.127 S 
ATOM     89  O   UNL A   1      46.896  25.004  37.724  1.00  0.00    -0.237 OA
ATOM     90  O   UNL A   1      44.467  25.344  37.943  1.00  0.00    -0.237 OA
ATOM     91  O   UNL A   1      45.325  23.741  36.295  1.00  0.00    -0.744 OA
ENDBRANCH  85  88
ENDBRANCH  58  81
ENDBRANCH  32  33
ENDBRANCH  25  27
ENDBRANCH  24  25
ENDBRANCH  23  24
ENDBRANCH   1  23
TORSDOF 18
ENDMDL
MODEL 2
REMARK VINA RESULT:     -11.0      2.182      2.477
REMARK SMILES O=C(Cc1ccn[nH]1)NC[C@H]1CCCC[C@H]1C(=O)OCCOC(=O)c1ccc(-c2c3nc(c(-c4cccc(S(=O)(=O)[O-])c4F)c4ccc([nH]4)c(-c4cccc(S(=O)(=O)[O-])c4F)c4nc(c(-c5cccc(S(=O)(=O)[O-])c5F)c5ccc2[nH]5)C=C4)C=C3)cc1
REMARK SMILES IDX 20 1 19 2 17 3 18 4 16 5 11 6 12 7 13 8 15 9 14 10 10 11
REMARK SMILES IDX 9 12 1 13 2 14 3 16 4 17 5 18 8 19 6 20 7 21 21 23 22 24
REMARK SMILES IDX 23 25 24 26 25 27 26 28 87 29 27 30 86 31 28 32 29 33 30 34
REMARK SMILES IDX 80 35 31 36 85 37 79 38 81 39 32 40 84 41 78 42 77 43 33 45
REMARK SMILES IDX 65 46 45 47 64 48 46 49 49 50 63 51 82 52 47 53 48 54 62 56
REMARK SMILES IDX 83 57 50 58 34 59 35 60 43 61 36 62 38 63 44 64 37 65 39 66
REMARK SMILES IDX 40 67 41 68 42 69 66 70 67 71 75 72 68 73 70 74 76 75 69 76
REMARK SMILES IDX 71 77 72 78 73 79 74 80 51 81 52 82 60 83 53 84 55 85 61 86
REMARK SMILES IDX 54 87 56 88 57 89 58 90 59 91
REMARK H PARENT 9 15 8 22 81 44 49 55
REMARK Flexibility Score: inf
ROOT
ATOM      1  C   UNL A   1      31.689  29.651  25.006  1.00  0.00     0.274 C 
ENDROOT
BRANCH   1   2
ATOM      2  O   UNL A   1      31.440  28.375  25.631  1.00  0.00    -0.462 OA
BRANCH   2   3
ATOM      3  C   UNL A   1      32.485  27.519  25.687  1.00  0.00     0.309 C 
ATOM      4  O   UNL A   1      33.655  27.839  25.508  1.00  0.00    -0.252 OA
BRANCH   3   5
ATOM      5  C   UNL A   1      32.086  26.077  25.964  1.00  0.00     0.104 C 
ATOM      6  C   UNL A   1      30.616  25.649  25.710  1.00  0.00     0.022 C 
ATOM      7  C   UNL A   1      30.439  24.211  26.256  1.00  0.00     0.006 C 
ATOM      8  C   UNL A   1      31.455  23.216  25.690  1.00  0.00     0.000 C 
ATOM      9  C   UNL A   1      33.093  25.108  25.334  1.00  0.00     0.016 C 
ATOM     10  C   UNL A   1      32.889  23.695  25.879  1.00  0.00     0.001 C 
BRANCH   6  11
ATOM     11  C   UNL A   1      30.149  25.851  24.248  1.00  0.00     0.120 C 
BRANCH  11  12
ATOM     12  N   UNL A   1      29.057  26.787  24.092  1.00  0.00    -0.355 N 
ATOM     13  O   UNL A   1      29.907  28.030  22.341  1.00  0.00    -0.275 OA
ATOM     14  C   UNL A   1      29.009  27.777  23.137  1.00  0.00     0.226 C 
ATOM     15  H   UNL A   1      28.295  26.711  24.711  1.00  0.00     0.163 HD
BRANCH  14  16
ATOM     16  C   UNL A   1      27.676  28.515  23.115  1.00  0.00     0.155 C 
BRANCH  16  17
ATOM     17  C   UNL A   1      27.896  29.894  22.591  1.00  0.00     0.044 A 
ATOM     18  C   UNL A   1      28.055  31.111  23.219  1.00  0.00     0.045 A 
ATOM     19  N   UNL A   1      27.901  30.164  21.247  1.00  0.00    -0.282 N 
ATOM     20  C   UNL A   1      28.128  32.045  22.169  1.00  0.00     0.135 A 
ATOM     21  N   UNL A   1      28.044  31.471  20.969  1.00  0.00    -0.184 NA
ATOM     22  H   UNL A   1      27.807  29.470  20.554  1.00  0.00     0.190 HD
ENDBRANCH  16  17
ENDBRANCH  14  16
ENDBRANCH  11  12
ENDBRANCH   6  11
ENDBRANCH   3   5
ENDBRANCH   2   3
ENDBRANCH   1   2
BRANCH   1  23
ATOM     23  C   UNL A   1      31.426  30.805  25.978  1.00  0.00     0.275 C 
BRANCH  23  24
ATOM     24  O   UNL A   1      32.338  30.780  27.092  1.00  0.00    -0.458 OA
BRANCH  24  25
ATOM     25  C   UNL A   1      33.026  31.929  27.293  1.00  0.00     0.338 C 
ATOM     26  O   UNL A   1      32.605  33.068  27.180  1.00  0.00    -0.246 OA
BRANCH  25  27
ATOM     27  C   UNL A   1      34.364  31.626  27.820  1.00  0.00     0.060 A 
ATOM     28  C   UNL A   1      34.623  30.316  28.231  1.00  0.00     0.016 A 
ATOM     29  C   UNL A   1      35.320  32.626  27.997  1.00  0.00     0.016 A 
ATOM     30  C   UNL A   1      35.839  29.994  28.825  1.00  0.00     0.010 A 
ATOM     31  C   UNL A   1      36.543  32.302  28.594  1.00  0.00     0.010 A 
ATOM     32  C   UNL A   1      36.804  30.988  29.023  1.00  0.00    -0.014 A 
BRANCH  32  33
ATOM     33  C   UNL A   1      38.072  30.652  29.713  1.00  0.00     0.031 A 
ATOM     34  C   UNL A   1      39.052  29.717  29.063  1.00  0.00     0.074 A 
ATOM     35  C   UNL A   1      38.330  31.178  30.925  1.00  0.00     0.049 A 
ATOM     36  N   UNL A   1      40.173  29.241  29.537  1.00  0.00    -0.248 NA
ATOM     37  C   UNL A   1      38.728  29.253  27.705  1.00  0.00     0.031 C 
ATOM     38  C   UNL A   1      37.454  32.098  31.651  1.00  0.00     0.029 A 
ATOM     39  N   UNL A   1      39.394  30.989  31.773  1.00  0.00    -0.354 N 
ATOM     40  C   UNL A   1      40.664  28.385  28.560  1.00  0.00     0.074 A 
ATOM     41  C   UNL A   1      39.726  28.414  27.459  1.00  0.00     0.031 C 
ATOM     42  C   UNL A   1      38.000  32.371  32.846  1.00  0.00     0.029 A 
ATOM     43  C   UNL A   1      39.245  31.621  32.985  1.00  0.00     0.049 A 
ATOM     44  H   UNL A   1      40.185  30.454  31.536  1.00  0.00     0.167 HD
ATOM     45  C   UNL A   1      41.800  27.647  28.579  1.00  0.00     0.034 A 
ATOM     46  C   UNL A   1      40.010  31.574  34.094  1.00  0.00     0.034 A 
ATOM     47  C   UNL A   1      42.755  27.662  29.653  1.00  0.00     0.049 A 
ATOM     48  C   UNL A   1      41.273  30.756  34.076  1.00  0.00     0.074 A 
ATOM     49  C   UNL A   1      43.968  27.000  29.733  1.00  0.00     0.029 A 
ATOM     50  N   UNL A   1      42.606  28.369  30.836  1.00  0.00    -0.354 N 
ATOM     51  N   UNL A   1      41.785  30.048  33.097  1.00  0.00    -0.248 NA
ATOM     52  C   UNL A   1      42.080  30.749  35.305  1.00  0.00     0.031 C 
ATOM     53  C   UNL A   1      44.547  27.297  30.971  1.00  0.00     0.029 A 
ATOM     54  C   UNL A   1      43.701  28.154  31.655  1.00  0.00     0.049 A 
ATOM     55  H   UNL A   1      41.837  28.941  31.059  1.00  0.00     0.167 HD
ATOM     56  C   UNL A   1      42.983  29.538  33.581  1.00  0.00     0.074 A 
ATOM     57  C   UNL A   1      43.135  30.038  34.931  1.00  0.00     0.031 C 
ATOM     58  C   UNL A   1      43.868  28.712  32.971  1.00  0.00     0.034 A 
BRANCH  45  59
ATOM     59  C   UNL A   1      42.099  26.779  27.388  1.00  0.00     0.023 A 
ATOM     60  C   UNL A   1      42.751  27.332  26.269  1.00  0.00     0.012 A 
ATOM     61  C   UNL A   1      41.820  25.398  27.417  1.00  0.00     0.148 A 
ATOM     62  C   UNL A   1      43.109  26.527  25.189  1.00  0.00     0.002 A 
ATOM     63  C   UNL A   1      42.212  24.595  26.352  1.00  0.00     0.091 A 
ATOM     64  F   UNL A   1      41.181  24.898  28.485  1.00  0.00    -0.205 F 
ATOM     65  C   UNL A   1      42.850  25.159  25.236  1.00  0.00     0.022 A 
BRANCH  63  66
ATOM     66  S   UNL A   1      41.988  22.813  26.347  1.00  0.00     0.127 S 
ATOM     67  O   UNL A   1      40.532  22.699  26.419  1.00  0.00    -0.237 OA
ATOM     68  O   UNL A   1      42.566  22.435  25.057  1.00  0.00    -0.237 OA
ATOM     69  O   UNL A   1      42.710  22.312  27.508  1.00  0.00    -0.744 OA
ENDBRANCH  63  66
ENDBRANCH  45  59
BRANCH  46  70
ATOM     70  C   UNL A   1      39.615  32.345  35.306  1.00  0.00     0.023 A 
ATOM     71  C   UNL A   1      38.836  31.724  36.301  1.00  0.00     0.012 A 
ATOM     72  C   UNL A   1      40.018  33.683  35.487  1.00  0.00     0.148 A 
ATOM     73  C   UNL A   1      38.438  32.431  37.437  1.00  0.00     0.002 A 
ATOM     74  C   UNL A   1      39.666  34.363  36.646  1.00  0.00     0.091 A 
ATOM     75  F   UNL A   1      40.737  34.269  34.519  1.00  0.00    -0.205 F 
ATOM     76  C   UNL A   1      38.861  33.745  37.616  1.00  0.00     0.022 A 
BRANCH  74  77
ATOM     77  S   UNL A   1      40.292  36.009  37.000  1.00  0.00     0.127 S 
ATOM     78  O   UNL A   1      39.760  36.780  35.881  1.00  0.00    -0.237 OA
ATOM     79  O   UNL A   1      39.683  36.305  38.298  1.00  0.00    -0.237 OA
ATOM     80  O   UNL A   1      41.742  35.859  37.047  1.00  0.00    -0.744 OA
ENDBRANCH  74  77
ENDBRANCH  46  70
BRANCH  58  81
ATOM     81  C   UNL A   1      45.098  28.315  33.742  1.00  0.00     0.023 A 
ATOM     82  C   UNL A   1      45.071  27.158  34.546  1.00  0.00     0.012 A 
ATOM     83  C   UNL A   1      46.300  29.037  33.608  1.00  0.00     0.148 A 
ATOM     84  C   UNL A   1      46.215  26.740  35.225  1.00  0.00     0.002 A 
ATOM     85  C   UNL A   1      47.447  28.590  34.252  1.00  0.00     0.091 A 
ATOM     86  F   UNL A   1      46.299  30.147  32.855  1.00  0.00    -0.205 F 
ATOM     87  C   UNL A   1      47.404  27.449  35.069  1.00  0.00     0.022 A 
BRANCH  85  88
ATOM     88  S   UNL A   1      49.040  29.391  34.030  1.00  0.00     0.127 S 
ATOM     89  O   UNL A   1      49.207  29.328  32.579  1.00  0.00    -0.237 OA
ATOM     90  O   UNL A   1      48.794  30.734  34.558  1.00  0.00    -0.237 OA
ATOM     91  O   UNL A   1      49.990  28.606  34.808  1.00  0.00    -0.744 OA
ENDBRANCH  85  88
ENDBRANCH  58  81
ENDBRANCH  32  33
ENDBRANCH  25  27
ENDBRANCH  24  25
ENDBRANCH  23  24
ENDBRANCH   1  23
TORSDOF 18
ENDMDL
MODEL 3
REMARK VINA RESULT:     -11.0      5.816      8.671
REMARK SMILES O=C(Cc1ccn[nH]1)NC[C@H]1CCCC[C@H]1C(=O)OCCOC(=O)c1ccc(-c2c3nc(c(-c4cccc(S(=O)(=O)[O-])c4F)c4ccc([nH]4)c(-c4cccc(S(=O)(=O)[O-])c4F)c4nc(c(-c5cccc(S(=O)(=O)[O-])c5F)c5ccc2[nH]5)C=C4)C=C3)cc1
REMARK SMILES IDX 20 1 19 2 17 3 18 4 16 5 11 6 12 7 13 8 15 9 14 10 10 11
REMARK SMILES IDX 9 12 1 13 2 14 3 16 4 17 5 18 8 19 6 20 7 21 21 23 22 24
REMARK SMILES IDX 23 25 24 26 25 27 26 28 87 29 27 30 86 31 28 32 29 33 30 34
REMARK SMILES IDX 80 35 31 36 85 37 79 38 81 39 32 40 84 41 78 42 77 43 33 45
REMARK SMILES IDX 65 46 45 47 64 48 46 49 49 50 63 51 82 52 47 53 48 54 62 56
REMARK SMILES IDX 83 57 50 58 34 59 35 60 43 61 36 62 38 63 44 64 37 65 39 66
REMARK SMILES IDX 40 67 41 68 42 69 66 70 67 71 75 72 68 73 70 74 76 75 69 76
REMARK SMILES IDX 71 77 72 78 73 79 74 80 51 81 52 82 60 83 53 84 55 85 61 86
REMARK SMILES IDX 54 87 56 88 57 89 58 90 59 91
REMARK H PARENT 9 15 8 22 81 44 49 55
REMARK Flexibility Score: inf
ROOT
ATOM      1  C   UNL A   1      36.402  20.588  25.031  1.00  0.00     0.274 C 
ENDROOT
BRANCH   1   2
ATOM      2  O   UNL A   1      36.254  22.021  24.983  1.00  0.00    -0.462 OA
BRANCH   2   3
ATOM      3  C   UNL A   1      35.240  22.546  25.710  1.00  0.00     0.309 C 
ATOM      4  O   UNL A   1      34.726  21.999  26.678  1.00  0.00    -0.252 OA
BRANCH   3   5
ATOM      5  C   UNL A   1      34.750  23.893  25.201  1.00  0.00     0.104 C 
ATOM      6  C   UNL A   1      34.284  24.007  23.725  1.00  0.00     0.022 C 
ATOM      7  C   UNL A   1      34.033  25.504  23.421  1.00  0.00     0.006 C 
ATOM      8  C   UNL A   1      33.068  26.172  24.404  1.00  0.00     0.000 C 
ATOM      9  C   UNL A   1      33.743  24.506  26.180  1.00  0.00     0.016 C 
ATOM     10  C   UNL A   1      33.503  25.979  25.851  1.00  0.00     0.001 C 
BRANCH   6  11
ATOM     11  C   UNL A   1      33.109  23.065  23.367  1.00  0.00     0.120 C 
BRANCH  11  12
ATOM     12  N   UNL A   1      32.989  21.904  24.221  1.00  0.00    -0.355 N 
ATOM     13  O   UNL A   1      32.143  20.414  22.673  1.00  0.00    -0.275 OA
ATOM     14  C   UNL A   1      32.547  20.670  23.802  1.00  0.00     0.226 C 
ATOM     15  H   UNL A   1      33.241  22.003  25.168  1.00  0.00     0.163 HD
BRANCH  14  16
ATOM     16  C   UNL A   1      32.665  19.601  24.882  1.00  0.00     0.155 C 
BRANCH  16  17
ATOM     17  C   UNL A   1      33.222  18.359  24.271  1.00  0.00     0.044 A 
ATOM     18  C   UNL A   1      34.450  17.741  24.381  1.00  0.00     0.045 A 
ATOM     19  N   UNL A   1      32.515  17.623  23.357  1.00  0.00    -0.282 N 
ATOM     20  C   UNL A   1      34.385  16.660  23.484  1.00  0.00     0.135 A 
ATOM     21  N   UNL A   1      33.206  16.580  22.866  1.00  0.00    -0.184 NA
ATOM     22  H   UNL A   1      31.593  17.838  23.085  1.00  0.00     0.190 HD
ENDBRANCH  16  17
ENDBRANCH  14  16
ENDBRANCH  11  12
ENDBRANCH   6  11
ENDBRANCH   3   5
ENDBRANCH   2   3
ENDBRANCH   1   2
BRANCH   1  23
ATOM     23  C   UNL A   1      37.877  20.186  25.121  1.00  0.00     0.275 C 
BRANCH  23  24
ATOM     24  O   UNL A   1      38.725  21.324  25.361  1.00  0.00    -0.458 OA
BRANCH  24  25
ATOM     25  C   UNL A   1      39.585  21.189  26.397  1.00  0.00     0.338 C 
ATOM     26  O   UNL A   1      40.046  20.150  26.839  1.00  0.00    -0.246 OA
BRANCH  25  27
ATOM     27  C   UNL A   1      40.026  22.512  26.860  1.00  0.00     0.060 A 
ATOM     28  C   UNL A   1      39.484  23.637  26.233  1.00  0.00     0.016 A 
ATOM     29  C   UNL A   1      41.019  22.651  27.829  1.00  0.00     0.016 A 
ATOM     30  C   UNL A   1      39.934  24.911  26.564  1.00  0.00     0.010 A 
ATOM     31  C   UNL A   1      41.471  23.932  28.163  1.00  0.00     0.010 A 
ATOM     32  C   UNL A   1      40.941  25.067  27.523  1.00  0.00    -0.014 A 
BRANCH  32  33
ATOM     33  C   UNL A   1      41.460  26.422  27.828  1.00  0.00     0.031 A 
ATOM     34  C   UNL A   1      42.877  26.776  27.475  1.00  0.00     0.074 A 
ATOM     35  C   UNL A   1      40.662  27.322  28.431  1.00  0.00     0.049 A 
ATOM     36  N   UNL A   1      43.538  27.874  27.728  1.00  0.00    -0.248 NA
ATOM     37  C   UNL A   1      43.654  25.761  26.744  1.00  0.00     0.031 C 
ATOM     38  C   UNL A   1      39.269  27.090  28.818  1.00  0.00     0.029 A 
ATOM     39  N   UNL A   1      40.917  28.604  28.852  1.00  0.00    -0.354 N 
ATOM     40  C   UNL A   1      44.820  27.667  27.236  1.00  0.00     0.074 A 
ATOM     41  C   UNL A   1      44.844  26.342  26.656  1.00  0.00     0.031 C 
ATOM     42  C   UNL A   1      38.802  28.181  29.445  1.00  0.00     0.029 A 
ATOM     43  C   UNL A   1      39.869  29.174  29.534  1.00  0.00     0.049 A 
ATOM     44  H   UNL A   1      41.768  29.069  28.681  1.00  0.00     0.167 HD
ATOM     45  C   UNL A   1      45.879  28.511  27.259  1.00  0.00     0.034 A 
ATOM     46  C   UNL A   1      39.789  30.352  30.185  1.00  0.00     0.034 A 
ATOM     47  C   UNL A   1      45.836  29.847  27.789  1.00  0.00     0.049 A 
ATOM     48  C   UNL A   1      40.979  31.272  30.180  1.00  0.00     0.074 A 
ATOM     49  C   UNL A   1      46.838  30.801  27.797  1.00  0.00     0.029 A 
ATOM     50  N   UNL A   1      44.735  30.418  28.409  1.00  0.00    -0.354 N 
ATOM     51  N   UNL A   1      42.146  31.110  29.603  1.00  0.00    -0.248 NA
ATOM     52  C   UNL A   1      40.837  32.551  30.893  1.00  0.00     0.031 C 
ATOM     53  C   UNL A   1      46.348  31.945  28.434  1.00  0.00     0.029 A 
ATOM     54  C   UNL A   1      45.037  31.707  28.811  1.00  0.00     0.049 A 
ATOM     55  H   UNL A   1      43.868  29.972  28.543  1.00  0.00     0.167 HD
ATOM     56  C   UNL A   1      42.863  32.273  29.857  1.00  0.00     0.074 A 
ATOM     57  C   UNL A   1      41.991  33.143  30.618  1.00  0.00     0.031 C 
ATOM     58  C   UNL A   1      44.135  32.585  29.511  1.00  0.00     0.034 A 
BRANCH  45  59
ATOM     59  C   UNL A   1      47.177  28.035  26.666  1.00  0.00     0.023 A 
ATOM     60  C   UNL A   1      48.184  27.531  27.511  1.00  0.00     0.012 A 
ATOM     61  C   UNL A   1      47.358  28.001  25.269  1.00  0.00     0.148 A 
ATOM     62  C   UNL A   1      49.362  27.011  26.975  1.00  0.00     0.002 A 
ATOM     63  C   UNL A   1      48.520  27.450  24.741  1.00  0.00     0.091 A 
ATOM     64  F   UNL A   1      46.393  28.506  24.487  1.00  0.00    -0.205 F 
ATOM     65  C   UNL A   1      49.524  26.960  25.592  1.00  0.00     0.022 A 
BRANCH  63  66
ATOM     66  S   UNL A   1      48.794  27.273  22.975  1.00  0.00     0.127 S 
ATOM     67  O   UNL A   1      50.249  27.390  22.890  1.00  0.00    -0.237 OA
ATOM     68  O   UNL A   1      48.273  25.931  22.716  1.00  0.00    -0.237 OA
ATOM     69  O   UNL A   1      48.045  28.349  22.341  1.00  0.00    -0.744 OA
ENDBRANCH  63  66
ENDBRANCH  45  59
BRANCH  46  70
ATOM     70  C   UNL A   1      38.527  30.738  30.877  1.00  0.00     0.023 A 
ATOM     71  C   UNL A   1      38.367  30.446  32.245  1.00  0.00     0.012 A 
ATOM     72  C   UNL A   1      37.490  31.402  30.192  1.00  0.00     0.148 A 
ATOM     73  C   UNL A   1      37.187  30.781  32.911  1.00  0.00     0.002 A 
ATOM     74  C   UNL A   1      36.341  31.783  30.875  1.00  0.00     0.091 A 
ATOM     75  F   UNL A   1      37.645  31.649  28.884  1.00  0.00    -0.205 F 
ATOM     76  C   UNL A   1      36.179  31.460  32.230  1.00  0.00     0.022 A 
BRANCH  74  77
ATOM     77  S   UNL A   1      35.067  32.778  30.090  1.00  0.00     0.127 S 
ATOM     78  O   UNL A   1      34.161  33.039  31.204  1.00  0.00    -0.237 OA
ATOM     79  O   UNL A   1      35.821  33.943  29.623  1.00  0.00    -0.237 OA
ATOM     80  O   UNL A   1      34.544  31.942  29.016  1.00  0.00    -0.744 OA
ENDBRANCH  74  77
ENDBRANCH  46  70
BRANCH  58  81
ATOM     81  C   UNL A   1      44.660  33.934  29.923  1.00  0.00     0.023 A 
ATOM     82  C   UNL A   1      45.364  34.064  31.136  1.00  0.00     0.012 A 
ATOM     83  C   UNL A   1      44.529  35.051  29.075  1.00  0.00     0.148 A 
ATOM     84  C   UNL A   1      45.907  35.292  31.512  1.00  0.00     0.002 A 
ATOM     85  C   UNL A   1      45.111  36.260  29.435  1.00  0.00     0.091 A 
ATOM     86  F   UNL A   1      43.838  34.911  27.934  1.00  0.00    -0.205 F 
ATOM     87  C   UNL A   1      45.791  36.386  30.657  1.00  0.00     0.022 A 
BRANCH  85  88
ATOM     88  S   UNL A   1      45.087  37.692  28.349  1.00  0.00     0.127 S 
ATOM     89  O   UNL A   1      46.204  37.405  27.451  1.00  0.00    -0.237 OA
ATOM     90  O   UNL A   1      43.765  37.595  27.729  1.00  0.00    -0.237 OA
ATOM     91  O   UNL A   1      45.259  38.850  29.216  1.00  0.00    -0.744 OA
ENDBRANCH  85  88
ENDBRANCH  58  81
ENDBRANCH  32  33
ENDBRANCH  25  27
ENDBRANCH  24  25
ENDBRANCH  23  24
ENDBRANCH   1  23
TORSDOF 18
ENDMDL
