MODEL 1
REMARK VINA RESULT:     -13.1      0.000      0.000
REMARK SMILES Cc1nn([C@H]2CCS(=O)(=O)C2)c(C)c1/C=C(\CC(=O)OCCOC(=O)c1ccc(-c2c3nc(c(-c4cccc(S(=O)(=O)[O-])c4F)c4ccc([nH]4)c(-c4cccc(S(=O)(=O)[O-])c4F)c4nc(c(-c5cccc(S(=O)(=O)[O-])c5F)c5ccc2[nH]5)C=C4)C=C3)cc1)c1nc2ccccc2s1
REMARK SMILES IDX 21 1 20 2 18 3 19 4 17 5 16 6 15 7 14 8 1 9 2 10 3 11 4 12
REMARK SMILES IDX 12 13 13 14 5 15 6 16 11 17 7 18 8 19 9 20 10 21 89 22 90 23
REMARK SMILES IDX 97 24 91 25 96 26 92 27 95 28 93 29 94 30 22 31 23 32 24 33
REMARK SMILES IDX 25 34 26 35 27 36 88 37 28 38 87 39 29 40 30 41 31 42 81 43
REMARK SMILES IDX 32 44 86 45 80 46 82 47 33 48 85 49 79 50 78 51 34 53 66 54
REMARK SMILES IDX 46 55 65 56 47 57 50 58 64 59 83 60 48 61 49 62 63 64 84 65
REMARK SMILES IDX 51 66 35 67 36 68 44 69 37 70 39 71 45 72 38 73 40 74 41 75
REMARK SMILES IDX 42 76 43 77 67 78 68 79 76 80 69 81 71 82 77 83 70 84 72 85
REMARK SMILES IDX 73 86 74 87 75 88 52 89 53 90 61 91 54 92 56 93 62 94 55 95
REMARK SMILES IDX 57 96 58 97 59 98 60 99
REMARK H PARENT 82 52 50 63
REMARK Flexibility Score: inf
ROOT
ATOM      1  C   UNL A   1      36.494  21.433  24.724  1.00  0.00     0.274 C 
ENDROOT
BRANCH   1   2
ATOM      2  O   UNL A   1      35.437  21.386  25.713  1.00  0.00    -0.462 OA
BRANCH   2   3
ATOM      3  C   UNL A   1      34.935  22.600  26.030  1.00  0.00     0.310 C 
ATOM      4  O   UNL A   1      35.635  23.591  26.253  1.00  0.00    -0.252 OA
BRANCH   3   5
ATOM      5  C   UNL A   1      33.425  22.758  26.037  1.00  0.00     0.161 C 
BRANCH   5   6
ATOM      6  C   UNL A   1      32.395  22.283  25.025  1.00  0.00    -0.000 C 
ATOM      7  C   UNL A   1      31.766  23.127  24.166  1.00  0.00     0.019 C 
BRANCH   7   8
ATOM      8  C   UNL A   1      31.821  24.555  24.192  1.00  0.00     0.019 A 
ATOM      9  C   UNL A   1      34.141  24.953  23.077  1.00  0.00     0.069 C 
ATOM     10  C   UNL A   1      32.821  25.371  23.613  1.00  0.00     0.067 A 
ATOM     11  N   UNL A   1      32.442  26.657  23.603  1.00  0.00    -0.177 NA
ATOM     12  N   UNL A   1      31.216  26.633  24.174  1.00  0.00    -0.265 N 
ATOM     13  C   UNL A   1      30.999  25.457  24.855  1.00  0.00     0.043 A 
ATOM     14  C   UNL A   1      30.045  25.305  25.992  1.00  0.00     0.067 C 
BRANCH  12  15
ATOM     15  C   UNL A   1      30.334  27.778  24.002  1.00  0.00     0.123 C 
ATOM     16  C   UNL A   1      31.063  29.127  24.211  1.00  0.00     0.044 C 
ATOM     17  C   UNL A   1      29.717  27.923  22.608  1.00  0.00     0.164 C 
ATOM     18  C   UNL A   1      30.074  30.232  23.870  1.00  0.00     0.139 C 
ATOM     19  S   UNL A   1      29.022  29.557  22.605  1.00  0.00     0.152 S 
ATOM     20  O   UNL A   1      27.678  29.474  23.137  1.00  0.00    -0.229 OA
ATOM     21  O   UNL A   1      29.316  30.207  21.346  1.00  0.00    -0.229 OA
ENDBRANCH  12  15
ENDBRANCH   7   8
BRANCH   6  22
ATOM     22  C   UNL A   1      32.237  20.875  24.757  1.00  0.00     0.121 A 
ATOM     23  N   UNL A   1      32.121  19.907  25.642  1.00  0.00    -0.236 NA
ATOM     24  S   UNL A   1      32.340  20.308  23.117  1.00  0.00    -0.114 S 
ATOM     25  C   UNL A   1      32.557  18.712  25.078  1.00  0.00     0.082 A 
ATOM     26  C   UNL A   1      32.726  18.734  23.692  1.00  0.00     0.055 A 
ATOM     27  C   UNL A   1      32.906  17.538  25.778  1.00  0.00     0.030 A 
ATOM     28  C   UNL A   1      33.197  17.618  22.978  1.00  0.00     0.021 A 
ATOM     29  C   UNL A   1      33.455  16.451  25.087  1.00  0.00     0.002 A 
ATOM     30  C   UNL A   1      33.595  16.492  23.703  1.00  0.00     0.002 A 
ENDBRANCH   6  22
ENDBRANCH   5   6
ENDBRANCH   3   5
ENDBRANCH   2   3
ENDBRANCH   1   2
BRANCH   1  31
ATOM     31  C   UNL A   1      37.644  20.475  25.055  1.00  0.00     0.275 C 
BRANCH  31  32
ATOM     32  O   UNL A   1      38.825  21.157  25.494  1.00  0.00    -0.458 OA
BRANCH  32  33
ATOM     33  C   UNL A   1      39.845  20.307  25.724  1.00  0.00     0.338 C 
ATOM     34  O   UNL A   1      39.827  19.101  25.558  1.00  0.00    -0.246 OA
BRANCH  33  35
ATOM     35  C   UNL A   1      40.968  20.915  26.415  1.00  0.00     0.060 A 
ATOM     36  C   UNL A   1      40.844  20.996  27.811  1.00  0.00     0.016 A 
ATOM     37  C   UNL A   1      41.741  21.800  25.668  1.00  0.00     0.016 A 
ATOM     38  C   UNL A   1      41.305  22.125  28.438  1.00  0.00     0.010 A 
ATOM     39  C   UNL A   1      42.175  22.939  26.293  1.00  0.00     0.010 A 
ATOM     40  C   UNL A   1      41.873  23.121  27.647  1.00  0.00    -0.014 A 
BRANCH  40  41
ATOM     41  C   UNL A   1      42.268  24.350  28.294  1.00  0.00     0.031 A 
ATOM     42  C   UNL A   1      41.272  25.426  28.098  1.00  0.00     0.074 A 
ATOM     43  C   UNL A   1      43.327  24.385  29.123  1.00  0.00     0.049 A 
ATOM     44  N   UNL A   1      41.432  26.582  27.544  1.00  0.00    -0.248 NA
ATOM     45  C   UNL A   1      39.866  25.085  28.389  1.00  0.00     0.031 C 
ATOM     46  C   UNL A   1      44.121  23.242  29.588  1.00  0.00     0.029 A 
ATOM     47  N   UNL A   1      43.777  25.412  29.897  1.00  0.00    -0.354 N 
ATOM     48  C   UNL A   1      40.186  27.196  27.657  1.00  0.00     0.074 A 
ATOM     49  C   UNL A   1      39.232  26.157  27.923  1.00  0.00     0.031 C 
ATOM     50  C   UNL A   1      44.728  23.579  30.746  1.00  0.00     0.029 A 
ATOM     51  C   UNL A   1      44.417  24.966  31.050  1.00  0.00     0.049 A 
ATOM     52  H   UNL A   1      43.662  26.362  29.666  1.00  0.00     0.167 HD
ATOM     53  C   UNL A   1      40.074  28.533  27.869  1.00  0.00     0.034 A 
ATOM     54  C   UNL A   1      44.518  25.640  32.224  1.00  0.00     0.034 A 
ATOM     55  C   UNL A   1      41.275  29.234  27.502  1.00  0.00     0.049 A 
ATOM     56  C   UNL A   1      44.197  27.065  31.951  1.00  0.00     0.074 A 
ATOM     57  C   UNL A   1      42.052  29.292  26.362  1.00  0.00     0.029 A 
ATOM     58  N   UNL A   1      42.058  29.724  28.519  1.00  0.00    -0.354 N 
ATOM     59  N   UNL A   1      44.940  27.854  31.227  1.00  0.00    -0.248 NA
ATOM     60  C   UNL A   1      42.813  27.487  32.116  1.00  0.00     0.031 C 
ATOM     61  C   UNL A   1      43.394  29.344  26.838  1.00  0.00     0.029 A 
ATOM     62  C   UNL A   1      43.351  29.378  28.232  1.00  0.00     0.049 A 
ATOM     63  H   UNL A   1      41.748  30.227  29.306  1.00  0.00     0.167 HD
ATOM     64  C   UNL A   1      44.034  28.607  30.489  1.00  0.00     0.074 A 
ATOM     65  C   UNL A   1      42.746  28.409  31.151  1.00  0.00     0.031 C 
ATOM     66  C   UNL A   1      44.340  29.069  29.241  1.00  0.00     0.034 A 
BRANCH  53  67
ATOM     67  C   UNL A   1      39.032  29.146  28.777  1.00  0.00     0.023 A 
ATOM     68  C   UNL A   1      38.222  30.162  28.229  1.00  0.00     0.012 A 
ATOM     69  C   UNL A   1      38.985  28.982  30.184  1.00  0.00     0.148 A 
ATOM     70  C   UNL A   1      37.453  31.002  29.041  1.00  0.00     0.002 A 
ATOM     71  C   UNL A   1      38.144  29.752  30.974  1.00  0.00     0.091 A 
ATOM     72  F   UNL A   1      39.858  28.184  30.804  1.00  0.00    -0.205 F 
ATOM     73  C   UNL A   1      37.403  30.790  30.413  1.00  0.00     0.022 A 
BRANCH  71  74
ATOM     74  S   UNL A   1      38.006  29.460  32.743  1.00  0.00     0.127 S 
ATOM     75  O   UNL A   1      36.969  30.415  33.117  1.00  0.00    -0.237 OA
ATOM     76  O   UNL A   1      37.602  28.054  32.784  1.00  0.00    -0.237 OA
ATOM     77  O   UNL A   1      39.339  29.709  33.280  1.00  0.00    -0.744 OA
ENDBRANCH  71  74
ENDBRANCH  53  67
BRANCH  54  78
ATOM     78  C   UNL A   1      44.547  25.084  33.602  1.00  0.00     0.023 A 
ATOM     79  C   UNL A   1      43.347  24.658  34.206  1.00  0.00     0.012 A 
ATOM     80  C   UNL A   1      45.760  24.759  34.251  1.00  0.00     0.148 A 
ATOM     81  C   UNL A   1      43.360  23.935  35.407  1.00  0.00     0.002 A 
ATOM     82  C   UNL A   1      45.766  24.074  35.462  1.00  0.00     0.091 A 
ATOM     83  F   UNL A   1      46.922  25.026  33.640  1.00  0.00    -0.205 F 
ATOM     84  C   UNL A   1      44.567  23.647  36.039  1.00  0.00     0.022 A 
BRANCH  82  85
ATOM     85  S   UNL A   1      47.304  23.712  36.324  1.00  0.00     0.127 S 
ATOM     86  O   UNL A   1      46.833  23.366  37.666  1.00  0.00    -0.237 OA
ATOM     87  O   UNL A   1      47.831  22.592  35.551  1.00  0.00    -0.237 OA
ATOM     88  O   UNL A   1      48.077  24.948  36.270  1.00  0.00    -0.744 OA
ENDBRANCH  82  85
ENDBRANCH  54  78
BRANCH  66  89
ATOM     89  C   UNL A   1      45.766  28.989  28.760  1.00  0.00     0.023 A 
ATOM     90  C   UNL A   1      46.724  29.976  29.075  1.00  0.00     0.012 A 
ATOM     91  C   UNL A   1      46.196  27.796  28.154  1.00  0.00     0.148 A 
ATOM     92  C   UNL A   1      48.075  29.785  28.771  1.00  0.00     0.002 A 
ATOM     93  C   UNL A   1      47.546  27.588  27.901  1.00  0.00     0.091 A 
ATOM     94  F   UNL A   1      45.276  26.863  27.861  1.00  0.00    -0.205 F 
ATOM     95  C   UNL A   1      48.488  28.584  28.198  1.00  0.00     0.022 A 
BRANCH  93  96
ATOM     96  S   UNL A   1      48.142  26.007  27.296  1.00  0.00     0.127 S 
ATOM     97  O   UNL A   1      49.587  26.221  27.251  1.00  0.00    -0.237 OA
ATOM     98  O   UNL A   1      47.693  25.079  28.335  1.00  0.00    -0.237 OA
ATOM     99  O   UNL A   1      47.490  25.809  26.007  1.00  0.00    -0.744 OA
ENDBRANCH  93  96
ENDBRANCH  66  89
ENDBRANCH  40  41
ENDBRANCH  33  35
ENDBRANCH  32  33
ENDBRANCH  31  32
ENDBRANCH   1  31
TORSDOF 18
ENDMDL
MODEL 2
REMARK VINA RESULT:     -12.8      3.104      8.177
REMARK SMILES Cc1nn([C@H]2CCS(=O)(=O)C2)c(C)c1/C=C(\CC(=O)OCCOC(=O)c1ccc(-c2c3nc(c(-c4cccc(S(=O)(=O)[O-])c4F)c4ccc([nH]4)c(-c4cccc(S(=O)(=O)[O-])c4F)c4nc(c(-c5cccc(S(=O)(=O)[O-])c5F)c5ccc2[nH]5)C=C4)C=C3)cc1)c1nc2ccccc2s1
REMARK SMILES IDX 21 1 20 2 18 3 19 4 17 5 16 6 15 7 14 8 1 9 2 10 3 11 4 12
REMARK SMILES IDX 12 13 13 14 5 15 6 16 11 17 7 18 8 19 9 20 10 21 89 22 90 23
REMARK SMILES IDX 97 24 91 25 96 26 92 27 95 28 93 29 94 30 22 31 23 32 24 33
REMARK SMILES IDX 25 34 26 35 27 36 88 37 28 38 87 39 29 40 30 41 31 42 81 43
REMARK SMILES IDX 32 44 86 45 80 46 82 47 33 48 85 49 79 50 78 51 34 53 66 54
REMARK SMILES IDX 46 55 65 56 47 57 50 58 64 59 83 60 48 61 49 62 63 64 84 65
REMARK SMILES IDX 51 66 35 67 36 68 44 69 37 70 39 71 45 72 38 73 40 74 41 75
REMARK SMILES IDX 42 76 43 77 67 78 68 79 76 80 69 81 71 82 77 83 70 84 72 85
REMARK SMILES IDX 73 86 74 87 75 88 52 89 53 90 61 91 54 92 56 93 62 94 55 95
REMARK SMILES IDX 57 96 58 97 59 98 60 99
REMARK H PARENT 82 52 50 63
REMARK Flexibility Score: inf
ROOT
ATOM      1  C   UNL A   1      32.925  28.793  26.087  1.00  0.00     0.274 C 
ENDROOT
BRANCH   1   2
ATOM      2  O   UNL A   1      33.868  27.712  25.885  1.00  0.00    -0.462 OA
BRANCH   2   3
ATOM      3  C   UNL A   1      33.486  26.826  24.940  1.00  0.00     0.310 C 
ATOM      4  O   UNL A   1      34.227  26.429  24.037  1.00  0.00    -0.252 OA
BRANCH   3   5
ATOM      5  C   UNL A   1      32.090  26.240  25.049  1.00  0.00     0.161 C 
BRANCH   5   6
ATOM      6  C   UNL A   1      31.145  25.773  23.953  1.00  0.00    -0.000 C 
ATOM      7  C   UNL A   1      30.890  24.462  23.713  1.00  0.00     0.019 C 
BRANCH   7   8
ATOM      8  C   UNL A   1      31.575  23.347  24.290  1.00  0.00     0.019 A 
ATOM      9  C   UNL A   1      30.356  23.189  26.586  1.00  0.00     0.069 C 
ATOM     10  C   UNL A   1      31.269  22.713  25.516  1.00  0.00     0.067 A 
ATOM     11  N   UNL A   1      31.940  21.558  25.638  1.00  0.00    -0.177 NA
ATOM     12  N   UNL A   1      32.655  21.483  24.493  1.00  0.00    -0.265 N 
ATOM     13  C   UNL A   1      32.730  22.704  23.863  1.00  0.00     0.043 A 
ATOM     14  C   UNL A   1      33.819  23.105  22.926  1.00  0.00     0.067 C 
BRANCH  12  15
ATOM     15  C   UNL A   1      33.217  20.201  24.094  1.00  0.00     0.123 C 
ATOM     16  C   UNL A   1      34.485  19.831  24.899  1.00  0.00     0.044 C 
ATOM     17  C   UNL A   1      32.299  18.993  24.306  1.00  0.00     0.164 C 
ATOM     18  C   UNL A   1      34.886  18.422  24.487  1.00  0.00     0.139 C 
ATOM     19  S   UNL A   1      33.366  17.590  24.088  1.00  0.00     0.152 S 
ATOM     20  O   UNL A   1      33.392  17.261  22.678  1.00  0.00    -0.229 OA
ATOM     21  O   UNL A   1      33.084  16.603  25.107  1.00  0.00    -0.229 OA
ENDBRANCH  12  15
ENDBRANCH   7   8
BRANCH   6  22
ATOM     22  C   UNL A   1      30.275  26.717  23.297  1.00  0.00     0.121 A 
ATOM     23  N   UNL A   1      30.624  27.664  22.451  1.00  0.00    -0.236 NA
ATOM     24  S   UNL A   1      28.591  26.757  23.725  1.00  0.00    -0.114 S 
ATOM     25  C   UNL A   1      29.679  28.684  22.483  1.00  0.00     0.082 A 
ATOM     26  C   UNL A   1      28.484  28.369  23.133  1.00  0.00     0.055 A 
ATOM     27  C   UNL A   1      29.850  29.996  21.993  1.00  0.00     0.030 A 
ATOM     28  C   UNL A   1      27.445  29.303  23.284  1.00  0.00     0.021 A 
ATOM     29  C   UNL A   1      28.856  30.957  22.212  1.00  0.00     0.002 A 
ATOM     30  C   UNL A   1      27.666  30.612  22.847  1.00  0.00     0.002 A 
ENDBRANCH   6  22
ENDBRANCH   5   6
ENDBRANCH   3   5
ENDBRANCH   2   3
ENDBRANCH   1   2
BRANCH   1  31
ATOM     31  C   UNL A   1      33.456  29.857  27.054  1.00  0.00     0.275 C 
BRANCH  31  32
ATOM     32  O   UNL A   1      34.888  29.913  27.086  1.00  0.00    -0.458 OA
BRANCH  32  33
ATOM     33  C   UNL A   1      35.337  30.987  27.764  1.00  0.00     0.338 C 
ATOM     34  O   UNL A   1      35.146  32.154  27.471  1.00  0.00    -0.246 OA
BRANCH  33  35
ATOM     35  C   UNL A   1      36.290  30.661  28.809  1.00  0.00     0.060 A 
ATOM     36  C   UNL A   1      37.333  31.584  28.983  1.00  0.00     0.016 A 
ATOM     37  C   UNL A   1      36.408  29.312  29.132  1.00  0.00     0.016 A 
ATOM     38  C   UNL A   1      38.588  31.101  29.256  1.00  0.00     0.010 A 
ATOM     39  C   UNL A   1      37.667  28.830  29.376  1.00  0.00     0.010 A 
ATOM     40  C   UNL A   1      38.745  29.720  29.347  1.00  0.00    -0.014 A 
BRANCH  40  41
ATOM     41  C   UNL A   1      40.082  29.208  29.535  1.00  0.00     0.031 A 
ATOM     42  C   UNL A   1      40.394  28.979  30.963  1.00  0.00     0.074 A 
ATOM     43  C   UNL A   1      40.829  28.823  28.484  1.00  0.00     0.049 A 
ATOM     44  N   UNL A   1      41.335  29.500  31.678  1.00  0.00    -0.248 NA
ATOM     45  C   UNL A   1      39.402  28.210  31.739  1.00  0.00     0.031 C 
ATOM     46  C   UNL A   1      40.400  28.732  27.084  1.00  0.00     0.029 A 
ATOM     47  N   UNL A   1      42.052  28.222  28.475  1.00  0.00    -0.354 N 
ATOM     48  C   UNL A   1      41.184  28.912  32.932  1.00  0.00     0.074 A 
ATOM     49  C   UNL A   1      39.859  28.363  32.979  1.00  0.00     0.031 C 
ATOM     50  C   UNL A   1      41.207  27.862  26.440  1.00  0.00     0.029 A 
ATOM     51  C   UNL A   1      42.232  27.404  27.363  1.00  0.00     0.049 A 
ATOM     52  H   UNL A   1      42.731  28.353  29.176  1.00  0.00     0.167 HD
ATOM     53  C   UNL A   1      42.260  28.615  33.707  1.00  0.00     0.034 A 
ATOM     54  C   UNL A   1      43.044  26.319  27.288  1.00  0.00     0.034 A 
ATOM     55  C   UNL A   1      43.423  29.364  33.315  1.00  0.00     0.049 A 
ATOM     56  C   UNL A   1      43.995  26.392  28.428  1.00  0.00     0.074 A 
ATOM     57  C   UNL A   1      43.694  30.706  33.130  1.00  0.00     0.029 A 
ATOM     58  N   UNL A   1      44.427  28.683  32.669  1.00  0.00    -0.354 N 
ATOM     59  N   UNL A   1      44.921  27.302  28.549  1.00  0.00    -0.248 NA
ATOM     60  C   UNL A   1      43.621  25.715  29.662  1.00  0.00     0.031 C 
ATOM     61  C   UNL A   1      44.547  30.751  31.989  1.00  0.00     0.029 A 
ATOM     62  C   UNL A   1      44.793  29.438  31.588  1.00  0.00     0.049 A 
ATOM     63  H   UNL A   1      44.809  27.816  32.933  1.00  0.00     0.167 HD
ATOM     64  C   UNL A   1      44.921  27.623  29.901  1.00  0.00     0.074 A 
ATOM     65  C   UNL A   1      44.176  26.546  30.549  1.00  0.00     0.031 C 
ATOM     66  C   UNL A   1      45.251  28.876  30.337  1.00  0.00     0.034 A 
BRANCH  53  67
ATOM     67  C   UNL A   1      42.357  27.363  34.549  1.00  0.00     0.023 A 
ATOM     68  C   UNL A   1      41.912  27.451  35.883  1.00  0.00     0.012 A 
ATOM     69  C   UNL A   1      43.098  26.207  34.198  1.00  0.00     0.148 A 
ATOM     70  C   UNL A   1      42.233  26.472  36.828  1.00  0.00     0.002 A 
ATOM     71  C   UNL A   1      43.329  25.191  35.114  1.00  0.00     0.091 A 
ATOM     72  F   UNL A   1      43.723  26.131  33.020  1.00  0.00    -0.205 F 
ATOM     73  C   UNL A   1      42.931  25.334  36.442  1.00  0.00     0.022 A 
BRANCH  71  74
ATOM     74  S   UNL A   1      44.171  23.677  34.631  1.00  0.00     0.127 S 
ATOM     75  O   UNL A   1      44.269  22.977  35.907  1.00  0.00    -0.237 OA
ATOM     76  O   UNL A   1      43.225  23.100  33.675  1.00  0.00    -0.237 OA
ATOM     77  O   UNL A   1      45.428  24.110  34.031  1.00  0.00    -0.744 OA
ENDBRANCH  71  74
ENDBRANCH  53  67
BRANCH  54  78
ATOM     78  C   UNL A   1      42.843  25.074  26.504  1.00  0.00     0.023 A 
ATOM     79  C   UNL A   1      43.743  24.748  25.470  1.00  0.00     0.012 A 
ATOM     80  C   UNL A   1      41.909  24.086  26.896  1.00  0.00     0.148 A 
ATOM     81  C   UNL A   1      43.716  23.488  24.857  1.00  0.00     0.002 A 
ATOM     82  C   UNL A   1      41.860  22.850  26.259  1.00  0.00     0.091 A 
ATOM     83  F   UNL A   1      41.131  24.308  27.963  1.00  0.00    -0.205 F 
ATOM     84  C   UNL A   1      42.771  22.540  25.246  1.00  0.00     0.022 A 
BRANCH  82  85
ATOM     85  S   UNL A   1      40.635  21.613  26.712  1.00  0.00     0.127 S 
ATOM     86  O   UNL A   1      39.391  22.223  26.241  1.00  0.00    -0.237 OA
ATOM     87  O   UNL A   1      41.077  20.451  25.948  1.00  0.00    -0.237 OA
ATOM     88  O   UNL A   1      40.722  21.496  28.163  1.00  0.00    -0.744 OA
ENDBRANCH  82  85
ENDBRANCH  54  78
BRANCH  66  89
ATOM     89  C   UNL A   1      45.874  29.847  29.368  1.00  0.00     0.023 A 
ATOM     90  C   UNL A   1      47.257  29.854  29.093  1.00  0.00     0.012 A 
ATOM     91  C   UNL A   1      45.020  30.628  28.570  1.00  0.00     0.148 A 
ATOM     92  C   UNL A   1      47.778  30.640  28.061  1.00  0.00     0.002 A 
ATOM     93  C   UNL A   1      45.535  31.367  27.512  1.00  0.00     0.091 A 
ATOM     94  F   UNL A   1      43.705  30.612  28.839  1.00  0.00    -0.205 F 
ATOM     95  C   UNL A   1      46.915  31.384  27.261  1.00  0.00     0.022 A 
BRANCH  93  96
ATOM     96  S   UNL A   1      44.451  32.228  26.369  1.00  0.00     0.127 S 
ATOM     97  O   UNL A   1      43.481  31.191  26.028  1.00  0.00    -0.237 OA
ATOM     98  O   UNL A   1      43.920  33.315  27.193  1.00  0.00    -0.237 OA
ATOM     99  O   UNL A   1      45.309  32.679  25.279  1.00  0.00    -0.744 OA
ENDBRANCH  93  96
ENDBRANCH  66  89
ENDBRANCH  40  41
ENDBRANCH  33  35
ENDBRANCH  32  33
ENDBRANCH  31  32
ENDBRANCH   1  31
TORSDOF 18
ENDMDL
MODEL 3
REMARK VINA RESULT:     -12.8      4.553     10.115
REMARK SMILES Cc1nn([C@H]2CCS(=O)(=O)C2)c(C)c1/C=C(\CC(=O)OCCOC(=O)c1ccc(-c2c3nc(c(-c4cccc(S(=O)(=O)[O-])c4F)c4ccc([nH]4)c(-c4cccc(S(=O)(=O)[O-])c4F)c4nc(c(-c5cccc(S(=O)(=O)[O-])c5F)c5ccc2[nH]5)C=C4)C=C3)cc1)c1nc2ccccc2s1
REMARK SMILES IDX 21 1 20 2 18 3 19 4 17 5 16 6 15 7 14 8 1 9 2 10 3 11 4 12
REMARK SMILES IDX 12 13 13 14 5 15 6 16 11 17 7 18 8 19 9 20 10 21 89 22 90 23
REMARK SMILES IDX 97 24 91 25 96 26 92 27 95 28 93 29 94 30 22 31 23 32 24 33
REMARK SMILES IDX 25 34 26 35 27 36 88 37 28 38 87 39 29 40 30 41 31 42 81 43
REMARK SMILES IDX 32 44 86 45 80 46 82 47 33 48 85 49 79 50 78 51 34 53 66 54
REMARK SMILES IDX 46 55 65 56 47 57 50 58 64 59 83 60 48 61 49 62 63 64 84 65
REMARK SMILES IDX 51 66 35 67 36 68 44 69 37 70 39 71 45 72 38 73 40 74 41 75
REMARK SMILES IDX 42 76 43 77 67 78 68 79 76 80 69 81 71 82 77 83 70 84 72 85
REMARK SMILES IDX 73 86 74 87 75 88 52 89 53 90 61 91 54 92 56 93 62 94 55 95
REMARK SMILES IDX 57 96 58 97 59 98 60 99
REMARK H PARENT 82 52 50 63
REMARK Flexibility Score: inf
ROOT
ATOM      1  C   UNL A   1      32.548  29.209  25.620  1.00  0.00     0.274 C 
ENDROOT
BRANCH   1   2
ATOM      2  O   UNL A   1      32.623  28.115  26.566  1.00  0.00    -0.462 OA
BRANCH   2   3
ATOM      3  C   UNL A   1      31.799  27.086  26.274  1.00  0.00     0.310 C 
ATOM      4  O   UNL A   1      30.791  26.810  26.930  1.00  0.00    -0.252 OA
BRANCH   3   5
ATOM      5  C   UNL A   1      32.099  26.276  25.024  1.00  0.00     0.161 C 
BRANCH   5   6
ATOM      6  C   UNL A   1      31.162  25.810  23.922  1.00  0.00    -0.000 C 
ATOM      7  C   UNL A   1      30.906  24.499  23.682  1.00  0.00     0.019 C 
BRANCH   7   8
ATOM      8  C   UNL A   1      31.583  23.384  24.268  1.00  0.00     0.019 A 
ATOM      9  C   UNL A   1      30.346  23.237  26.555  1.00  0.00     0.069 C 
ATOM     10  C   UNL A   1      31.265  22.754  25.494  1.00  0.00     0.067 A 
ATOM     11  N   UNL A   1      31.931  21.598  25.624  1.00  0.00    -0.177 NA
ATOM     12  N   UNL A   1      32.655  21.517  24.485  1.00  0.00    -0.265 N 
ATOM     13  C   UNL A   1      32.738  22.735  23.851  1.00  0.00     0.043 A 
ATOM     14  C   UNL A   1      33.836  23.129  22.922  1.00  0.00     0.067 C 
BRANCH  12  15
ATOM     15  C   UNL A   1      33.215  20.231  24.094  1.00  0.00     0.123 C 
ATOM     16  C   UNL A   1      34.507  19.884  24.871  1.00  0.00     0.044 C 
ATOM     17  C   UNL A   1      32.312  19.021  24.352  1.00  0.00     0.164 C 
ATOM     18  C   UNL A   1      34.907  18.471  24.474  1.00  0.00     0.139 C 
ATOM     19  S   UNL A   1      33.382  17.622  24.130  1.00  0.00     0.152 S 
ATOM     20  O   UNL A   1      33.373  17.267  22.726  1.00  0.00    -0.229 OA
ATOM     21  O   UNL A   1      33.135  16.651  25.174  1.00  0.00    -0.229 OA
ENDBRANCH  12  15
ENDBRANCH   7   8
BRANCH   6  22
ATOM     22  C   UNL A   1      30.301  26.755  23.255  1.00  0.00     0.121 A 
ATOM     23  N   UNL A   1      30.653  27.664  22.371  1.00  0.00    -0.236 NA
ATOM     24  S   UNL A   1      28.629  26.853  23.722  1.00  0.00    -0.114 S 
ATOM     25  C   UNL A   1      29.735  28.709  22.392  1.00  0.00     0.082 A 
ATOM     26  C   UNL A   1      28.549  28.447  23.081  1.00  0.00     0.055 A 
ATOM     27  C   UNL A   1      29.928  30.000  21.855  1.00  0.00     0.030 A 
ATOM     28  C   UNL A   1      27.538  29.413  23.226  1.00  0.00     0.021 A 
ATOM     29  C   UNL A   1      28.964  30.993  22.066  1.00  0.00     0.002 A 
ATOM     30  C   UNL A   1      27.783  30.701  22.740  1.00  0.00     0.002 A 
ENDBRANCH   6  22
ENDBRANCH   5   6
ENDBRANCH   3   5
ENDBRANCH   2   3
ENDBRANCH   1   2
BRANCH   1  31
ATOM     31  C   UNL A   1      32.173  30.535  26.291  1.00  0.00     0.275 C 
BRANCH  31  32
ATOM     32  O   UNL A   1      33.148  30.967  27.249  1.00  0.00    -0.458 OA
BRANCH  32  33
ATOM     33  C   UNL A   1      32.964  32.251  27.616  1.00  0.00     0.338 C 
ATOM     34  O   UNL A   1      32.070  32.985  27.236  1.00  0.00    -0.246 OA
BRANCH  33  35
ATOM     35  C   UNL A   1      34.070  32.806  28.375  1.00  0.00     0.060 A 
ATOM     36  C   UNL A   1      35.122  33.332  27.609  1.00  0.00     0.016 A 
ATOM     37  C   UNL A   1      34.243  32.303  29.662  1.00  0.00     0.016 A 
ATOM     38  C   UNL A   1      36.406  33.128  28.045  1.00  0.00     0.010 A 
ATOM     39  C   UNL A   1      35.528  32.075  30.080  1.00  0.00     0.010 A 
ATOM     40  C   UNL A   1      36.583  32.412  29.227  1.00  0.00    -0.014 A 
BRANCH  40  41
ATOM     41  C   UNL A   1      37.936  32.112  29.633  1.00  0.00     0.031 A 
ATOM     42  C   UNL A   1      38.289  30.697  29.386  1.00  0.00     0.074 A 
ATOM     43  C   UNL A   1      38.782  33.093  30.000  1.00  0.00     0.049 A 
ATOM     44  N   UNL A   1      38.668  29.800  30.235  1.00  0.00    -0.248 NA
ATOM     45  C   UNL A   1      37.996  30.169  28.040  1.00  0.00     0.031 C 
ATOM     46  C   UNL A   1      38.541  34.538  29.924  1.00  0.00     0.029 A 
ATOM     47  N   UNL A   1      40.107  33.013  30.304  1.00  0.00    -0.354 N 
ATOM     48  C   UNL A   1      38.896  28.664  29.460  1.00  0.00     0.074 A 
ATOM     49  C   UNL A   1      38.222  28.869  28.210  1.00  0.00     0.031 C 
ATOM     50  C   UNL A   1      39.731  35.173  29.884  1.00  0.00     0.029 A 
ATOM     51  C   UNL A   1      40.792  34.187  30.001  1.00  0.00     0.049 A 
ATOM     52  H   UNL A   1      40.532  32.216  30.696  1.00  0.00     0.167 HD
ATOM     53  C   UNL A   1      39.898  27.795  29.758  1.00  0.00     0.034 A 
ATOM     54  C   UNL A   1      42.110  34.290  29.694  1.00  0.00     0.034 A 
ATOM     55  C   UNL A   1      40.328  27.925  31.124  1.00  0.00     0.049 A 
ATOM     56  C   UNL A   1      42.771  33.032  30.129  1.00  0.00     0.074 A 
ATOM     57  C   UNL A   1      39.688  27.897  32.348  1.00  0.00     0.029 A 
ATOM     58  N   UNL A   1      41.550  28.511  31.350  1.00  0.00    -0.354 N 
ATOM     59  N   UNL A   1      42.904  32.670  31.374  1.00  0.00    -0.248 NA
ATOM     60  C   UNL A   1      42.885  31.959  29.151  1.00  0.00     0.031 C 
ATOM     61  C   UNL A   1      40.343  28.895  33.125  1.00  0.00     0.029 A 
ATOM     62  C   UNL A   1      41.378  29.425  32.353  1.00  0.00     0.049 A 
ATOM     63  H   UNL A   1      42.390  28.312  30.879  1.00  0.00     0.167 HD
ATOM     64  C   UNL A   1      42.669  31.300  31.366  1.00  0.00     0.074 A 
ATOM     65  C   UNL A   1      42.764  30.905  29.963  1.00  0.00     0.031 C 
ATOM     66  C   UNL A   1      42.117  30.665  32.443  1.00  0.00     0.034 A 
BRANCH  53  67
ATOM     67  C   UNL A   1      40.750  27.117  28.709  1.00  0.00     0.023 A 
ATOM     68  C   UNL A   1      40.989  25.737  28.871  1.00  0.00     0.012 A 
ATOM     69  C   UNL A   1      41.539  27.794  27.746  1.00  0.00     0.148 A 
ATOM     70  C   UNL A   1      41.994  25.080  28.155  1.00  0.00     0.002 A 
ATOM     71  C   UNL A   1      42.467  27.116  26.968  1.00  0.00     0.091 A 
ATOM     72  F   UNL A   1      41.519  29.126  27.665  1.00  0.00    -0.205 F 
ATOM     73  C   UNL A   1      42.726  25.766  27.193  1.00  0.00     0.022 A 
BRANCH  71  74
ATOM     74  S   UNL A   1      43.383  27.959  25.670  1.00  0.00     0.127 S 
ATOM     75  O   UNL A   1      42.327  28.239  24.702  1.00  0.00    -0.237 OA
ATOM     76  O   UNL A   1      43.903  29.127  26.380  1.00  0.00    -0.237 OA
ATOM     77  O   UNL A   1      44.412  27.015  25.250  1.00  0.00    -0.744 OA
ENDBRANCH  71  74
ENDBRANCH  53  67
BRANCH  54  78
ATOM     78  C   UNL A   1      42.764  35.249  28.768  1.00  0.00     0.023 A 
ATOM     79  C   UNL A   1      42.341  35.320  27.425  1.00  0.00     0.012 A 
ATOM     80  C   UNL A   1      43.647  36.253  29.230  1.00  0.00     0.148 A 
ATOM     81  C   UNL A   1      42.777  36.352  26.583  1.00  0.00     0.002 A 
ATOM     82  C   UNL A   1      44.107  37.253  28.380  1.00  0.00     0.091 A 
ATOM     83  F   UNL A   1      43.962  36.298  30.531  1.00  0.00    -0.205 F 
ATOM     84  C   UNL A   1      43.665  37.315  27.056  1.00  0.00     0.022 A 
BRANCH  82  85
ATOM     85  S   UNL A   1      45.278  38.496  28.947  1.00  0.00     0.127 S 
ATOM     86  O   UNL A   1      44.414  39.427  29.675  1.00  0.00    -0.237 OA
ATOM     87  O   UNL A   1      46.178  37.710  29.785  1.00  0.00    -0.237 OA
ATOM     88  O   UNL A   1      45.861  39.060  27.734  1.00  0.00    -0.744 OA
ENDBRANCH  82  85
ENDBRANCH  54  78
BRANCH  66  89
ATOM     89  C   UNL A   1      42.002  31.406  33.750  1.00  0.00     0.023 A 
ATOM     90  C   UNL A   1      43.065  31.471  34.675  1.00  0.00     0.012 A 
ATOM     91  C   UNL A   1      40.874  32.221  33.954  1.00  0.00     0.148 A 
ATOM     92  C   UNL A   1      42.994  32.313  35.789  1.00  0.00     0.002 A 
ATOM     93  C   UNL A   1      40.830  33.094  35.035  1.00  0.00     0.091 A 
ATOM     94  F   UNL A   1      39.870  32.152  33.066  1.00  0.00    -0.205 F 
ATOM     95  C   UNL A   1      41.883  33.135  35.960  1.00  0.00     0.022 A 
BRANCH  93  96
ATOM     96  S   UNL A   1      39.488  34.270  35.219  1.00  0.00     0.127 S 
ATOM     97  O   UNL A   1      39.447  34.898  33.900  1.00  0.00    -0.237 OA
ATOM     98  O   UNL A   1      38.346  33.406  35.522  1.00  0.00    -0.237 OA
ATOM     99  O   UNL A   1      39.877  35.140  36.324  1.00  0.00    -0.744 OA
ENDBRANCH  93  96
ENDBRANCH  66  89
ENDBRANCH  40  41
ENDBRANCH  33  35
ENDBRANCH  32  33
ENDBRANCH  31  32
ENDBRANCH   1  31
TORSDOF 18
ENDMDL
