MODEL 1
REMARK VINA RESULT:     -12.8      0.000      0.000
REMARK SMILES C[C@H](NC(=O)c1cccc(NC(=O)c2ccccc2C(=O)OCCOC(=O)c2ccc(-c3c4nc(c(-c5cccc(S(=O)(=O)[O-])c5F)c5ccc([nH]5)c(-c5cccc(S(=O)(=O)[O-])c5F)c5nc(c(-c6cccc(S(=O)(=O)[O-])c6F)c6ccc3[nH]6)C=C5)C=C4)cc2)c1)c1ccccc1
REMARK SMILES IDX 23 1 22 2 20 3 21 4 19 5 14 6 15 7 16 8 18 9 17 10 12 11
REMARK SMILES IDX 11 12 13 14 10 15 6 16 7 17 91 18 8 19 9 20 4 21 3 22 5 24
REMARK SMILES IDX 2 25 1 26 92 27 93 28 97 29 94 30 96 31 95 32 24 33 25 34
REMARK SMILES IDX 26 35 27 36 28 37 29 38 90 39 30 40 89 41 31 42 32 43 33 44
REMARK SMILES IDX 83 45 34 46 88 47 82 48 84 49 35 50 87 51 81 52 80 53 36 55
REMARK SMILES IDX 68 56 48 57 67 58 49 59 52 60 66 61 85 62 50 63 51 64 65 66
REMARK SMILES IDX 86 67 53 68 37 69 38 70 46 71 39 72 41 73 47 74 40 75 42 76
REMARK SMILES IDX 43 77 44 78 45 79 69 80 70 81 78 82 71 83 73 84 79 85 72 86
REMARK SMILES IDX 74 87 75 88 76 89 77 90 54 91 55 92 63 93 56 94 58 95 64 96
REMARK SMILES IDX 57 97 59 98 60 99 61 100 62 101
REMARK H PARENT 11 13 3 23 84 54 52 65
REMARK Flexibility Score: inf
ROOT
ATOM      1  C   UNL A   1      36.234  20.516  25.332  1.00  0.00     0.275 C 
ENDROOT
BRANCH   1   2
ATOM      2  O   UNL A   1      36.123  21.897  25.727  1.00  0.00    -0.458 OA
BRANCH   2   3
ATOM      3  C   UNL A   1      34.865  22.265  26.061  1.00  0.00     0.339 C 
ATOM      4  O   UNL A   1      34.546  22.852  27.086  1.00  0.00    -0.246 OA
BRANCH   3   5
ATOM      5  C   UNL A   1      33.853  21.835  25.082  1.00  0.00     0.072 A 
ATOM      6  C   UNL A   1      33.765  22.411  23.811  1.00  0.00     0.054 A 
ATOM      7  C   UNL A   1      32.862  21.882  22.871  1.00  0.00     0.015 A 
ATOM      8  C   UNL A   1      32.114  20.741  23.165  1.00  0.00     0.001 A 
ATOM      9  C   UNL A   1      33.083  20.696  25.369  1.00  0.00     0.016 A 
ATOM     10  C   UNL A   1      32.231  20.141  24.413  1.00  0.00     0.001 A 
BRANCH   6  11
ATOM     11  C   UNL A   1      34.544  23.589  23.396  1.00  0.00     0.256 C 
ATOM     12  N   UNL A   1      34.154  24.885  23.641  1.00  0.00    -0.322 N 
ATOM     13  H   UNL A   1      34.703  25.551  23.165  1.00  0.00     0.170 HD
ATOM     14  O   UNL A   1      35.585  23.390  22.768  1.00  0.00    -0.269 OA
BRANCH  12  15
ATOM     15  C   UNL A   1      33.138  25.462  24.424  1.00  0.00     0.042 A 
ATOM     16  C   UNL A   1      30.847  26.259  24.474  1.00  0.00     0.041 A 
ATOM     17  C   UNL A   1      30.920  26.405  25.862  1.00  0.00     0.014 A 
ATOM     18  C   UNL A   1      31.956  25.812  23.753  1.00  0.00     0.040 A 
ATOM     19  C   UNL A   1      32.112  26.120  26.523  1.00  0.00     0.003 A 
ATOM     20  C   UNL A   1      33.226  25.678  25.802  1.00  0.00     0.026 A 
BRANCH  16  21
ATOM     21  C   UNL A   1      29.612  26.692  23.794  1.00  0.00     0.251 C 
ATOM     22  N   UNL A   1      29.543  27.859  23.080  1.00  0.00    -0.346 N 
ATOM     23  H   UNL A   1      28.633  28.118  22.807  1.00  0.00     0.164 HD
ATOM     24  O   UNL A   1      28.620  25.969  23.856  1.00  0.00    -0.269 OA
BRANCH  22  25
ATOM     25  C   UNL A   1      30.592  28.785  22.655  1.00  0.00     0.109 C 
ATOM     26  C   UNL A   1      29.955  30.001  21.969  1.00  0.00     0.036 C 
BRANCH  25  27
ATOM     27  C   UNL A   1      31.498  29.270  23.798  1.00  0.00    -0.026 A 
ATOM     28  C   UNL A   1      32.881  29.031  23.864  1.00  0.00     0.006 A 
ATOM     29  C   UNL A   1      30.907  29.939  24.890  1.00  0.00     0.006 A 
ATOM     30  C   UNL A   1      33.622  29.374  25.002  1.00  0.00     0.000 A 
ATOM     31  C   UNL A   1      31.645  30.274  26.029  1.00  0.00     0.000 A 
ATOM     32  C   UNL A   1      33.002  29.977  26.091  1.00  0.00     0.000 A 
ENDBRANCH  25  27
ENDBRANCH  22  25
ENDBRANCH  16  21
ENDBRANCH  12  15
ENDBRANCH   6  11
ENDBRANCH   3   5
ENDBRANCH   2   3
ENDBRANCH   1   2
BRANCH   1  33
ATOM     33  C   UNL A   1      37.653  20.093  24.943  1.00  0.00     0.275 C 
BRANCH  33  34
ATOM     34  O   UNL A   1      38.601  21.169  25.066  1.00  0.00    -0.458 OA
BRANCH  34  35
ATOM     35  C   UNL A   1      39.492  20.998  26.068  1.00  0.00     0.338 C 
ATOM     36  O   UNL A   1      40.087  19.972  26.351  1.00  0.00    -0.246 OA
BRANCH  35  37
ATOM     37  C   UNL A   1      39.762  22.255  26.777  1.00  0.00     0.060 A 
ATOM     38  C   UNL A   1      39.073  23.392  26.367  1.00  0.00     0.016 A 
ATOM     39  C   UNL A   1      40.879  22.374  27.598  1.00  0.00     0.016 A 
ATOM     40  C   UNL A   1      39.585  24.652  26.617  1.00  0.00     0.010 A 
ATOM     41  C   UNL A   1      41.318  23.650  27.965  1.00  0.00     0.010 A 
ATOM     42  C   UNL A   1      40.713  24.799  27.424  1.00  0.00    -0.014 A 
BRANCH  42  43
ATOM     43  C   UNL A   1      41.283  26.151  27.640  1.00  0.00     0.031 A 
ATOM     44  C   UNL A   1      42.664  26.462  27.131  1.00  0.00     0.074 A 
ATOM     45  C   UNL A   1      40.555  27.095  28.269  1.00  0.00     0.049 A 
ATOM     46  N   UNL A   1      43.429  27.487  27.391  1.00  0.00    -0.248 NA
ATOM     47  C   UNL A   1      43.275  25.478  26.217  1.00  0.00     0.031 C 
ATOM     48  C   UNL A   1      39.179  26.931  28.748  1.00  0.00     0.029 A 
ATOM     49  N   UNL A   1      40.874  28.380  28.626  1.00  0.00    -0.354 N 
ATOM     50  C   UNL A   1      44.633  27.239  26.743  1.00  0.00     0.074 A 
ATOM     51  C   UNL A   1      44.498  25.966  26.069  1.00  0.00     0.031 C 
ATOM     52  C   UNL A   1      38.771  28.069  29.327  1.00  0.00     0.029 A 
ATOM     53  C   UNL A   1      39.886  29.003  29.353  1.00  0.00     0.049 A 
ATOM     54  H   UNL A   1      41.725  28.814  28.385  1.00  0.00     0.167 HD
ATOM     55  C   UNL A   1      45.747  28.008  26.715  1.00  0.00     0.034 A 
ATOM     56  C   UNL A   1      39.901  30.168  30.026  1.00  0.00     0.034 A 
ATOM     57  C   UNL A   1      45.836  29.296  27.351  1.00  0.00     0.049 A 
ATOM     58  C   UNL A   1      41.164  30.979  30.015  1.00  0.00     0.074 A 
ATOM     59  C   UNL A   1      46.908  30.169  27.383  1.00  0.00     0.029 A 
ATOM     60  N   UNL A   1      44.806  29.898  28.057  1.00  0.00    -0.354 N 
ATOM     61  N   UNL A   1      42.296  30.736  29.398  1.00  0.00    -0.248 NA
ATOM     62  C   UNL A   1      41.151  32.230  30.783  1.00  0.00     0.031 C 
ATOM     63  C   UNL A   1      46.532  31.291  28.129  1.00  0.00     0.029 A 
ATOM     64  C   UNL A   1      45.214  31.133  28.529  1.00  0.00     0.049 A 
ATOM     65  H   UNL A   1      43.915  29.506  28.202  1.00  0.00     0.167 HD
ATOM     66  C   UNL A   1      43.116  31.823  29.669  1.00  0.00     0.074 A 
ATOM     67  C   UNL A   1      42.341  32.734  30.487  1.00  0.00     0.031 C 
ATOM     68  C   UNL A   1      44.399  32.043  29.291  1.00  0.00     0.034 A 
BRANCH  55  69
ATOM     69  C   UNL A   1      46.950  27.486  25.972  1.00  0.00     0.023 A 
ATOM     70  C   UNL A   1      47.841  26.597  26.606  1.00  0.00     0.012 A 
ATOM     71  C   UNL A   1      47.169  27.834  24.623  1.00  0.00     0.148 A 
ATOM     72  C   UNL A   1      48.947  26.090  25.923  1.00  0.00     0.002 A 
ATOM     73  C   UNL A   1      48.245  27.288  23.934  1.00  0.00     0.091 A 
ATOM     74  F   UNL A   1      46.322  28.695  24.040  1.00  0.00    -0.205 F 
ATOM     75  C   UNL A   1      49.142  26.425  24.586  1.00  0.00     0.022 A 
BRANCH  73  76
ATOM     76  S   UNL A   1      48.543  27.595  22.189  1.00  0.00     0.127 S 
ATOM     77  O   UNL A   1      49.694  28.495  22.238  1.00  0.00    -0.237 OA
ATOM     78  O   UNL A   1      48.839  26.252  21.689  1.00  0.00    -0.237 OA
ATOM     79  O   UNL A   1      47.317  28.184  21.668  1.00  0.00    -0.744 OA
ENDBRANCH  73  76
ENDBRANCH  55  69
BRANCH  56  80
ATOM     80  C   UNL A   1      38.696  30.624  30.776  1.00  0.00     0.023 A 
ATOM     81  C   UNL A   1      38.624  30.411  32.167  1.00  0.00     0.012 A 
ATOM     82  C   UNL A   1      37.624  31.270  30.126  1.00  0.00     0.148 A 
ATOM     83  C   UNL A   1      37.494  30.798  32.888  1.00  0.00     0.002 A 
ATOM     84  C   UNL A   1      36.530  31.709  30.861  1.00  0.00     0.091 A 
ATOM     85  F   UNL A   1      37.700  31.451  28.800  1.00  0.00    -0.205 F 
ATOM     86  C   UNL A   1      36.453  31.456  32.238  1.00  0.00     0.022 A 
BRANCH  84  87
ATOM     87  S   UNL A   1      35.211  32.684  30.129  1.00  0.00     0.127 S 
ATOM     88  O   UNL A   1      34.754  31.808  29.054  1.00  0.00    -0.237 OA
ATOM     89  O   UNL A   1      34.280  32.825  31.249  1.00  0.00    -0.237 OA
ATOM     90  O   UNL A   1      35.834  33.933  29.710  1.00  0.00    -0.744 OA
ENDBRANCH  84  87
ENDBRANCH  56  80
BRANCH  68  91
ATOM     91  C   UNL A   1      45.018  33.351  29.703  1.00  0.00     0.023 A 
ATOM     92  C   UNL A   1      45.752  33.440  30.902  1.00  0.00     0.012 A 
ATOM     93  C   UNL A   1      44.914  34.479  28.865  1.00  0.00     0.148 A 
ATOM     94  C   UNL A   1      46.338  34.646  31.282  1.00  0.00     0.002 A 
ATOM     95  C   UNL A   1      45.549  35.659  29.223  1.00  0.00     0.091 A 
ATOM     96  F   UNL A   1      44.194  34.375  27.740  1.00  0.00    -0.205 F 
ATOM     97  C   UNL A   1      46.247  35.750  30.438  1.00  0.00     0.022 A 
BRANCH  95  98
ATOM     98  S   UNL A   1      45.571  37.100  28.152  1.00  0.00     0.127 S 
ATOM     99  O   UNL A   1      44.148  37.295  27.886  1.00  0.00    -0.237 OA
ATOM    100  O   UNL A   1      46.177  38.115  29.015  1.00  0.00    -0.237 OA
ATOM    101  O   UNL A   1      46.377  36.731  26.996  1.00  0.00    -0.744 OA
ENDBRANCH  95  98
ENDBRANCH  68  91
ENDBRANCH  42  43
ENDBRANCH  35  37
ENDBRANCH  34  35
ENDBRANCH  33  34
ENDBRANCH   1  33
TORSDOF 19
ENDMDL
MODEL 2
REMARK VINA RESULT:     -12.0      2.264      7.854
REMARK SMILES C[C@H](NC(=O)c1cccc(NC(=O)c2ccccc2C(=O)OCCOC(=O)c2ccc(-c3c4nc(c(-c5cccc(S(=O)(=O)[O-])c5F)c5ccc([nH]5)c(-c5cccc(S(=O)(=O)[O-])c5F)c5nc(c(-c6cccc(S(=O)(=O)[O-])c6F)c6ccc3[nH]6)C=C5)C=C4)cc2)c1)c1ccccc1
REMARK SMILES IDX 23 1 22 2 20 3 21 4 19 5 14 6 15 7 16 8 18 9 17 10 12 11
REMARK SMILES IDX 11 12 13 14 10 15 6 16 7 17 91 18 8 19 9 20 4 21 3 22 5 24
REMARK SMILES IDX 2 25 1 26 92 27 93 28 97 29 94 30 96 31 95 32 24 33 25 34
REMARK SMILES IDX 26 35 27 36 28 37 29 38 90 39 30 40 89 41 31 42 32 43 33 44
REMARK SMILES IDX 83 45 34 46 88 47 82 48 84 49 35 50 87 51 81 52 80 53 36 55
REMARK SMILES IDX 68 56 48 57 67 58 49 59 52 60 66 61 85 62 50 63 51 64 65 66
REMARK SMILES IDX 86 67 53 68 37 69 38 70 46 71 39 72 41 73 47 74 40 75 42 76
REMARK SMILES IDX 43 77 44 78 45 79 69 80 70 81 78 82 71 83 73 84 79 85 72 86
REMARK SMILES IDX 74 87 75 88 76 89 77 90 54 91 55 92 63 93 56 94 58 95 64 96
REMARK SMILES IDX 57 97 59 98 60 99 61 100 62 101
REMARK H PARENT 11 13 3 23 84 54 52 65
REMARK Flexibility Score: inf
ROOT
ATOM      1  C   UNL A   1      38.400  21.930  25.449  1.00  0.00     0.275 C 
ENDROOT
BRANCH   1   2
ATOM      2  O   UNL A   1      37.091  22.149  26.010  1.00  0.00    -0.458 OA
BRANCH   2   3
ATOM      3  C   UNL A   1      36.107  22.202  25.084  1.00  0.00     0.339 C 
ATOM      4  O   UNL A   1      36.051  22.994  24.152  1.00  0.00    -0.246 OA
BRANCH   3   5
ATOM      5  C   UNL A   1      35.027  21.231  25.325  1.00  0.00     0.072 A 
ATOM      6  C   UNL A   1      33.919  21.542  26.116  1.00  0.00     0.054 A 
ATOM      7  C   UNL A   1      32.857  20.625  26.216  1.00  0.00     0.015 A 
ATOM      8  C   UNL A   1      32.862  19.445  25.469  1.00  0.00     0.001 A 
ATOM      9  C   UNL A   1      35.026  20.034  24.589  1.00  0.00     0.016 A 
ATOM     10  C   UNL A   1      33.944  19.154  24.647  1.00  0.00     0.001 A 
BRANCH   6  11
ATOM     11  C   UNL A   1      33.805  22.779  26.908  1.00  0.00     0.256 C 
ATOM     12  N   UNL A   1      33.225  23.934  26.437  1.00  0.00    -0.322 N 
ATOM     13  H   UNL A   1      33.368  24.708  27.030  1.00  0.00     0.170 HD
ATOM     14  O   UNL A   1      34.288  22.774  28.041  1.00  0.00    -0.269 OA
BRANCH  12  15
ATOM     15  C   UNL A   1      32.472  24.245  25.291  1.00  0.00     0.042 A 
ATOM     16  C   UNL A   1      32.437  25.420  23.168  1.00  0.00     0.041 A 
ATOM     17  C   UNL A   1      31.225  24.806  22.840  1.00  0.00     0.014 A 
ATOM     18  C   UNL A   1      33.048  25.161  24.397  1.00  0.00     0.040 A 
ATOM     19  C   UNL A   1      30.618  23.946  23.753  1.00  0.00     0.003 A 
ATOM     20  C   UNL A   1      31.227  23.690  24.986  1.00  0.00     0.026 A 
BRANCH  16  21
ATOM     21  C   UNL A   1      32.983  26.421  22.233  1.00  0.00     0.251 C 
ATOM     22  N   UNL A   1      32.551  27.721  22.222  1.00  0.00    -0.346 N 
ATOM     23  H   UNL A   1      32.872  28.251  21.457  1.00  0.00     0.164 HD
ATOM     24  O   UNL A   1      33.870  26.079  21.454  1.00  0.00    -0.269 OA
BRANCH  22  25
ATOM     25  C   UNL A   1      31.695  28.453  23.154  1.00  0.00     0.109 C 
ATOM     26  C   UNL A   1      30.242  27.987  22.988  1.00  0.00     0.036 C 
BRANCH  25  27
ATOM     27  C   UNL A   1      32.104  28.306  24.627  1.00  0.00    -0.026 A 
ATOM     28  C   UNL A   1      31.258  27.812  25.636  1.00  0.00     0.006 A 
ATOM     29  C   UNL A   1      33.382  28.754  25.021  1.00  0.00     0.006 A 
ATOM     30  C   UNL A   1      31.644  27.839  26.981  1.00  0.00     0.000 A 
ATOM     31  C   UNL A   1      33.763  28.789  26.366  1.00  0.00     0.000 A 
ATOM     32  C   UNL A   1      32.886  28.345  27.349  1.00  0.00     0.000 A 
ENDBRANCH  25  27
ENDBRANCH  22  25
ENDBRANCH  16  21
ENDBRANCH  12  15
ENDBRANCH   6  11
ENDBRANCH   3   5
ENDBRANCH   2   3
ENDBRANCH   1   2
BRANCH   1  33
ATOM     33  C   UNL A   1      38.934  20.509  25.652  1.00  0.00     0.275 C 
BRANCH  33  34
ATOM     34  O   UNL A   1      39.931  20.439  26.687  1.00  0.00    -0.458 OA
BRANCH  34  35
ATOM     35  C   UNL A   1      41.147  20.044  26.247  1.00  0.00     0.338 C 
ATOM     36  O   UNL A   1      41.420  18.987  25.702  1.00  0.00    -0.246 OA
BRANCH  35  37
ATOM     37  C   UNL A   1      42.157  21.096  26.417  1.00  0.00     0.060 A 
ATOM     38  C   UNL A   1      42.648  21.322  27.699  1.00  0.00     0.016 A 
ATOM     39  C   UNL A   1      42.374  22.032  25.411  1.00  0.00     0.016 A 
ATOM     40  C   UNL A   1      43.197  22.547  28.034  1.00  0.00     0.010 A 
ATOM     41  C   UNL A   1      43.053  23.216  25.720  1.00  0.00     0.010 A 
ATOM     42  C   UNL A   1      43.411  23.509  27.048  1.00  0.00    -0.014 A 
BRANCH  42  43
ATOM     43  C   UNL A   1      43.950  24.837  27.431  1.00  0.00     0.031 A 
ATOM     44  C   UNL A   1      43.021  25.880  27.988  1.00  0.00     0.074 A 
ATOM     45  C   UNL A   1      45.267  25.092  27.298  1.00  0.00     0.049 A 
ATOM     46  N   UNL A   1      43.231  27.154  28.183  1.00  0.00    -0.248 NA
ATOM     47  C   UNL A   1      41.666  25.435  28.363  1.00  0.00     0.031 C 
ATOM     48  C   UNL A   1      46.276  24.135  26.832  1.00  0.00     0.029 A 
ATOM     49  N   UNL A   1      45.985  26.237  27.531  1.00  0.00    -0.354 N 
ATOM     50  C   UNL A   1      42.021  27.677  28.625  1.00  0.00     0.074 A 
ATOM     51  C   UNL A   1      41.079  26.581  28.678  1.00  0.00     0.031 C 
ATOM     52  C   UNL A   1      47.478  24.728  26.820  1.00  0.00     0.029 A 
ATOM     53  C   UNL A   1      47.309  26.129  27.176  1.00  0.00     0.049 A 
ATOM     54  H   UNL A   1      45.591  27.054  27.915  1.00  0.00     0.167 HD
ATOM     55  C   UNL A   1      41.730  28.956  28.957  1.00  0.00     0.034 A 
ATOM     56  C   UNL A   1      48.267  27.070  27.080  1.00  0.00     0.034 A 
ATOM     57  C   UNL A   1      42.701  30.018  28.947  1.00  0.00     0.049 A 
ATOM     58  C   UNL A   1      47.903  28.488  27.412  1.00  0.00     0.074 A 
ATOM     59  C   UNL A   1      42.525  31.351  29.271  1.00  0.00     0.029 A 
ATOM     60  N   UNL A   1      44.036  29.861  28.602  1.00  0.00    -0.354 N 
ATOM     61  N   UNL A   1      46.758  28.971  27.830  1.00  0.00    -0.248 NA
ATOM     62  C   UNL A   1      48.965  29.491  27.269  1.00  0.00     0.031 C 
ATOM     63  C   UNL A   1      43.750  32.005  29.102  1.00  0.00     0.029 A 
ATOM     64  C   UNL A   1      44.697  31.072  28.708  1.00  0.00     0.049 A 
ATOM     65  H   UNL A   1      44.451  29.014  28.324  1.00  0.00     0.167 HD
ATOM     66  C   UNL A   1      46.972  30.327  28.040  1.00  0.00     0.074 A 
ATOM     67  C   UNL A   1      48.363  30.581  27.724  1.00  0.00     0.031 C 
ATOM     68  C   UNL A   1      46.097  31.281  28.442  1.00  0.00     0.034 A 
BRANCH  55  69
ATOM     69  C   UNL A   1      40.315  29.278  29.365  1.00  0.00     0.023 A 
ATOM     70  C   UNL A   1      39.381  29.704  28.400  1.00  0.00     0.012 A 
ATOM     71  C   UNL A   1      39.894  29.104  30.700  1.00  0.00     0.148 A 
ATOM     72  C   UNL A   1      38.062  29.985  28.760  1.00  0.00     0.002 A 
ATOM     73  C   UNL A   1      38.568  29.339  31.043  1.00  0.00     0.091 A 
ATOM     74  F   UNL A   1      40.800  28.715  31.609  1.00  0.00    -0.205 F 
ATOM     75  C   UNL A   1      37.654  29.791  30.077  1.00  0.00     0.022 A 
BRANCH  73  76
ATOM     76  S   UNL A   1      37.922  29.047  32.693  1.00  0.00     0.127 S 
ATOM     77  O   UNL A   1      38.766  29.926  33.501  1.00  0.00    -0.237 OA
ATOM     78  O   UNL A   1      36.533  29.489  32.560  1.00  0.00    -0.237 OA
ATOM     79  O   UNL A   1      38.088  27.623  32.947  1.00  0.00    -0.744 OA
ENDBRANCH  73  76
ENDBRANCH  55  69
BRANCH  56  80
ATOM     80  C   UNL A   1      49.643  26.707  26.637  1.00  0.00     0.023 A 
ATOM     81  C   UNL A   1      50.474  25.966  27.499  1.00  0.00     0.012 A 
ATOM     82  C   UNL A   1      50.132  27.083  25.369  1.00  0.00     0.148 A 
ATOM     83  C   UNL A   1      51.778  25.640  27.124  1.00  0.00     0.002 A 
ATOM     84  C   UNL A   1      51.409  26.700  24.977  1.00  0.00     0.091 A 
ATOM     85  F   UNL A   1      49.335  27.802  24.566  1.00  0.00    -0.205 F 
ATOM     86  C   UNL A   1      52.242  25.998  25.860  1.00  0.00     0.022 A 
BRANCH  84  87
ATOM     87  S   UNL A   1      52.033  26.999  23.320  1.00  0.00     0.127 S 
ATOM     88  O   UNL A   1      52.438  28.400  23.402  1.00  0.00    -0.237 OA
ATOM     89  O   UNL A   1      53.138  26.042  23.234  1.00  0.00    -0.237 OA
ATOM     90  O   UNL A   1      50.921  26.709  22.425  1.00  0.00    -0.744 OA
ENDBRANCH  84  87
ENDBRANCH  56  80
BRANCH  68  91
ATOM     91  C   UNL A   1      46.639  32.672  28.628  1.00  0.00     0.023 A 
ATOM     92  C   UNL A   1      47.148  33.071  29.880  1.00  0.00     0.012 A 
ATOM     93  C   UNL A   1      46.689  33.563  27.539  1.00  0.00     0.148 A 
ATOM     94  C   UNL A   1      47.662  34.355  30.054  1.00  0.00     0.002 A 
ATOM     95  C   UNL A   1      47.256  34.819  27.707  1.00  0.00     0.091 A 
ATOM     96  F   UNL A   1      46.181  33.167  26.364  1.00  0.00    -0.205 F 
ATOM     97  C   UNL A   1      47.726  35.223  28.966  1.00  0.00     0.022 A 
BRANCH  95  98
ATOM     98  S   UNL A   1      47.474  35.964  26.341  1.00  0.00     0.127 S 
ATOM     99  O   UNL A   1      48.228  35.151  25.389  1.00  0.00    -0.237 OA
ATOM    100  O   UNL A   1      46.092  36.240  25.948  1.00  0.00    -0.237 OA
ATOM    101  O   UNL A   1      48.187  37.110  26.886  1.00  0.00    -0.744 OA
ENDBRANCH  95  98
ENDBRANCH  68  91
ENDBRANCH  42  43
ENDBRANCH  35  37
ENDBRANCH  34  35
ENDBRANCH  33  34
ENDBRANCH   1  33
TORSDOF 19
ENDMDL
MODEL 3
REMARK VINA RESULT:     -11.9      1.400      7.439
REMARK SMILES C[C@H](NC(=O)c1cccc(NC(=O)c2ccccc2C(=O)OCCOC(=O)c2ccc(-c3c4nc(c(-c5cccc(S(=O)(=O)[O-])c5F)c5ccc([nH]5)c(-c5cccc(S(=O)(=O)[O-])c5F)c5nc(c(-c6cccc(S(=O)(=O)[O-])c6F)c6ccc3[nH]6)C=C5)C=C4)cc2)c1)c1ccccc1
REMARK SMILES IDX 23 1 22 2 20 3 21 4 19 5 14 6 15 7 16 8 18 9 17 10 12 11
REMARK SMILES IDX 11 12 13 14 10 15 6 16 7 17 91 18 8 19 9 20 4 21 3 22 5 24
REMARK SMILES IDX 2 25 1 26 92 27 93 28 97 29 94 30 96 31 95 32 24 33 25 34
REMARK SMILES IDX 26 35 27 36 28 37 29 38 90 39 30 40 89 41 31 42 32 43 33 44
REMARK SMILES IDX 83 45 34 46 88 47 82 48 84 49 35 50 87 51 81 52 80 53 36 55
REMARK SMILES IDX 68 56 48 57 67 58 49 59 52 60 66 61 85 62 50 63 51 64 65 66
REMARK SMILES IDX 86 67 53 68 37 69 38 70 46 71 39 72 41 73 47 74 40 75 42 76
REMARK SMILES IDX 43 77 44 78 45 79 69 80 70 81 78 82 71 83 73 84 79 85 72 86
REMARK SMILES IDX 74 87 75 88 76 89 77 90 54 91 55 92 63 93 56 94 58 95 64 96
REMARK SMILES IDX 57 97 59 98 60 99 61 100 62 101
REMARK H PARENT 11 13 3 23 84 54 52 65
REMARK Flexibility Score: inf
ROOT
ATOM      1  C   UNL A   1      36.742  22.319  24.092  1.00  0.00     0.275 C 
ENDROOT
BRANCH   1   2
ATOM      2  O   UNL A   1      35.356  21.994  23.869  1.00  0.00    -0.458 OA
BRANCH   2   3
ATOM      3  C   UNL A   1      34.855  21.113  24.765  1.00  0.00     0.339 C 
ATOM      4  O   UNL A   1      35.038  19.903  24.749  1.00  0.00    -0.246 OA
BRANCH   3   5
ATOM      5  C   UNL A   1      33.985  21.740  25.774  1.00  0.00     0.072 A 
ATOM      6  C   UNL A   1      32.791  22.376  25.425  1.00  0.00     0.054 A 
ATOM      7  C   UNL A   1      31.936  22.851  26.436  1.00  0.00     0.015 A 
ATOM      8  C   UNL A   1      32.228  22.621  27.782  1.00  0.00     0.001 A 
ATOM      9  C   UNL A   1      34.273  21.528  27.133  1.00  0.00     0.016 A 
ATOM     10  C   UNL A   1      33.393  21.950  28.130  1.00  0.00     0.001 A 
BRANCH   6  11
ATOM     11  C   UNL A   1      32.378  22.627  24.034  1.00  0.00     0.256 C 
ATOM     12  N   UNL A   1      32.494  23.848  23.412  1.00  0.00    -0.322 N 
ATOM     13  H   UNL A   1      32.034  23.885  22.543  1.00  0.00     0.170 HD
ATOM     14  O   UNL A   1      31.875  21.689  23.414  1.00  0.00    -0.269 OA
BRANCH  12  15
ATOM     15  C   UNL A   1      33.130  25.055  23.756  1.00  0.00     0.042 A 
ATOM     16  C   UNL A   1      33.304  27.433  23.305  1.00  0.00     0.041 A 
ATOM     17  C   UNL A   1      34.119  27.594  24.429  1.00  0.00     0.014 A 
ATOM     18  C   UNL A   1      32.829  26.167  22.955  1.00  0.00     0.040 A 
ATOM     19  C   UNL A   1      34.472  26.481  25.190  1.00  0.00     0.003 A 
ATOM     20  C   UNL A   1      34.002  25.212  24.835  1.00  0.00     0.026 A 
BRANCH  16  21
ATOM     21  C   UNL A   1      33.057  28.610  22.453  1.00  0.00     0.251 C 
ATOM     22  N   UNL A   1      31.855  29.267  22.447  1.00  0.00    -0.346 N 
ATOM     23  H   UNL A   1      31.757  29.934  21.729  1.00  0.00     0.164 HD
ATOM     24  O   UNL A   1      33.969  29.027  21.742  1.00  0.00    -0.269 OA
BRANCH  22  25
ATOM     25  C   UNL A   1      30.692  29.144  23.326  1.00  0.00     0.109 C 
ATOM     26  C   UNL A   1      29.836  27.952  22.878  1.00  0.00     0.036 C 
BRANCH  25  27
ATOM     27  C   UNL A   1      31.047  28.977  24.811  1.00  0.00    -0.026 A 
ATOM     28  C   UNL A   1      31.676  29.966  25.588  1.00  0.00     0.006 A 
ATOM     29  C   UNL A   1      30.795  27.736  25.431  1.00  0.00     0.006 A 
ATOM     30  C   UNL A   1      32.101  29.697  26.895  1.00  0.00     0.000 A 
ATOM     31  C   UNL A   1      31.228  27.466  26.732  1.00  0.00     0.000 A 
ATOM     32  C   UNL A   1      31.895  28.444  27.460  1.00  0.00     0.000 A 
ENDBRANCH  25  27
ENDBRANCH  22  25
ENDBRANCH  16  21
ENDBRANCH  12  15
ENDBRANCH   6  11
ENDBRANCH   3   5
ENDBRANCH   2   3
ENDBRANCH   1   2
BRANCH   1  33
ATOM     33  C   UNL A   1      37.554  21.182  24.718  1.00  0.00     0.275 C 
BRANCH  33  34
ATOM     34  O   UNL A   1      37.985  21.485  26.057  1.00  0.00    -0.458 OA
BRANCH  34  35
ATOM     35  C   UNL A   1      39.318  21.677  26.171  1.00  0.00     0.338 C 
ATOM     36  O   UNL A   1      40.200  21.034  25.625  1.00  0.00    -0.246 OA
BRANCH  35  37
ATOM     37  C   UNL A   1      39.631  22.852  26.993  1.00  0.00     0.060 A 
ATOM     38  C   UNL A   1      39.094  24.075  26.609  1.00  0.00     0.016 A 
ATOM     39  C   UNL A   1      40.669  22.805  27.920  1.00  0.00     0.016 A 
ATOM     40  C   UNL A   1      39.693  25.260  26.999  1.00  0.00     0.010 A 
ATOM     41  C   UNL A   1      41.186  24.005  28.421  1.00  0.00     0.010 A 
ATOM     42  C   UNL A   1      40.744  25.241  27.914  1.00  0.00    -0.014 A 
BRANCH  42  43
ATOM     43  C   UNL A   1      41.413  26.513  28.282  1.00  0.00     0.031 A 
ATOM     44  C   UNL A   1      40.640  27.567  29.026  1.00  0.00     0.074 A 
ATOM     45  C   UNL A   1      42.709  26.706  27.967  1.00  0.00     0.049 A 
ATOM     46  N   UNL A   1      40.954  28.813  29.255  1.00  0.00    -0.248 NA
ATOM     47  C   UNL A   1      39.330  27.171  29.574  1.00  0.00     0.031 C 
ATOM     48  C   UNL A   1      43.580  25.729  27.305  1.00  0.00     0.029 A 
ATOM     49  N   UNL A   1      43.522  27.795  28.151  1.00  0.00    -0.354 N 
ATOM     50  C   UNL A   1      39.856  29.371  29.900  1.00  0.00     0.074 A 
ATOM     51  C   UNL A   1      38.867  28.324  30.034  1.00  0.00     0.031 C 
ATOM     52  C   UNL A   1      44.801  26.257  27.146  1.00  0.00     0.029 A 
ATOM     53  C   UNL A   1      44.771  27.640  27.597  1.00  0.00     0.049 A 
ATOM     54  H   UNL A   1      43.239  28.607  28.632  1.00  0.00     0.167 HD
ATOM     55  C   UNL A   1      39.695  30.641  30.340  1.00  0.00     0.034 A 
ATOM     56  C   UNL A   1      45.760  28.534  27.409  1.00  0.00     0.034 A 
ATOM     57  C   UNL A   1      40.717  31.649  30.241  1.00  0.00     0.049 A 
ATOM     58  C   UNL A   1      45.536  29.946  27.867  1.00  0.00     0.074 A 
ATOM     59  C   UNL A   1      40.671  32.966  30.659  1.00  0.00     0.029 A 
ATOM     60  N   UNL A   1      41.975  31.444  29.693  1.00  0.00    -0.354 N 
ATOM     61  N   UNL A   1      44.495  30.461  28.477  1.00  0.00    -0.248 NA
ATOM     62  C   UNL A   1      46.625  30.899  27.621  1.00  0.00     0.031 C 
ATOM     63  C   UNL A   1      41.896  33.565  30.343  1.00  0.00     0.029 A 
ATOM     64  C   UNL A   1      42.717  32.609  29.763  1.00  0.00     0.049 A 
ATOM     65  H   UNL A   1      42.293  30.595  29.311  1.00  0.00     0.167 HD
ATOM     66  C   UNL A   1      44.820  31.789  28.724  1.00  0.00     0.074 A 
ATOM     67  C   UNL A   1      46.163  31.989  28.218  1.00  0.00     0.031 C 
ATOM     68  C   UNL A   1      44.073  32.760  29.303  1.00  0.00     0.034 A 
BRANCH  55  69
ATOM     69  C   UNL A   1      38.377  31.010  30.971  1.00  0.00     0.023 A 
ATOM     70  C   UNL A   1      38.149  30.747  32.336  1.00  0.00     0.012 A 
ATOM     71  C   UNL A   1      37.380  31.669  30.221  1.00  0.00     0.148 A 
ATOM     72  C   UNL A   1      36.941  31.103  32.938  1.00  0.00     0.002 A 
ATOM     73  C   UNL A   1      36.199  32.064  30.838  1.00  0.00     0.091 A 
ATOM     74  F   UNL A   1      37.606  31.894  28.918  1.00  0.00    -0.205 F 
ATOM     75  C   UNL A   1      35.973  31.770  32.193  1.00  0.00     0.022 A 
BRANCH  73  76
ATOM     76  S   UNL A   1      34.920  32.995  29.987  1.00  0.00     0.127 S 
ATOM     77  O   UNL A   1      34.383  31.992  29.069  1.00  0.00    -0.237 OA
ATOM     78  O   UNL A   1      34.024  33.357  31.086  1.00  0.00    -0.237 OA
ATOM     79  O   UNL A   1      35.593  34.120  29.352  1.00  0.00    -0.744 OA
ENDBRANCH  73  76
ENDBRANCH  55  69
BRANCH  56  80
ATOM     80  C   UNL A   1      47.032  28.127  26.748  1.00  0.00     0.023 A 
ATOM     81  C   UNL A   1      48.146  27.788  27.539  1.00  0.00     0.012 A 
ATOM     82  C   UNL A   1      47.146  28.068  25.343  1.00  0.00     0.148 A 
ATOM     83  C   UNL A   1      49.359  27.435  26.946  1.00  0.00     0.002 A 
ATOM     84  C   UNL A   1      48.337  27.654  24.761  1.00  0.00     0.091 A 
ATOM     85  F   UNL A   1      46.081  28.410  24.603  1.00  0.00    -0.205 F 
ATOM     86  C   UNL A   1      49.452  27.358  25.559  1.00  0.00     0.022 A 
BRANCH  84  87
ATOM     87  S   UNL A   1      48.501  27.395  22.991  1.00  0.00     0.127 S 
ATOM     88  O   UNL A   1      49.861  27.865  22.745  1.00  0.00    -0.237 OA
ATOM     89  O   UNL A   1      48.317  25.947  22.878  1.00  0.00    -0.237 OA
ATOM     90  O   UNL A   1      47.436  28.181  22.381  1.00  0.00    -0.744 OA
ENDBRANCH  84  87
ENDBRANCH  56  80
BRANCH  68  91
ATOM     91  C   UNL A   1      44.720  34.107  29.480  1.00  0.00     0.023 A 
ATOM     92  C   UNL A   1      45.629  34.322  30.534  1.00  0.00     0.012 A 
ATOM     93  C   UNL A   1      44.461  35.143  28.561  1.00  0.00     0.148 A 
ATOM     94  C   UNL A   1      46.241  35.565  30.695  1.00  0.00     0.002 A 
ATOM     95  C   UNL A   1      45.118  36.358  28.695  1.00  0.00     0.091 A 
ATOM     96  F   UNL A   1      43.578  34.920  27.578  1.00  0.00    -0.205 F 
ATOM     97  C   UNL A   1      45.994  36.577  29.770  1.00  0.00     0.022 A 
BRANCH  95  98
ATOM     98  S   UNL A   1      44.941  37.682  27.495  1.00  0.00     0.127 S 
ATOM     99  O   UNL A   1      44.964  38.865  28.353  1.00  0.00    -0.237 OA
ATOM    100  O   UNL A   1      46.133  37.506  26.665  1.00  0.00    -0.237 OA
ATOM    101  O   UNL A   1      43.682  37.436  26.805  1.00  0.00    -0.744 OA
ENDBRANCH  95  98
ENDBRANCH  68  91
ENDBRANCH  42  43
ENDBRANCH  35  37
ENDBRANCH  34  35
ENDBRANCH  33  34
ENDBRANCH   1  33
TORSDOF 19
ENDMDL
