MODEL 1
REMARK VINA RESULT:     -11.7      0.000      0.000
REMARK SMILES CC(C)C[C@H](NC(=O)[C@H](Cc1ccccc1)NC(=O)CNC(=O)CNC(=O)OCc1ccccc1)C(=O)OCCOC(=O)c1ccc(-c2c3nc(c(-c4cccc(S(=O)(=O)[O-])c4F)c4ccc([nH]4)c(-c4cccc(S(=O)(=O)[O-])c4F)c4nc(c(-c5cccc(S(=O)(=O)[O-])c5F)c5ccc2[nH]5)C=C4)C=C3)cc1
REMARK SMILES IDX 5 1 4 2 2 3 1 4 3 5 36 6 37 7 38 8 39 9 40 10 41 11 42 12
REMARK SMILES IDX 43 13 44 14 45 15 106 16 46 17 105 18 47 19 48 20 49 21
REMARK SMILES IDX 99 22 50 23 104 24 98 25 100 26 51 27 103 28 97 29 96 30
REMARK SMILES IDX 52 32 84 33 64 34 83 35 65 36 68 37 82 38 101 39 66 40 67 41
REMARK SMILES IDX 81 43 102 44 69 45 53 46 54 47 62 48 55 49 57 50 63 51 56 52
REMARK SMILES IDX 58 53 59 54 60 55 61 56 85 57 86 58 94 59 87 60 89 61 95 62
REMARK SMILES IDX 88 63 90 64 91 65 92 66 93 67 70 68 71 69 79 70 72 71 74 72
REMARK SMILES IDX 80 73 73 74 75 75 76 76 77 77 78 78 6 79 7 80 8 82 9 83
REMARK SMILES IDX 17 84 18 85 19 87 20 88 21 89 22 90 23 92 24 93 25 94 26 95
REMARK SMILES IDX 27 97 28 98 29 99 30 100 31 101 35 102 32 103 34 104 33 105
REMARK SMILES IDX 10 106 11 107 12 108 16 109 13 110 15 111 14 112
REMARK H PARENT 100 31 68 42 6 81 17 86 21 91 25 96
REMARK Flexibility Score: inf
ROOT
ATOM      1  C   UNL A   1      35.226  22.337  24.528  1.00  0.00     0.192 C 
ENDROOT
BRANCH   1   2
ATOM      2  C   UNL A   1      34.037  22.321  25.495  1.00  0.00     0.040 C 
BRANCH   2   3
ATOM      3  C   UNL A   1      33.848  23.351  26.621  1.00  0.00    -0.015 C 
ATOM      4  C   UNL A   1      34.184  24.777  26.164  1.00  0.00     0.007 C 
ATOM      5  C   UNL A   1      32.368  23.357  27.038  1.00  0.00     0.007 C 
ENDBRANCH   2   3
ENDBRANCH   1   2
BRANCH   1   6
ATOM      6  C   UNL A   1      36.077  21.069  24.690  1.00  0.00     0.328 C 
ATOM      7  O   UNL A   1      35.570  19.961  24.825  1.00  0.00    -0.250 OA
BRANCH   6   8
ATOM      8  O   UNL A   1      37.412  21.270  24.565  1.00  0.00    -0.461 OA
BRANCH   8   9
ATOM      9  C   UNL A   1      38.222  20.144  24.976  1.00  0.00     0.274 C 
BRANCH   9  10
ATOM     10  C   UNL A   1      39.324  20.547  25.966  1.00  0.00     0.275 C 
BRANCH  10  11
ATOM     11  O   UNL A   1      40.257  19.478  26.216  1.00  0.00    -0.458 OA
BRANCH  11  12
ATOM     12  C   UNL A   1      41.561  19.842  26.161  1.00  0.00     0.338 C 
ATOM     13  O   UNL A   1      42.469  19.215  25.638  1.00  0.00    -0.246 OA
BRANCH  12  14
ATOM     14  C   UNL A   1      41.715  21.243  26.594  1.00  0.00     0.060 A 
ATOM     15  C   UNL A   1      41.656  22.215  25.591  1.00  0.00     0.016 A 
ATOM     16  C   UNL A   1      41.949  21.614  27.915  1.00  0.00     0.016 A 
ATOM     17  C   UNL A   1      41.781  23.560  25.888  1.00  0.00     0.010 A 
ATOM     18  C   UNL A   1      42.126  22.970  28.216  1.00  0.00     0.010 A 
ATOM     19  C   UNL A   1      42.047  23.945  27.201  1.00  0.00    -0.014 A 
BRANCH  19  20
ATOM     20  C   UNL A   1      42.408  25.355  27.452  1.00  0.00     0.031 A 
ATOM     21  C   UNL A   1      43.746  25.842  26.983  1.00  0.00     0.074 A 
ATOM     22  C   UNL A   1      41.521  26.194  28.016  1.00  0.00     0.049 A 
ATOM     23  N   UNL A   1      44.317  27.000  27.169  1.00  0.00    -0.248 NA
ATOM     24  C   UNL A   1      44.551  24.892  26.196  1.00  0.00     0.031 C 
ATOM     25  C   UNL A   1      40.160  25.837  28.421  1.00  0.00     0.029 A 
ATOM     26  N   UNL A   1      41.635  27.518  28.353  1.00  0.00    -0.354 N 
ATOM     27  C   UNL A   1      45.573  26.897  26.583  1.00  0.00     0.074 A 
ATOM     28  C   UNL A   1      45.677  25.568  26.026  1.00  0.00     0.031 C 
ATOM     29  C   UNL A   1      39.571  26.913  28.969  1.00  0.00     0.029 A 
ATOM     30  C   UNL A   1      40.532  28.010  29.008  1.00  0.00     0.049 A 
ATOM     31  H   UNL A   1      42.429  28.062  28.146  1.00  0.00     0.167 HD
ATOM     32  C   UNL A   1      46.548  27.832  26.521  1.00  0.00     0.034 A 
ATOM     33  C   UNL A   1      40.343  29.200  29.610  1.00  0.00     0.034 A 
ATOM     34  C   UNL A   1      46.407  29.157  27.058  1.00  0.00     0.049 A 
ATOM     35  C   UNL A   1      41.463  30.205  29.570  1.00  0.00     0.074 A 
ATOM     36  C   UNL A   1      47.321  30.195  27.045  1.00  0.00     0.029 A 
ATOM     37  N   UNL A   1      45.276  29.626  27.712  1.00  0.00    -0.354 N 
ATOM     38  N   UNL A   1      42.636  30.112  28.989  1.00  0.00    -0.248 NA
ATOM     39  C   UNL A   1      41.228  31.487  30.248  1.00  0.00     0.031 C 
ATOM     40  C   UNL A   1      46.756  31.277  27.728  1.00  0.00     0.029 A 
ATOM     41  C   UNL A   1      45.471  30.932  28.120  1.00  0.00     0.049 A 
ATOM     42  H   UNL A   1      44.455  29.104  27.862  1.00  0.00     0.167 HD
ATOM     43  C   UNL A   1      43.264  31.334  29.197  1.00  0.00     0.074 A 
ATOM     44  C   UNL A   1      42.331  32.157  29.942  1.00  0.00     0.031 C 
ATOM     45  C   UNL A   1      44.502  31.740  28.819  1.00  0.00     0.034 A 
BRANCH  32  46
ATOM     46  C   UNL A   1      47.852  27.435  25.881  1.00  0.00     0.023 A 
ATOM     47  C   UNL A   1      48.903  26.915  26.664  1.00  0.00     0.012 A 
ATOM     48  C   UNL A   1      48.032  27.573  24.490  1.00  0.00     0.148 A 
ATOM     49  C   UNL A   1      50.126  26.582  26.080  1.00  0.00     0.002 A 
ATOM     50  C   UNL A   1      49.233  27.190  23.908  1.00  0.00     0.091 A 
ATOM     51  F   UNL A   1      47.032  28.094  23.765  1.00  0.00    -0.205 F 
ATOM     52  C   UNL A   1      50.287  26.710  24.703  1.00  0.00     0.022 A 
BRANCH  50  53
ATOM     53  S   UNL A   1      49.511  27.244  22.134  1.00  0.00     0.127 S 
ATOM     54  O   UNL A   1      48.702  26.116  21.673  1.00  0.00    -0.237 OA
ATOM     55  O   UNL A   1      48.979  28.560  21.782  1.00  0.00    -0.237 OA
ATOM     56  O   UNL A   1      50.947  27.098  21.947  1.00  0.00    -0.744 OA
ENDBRANCH  50  53
ENDBRANCH  32  46
BRANCH  33  57
ATOM     57  C   UNL A   1      39.054  29.504  30.295  1.00  0.00     0.023 A 
ATOM     58  C   UNL A   1      38.786  28.941  31.558  1.00  0.00     0.012 A 
ATOM     59  C   UNL A   1      38.096  30.357  29.709  1.00  0.00     0.148 A 
ATOM     60  C   UNL A   1      37.577  29.193  32.208  1.00  0.00     0.002 A 
ATOM     61  C   UNL A   1      36.918  30.649  30.387  1.00  0.00     0.091 A 
ATOM     62  F   UNL A   1      38.360  30.873  28.501  1.00  0.00    -0.205 F 
ATOM     63  C   UNL A   1      36.649  30.052  31.628  1.00  0.00     0.022 A 
BRANCH  61  64
ATOM     64  S   UNL A   1      35.719  31.838  29.775  1.00  0.00     0.127 S 
ATOM     65  O   UNL A   1      36.583  32.922  29.312  1.00  0.00    -0.237 OA
ATOM     66  O   UNL A   1      35.059  31.079  28.712  1.00  0.00    -0.237 OA
ATOM     67  O   UNL A   1      34.863  32.157  30.909  1.00  0.00    -0.744 OA
ENDBRANCH  61  64
ENDBRANCH  33  57
BRANCH  45  68
ATOM     68  C   UNL A   1      44.894  33.155  29.149  1.00  0.00     0.023 A 
ATOM     69  C   UNL A   1      45.542  33.448  30.365  1.00  0.00     0.012 A 
ATOM     70  C   UNL A   1      44.676  34.186  28.214  1.00  0.00     0.148 A 
ATOM     71  C   UNL A   1      45.929  34.753  30.663  1.00  0.00     0.002 A 
ATOM     72  C   UNL A   1      45.117  35.473  28.493  1.00  0.00     0.091 A 
ATOM     73  F   UNL A   1      44.041  33.890  27.070  1.00  0.00    -0.205 F 
ATOM     74  C   UNL A   1      45.728  35.761  29.723  1.00  0.00     0.022 A 
BRANCH  72  75
ATOM     75  S   UNL A   1      44.997  36.809  27.300  1.00  0.00     0.127 S 
ATOM     76  O   UNL A   1      43.596  36.720  26.892  1.00  0.00    -0.237 OA
ATOM     77  O   UNL A   1      45.324  37.980  28.113  1.00  0.00    -0.237 OA
ATOM     78  O   UNL A   1      45.969  36.506  26.257  1.00  0.00    -0.744 OA
ENDBRANCH  72  75
ENDBRANCH  45  68
ENDBRANCH  19  20
ENDBRANCH  12  14
ENDBRANCH  11  12
ENDBRANCH  10  11
ENDBRANCH   9  10
ENDBRANCH   8   9
ENDBRANCH   6   8
ENDBRANCH   1   6
BRANCH   1  79
ATOM     79  N   UNL A   1      34.852  22.695  23.129  1.00  0.00    -0.341 N 
ATOM     80  C   UNL A   1      33.633  22.856  22.499  1.00  0.00     0.243 C 
ATOM     81  H   UNL A   1      35.625  22.847  22.540  1.00  0.00     0.164 HD
ATOM     82  O   UNL A   1      33.658  23.356  21.368  1.00  0.00    -0.273 OA
BRANCH  80  83
ATOM     83  C   UNL A   1      32.306  22.200  23.024  1.00  0.00     0.175 C 
BRANCH  83  84
ATOM     84  N   UNL A   1      31.139  23.037  22.890  1.00  0.00    -0.342 N 
ATOM     85  C   UNL A   1      30.960  24.328  23.299  1.00  0.00     0.240 C 
ATOM     86  H   UNL A   1      30.366  22.619  22.445  1.00  0.00     0.164 HD
ATOM     87  O   UNL A   1      29.856  24.832  23.069  1.00  0.00    -0.273 OA
BRANCH  85  88
ATOM     88  C   UNL A   1      32.117  25.212  23.818  1.00  0.00     0.216 C 
BRANCH  88  89
ATOM     89  N   UNL A   1      32.976  25.882  22.853  1.00  0.00    -0.346 N 
ATOM     90  C   UNL A   1      33.312  27.200  22.723  1.00  0.00     0.239 C 
ATOM     91  H   UNL A   1      33.382  25.286  22.182  1.00  0.00     0.164 HD
ATOM     92  O   UNL A   1      34.022  27.518  21.765  1.00  0.00    -0.273 OA
BRANCH  90  93
ATOM     93  C   UNL A   1      32.722  28.281  23.647  1.00  0.00     0.219 C 
BRANCH  93  94
ATOM     94  N   UNL A   1      33.185  28.125  25.024  1.00  0.00    -0.312 N 
ATOM     95  C   UNL A   1      32.550  28.544  26.160  1.00  0.00     0.407 C 
ATOM     96  H   UNL A   1      34.049  27.670  25.147  1.00  0.00     0.167 HD
ATOM     97  O   UNL A   1      32.883  28.118  27.261  1.00  0.00    -0.225 OA
BRANCH  95  98
ATOM     98  O   UNL A   1      31.578  29.430  25.915  1.00  0.00    -0.445 OA
BRANCH  98  99
ATOM     99  C   UNL A   1      31.248  30.045  24.645  1.00  0.00     0.270 C 
BRANCH  99 100
ATOM    100  C   UNL A   1      29.878  30.272  24.037  1.00  0.00    -0.011 A 
ATOM    101  C   UNL A   1      29.339  29.223  23.261  1.00  0.00     0.007 A 
ATOM    102  C   UNL A   1      29.193  31.489  24.040  1.00  0.00     0.007 A 
ATOM    103  C   UNL A   1      28.147  29.375  22.549  1.00  0.00     0.000 A 
ATOM    104  C   UNL A   1      27.989  31.641  23.337  1.00  0.00     0.000 A 
ATOM    105  C   UNL A   1      27.467  30.587  22.592  1.00  0.00     0.000 A 
ENDBRANCH  99 100
ENDBRANCH  98  99
ENDBRANCH  95  98
ENDBRANCH  93  94
ENDBRANCH  90  93
ENDBRANCH  88  89
ENDBRANCH  85  88
ENDBRANCH  83  84
BRANCH  83 106
ATOM    106  C   UNL A   1      32.086  20.720  22.533  1.00  0.00     0.070 C 
BRANCH 106 107
ATOM    107  C   UNL A   1      32.373  19.454  23.359  1.00  0.00    -0.045 A 
ATOM    108  C   UNL A   1      32.302  19.553  24.762  1.00  0.00     0.004 A 
ATOM    109  C   UNL A   1      32.789  18.212  22.865  1.00  0.00     0.004 A 
ATOM    110  C   UNL A   1      32.663  18.483  25.601  1.00  0.00     0.000 A 
ATOM    111  C   UNL A   1      33.131  17.134  23.689  1.00  0.00     0.000 A 
ATOM    112  C   UNL A   1      33.086  17.273  25.063  1.00  0.00     0.000 A 
ENDBRANCH 106 107
ENDBRANCH  83 106
ENDBRANCH  80  83
ENDBRANCH   1  79
TORSDOF 28
ENDMDL
MODEL 2
REMARK VINA RESULT:     -11.6      1.804      7.223
REMARK SMILES CC(C)C[C@H](NC(=O)[C@H](Cc1ccccc1)NC(=O)CNC(=O)CNC(=O)OCc1ccccc1)C(=O)OCCOC(=O)c1ccc(-c2c3nc(c(-c4cccc(S(=O)(=O)[O-])c4F)c4ccc([nH]4)c(-c4cccc(S(=O)(=O)[O-])c4F)c4nc(c(-c5cccc(S(=O)(=O)[O-])c5F)c5ccc2[nH]5)C=C4)C=C3)cc1
REMARK SMILES IDX 5 1 4 2 2 3 1 4 3 5 36 6 37 7 38 8 39 9 40 10 41 11 42 12
REMARK SMILES IDX 43 13 44 14 45 15 106 16 46 17 105 18 47 19 48 20 49 21
REMARK SMILES IDX 99 22 50 23 104 24 98 25 100 26 51 27 103 28 97 29 96 30
REMARK SMILES IDX 52 32 84 33 64 34 83 35 65 36 68 37 82 38 101 39 66 40 67 41
REMARK SMILES IDX 81 43 102 44 69 45 53 46 54 47 62 48 55 49 57 50 63 51 56 52
REMARK SMILES IDX 58 53 59 54 60 55 61 56 85 57 86 58 94 59 87 60 89 61 95 62
REMARK SMILES IDX 88 63 90 64 91 65 92 66 93 67 70 68 71 69 79 70 72 71 74 72
REMARK SMILES IDX 80 73 73 74 75 75 76 76 77 77 78 78 6 79 7 80 8 82 9 83
REMARK SMILES IDX 17 84 18 85 19 87 20 88 21 89 22 90 23 92 24 93 25 94 26 95
REMARK SMILES IDX 27 97 28 98 29 99 30 100 31 101 35 102 32 103 34 104 33 105
REMARK SMILES IDX 10 106 11 107 12 108 16 109 13 110 15 111 14 112
REMARK H PARENT 100 31 68 42 6 81 17 86 21 91 25 96
REMARK Flexibility Score: inf
ROOT
ATOM      1  C   UNL A   1      35.053  22.613  24.789  1.00  0.00     0.192 C 
ENDROOT
BRANCH   1   2
ATOM      2  C   UNL A   1      33.762  22.435  25.596  1.00  0.00     0.040 C 
BRANCH   2   3
ATOM      3  C   UNL A   1      33.510  23.116  26.951  1.00  0.00    -0.015 C 
ATOM      4  C   UNL A   1      32.014  23.236  27.271  1.00  0.00     0.007 C 
ATOM      5  C   UNL A   1      34.132  22.250  28.060  1.00  0.00     0.007 C 
ENDBRANCH   2   3
ENDBRANCH   1   2
BRANCH   1   6
ATOM      6  C   UNL A   1      36.015  21.442  25.036  1.00  0.00     0.328 C 
ATOM      7  O   UNL A   1      35.779  20.311  24.627  1.00  0.00    -0.250 OA
BRANCH   6   8
ATOM      8  O   UNL A   1      37.177  21.789  25.642  1.00  0.00    -0.461 OA
BRANCH   8   9
ATOM      9  C   UNL A   1      38.298  20.938  25.309  1.00  0.00     0.274 C 
BRANCH   9  10
ATOM     10  C   UNL A   1      39.555  21.281  26.119  1.00  0.00     0.275 C 
BRANCH  10  11
ATOM     11  O   UNL A   1      40.262  20.107  26.563  1.00  0.00    -0.458 OA
BRANCH  11  12
ATOM     12  C   UNL A   1      41.539  20.014  26.118  1.00  0.00     0.338 C 
ATOM     13  O   UNL A   1      42.017  19.095  25.471  1.00  0.00    -0.246 OA
BRANCH  12  14
ATOM     14  C   UNL A   1      42.232  21.304  26.290  1.00  0.00     0.060 A 
ATOM     15  C   UNL A   1      42.618  21.634  27.592  1.00  0.00     0.016 A 
ATOM     16  C   UNL A   1      42.469  22.191  25.243  1.00  0.00     0.016 A 
ATOM     17  C   UNL A   1      43.282  22.817  27.864  1.00  0.00     0.010 A 
ATOM     18  C   UNL A   1      43.095  23.412  25.520  1.00  0.00     0.010 A 
ATOM     19  C   UNL A   1      43.499  23.728  26.832  1.00  0.00    -0.014 A 
BRANCH  19  20
ATOM     20  C   UNL A   1      43.992  25.074  27.187  1.00  0.00     0.031 A 
ATOM     21  C   UNL A   1      43.089  25.982  27.967  1.00  0.00     0.074 A 
ATOM     22  C   UNL A   1      45.251  25.439  26.883  1.00  0.00     0.049 A 
ATOM     23  N   UNL A   1      43.264  27.228  28.310  1.00  0.00    -0.248 NA
ATOM     24  C   UNL A   1      41.813  25.404  28.423  1.00  0.00     0.031 C 
ATOM     25  C   UNL A   1      46.236  24.592  26.209  1.00  0.00     0.029 A 
ATOM     26  N   UNL A   1      45.913  26.620  27.096  1.00  0.00    -0.354 N 
ATOM     27  C   UNL A   1      42.096  27.605  28.962  1.00  0.00     0.074 A 
ATOM     28  C   UNL A   1      41.224  26.453  28.976  1.00  0.00     0.031 C 
ATOM     29  C   UNL A   1      47.373  25.289  26.047  1.00  0.00     0.029 A 
ATOM     30  C   UNL A   1      47.174  26.643  26.549  1.00  0.00     0.049 A 
ATOM     31  H   UNL A   1      45.524  27.377  27.591  1.00  0.00     0.167 HD
ATOM     32  C   UNL A   1      41.784  28.807  29.497  1.00  0.00     0.034 A 
ATOM     33  C   UNL A   1      48.046  27.663  26.431  1.00  0.00     0.034 A 
ATOM     34  C   UNL A   1      42.683  29.929  29.495  1.00  0.00     0.049 A 
ATOM     35  C   UNL A   1      47.654  29.005  26.989  1.00  0.00     0.074 A 
ATOM     36  C   UNL A   1      42.484  31.194  30.017  1.00  0.00     0.029 A 
ATOM     37  N   UNL A   1      43.953  29.919  28.937  1.00  0.00    -0.354 N 
ATOM     38  N   UNL A   1      46.561  29.346  27.629  1.00  0.00    -0.248 NA
ATOM     39  C   UNL A   1      48.624  30.097  26.831  1.00  0.00     0.031 C 
ATOM     40  C   UNL A   1      43.620  31.960  29.737  1.00  0.00     0.029 A 
ATOM     41  C   UNL A   1      44.548  31.158  29.087  1.00  0.00     0.049 A 
ATOM     42  H   UNL A   1      44.371  29.142  28.499  1.00  0.00     0.167 HD
ATOM     43  C   UNL A   1      46.726  30.680  27.984  1.00  0.00     0.074 A 
ATOM     44  C   UNL A   1      48.035  31.077  27.503  1.00  0.00     0.031 C 
ATOM     45  C   UNL A   1      45.873  31.507  28.638  1.00  0.00     0.034 A 
BRANCH  32  46
ATOM     46  C   UNL A   1      40.410  28.970  30.090  1.00  0.00     0.023 A 
ATOM     47  C   UNL A   1      40.167  28.628  31.436  1.00  0.00     0.012 A 
ATOM     48  C   UNL A   1      39.353  29.473  29.306  1.00  0.00     0.148 A 
ATOM     49  C   UNL A   1      38.886  28.742  31.978  1.00  0.00     0.002 A 
ATOM     50  C   UNL A   1      38.092  29.633  29.867  1.00  0.00     0.091 A 
ATOM     51  F   UNL A   1      39.595  29.767  28.021  1.00  0.00    -0.205 F 
ATOM     52  C   UNL A   1      37.854  29.252  31.197  1.00  0.00     0.022 A 
BRANCH  50  53
ATOM     53  S   UNL A   1      36.716  30.353  28.966  1.00  0.00     0.127 S 
ATOM     54  O   UNL A   1      35.787  30.671  30.051  1.00  0.00    -0.237 OA
ATOM     55  O   UNL A   1      37.339  31.517  28.336  1.00  0.00    -0.237 OA
ATOM     56  O   UNL A   1      36.261  29.329  28.038  1.00  0.00    -0.744 OA
ENDBRANCH  50  53
ENDBRANCH  32  46
BRANCH  33  57
ATOM     57  C   UNL A   1      49.363  27.457  25.761  1.00  0.00     0.023 A 
ATOM     58  C   UNL A   1      49.437  27.457  24.355  1.00  0.00     0.012 A 
ATOM     59  C   UNL A   1      50.544  27.272  26.509  1.00  0.00     0.148 A 
ATOM     60  C   UNL A   1      50.655  27.243  23.706  1.00  0.00     0.002 A 
ATOM     61  C   UNL A   1      51.761  27.117  25.857  1.00  0.00     0.091 A 
ATOM     62  F   UNL A   1      50.453  27.261  27.846  1.00  0.00    -0.205 F 
ATOM     63  C   UNL A   1      51.816  27.083  24.456  1.00  0.00     0.022 A 
BRANCH  61  64
ATOM     64  S   UNL A   1      53.324  27.024  26.738  1.00  0.00     0.127 S 
ATOM     65  O   UNL A   1      53.380  25.610  27.100  1.00  0.00    -0.237 OA
ATOM     66  O   UNL A   1      54.276  27.433  25.704  1.00  0.00    -0.237 OA
ATOM     67  O   UNL A   1      53.208  27.954  27.852  1.00  0.00    -0.744 OA
ENDBRANCH  61  64
ENDBRANCH  33  57
BRANCH  45  68
ATOM     68  C   UNL A   1      46.352  32.904  28.926  1.00  0.00     0.023 A 
ATOM     69  C   UNL A   1      47.055  33.184  30.115  1.00  0.00     0.012 A 
ATOM     70  C   UNL A   1      46.159  33.929  27.979  1.00  0.00     0.148 A 
ATOM     71  C   UNL A   1      47.521  34.471  30.374  1.00  0.00     0.002 A 
ATOM     72  C   UNL A   1      46.679  35.194  28.217  1.00  0.00     0.091 A 
ATOM     73  F   UNL A   1      45.472  33.646  26.861  1.00  0.00    -0.205 F 
ATOM     74  C   UNL A   1      47.345  35.471  29.421  1.00  0.00     0.022 A 
BRANCH  72  75
ATOM     75  S   UNL A   1      46.593  36.512  27.001  1.00  0.00     0.127 S 
ATOM     76  O   UNL A   1      46.675  35.765  25.747  1.00  0.00    -0.237 OA
ATOM     77  O   UNL A   1      45.282  37.101  27.277  1.00  0.00    -0.237 OA
ATOM     78  O   UNL A   1      47.722  37.390  27.277  1.00  0.00    -0.744 OA
ENDBRANCH  72  75
ENDBRANCH  45  68
ENDBRANCH  19  20
ENDBRANCH  12  14
ENDBRANCH  11  12
ENDBRANCH  10  11
ENDBRANCH   9  10
ENDBRANCH   8   9
ENDBRANCH   6   8
ENDBRANCH   1   6
BRANCH   1  79
ATOM     79  N   UNL A   1      34.818  22.972  23.361  1.00  0.00    -0.341 N 
ATOM     80  C   UNL A   1      33.667  23.139  22.616  1.00  0.00     0.243 C 
ATOM     81  H   UNL A   1      35.646  23.121  22.850  1.00  0.00     0.164 HD
ATOM     82  O   UNL A   1      33.805  23.639  21.493  1.00  0.00    -0.273 OA
BRANCH  80  83
ATOM     83  C   UNL A   1      32.293  22.489  23.008  1.00  0.00     0.175 C 
BRANCH  83  84
ATOM     84  N   UNL A   1      31.151  23.343  22.793  1.00  0.00    -0.342 N 
ATOM     85  C   UNL A   1      30.864  24.550  23.367  1.00  0.00     0.240 C 
ATOM     86  H   UNL A   1      30.488  23.010  22.145  1.00  0.00     0.164 HD
ATOM     87  O   UNL A   1      29.811  25.090  23.015  1.00  0.00    -0.273 OA
BRANCH  85  88
ATOM     88  C   UNL A   1      31.877  25.327  24.236  1.00  0.00     0.216 C 
BRANCH  88  89
ATOM     89  N   UNL A   1      31.406  25.992  25.440  1.00  0.00    -0.346 N 
ATOM     90  C   UNL A   1      31.993  26.950  26.219  1.00  0.00     0.239 C 
ATOM     91  H   UNL A   1      30.515  25.704  25.746  1.00  0.00     0.164 HD
ATOM     92  O   UNL A   1      31.394  27.305  27.238  1.00  0.00    -0.273 OA
BRANCH  90  93
ATOM     93  C   UNL A   1      33.410  27.474  25.926  1.00  0.00     0.219 C 
BRANCH  93  94
ATOM     94  N   UNL A   1      33.723  28.657  26.725  1.00  0.00    -0.312 N 
ATOM     95  C   UNL A   1      33.156  29.897  26.620  1.00  0.00     0.407 C 
ATOM     96  H   UNL A   1      34.419  28.551  27.413  1.00  0.00     0.167 HD
ATOM     97  O   UNL A   1      33.288  30.728  27.513  1.00  0.00    -0.225 OA
BRANCH  95  98
ATOM     98  O   UNL A   1      32.482  30.065  25.476  1.00  0.00    -0.445 OA
BRANCH  98  99
ATOM     99  C   UNL A   1      31.105  30.485  25.321  1.00  0.00     0.270 C 
BRANCH  99 100
ATOM    100  C   UNL A   1      30.155  30.196  24.175  1.00  0.00    -0.011 A 
ATOM    101  C   UNL A   1      29.193  31.185  23.874  1.00  0.00     0.007 A 
ATOM    102  C   UNL A   1      30.046  28.970  23.515  1.00  0.00     0.007 A 
ATOM    103  C   UNL A   1      28.189  30.968  22.928  1.00  0.00     0.000 A 
ATOM    104  C   UNL A   1      29.047  28.753  22.555  1.00  0.00     0.000 A 
ATOM    105  C   UNL A   1      28.119  29.749  22.263  1.00  0.00     0.000 A 
ENDBRANCH  99 100
ENDBRANCH  98  99
ENDBRANCH  95  98
ENDBRANCH  93  94
ENDBRANCH  90  93
ENDBRANCH  88  89
ENDBRANCH  85  88
ENDBRANCH  83  84
BRANCH  83 106
ATOM    106  C   UNL A   1      32.100  21.023  22.468  1.00  0.00     0.070 C 
BRANCH 106 107
ATOM    107  C   UNL A   1      32.457  19.735  23.231  1.00  0.00    -0.045 A 
ATOM    108  C   UNL A   1      32.685  18.566  22.479  1.00  0.00     0.004 A 
ATOM    109  C   UNL A   1      32.498  19.572  24.620  1.00  0.00     0.004 A 
ATOM    110  C   UNL A   1      32.900  17.318  23.093  1.00  0.00     0.000 A 
ATOM    111  C   UNL A   1      32.732  18.341  25.242  1.00  0.00     0.000 A 
ATOM    112  C   UNL A   1      32.916  17.205  24.478  1.00  0.00     0.000 A 
ENDBRANCH 106 107
ENDBRANCH  83 106
ENDBRANCH  80  83
ENDBRANCH   1  79
TORSDOF 28
ENDMDL
MODEL 3
REMARK VINA RESULT:     -11.2      1.862      2.224
REMARK SMILES CC(C)C[C@H](NC(=O)[C@H](Cc1ccccc1)NC(=O)CNC(=O)CNC(=O)OCc1ccccc1)C(=O)OCCOC(=O)c1ccc(-c2c3nc(c(-c4cccc(S(=O)(=O)[O-])c4F)c4ccc([nH]4)c(-c4cccc(S(=O)(=O)[O-])c4F)c4nc(c(-c5cccc(S(=O)(=O)[O-])c5F)c5ccc2[nH]5)C=C4)C=C3)cc1
REMARK SMILES IDX 5 1 4 2 2 3 1 4 3 5 36 6 37 7 38 8 39 9 40 10 41 11 42 12
REMARK SMILES IDX 43 13 44 14 45 15 106 16 46 17 105 18 47 19 48 20 49 21
REMARK SMILES IDX 99 22 50 23 104 24 98 25 100 26 51 27 103 28 97 29 96 30
REMARK SMILES IDX 52 32 84 33 64 34 83 35 65 36 68 37 82 38 101 39 66 40 67 41
REMARK SMILES IDX 81 43 102 44 69 45 53 46 54 47 62 48 55 49 57 50 63 51 56 52
REMARK SMILES IDX 58 53 59 54 60 55 61 56 85 57 86 58 94 59 87 60 89 61 95 62
REMARK SMILES IDX 88 63 90 64 91 65 92 66 93 67 70 68 71 69 79 70 72 71 74 72
REMARK SMILES IDX 80 73 73 74 75 75 76 76 77 77 78 78 6 79 7 80 8 82 9 83
REMARK SMILES IDX 17 84 18 85 19 87 20 88 21 89 22 90 23 92 24 93 25 94 26 95
REMARK SMILES IDX 27 97 28 98 29 99 30 100 31 101 35 102 32 103 34 104 33 105
REMARK SMILES IDX 10 106 11 107 12 108 16 109 13 110 15 111 14 112
REMARK H PARENT 100 31 68 42 6 81 17 86 21 91 25 96
REMARK Flexibility Score: inf
ROOT
ATOM      1  C   UNL A   1      35.207  22.480  24.673  1.00  0.00     0.192 C 
ENDROOT
BRANCH   1   2
ATOM      2  C   UNL A   1      33.994  22.319  25.598  1.00  0.00     0.040 C 
BRANCH   2   3
ATOM      3  C   UNL A   1      33.785  23.153  26.872  1.00  0.00    -0.015 C 
ATOM      4  C   UNL A   1      32.690  24.214  26.697  1.00  0.00     0.007 C 
ATOM      5  C   UNL A   1      33.319  22.218  28.001  1.00  0.00     0.007 C 
ENDBRANCH   2   3
ENDBRANCH   1   2
BRANCH   1   6
ATOM      6  C   UNL A   1      36.216  21.344  24.897  1.00  0.00     0.328 C 
ATOM      7  O   UNL A   1      35.875  20.167  24.914  1.00  0.00    -0.250 OA
BRANCH   6   8
ATOM      8  O   UNL A   1      37.509  21.748  24.962  1.00  0.00    -0.461 OA
BRANCH   8   9
ATOM      9  C   UNL A   1      38.441  20.699  25.311  1.00  0.00     0.274 C 
BRANCH   9  10
ATOM     10  C   UNL A   1      39.544  21.187  26.260  1.00  0.00     0.275 C 
BRANCH  10  11
ATOM     11  O   UNL A   1      40.595  20.217  26.429  1.00  0.00    -0.458 OA
BRANCH  11  12
ATOM     12  C   UNL A   1      41.847  20.701  26.242  1.00  0.00     0.338 C 
ATOM     13  O   UNL A   1      42.712  20.221  25.526  1.00  0.00    -0.246 OA
BRANCH  12  14
ATOM     14  C   UNL A   1      41.959  22.053  26.820  1.00  0.00     0.060 A 
ATOM     15  C   UNL A   1      41.921  23.120  25.918  1.00  0.00     0.016 A 
ATOM     16  C   UNL A   1      42.137  22.291  28.180  1.00  0.00     0.016 A 
ATOM     17  C   UNL A   1      42.010  24.430  26.355  1.00  0.00     0.010 A 
ATOM     18  C   UNL A   1      42.278  23.611  28.623  1.00  0.00     0.010 A 
ATOM     19  C   UNL A   1      42.219  24.683  27.709  1.00  0.00    -0.014 A 
BRANCH  19  20
ATOM     20  C   UNL A   1      42.545  26.065  28.115  1.00  0.00     0.031 A 
ATOM     21  C   UNL A   1      43.955  26.545  27.943  1.00  0.00     0.074 A 
ATOM     22  C   UNL A   1      41.578  26.891  28.553  1.00  0.00     0.049 A 
ATOM     23  N   UNL A   1      44.496  27.674  28.309  1.00  0.00    -0.248 NA
ATOM     24  C   UNL A   1      44.883  25.623  27.264  1.00  0.00     0.031 C 
ATOM     25  C   UNL A   1      40.159  26.546  28.666  1.00  0.00     0.029 A 
ATOM     26  N   UNL A   1      41.643  28.189  28.990  1.00  0.00    -0.354 N 
ATOM     27  C   UNL A   1      45.839  27.575  27.969  1.00  0.00     0.074 A 
ATOM     28  C   UNL A   1      46.030  26.279  27.356  1.00  0.00     0.031 C 
ATOM     29  C   UNL A   1      39.491  27.602  29.160  1.00  0.00     0.029 A 
ATOM     30  C   UNL A   1      40.442  28.669  29.452  1.00  0.00     0.049 A 
ATOM     31  H   UNL A   1      42.470  28.723  28.974  1.00  0.00     0.167 HD
ATOM     32  C   UNL A   1      46.821  28.485  28.154  1.00  0.00     0.034 A 
ATOM     33  C   UNL A   1      40.157  29.825  30.083  1.00  0.00     0.034 A 
ATOM     34  C   UNL A   1      46.598  29.779  28.739  1.00  0.00     0.049 A 
ATOM     35  C   UNL A   1      41.278  30.800  30.323  1.00  0.00     0.074 A 
ATOM     36  C   UNL A   1      47.512  30.791  28.968  1.00  0.00     0.029 A 
ATOM     37  N   UNL A   1      45.369  30.236  29.194  1.00  0.00    -0.354 N 
ATOM     38  N   UNL A   1      42.540  30.712  29.972  1.00  0.00    -0.248 NA
ATOM     39  C   UNL A   1      40.935  32.044  31.025  1.00  0.00     0.031 C 
ATOM     40  C   UNL A   1      46.841  31.844  29.599  1.00  0.00     0.029 A 
ATOM     41  C   UNL A   1      45.500  31.509  29.715  1.00  0.00     0.049 A 
ATOM     42  H   UNL A   1      44.527  29.727  29.150  1.00  0.00     0.167 HD
ATOM     43  C   UNL A   1      43.133  31.902  30.375  1.00  0.00     0.074 A 
ATOM     44  C   UNL A   1      42.086  32.703  30.979  1.00  0.00     0.031 C 
ATOM     45  C   UNL A   1      44.426  32.298  30.267  1.00  0.00     0.034 A 
BRANCH  32  46
ATOM     46  C   UNL A   1      48.218  28.094  27.751  1.00  0.00     0.023 A 
ATOM     47  C   UNL A   1      49.169  27.731  28.727  1.00  0.00     0.012 A 
ATOM     48  C   UNL A   1      48.587  28.080  26.391  1.00  0.00     0.148 A 
ATOM     49  C   UNL A   1      50.475  27.404  28.359  1.00  0.00     0.002 A 
ATOM     50  C   UNL A   1      49.874  27.703  26.028  1.00  0.00     0.091 A 
ATOM     51  F   UNL A   1      47.679  28.454  25.479  1.00  0.00    -0.205 F 
ATOM     52  C   UNL A   1      50.823  27.381  27.012  1.00  0.00     0.022 A 
BRANCH  50  53
ATOM     53  S   UNL A   1      50.398  27.568  24.316  1.00  0.00     0.127 S 
ATOM     54  O   UNL A   1      50.765  28.950  24.009  1.00  0.00    -0.237 OA
ATOM     55  O   UNL A   1      51.528  26.645  24.414  1.00  0.00    -0.237 OA
ATOM     56  O   UNL A   1      49.251  27.051  23.583  1.00  0.00    -0.744 OA
ENDBRANCH  50  53
ENDBRANCH  32  46
BRANCH  33  57
ATOM     57  C   UNL A   1      38.765  30.120  30.528  1.00  0.00     0.023 A 
ATOM     58  C   UNL A   1      38.292  29.583  31.741  1.00  0.00     0.012 A 
ATOM     59  C   UNL A   1      37.910  30.939  29.762  1.00  0.00     0.148 A 
ATOM     60  C   UNL A   1      36.985  29.827  32.166  1.00  0.00     0.002 A 
ATOM     61  C   UNL A   1      36.628  31.224  30.219  1.00  0.00     0.091 A 
ATOM     62  F   UNL A   1      38.370  31.430  28.604  1.00  0.00    -0.205 F 
ATOM     63  C   UNL A   1      36.158  30.653  31.412  1.00  0.00     0.022 A 
BRANCH  61  64
ATOM     64  S   UNL A   1      35.535  32.373  29.377  1.00  0.00     0.127 S 
ATOM     65  O   UNL A   1      36.403  33.535  29.198  1.00  0.00    -0.237 OA
ATOM     66  O   UNL A   1      35.220  31.644  28.149  1.00  0.00    -0.237 OA
ATOM     67  O   UNL A   1      34.401  32.568  30.270  1.00  0.00    -0.744 OA
ENDBRANCH  61  64
ENDBRANCH  33  57
BRANCH  45  68
ATOM     68  C   UNL A   1      44.767  33.680  30.757  1.00  0.00     0.023 A 
ATOM     69  C   UNL A   1      44.638  34.790  29.899  1.00  0.00     0.012 A 
ATOM     70  C   UNL A   1      45.156  33.881  32.096  1.00  0.00     0.148 A 
ATOM     71  C   UNL A   1      44.930  36.074  30.356  1.00  0.00     0.002 A 
ATOM     72  C   UNL A   1      45.388  35.169  32.560  1.00  0.00     0.091 A 
ATOM     73  F   UNL A   1      45.290  32.808  32.891  1.00  0.00    -0.205 F 
ATOM     74  C   UNL A   1      45.292  36.264  31.688  1.00  0.00     0.022 A 
BRANCH  72  75
ATOM     75  S   UNL A   1      45.752  35.517  34.283  1.00  0.00     0.127 S 
ATOM     76  O   UNL A   1      47.102  34.971  34.418  1.00  0.00    -0.237 OA
ATOM     77  O   UNL A   1      45.676  36.977  34.325  1.00  0.00    -0.237 OA
ATOM     78  O   UNL A   1      44.724  34.835  35.059  1.00  0.00    -0.744 OA
ENDBRANCH  72  75
ENDBRANCH  45  68
ENDBRANCH  19  20
ENDBRANCH  12  14
ENDBRANCH  11  12
ENDBRANCH  10  11
ENDBRANCH   9  10
ENDBRANCH   8   9
ENDBRANCH   6   8
ENDBRANCH   1   6
BRANCH   1  79
ATOM     79  N   UNL A   1      34.842  22.757  23.255  1.00  0.00    -0.341 N 
ATOM     80  C   UNL A   1      33.627  22.904  22.613  1.00  0.00     0.243 C 
ATOM     81  H   UNL A   1      35.618  22.856  22.658  1.00  0.00     0.164 HD
ATOM     82  O   UNL A   1      33.664  23.331  21.453  1.00  0.00    -0.273 OA
BRANCH  80  83
ATOM     83  C   UNL A   1      32.286  22.310  23.174  1.00  0.00     0.175 C 
BRANCH  83  84
ATOM     84  N   UNL A   1      31.145  23.179  23.025  1.00  0.00    -0.342 N 
ATOM     85  C   UNL A   1      31.028  24.501  23.352  1.00  0.00     0.240 C 
ATOM     86  H   UNL A   1      30.342  22.763  22.636  1.00  0.00     0.164 HD
ATOM     87  O   UNL A   1      29.934  25.029  23.127  1.00  0.00    -0.273 OA
BRANCH  85  88
ATOM     88  C   UNL A   1      32.234  25.373  23.769  1.00  0.00     0.216 C 
BRANCH  88  89
ATOM     89  N   UNL A   1      33.095  25.921  22.734  1.00  0.00    -0.346 N 
ATOM     90  C   UNL A   1      33.453  27.212  22.463  1.00  0.00     0.239 C 
ATOM     91  H   UNL A   1      33.485  25.251  22.126  1.00  0.00     0.164 HD
ATOM     92  O   UNL A   1      34.160  27.414  21.471  1.00  0.00    -0.273 OA
BRANCH  90  93
ATOM     93  C   UNL A   1      32.890  28.395  23.271  1.00  0.00     0.219 C 
BRANCH  93  94
ATOM     94  N   UNL A   1      33.530  28.507  24.580  1.00  0.00    -0.312 N 
ATOM     95  C   UNL A   1      33.137  29.296  25.625  1.00  0.00     0.407 C 
ATOM     96  H   UNL A   1      34.332  27.955  24.724  1.00  0.00     0.167 HD
ATOM     97  O   UNL A   1      33.571  29.105  26.756  1.00  0.00    -0.225 OA
BRANCH  95  98
ATOM     98  O   UNL A   1      32.269  30.247  25.261  1.00  0.00    -0.445 OA
BRANCH  98  99
ATOM     99  C   UNL A   1      30.825  30.148  25.215  1.00  0.00     0.270 C 
BRANCH  99 100
ATOM    100  C   UNL A   1      29.900  30.414  24.043  1.00  0.00    -0.011 A 
ATOM    101  C   UNL A   1      29.205  31.643  24.040  1.00  0.00     0.007 A 
ATOM    102  C   UNL A   1      29.553  29.476  23.067  1.00  0.00     0.007 A 
ATOM    103  C   UNL A   1      28.232  31.934  23.081  1.00  0.00     0.000 A 
ATOM    104  C   UNL A   1      28.586  29.770  22.095  1.00  0.00     0.000 A 
ATOM    105  C   UNL A   1      27.926  30.995  22.102  1.00  0.00     0.000 A 
ENDBRANCH  99 100
ENDBRANCH  98  99
ENDBRANCH  95  98
ENDBRANCH  93  94
ENDBRANCH  90  93
ENDBRANCH  88  89
ENDBRANCH  85  88
ENDBRANCH  83  84
BRANCH  83 106
ATOM    106  C   UNL A   1      32.012  20.822  22.737  1.00  0.00     0.070 C 
BRANCH 106 107
ATOM    107  C   UNL A   1      32.413  19.569  23.535  1.00  0.00    -0.045 A 
ATOM    108  C   UNL A   1      32.726  18.401  22.813  1.00  0.00     0.004 A 
ATOM    109  C   UNL A   1      32.418  19.433  24.928  1.00  0.00     0.004 A 
ATOM    110  C   UNL A   1      32.987  17.177  23.457  1.00  0.00     0.000 A 
ATOM    111  C   UNL A   1      32.696  18.227  25.580  1.00  0.00     0.000 A 
ATOM    112  C   UNL A   1      32.965  17.089  24.844  1.00  0.00     0.000 A 
ENDBRANCH 106 107
ENDBRANCH  83 106
ENDBRANCH  80  83
ENDBRANCH   1  79
TORSDOF 28
ENDMDL
