MODEL 1
REMARK VINA RESULT:     -12.4      0.000      0.000
REMARK SMILES C/C(=C(/F)C(=O)OCCOC(=O)c1ccc(-c2c3nc(c(-c4cccc(S(=O)(=O)[O-])c4F)c4ccc([nH]4)c(-c4cccc(S(=O)(=O)[O-])c4F)c4nc(c(-c5cccc(S(=O)(=O)[O-])c5F)c5ccc2[nH]5)C=C4)C=C3)cc1)c1cccc(-n2cnnn2)c1
REMARK SMILES IDX 9 1 8 2 7 3 5 4 6 5 3 6 1 7 2 8 4 9 76 10 77 11 86 12 78 13
REMARK SMILES IDX 80 14 79 15 81 16 82 17 85 18 83 19 84 20 10 21 11 22 12 23
REMARK SMILES IDX 13 24 14 25 75 26 15 27 74 28 16 29 17 30 18 31 68 32 19 33
REMARK SMILES IDX 73 34 67 35 69 36 20 37 72 38 66 39 65 40 21 42 53 43 33 44
REMARK SMILES IDX 52 45 34 46 37 47 51 48 70 49 35 50 36 51 50 53 71 54 38 55
REMARK SMILES IDX 22 56 23 57 31 58 24 59 26 60 32 61 25 62 27 63 28 64 29 65
REMARK SMILES IDX 30 66 54 67 55 68 63 69 56 70 58 71 64 72 57 73 59 74 60 75
REMARK SMILES IDX 61 76 62 77 39 78 40 79 48 80 41 81 43 82 49 83 42 84 44 85
REMARK SMILES IDX 45 86 46 87 47 88
REMARK H PARENT 69 41 37 52
REMARK Flexibility Score: inf
ROOT
ATOM      1  C   UNL A   1      31.413  29.433  27.135  1.00  0.00     0.275 C 
ENDROOT
BRANCH   1   2
ATOM      2  C   UNL A   1      31.670  27.951  27.412  1.00  0.00     0.275 C 
BRANCH   2   3
ATOM      3  O   UNL A   1      32.711  27.427  26.558  1.00  0.00    -0.457 OA
BRANCH   3   4
ATOM      4  C   UNL A   1      32.324  26.414  25.737  1.00  0.00     0.367 C 
ATOM      5  O   UNL A   1      32.929  25.375  25.555  1.00  0.00    -0.243 OA
BRANCH   4   6
ATOM      6  C   UNL A   1      31.032  26.735  25.067  1.00  0.00     0.211 C 
ATOM      7  C   UNL A   1      32.200  28.007  23.273  1.00  0.00     0.048 C 
ATOM      8  C   UNL A   1      30.964  27.544  23.992  1.00  0.00    -0.000 C 
ATOM      9  F   UNL A   1      29.928  26.241  25.668  1.00  0.00    -0.199 F 
BRANCH   8  10
ATOM     10  C   UNL A   1      29.708  28.088  23.440  1.00  0.00    -0.017 A 
ATOM     11  C   UNL A   1      28.520  27.360  23.568  1.00  0.00     0.008 A 
ATOM     12  C   UNL A   1      29.644  29.426  23.008  1.00  0.00     0.037 A 
ATOM     13  C   UNL A   1      27.288  27.971  23.330  1.00  0.00     0.003 A 
ATOM     14  C   UNL A   1      28.409  30.056  22.816  1.00  0.00     0.069 A 
ATOM     15  C   UNL A   1      27.229  29.319  22.977  1.00  0.00     0.028 A 
BRANCH  14  16
ATOM     16  N   UNL A   1      28.342  31.441  22.527  1.00  0.00    -0.201 N 
ATOM     17  C   UNL A   1      28.703  32.518  23.298  1.00  0.00     0.252 A 
ATOM     18  N   UNL A   1      27.852  31.916  21.358  1.00  0.00    -0.040 NA
ATOM     19  N   UNL A   1      28.442  33.627  22.647  1.00  0.00    -0.117 NA
ATOM     20  N   UNL A   1      27.901  33.237  21.452  1.00  0.00    -0.024 NA
ENDBRANCH  14  16
ENDBRANCH   8  10
ENDBRANCH   4   6
ENDBRANCH   3   4
ENDBRANCH   2   3
ENDBRANCH   1   2
BRANCH   1  21
ATOM     21  O   UNL A   1      32.540  30.008  26.450  1.00  0.00    -0.458 OA
BRANCH  21  22
ATOM     22  C   UNL A   1      33.082  31.113  27.012  1.00  0.00     0.338 C 
ATOM     23  O   UNL A   1      32.511  32.180  27.204  1.00  0.00    -0.246 OA
BRANCH  22  24
ATOM     24  C   UNL A   1      34.478  30.866  27.441  1.00  0.00     0.060 A 
ATOM     25  C   UNL A   1      34.955  29.571  27.621  1.00  0.00     0.016 A 
ATOM     26  C   UNL A   1      35.279  31.943  27.829  1.00  0.00     0.016 A 
ATOM     27  C   UNL A   1      36.117  29.356  28.368  1.00  0.00     0.010 A 
ATOM     28  C   UNL A   1      36.529  31.715  28.422  1.00  0.00     0.010 A 
ATOM     29  C   UNL A   1      36.944  30.418  28.768  1.00  0.00    -0.014 A 
BRANCH  29  30
ATOM     30  C   UNL A   1      38.202  30.189  29.558  1.00  0.00     0.031 A 
ATOM     31  C   UNL A   1      39.337  29.362  28.986  1.00  0.00     0.074 A 
ATOM     32  C   UNL A   1      38.356  30.699  30.801  1.00  0.00     0.049 A 
ATOM     33  N   UNL A   1      40.351  28.808  29.603  1.00  0.00    -0.248 NA
ATOM     34  C   UNL A   1      39.316  29.101  27.537  1.00  0.00     0.031 C 
ATOM     35  C   UNL A   1      37.386  31.539  31.505  1.00  0.00     0.029 A 
ATOM     36  N   UNL A   1      39.392  30.580  31.701  1.00  0.00    -0.354 N 
ATOM     37  C   UNL A   1      41.012  28.040  28.649  1.00  0.00     0.074 A 
ATOM     38  C   UNL A   1      40.306  28.229  27.400  1.00  0.00     0.031 C 
ATOM     39  C   UNL A   1      37.894  31.915  32.686  1.00  0.00     0.029 A 
ATOM     40  C   UNL A   1      39.162  31.229  32.895  1.00  0.00     0.049 A 
ATOM     41  H   UNL A   1      40.219  30.081  31.510  1.00  0.00     0.167 HD
ATOM     42  C   UNL A   1      42.104  27.251  28.798  1.00  0.00     0.034 A 
ATOM     43  C   UNL A   1      39.840  31.226  34.060  1.00  0.00     0.034 A 
ATOM     44  C   UNL A   1      42.884  27.164  30.005  1.00  0.00     0.049 A 
ATOM     45  C   UNL A   1      41.070  30.378  34.193  1.00  0.00     0.074 A 
ATOM     46  C   UNL A   1      44.029  26.419  30.238  1.00  0.00     0.029 A 
ATOM     47  N   UNL A   1      42.627  27.872  31.167  1.00  0.00    -0.354 N 
ATOM     48  N   UNL A   1      41.653  29.628  33.291  1.00  0.00    -0.248 NA
ATOM     49  C   UNL A   1      41.728  30.364  35.507  1.00  0.00     0.031 C 
ATOM     50  C   UNL A   1      44.464  26.680  31.542  1.00  0.00     0.029 A 
ATOM     51  C   UNL A   1      43.596  27.593  32.117  1.00  0.00     0.049 A 
ATOM     52  H   UNL A   1      41.867  28.485  31.299  1.00  0.00     0.167 HD
ATOM     53  C   UNL A   1      42.749  29.056  33.925  1.00  0.00     0.074 A 
ATOM     54  C   UNL A   1      42.769  29.574  35.278  1.00  0.00     0.031 C 
ATOM     55  C   UNL A   1      43.638  28.157  33.440  1.00  0.00     0.034 A 
BRANCH  42  56
ATOM     56  C   UNL A   1      42.549  26.420  27.618  1.00  0.00     0.023 A 
ATOM     57  C   UNL A   1      43.465  26.945  26.689  1.00  0.00     0.012 A 
ATOM     58  C   UNL A   1      42.117  25.083  27.483  1.00  0.00     0.148 A 
ATOM     59  C   UNL A   1      43.926  26.164  25.628  1.00  0.00     0.002 A 
ATOM     60  C   UNL A   1      42.611  24.298  26.446  1.00  0.00     0.091 A 
ATOM     61  F   UNL A   1      41.227  24.605  28.364  1.00  0.00    -0.205 F 
ATOM     62  C   UNL A   1      43.508  24.840  25.513  1.00  0.00     0.022 A 
BRANCH  60  63
ATOM     63  S   UNL A   1      42.189  22.559  26.273  1.00  0.00     0.127 S 
ATOM     64  O   UNL A   1      42.888  22.207  25.039  1.00  0.00    -0.237 OA
ATOM     65  O   UNL A   1      42.761  21.974  27.486  1.00  0.00    -0.237 OA
ATOM     66  O   UNL A   1      40.734  22.511  26.211  1.00  0.00    -0.744 OA
ENDBRANCH  60  63
ENDBRANCH  42  56
BRANCH  43  67
ATOM     67  C   UNL A   1      39.345  32.053  35.199  1.00  0.00     0.023 A 
ATOM     68  C   UNL A   1      38.545  31.456  36.191  1.00  0.00     0.012 A 
ATOM     69  C   UNL A   1      39.731  33.400  35.349  1.00  0.00     0.148 A 
ATOM     70  C   UNL A   1      38.141  32.185  37.311  1.00  0.00     0.002 A 
ATOM     71  C   UNL A   1      39.392  34.095  36.504  1.00  0.00     0.091 A 
ATOM     72  F   UNL A   1      40.460  33.967  34.377  1.00  0.00    -0.205 F 
ATOM     73  C   UNL A   1      38.583  33.496  37.479  1.00  0.00     0.022 A 
BRANCH  71  74
ATOM     74  S   UNL A   1      40.092  35.709  36.869  1.00  0.00     0.127 S 
ATOM     75  O   UNL A   1      39.515  36.000  38.178  1.00  0.00    -0.237 OA
ATOM     76  O   UNL A   1      41.529  35.429  36.875  1.00  0.00    -0.237 OA
ATOM     77  O   UNL A   1      39.664  36.568  35.772  1.00  0.00    -0.744 OA
ENDBRANCH  71  74
ENDBRANCH  43  67
BRANCH  55  78
ATOM     78  C   UNL A   1      44.726  27.688  34.367  1.00  0.00     0.023 A 
ATOM     79  C   UNL A   1      45.900  28.456  34.499  1.00  0.00     0.012 A 
ATOM     80  C   UNL A   1      44.561  26.530  35.148  1.00  0.00     0.148 A 
ATOM     81  C   UNL A   1      46.905  28.063  35.381  1.00  0.00     0.002 A 
ATOM     82  C   UNL A   1      45.552  26.164  36.053  1.00  0.00     0.091 A 
ATOM     83  F   UNL A   1      43.446  25.803  34.989  1.00  0.00    -0.205 F 
ATOM     84  C   UNL A   1      46.728  26.925  36.164  1.00  0.00     0.022 A 
BRANCH  82  85
ATOM     85  S   UNL A   1      45.376  24.757  37.155  1.00  0.00     0.127 S 
ATOM     86  O   UNL A   1      45.303  23.645  36.210  1.00  0.00    -0.237 OA
ATOM     87  O   UNL A   1      46.612  24.814  37.936  1.00  0.00    -0.237 OA
ATOM     88  O   UNL A   1      44.165  25.005  37.927  1.00  0.00    -0.744 OA
ENDBRANCH  82  85
ENDBRANCH  55  78
ENDBRANCH  29  30
ENDBRANCH  22  24
ENDBRANCH  21  22
ENDBRANCH   1  21
TORSDOF 16
ENDMDL
MODEL 2
REMARK VINA RESULT:     -12.3      3.309      4.448
REMARK SMILES C/C(=C(/F)C(=O)OCCOC(=O)c1ccc(-c2c3nc(c(-c4cccc(S(=O)(=O)[O-])c4F)c4ccc([nH]4)c(-c4cccc(S(=O)(=O)[O-])c4F)c4nc(c(-c5cccc(S(=O)(=O)[O-])c5F)c5ccc2[nH]5)C=C4)C=C3)cc1)c1cccc(-n2cnnn2)c1
REMARK SMILES IDX 9 1 8 2 7 3 5 4 6 5 3 6 1 7 2 8 4 9 76 10 77 11 86 12 78 13
REMARK SMILES IDX 80 14 79 15 81 16 82 17 85 18 83 19 84 20 10 21 11 22 12 23
REMARK SMILES IDX 13 24 14 25 75 26 15 27 74 28 16 29 17 30 18 31 68 32 19 33
REMARK SMILES IDX 73 34 67 35 69 36 20 37 72 38 66 39 65 40 21 42 53 43 33 44
REMARK SMILES IDX 52 45 34 46 37 47 51 48 70 49 35 50 36 51 50 53 71 54 38 55
REMARK SMILES IDX 22 56 23 57 31 58 24 59 26 60 32 61 25 62 27 63 28 64 29 65
REMARK SMILES IDX 30 66 54 67 55 68 63 69 56 70 58 71 64 72 57 73 59 74 60 75
REMARK SMILES IDX 61 76 62 77 39 78 40 79 48 80 41 81 43 82 49 83 42 84 44 85
REMARK SMILES IDX 45 86 46 87 47 88
REMARK H PARENT 69 41 37 52
REMARK Flexibility Score: inf
ROOT
ATOM      1  C   UNL A   1      31.765  29.845  25.520  1.00  0.00     0.275 C 
ENDROOT
BRANCH   1   2
ATOM      2  C   UNL A   1      31.314  28.385  25.454  1.00  0.00     0.275 C 
BRANCH   2   3
ATOM      3  O   UNL A   1      31.909  27.699  24.330  1.00  0.00    -0.457 OA
BRANCH   3   4
ATOM      4  C   UNL A   1      31.441  26.441  24.111  1.00  0.00     0.367 C 
ATOM      5  O   UNL A   1      30.358  26.157  23.637  1.00  0.00    -0.243 OA
BRANCH   4   6
ATOM      6  C   UNL A   1      32.443  25.419  24.529  1.00  0.00     0.211 C 
ATOM      7  C   UNL A   1      33.487  25.419  22.269  1.00  0.00     0.048 C 
ATOM      8  C   UNL A   1      33.320  24.880  23.662  1.00  0.00    -0.000 C 
ATOM      9  F   UNL A   1      32.345  25.001  25.809  1.00  0.00    -0.199 F 
BRANCH   8  10
ATOM     10  C   UNL A   1      34.162  23.703  23.955  1.00  0.00    -0.017 A 
ATOM     11  C   UNL A   1      35.463  23.884  24.438  1.00  0.00     0.008 A 
ATOM     12  C   UNL A   1      33.595  22.416  23.988  1.00  0.00     0.037 A 
ATOM     13  C   UNL A   1      36.162  22.815  24.999  1.00  0.00     0.003 A 
ATOM     14  C   UNL A   1      34.274  21.352  24.594  1.00  0.00     0.069 A 
ATOM     15  C   UNL A   1      35.564  21.558  25.099  1.00  0.00     0.028 A 
BRANCH  14  16
ATOM     16  N   UNL A   1      33.644  20.095  24.761  1.00  0.00    -0.201 N 
ATOM     17  C   UNL A   1      34.154  18.829  24.608  1.00  0.00     0.252 A 
ATOM     18  N   UNL A   1      32.341  19.976  25.105  1.00  0.00    -0.040 NA
ATOM     19  N   UNL A   1      33.208  17.948  24.835  1.00  0.00    -0.117 NA
ATOM     20  N   UNL A   1      32.087  18.675  25.128  1.00  0.00    -0.024 NA
ENDBRANCH  14  16
ENDBRANCH   8  10
ENDBRANCH   4   6
ENDBRANCH   3   4
ENDBRANCH   2   3
ENDBRANCH   1   2
BRANCH   1  21
ATOM     21  O   UNL A   1      32.018  30.220  26.886  1.00  0.00    -0.458 OA
BRANCH  21  22
ATOM     22  C   UNL A   1      32.715  31.365  27.072  1.00  0.00     0.338 C 
ATOM     23  O   UNL A   1      32.272  32.503  26.977  1.00  0.00    -0.246 OA
BRANCH  22  24
ATOM     24  C   UNL A   1      34.111  31.082  27.478  1.00  0.00     0.060 A 
ATOM     25  C   UNL A   1      34.550  29.776  27.677  1.00  0.00     0.016 A 
ATOM     26  C   UNL A   1      34.955  32.140  27.823  1.00  0.00     0.016 A 
ATOM     27  C   UNL A   1      35.720  29.540  28.403  1.00  0.00     0.010 A 
ATOM     28  C   UNL A   1      36.209  31.885  28.395  1.00  0.00     0.010 A 
ATOM     29  C   UNL A   1      36.590  30.583  28.762  1.00  0.00    -0.014 A 
BRANCH  29  30
ATOM     30  C   UNL A   1      37.857  30.330  29.530  1.00  0.00     0.031 A 
ATOM     31  C   UNL A   1      38.973  29.497  28.932  1.00  0.00     0.074 A 
ATOM     32  C   UNL A   1      38.035  30.825  30.776  1.00  0.00     0.049 A 
ATOM     33  N   UNL A   1      39.989  28.924  29.528  1.00  0.00    -0.248 NA
ATOM     34  C   UNL A   1      38.927  29.251  27.481  1.00  0.00     0.031 C 
ATOM     35  C   UNL A   1      37.086  31.668  31.503  1.00  0.00     0.029 A 
ATOM     36  N   UNL A   1      39.083  30.684  31.659  1.00  0.00    -0.354 N 
ATOM     37  C   UNL A   1      40.627  28.159  28.555  1.00  0.00     0.074 A 
ATOM     38  C   UNL A   1      39.905  28.370  27.319  1.00  0.00     0.031 C 
ATOM     39  C   UNL A   1      37.617  32.025  32.681  1.00  0.00     0.029 A 
ATOM     40  C   UNL A   1      38.878  31.322  32.863  1.00  0.00     0.049 A 
ATOM     41  H   UNL A   1      39.901  30.177  31.450  1.00  0.00     0.167 HD
ATOM     42  C   UNL A   1      41.711  27.355  28.679  1.00  0.00     0.034 A 
ATOM     43  C   UNL A   1      39.574  31.299  34.018  1.00  0.00     0.034 A 
ATOM     44  C   UNL A   1      42.508  27.246  29.873  1.00  0.00     0.049 A 
ATOM     45  C   UNL A   1      40.796  30.435  34.123  1.00  0.00     0.074 A 
ATOM     46  C   UNL A   1      43.648  26.485  30.081  1.00  0.00     0.029 A 
ATOM     47  N   UNL A   1      42.277  27.944  31.046  1.00  0.00    -0.354 N 
ATOM     48  N   UNL A   1      41.356  29.687  33.204  1.00  0.00    -0.248 NA
ATOM     49  C   UNL A   1      41.474  30.398  35.426  1.00  0.00     0.031 C 
ATOM     50  C   UNL A   1      44.106  26.727  31.381  1.00  0.00     0.029 A 
ATOM     51  C   UNL A   1      43.257  27.643  31.979  1.00  0.00     0.049 A 
ATOM     52  H   UNL A   1      41.527  28.564  31.196  1.00  0.00     0.167 HD
ATOM     53  C   UNL A   1      42.455  29.096  33.816  1.00  0.00     0.074 A 
ATOM     54  C   UNL A   1      42.501  29.599  35.173  1.00  0.00     0.031 C 
ATOM     55  C   UNL A   1      43.326  28.192  33.307  1.00  0.00     0.034 A 
BRANCH  42  56
ATOM     56  C   UNL A   1      42.128  26.532  27.484  1.00  0.00     0.023 A 
ATOM     57  C   UNL A   1      42.925  27.104  26.475  1.00  0.00     0.012 A 
ATOM     58  C   UNL A   1      41.795  25.163  27.409  1.00  0.00     0.148 A 
ATOM     59  C   UNL A   1      43.363  26.335  25.396  1.00  0.00     0.002 A 
ATOM     60  C   UNL A   1      42.269  24.393  26.351  1.00  0.00     0.091 A 
ATOM     61  F   UNL A   1      41.018  24.639  28.366  1.00  0.00    -0.205 F 
ATOM     62  C   UNL A   1      43.045  24.980  25.339  1.00  0.00     0.022 A 
BRANCH  60  63
ATOM     63  S   UNL A   1      41.976  22.623  26.245  1.00  0.00     0.127 S 
ATOM     64  O   UNL A   1      42.636  22.288  24.985  1.00  0.00    -0.237 OA
ATOM     65  O   UNL A   1      42.653  22.119  27.441  1.00  0.00    -0.237 OA
ATOM     66  O   UNL A   1      40.528  22.461  26.262  1.00  0.00    -0.744 OA
ENDBRANCH  60  63
ENDBRANCH  42  56
BRANCH  43  67
ATOM     67  C   UNL A   1      39.106  32.119  35.173  1.00  0.00     0.023 A 
ATOM     68  C   UNL A   1      38.271  31.534  36.144  1.00  0.00     0.012 A 
ATOM     69  C   UNL A   1      39.551  33.442  35.360  1.00  0.00     0.148 A 
ATOM     70  C   UNL A   1      37.890  32.253  37.278  1.00  0.00     0.002 A 
ATOM     71  C   UNL A   1      39.232  34.123  36.529  1.00  0.00     0.091 A 
ATOM     72  F   UNL A   1      40.313  34.000  34.408  1.00  0.00    -0.205 F 
ATOM     73  C   UNL A   1      38.388  33.537  37.482  1.00  0.00     0.022 A 
BRANCH  71  74
ATOM     74  S   UNL A   1      40.001  35.696  36.940  1.00  0.00     0.127 S 
ATOM     75  O   UNL A   1      41.414  35.336  36.995  1.00  0.00    -0.237 OA
ATOM     76  O   UNL A   1      39.619  36.534  35.802  1.00  0.00    -0.237 OA
ATOM     77  O   UNL A   1      39.389  36.100  38.200  1.00  0.00    -0.744 OA
ENDBRANCH  71  74
ENDBRANCH  43  67
BRANCH  55  78
ATOM     78  C   UNL A   1      44.422  27.700  34.212  1.00  0.00     0.023 A 
ATOM     79  C   UNL A   1      45.655  28.382  34.239  1.00  0.00     0.012 A 
ATOM     80  C   UNL A   1      44.212  26.610  35.076  1.00  0.00     0.148 A 
ATOM     81  C   UNL A   1      46.672  27.969  35.097  1.00  0.00     0.002 A 
ATOM     82  C   UNL A   1      45.218  26.227  35.957  1.00  0.00     0.091 A 
ATOM     83  F   UNL A   1      43.039  25.962  35.018  1.00  0.00    -0.205 F 
ATOM     84  C   UNL A   1      46.451  26.900  35.963  1.00  0.00     0.022 A 
BRANCH  82  85
ATOM     85  S   UNL A   1      44.994  24.910  37.158  1.00  0.00     0.127 S 
ATOM     86  O   UNL A   1      43.843  25.392  37.918  1.00  0.00    -0.237 OA
ATOM     87  O   UNL A   1      44.720  23.753  36.306  1.00  0.00    -0.237 OA
ATOM     88  O   UNL A   1      46.247  24.830  37.898  1.00  0.00    -0.744 OA
ENDBRANCH  82  85
ENDBRANCH  55  78
ENDBRANCH  29  30
ENDBRANCH  22  24
ENDBRANCH  21  22
ENDBRANCH   1  21
TORSDOF 16
ENDMDL
MODEL 3
REMARK VINA RESULT:     -12.2      4.863      9.793
REMARK SMILES C/C(=C(/F)C(=O)OCCOC(=O)c1ccc(-c2c3nc(c(-c4cccc(S(=O)(=O)[O-])c4F)c4ccc([nH]4)c(-c4cccc(S(=O)(=O)[O-])c4F)c4nc(c(-c5cccc(S(=O)(=O)[O-])c5F)c5ccc2[nH]5)C=C4)C=C3)cc1)c1cccc(-n2cnnn2)c1
REMARK SMILES IDX 9 1 8 2 7 3 5 4 6 5 3 6 1 7 2 8 4 9 76 10 77 11 86 12 78 13
REMARK SMILES IDX 80 14 79 15 81 16 82 17 85 18 83 19 84 20 10 21 11 22 12 23
REMARK SMILES IDX 13 24 14 25 75 26 15 27 74 28 16 29 17 30 18 31 68 32 19 33
REMARK SMILES IDX 73 34 67 35 69 36 20 37 72 38 66 39 65 40 21 42 53 43 33 44
REMARK SMILES IDX 52 45 34 46 37 47 51 48 70 49 35 50 36 51 50 53 71 54 38 55
REMARK SMILES IDX 22 56 23 57 31 58 24 59 26 60 32 61 25 62 27 63 28 64 29 65
REMARK SMILES IDX 30 66 54 67 55 68 63 69 56 70 58 71 64 72 57 73 59 74 60 75
REMARK SMILES IDX 61 76 62 77 39 78 40 79 48 80 41 81 43 82 49 83 42 84 44 85
REMARK SMILES IDX 45 86 46 87 47 88
REMARK H PARENT 69 41 37 52
REMARK Flexibility Score: inf
ROOT
ATOM      1  C   UNL A   1      35.920  21.061  25.333  1.00  0.00     0.275 C 
ENDROOT
BRANCH   1   2
ATOM      2  C   UNL A   1      34.785  21.604  24.462  1.00  0.00     0.275 C 
BRANCH   2   3
ATOM      3  O   UNL A   1      33.831  22.355  25.246  1.00  0.00    -0.457 OA
BRANCH   3   4
ATOM      4  C   UNL A   1      32.866  22.985  24.525  1.00  0.00     0.367 C 
ATOM      5  O   UNL A   1      32.086  22.453  23.759  1.00  0.00    -0.243 OA
BRANCH   4   6
ATOM      6  C   UNL A   1      32.873  24.452  24.794  1.00  0.00     0.211 C 
ATOM      7  C   UNL A   1      30.995  24.232  26.414  1.00  0.00     0.048 C 
ATOM      8  C   UNL A   1      31.955  25.038  25.586  1.00  0.00    -0.000 C 
ATOM      9  F   UNL A   1      33.797  25.162  24.114  1.00  0.00    -0.199 F 
BRANCH   8  10
ATOM     10  C   UNL A   1      31.763  26.498  25.696  1.00  0.00    -0.017 A 
ATOM     11  C   UNL A   1      32.549  27.237  26.587  1.00  0.00     0.008 A 
ATOM     12  C   UNL A   1      30.979  27.183  24.749  1.00  0.00     0.037 A 
ATOM     13  C   UNL A   1      32.601  28.628  26.496  1.00  0.00     0.003 A 
ATOM     14  C   UNL A   1      31.065  28.575  24.623  1.00  0.00     0.069 A 
ATOM     15  C   UNL A   1      31.880  29.296  25.505  1.00  0.00     0.028 A 
BRANCH  14  16
ATOM     16  N   UNL A   1      30.391  29.248  23.575  1.00  0.00    -0.201 N 
ATOM     17  C   UNL A   1      30.362  28.974  22.230  1.00  0.00     0.252 A 
ATOM     18  N   UNL A   1      29.641  30.354  23.788  1.00  0.00    -0.040 NA
ATOM     19  N   UNL A   1      29.633  29.877  21.617  1.00  0.00    -0.117 NA
ATOM     20  N   UNL A   1      29.205  30.734  22.595  1.00  0.00    -0.024 NA
ENDBRANCH  14  16
ENDBRANCH   8  10
ENDBRANCH   4   6
ENDBRANCH   3   4
ENDBRANCH   2   3
ENDBRANCH   1   2
BRANCH   1  21
ATOM     21  O   UNL A   1      37.191  21.451  24.783  1.00  0.00    -0.458 OA
BRANCH  21  22
ATOM     22  C   UNL A   1      38.286  21.078  25.485  1.00  0.00     0.338 C 
ATOM     23  O   UNL A   1      38.797  19.964  25.488  1.00  0.00    -0.246 OA
BRANCH  22  24
ATOM     24  C   UNL A   1      38.857  22.221  26.235  1.00  0.00     0.060 A 
ATOM     25  C   UNL A   1      38.330  23.502  26.101  1.00  0.00     0.016 A 
ATOM     26  C   UNL A   1      40.039  22.047  26.959  1.00  0.00     0.016 A 
ATOM     27  C   UNL A   1      39.084  24.608  26.501  1.00  0.00     0.010 A 
ATOM     28  C   UNL A   1      40.700  23.155  27.509  1.00  0.00     0.010 A 
ATOM     29  C   UNL A   1      40.274  24.466  27.233  1.00  0.00    -0.014 A 
BRANCH  29  30
ATOM     30  C   UNL A   1      41.080  25.654  27.678  1.00  0.00     0.031 A 
ATOM     31  C   UNL A   1      40.468  26.713  28.574  1.00  0.00     0.074 A 
ATOM     32  C   UNL A   1      42.363  25.822  27.285  1.00  0.00     0.049 A 
ATOM     33  N   UNL A   1      40.882  27.932  28.817  1.00  0.00    -0.248 NA
ATOM     34  C   UNL A   1      39.215  26.367  29.266  1.00  0.00     0.031 C 
ATOM     35  C   UNL A   1      43.127  24.898  26.447  1.00  0.00     0.029 A 
ATOM     36  N   UNL A   1      43.255  26.841  27.538  1.00  0.00    -0.354 N 
ATOM     37  C   UNL A   1      39.887  28.532  29.584  1.00  0.00     0.074 A 
ATOM     38  C   UNL A   1      38.864  27.531  29.798  1.00  0.00     0.031 C 
ATOM     39  C   UNL A   1      44.381  25.349  26.312  1.00  0.00     0.029 A 
ATOM     40  C   UNL A   1      44.478  26.665  26.927  1.00  0.00     0.049 A 
ATOM     41  H   UNL A   1      43.042  27.618  28.102  1.00  0.00     0.167 HD
ATOM     42  C   UNL A   1      39.829  29.799  30.063  1.00  0.00     0.034 A 
ATOM     43  C   UNL A   1      45.541  27.485  26.802  1.00  0.00     0.034 A 
ATOM     44  C   UNL A   1      40.902  30.755  29.963  1.00  0.00     0.049 A 
ATOM     45  C   UNL A   1      45.474  28.869  27.375  1.00  0.00     0.074 A 
ATOM     46  C   UNL A   1      40.948  32.050  30.452  1.00  0.00     0.029 A 
ATOM     47  N   UNL A   1      42.128  30.509  29.370  1.00  0.00    -0.354 N 
ATOM     48  N   UNL A   1      44.508  29.430  28.059  1.00  0.00    -0.248 NA
ATOM     49  C   UNL A   1      46.637  29.739  27.149  1.00  0.00     0.031 C 
ATOM     50  C   UNL A   1      42.207  32.586  30.155  1.00  0.00     0.029 A 
ATOM     51  C   UNL A   1      42.945  31.622  29.490  1.00  0.00     0.049 A 
ATOM     52  H   UNL A   1      42.384  29.666  28.928  1.00  0.00     0.167 HD
ATOM     53  C   UNL A   1      44.946  30.716  28.349  1.00  0.00     0.074 A 
ATOM     54  C   UNL A   1      46.280  30.840  27.797  1.00  0.00     0.031 C 
ATOM     55  C   UNL A   1      44.289  31.715  28.986  1.00  0.00     0.034 A 
BRANCH  42  56
ATOM     56  C   UNL A   1      38.567  30.237  30.767  1.00  0.00     0.023 A 
ATOM     57  C   UNL A   1      38.410  30.005  32.146  1.00  0.00     0.012 A 
ATOM     58  C   UNL A   1      37.574  30.957  30.070  1.00  0.00     0.148 A 
ATOM     59  C   UNL A   1      37.272  30.457  32.816  1.00  0.00     0.002 A 
ATOM     60  C   UNL A   1      36.462  31.440  30.752  1.00  0.00     0.091 A 
ATOM     61  F   UNL A   1      37.729  31.151  28.752  1.00  0.00    -0.205 F 
ATOM     62  C   UNL A   1      36.306  31.183  32.124  1.00  0.00     0.022 A 
BRANCH  60  63
ATOM     63  S   UNL A   1      35.211  32.454  29.954  1.00  0.00     0.127 S 
ATOM     64  O   UNL A   1      34.289  32.712  31.059  1.00  0.00    -0.237 OA
ATOM     65  O   UNL A   1      35.981  33.620  29.519  1.00  0.00    -0.237 OA
ATOM     66  O   UNL A   1      34.681  31.643  28.866  1.00  0.00    -0.744 OA
ENDBRANCH  60  63
ENDBRANCH  42  56
BRANCH  43  67
ATOM     67  C   UNL A   1      46.756  27.005  26.080  1.00  0.00     0.023 A 
ATOM     68  C   UNL A   1      46.913  27.303  24.714  1.00  0.00     0.012 A 
ATOM     69  C   UNL A   1      47.793  26.333  26.757  1.00  0.00     0.148 A 
ATOM     70  C   UNL A   1      48.079  26.942  24.037  1.00  0.00     0.002 A 
ATOM     71  C   UNL A   1      48.982  26.047  26.098  1.00  0.00     0.091 A 
ATOM     72  F   UNL A   1      47.614  26.021  28.049  1.00  0.00    -0.205 F 
ATOM     73  C   UNL A   1      49.122  26.335  24.733  1.00  0.00     0.022 A 
BRANCH  71  74
ATOM     74  S   UNL A   1      50.429  25.451  26.983  1.00  0.00     0.127 S 
ATOM     75  O   UNL A   1      51.367  25.200  25.894  1.00  0.00    -0.237 OA
ATOM     76  O   UNL A   1      50.763  26.594  27.835  1.00  0.00    -0.237 OA
ATOM     77  O   UNL A   1      49.969  24.281  27.720  1.00  0.00    -0.744 OA
ENDBRANCH  71  74
ENDBRANCH  43  67
BRANCH  55  78
ATOM     78  C   UNL A   1      45.007  33.027  29.144  1.00  0.00     0.023 A 
ATOM     79  C   UNL A   1      45.834  33.232  30.267  1.00  0.00     0.012 A 
ATOM     80  C   UNL A   1      44.915  34.026  28.158  1.00  0.00     0.148 A 
ATOM     81  C   UNL A   1      46.541  34.424  30.415  1.00  0.00     0.002 A 
ATOM     82  C   UNL A   1      45.651  35.197  28.294  1.00  0.00     0.091 A 
ATOM     83  F   UNL A   1      44.104  33.818  27.110  1.00  0.00    -0.205 F 
ATOM     84  C   UNL A   1      46.458  35.401  29.426  1.00  0.00     0.022 A 
BRANCH  82  85
ATOM     85  S   UNL A   1      45.664  36.477  27.035  1.00  0.00     0.127 S 
ATOM     86  O   UNL A   1      46.590  37.451  27.608  1.00  0.00    -0.237 OA
ATOM     87  O   UNL A   1      46.178  35.762  25.866  1.00  0.00    -0.237 OA
ATOM     88  O   UNL A   1      44.282  36.924  26.907  1.00  0.00    -0.744 OA
ENDBRANCH  82  85
ENDBRANCH  55  78
ENDBRANCH  29  30
ENDBRANCH  22  24
ENDBRANCH  21  22
ENDBRANCH   1  21
TORSDOF 16
ENDMDL
