MODEL 1
REMARK VINA RESULT:     -11.7      0.000      0.000
REMARK SMILES CC(=O)c1ccccc1S(=O)(=O)N1CCC(C(=O)OCCOC(=O)c2ccc(-c3c4nc(c(-c5cccc(S(=O)(=O)[O-])c5F)c5ccc([nH]5)c(-c5cccc(S(=O)(=O)[O-])c5F)c5nc(c(-c6cccc(S(=O)(=O)[O-])c6F)c6ccc3[nH]6)C=C5)C=C4)cc2)CC1
REMARK SMILES IDX 20 1 19 2 17 3 18 4 16 5 13 6 14 7 89 8 15 9 88 10 10 11
REMARK SMILES IDX 11 12 12 13 9 14 4 15 5 16 6 17 8 18 7 19 2 20 1 21 3 22
REMARK SMILES IDX 21 23 22 24 23 25 24 26 25 27 26 28 87 29 27 30 86 31 28 32
REMARK SMILES IDX 29 33 30 34 80 35 31 36 85 37 79 38 81 39 32 40 84 41 78 42
REMARK SMILES IDX 77 43 33 45 65 46 45 47 64 48 46 49 49 50 63 51 82 52 47 53
REMARK SMILES IDX 48 54 62 56 83 57 50 58 34 59 35 60 43 61 36 62 38 63 44 64
REMARK SMILES IDX 37 65 39 66 40 67 41 68 42 69 66 70 67 71 75 72 68 73 70 74
REMARK SMILES IDX 76 75 69 76 71 77 72 78 73 79 74 80 51 81 52 82 60 83 53 84
REMARK SMILES IDX 55 85 61 86 54 87 56 88 57 89 58 90 59 91
REMARK H PARENT 81 44 49 55
REMARK Flexibility Score: inf
ROOT
ATOM      1  C   UNL A   1      31.484  29.410  24.877  1.00  0.00     0.274 C 
ENDROOT
BRANCH   1   2
ATOM      2  O   UNL A   1      30.199  29.228  24.253  1.00  0.00    -0.462 OA
BRANCH   2   3
ATOM      3  C   UNL A   1      30.189  28.602  23.049  1.00  0.00     0.309 C 
ATOM      4  O   UNL A   1      29.620  29.031  22.052  1.00  0.00    -0.252 OA
BRANCH   3   5
ATOM      5  C   UNL A   1      30.971  27.300  23.042  1.00  0.00     0.102 C 
ATOM      6  N   UNL A   1      32.279  24.896  22.818  1.00  0.00    -0.198 NA
ATOM      7  C   UNL A   1      30.849  24.748  23.188  1.00  0.00     0.103 C 
ATOM      8  C   UNL A   1      32.498  25.834  21.668  1.00  0.00     0.103 C 
ATOM      9  C   UNL A   1      30.250  26.084  23.630  1.00  0.00     0.032 C 
ATOM     10  C   UNL A   1      31.470  26.971  21.642  1.00  0.00     0.032 C 
BRANCH   6  11
ATOM     11  S   UNL A   1      33.147  23.426  22.738  1.00  0.00     0.243 S 
ATOM     12  O   UNL A   1      33.570  23.240  21.364  1.00  0.00    -0.207 OA
ATOM     13  O   UNL A   1      32.363  22.407  23.405  1.00  0.00    -0.207 OA
BRANCH  11  14
ATOM     14  C   UNL A   1      34.623  23.553  23.710  1.00  0.00     0.093 A 
ATOM     15  C   UNL A   1      34.742  24.209  24.931  1.00  0.00     0.037 A 
ATOM     16  C   UNL A   1      35.956  24.164  25.639  1.00  0.00     0.013 A 
ATOM     17  C   UNL A   1      37.036  23.434  25.147  1.00  0.00     0.001 A 
ATOM     18  C   UNL A   1      35.724  22.824  23.218  1.00  0.00     0.022 A 
ATOM     19  C   UNL A   1      36.918  22.757  23.938  1.00  0.00     0.001 A 
BRANCH  15  20
ATOM     20  C   UNL A   1      33.645  24.894  25.624  1.00  0.00     0.161 C 
ATOM     21  C   UNL A   1      32.767  24.041  26.494  1.00  0.00     0.093 C 
ATOM     22  O   UNL A   1      33.571  26.116  25.571  1.00  0.00    -0.294 OA
ENDBRANCH  15  20
ENDBRANCH  11  14
ENDBRANCH   6  11
ENDBRANCH   3   5
ENDBRANCH   2   3
ENDBRANCH   1   2
BRANCH   1  23
ATOM     23  C   UNL A   1      31.507  30.694  25.712  1.00  0.00     0.275 C 
BRANCH  23  24
ATOM     24  O   UNL A   1      32.299  30.548  26.906  1.00  0.00    -0.458 OA
BRANCH  24  25
ATOM     25  C   UNL A   1      33.043  31.632  27.231  1.00  0.00     0.338 C 
ATOM     26  O   UNL A   1      32.692  32.800  27.201  1.00  0.00    -0.246 OA
BRANCH  25  27
ATOM     27  C   UNL A   1      34.372  31.223  27.706  1.00  0.00     0.060 A 
ATOM     28  C   UNL A   1      34.607  29.865  27.923  1.00  0.00     0.016 A 
ATOM     29  C   UNL A   1      35.326  32.174  28.072  1.00  0.00     0.016 A 
ATOM     30  C   UNL A   1      35.772  29.451  28.566  1.00  0.00     0.010 A 
ATOM     31  C   UNL A   1      36.509  31.755  28.690  1.00  0.00     0.010 A 
ATOM     32  C   UNL A   1      36.726  30.393  28.974  1.00  0.00    -0.014 A 
BRANCH  32  33
ATOM     33  C   UNL A   1      37.932  29.958  29.725  1.00  0.00     0.031 A 
ATOM     34  C   UNL A   1      38.182  30.463  31.122  1.00  0.00     0.074 A 
ATOM     35  C   UNL A   1      38.816  29.124  29.144  1.00  0.00     0.049 A 
ATOM     36  N   UNL A   1      39.201  30.239  31.910  1.00  0.00    -0.248 NA
ATOM     37  C   UNL A   1      37.154  31.339  31.708  1.00  0.00     0.031 C 
ATOM     38  C   UNL A   1      38.695  28.570  27.795  1.00  0.00     0.029 A 
ATOM     39  N   UNL A   1      40.002  28.612  29.610  1.00  0.00    -0.354 N 
ATOM     40  C   UNL A   1      38.967  30.983  33.060  1.00  0.00     0.074 A 
ATOM     41  C   UNL A   1      37.704  31.663  32.872  1.00  0.00     0.031 C 
ATOM     42  C   UNL A   1      39.768  27.806  27.537  1.00  0.00     0.029 A 
ATOM     43  C   UNL A   1      40.667  27.838  28.687  1.00  0.00     0.049 A 
ATOM     44  H   UNL A   1      40.343  28.782  30.518  1.00  0.00     0.167 HD
ATOM     45  C   UNL A   1      39.729  31.081  34.177  1.00  0.00     0.034 A 
ATOM     46  C   UNL A   1      41.871  27.238  28.753  1.00  0.00     0.034 A 
ATOM     47  C   UNL A   1      40.954  30.357  34.391  1.00  0.00     0.049 A 
ATOM     48  C   UNL A   1      42.681  27.349  30.017  1.00  0.00     0.074 A 
ATOM     49  C   UNL A   1      41.752  30.335  35.521  1.00  0.00     0.029 A 
ATOM     50  N   UNL A   1      41.559  29.530  33.458  1.00  0.00    -0.354 N 
ATOM     51  N   UNL A   1      42.378  27.950  31.141  1.00  0.00    -0.248 NA
ATOM     52  C   UNL A   1      43.985  26.670  30.031  1.00  0.00     0.031 C 
ATOM     53  C   UNL A   1      42.846  29.502  35.269  1.00  0.00     0.029 A 
ATOM     54  C   UNL A   1      42.723  28.997  33.985  1.00  0.00     0.049 A 
ATOM     55  H   UNL A   1      41.213  29.350  32.555  1.00  0.00     0.167 HD
ATOM     56  C   UNL A   1      43.433  27.688  32.008  1.00  0.00     0.074 A 
ATOM     57  C   UNL A   1      44.374  26.859  31.285  1.00  0.00     0.031 C 
ATOM     58  C   UNL A   1      43.614  28.113  33.282  1.00  0.00     0.034 A 
BRANCH  45  59
ATOM     59  C   UNL A   1      39.243  31.974  35.288  1.00  0.00     0.023 A 
ATOM     60  C   UNL A   1      38.337  31.467  36.241  1.00  0.00     0.012 A 
ATOM     61  C   UNL A   1      39.757  33.277  35.443  1.00  0.00     0.148 A 
ATOM     62  C   UNL A   1      37.934  32.251  37.321  1.00  0.00     0.002 A 
ATOM     63  C   UNL A   1      39.378  34.038  36.543  1.00  0.00     0.091 A 
ATOM     64  F   UNL A   1      40.601  33.746  34.514  1.00  0.00    -0.205 F 
ATOM     65  C   UNL A   1      38.463  33.530  37.479  1.00  0.00     0.022 A 
BRANCH  63  66
ATOM     66  S   UNL A   1      40.059  35.669  36.871  1.00  0.00     0.127 S 
ATOM     67  O   UNL A   1      39.572  36.428  35.722  1.00  0.00    -0.237 OA
ATOM     68  O   UNL A   1      39.427  36.018  38.144  1.00  0.00    -0.237 OA
ATOM     69  O   UNL A   1      41.503  35.493  36.940  1.00  0.00    -0.744 OA
ENDBRANCH  63  66
ENDBRANCH  45  59
BRANCH  46  70
ATOM     70  C   UNL A   1      42.365  26.430  27.604  1.00  0.00     0.023 A 
ATOM     71  C   UNL A   1      43.211  27.032  26.652  1.00  0.00     0.012 A 
ATOM     72  C   UNL A   1      42.016  25.074  27.452  1.00  0.00     0.148 A 
ATOM     73  C   UNL A   1      43.675  26.307  25.553  1.00  0.00     0.002 A 
ATOM     74  C   UNL A   1      42.525  24.344  26.384  1.00  0.00     0.091 A 
ATOM     75  F   UNL A   1      41.189  24.523  28.352  1.00  0.00    -0.205 F 
ATOM     76  C   UNL A   1      43.341  24.961  25.426  1.00  0.00     0.022 A 
BRANCH  74  77
ATOM     77  S   UNL A   1      42.239  22.577  26.226  1.00  0.00     0.127 S 
ATOM     78  O   UNL A   1      42.970  22.262  25.002  1.00  0.00    -0.237 OA
ATOM     79  O   UNL A   1      42.838  22.053  27.454  1.00  0.00    -0.237 OA
ATOM     80  O   UNL A   1      40.789  22.431  26.164  1.00  0.00    -0.744 OA
ENDBRANCH  74  77
ENDBRANCH  46  70
BRANCH  58  81
ATOM     81  C   UNL A   1      44.855  27.653  34.002  1.00  0.00     0.023 A 
ATOM     82  C   UNL A   1      46.015  28.450  33.971  1.00  0.00     0.012 A 
ATOM     83  C   UNL A   1      44.848  26.472  34.769  1.00  0.00     0.148 A 
ATOM     84  C   UNL A   1      47.160  28.062  34.666  1.00  0.00     0.002 A 
ATOM     85  C   UNL A   1      45.979  26.114  35.495  1.00  0.00     0.091 A 
ATOM     86  F   UNL A   1      43.742  25.713  34.769  1.00  0.00    -0.205 F 
ATOM     87  C   UNL A   1      47.138  26.902  35.437  1.00  0.00     0.022 A 
BRANCH  85  88
ATOM     88  S   UNL A   1      45.995  24.684  36.583  1.00  0.00     0.127 S 
ATOM     89  O   UNL A   1      44.887  24.982  37.487  1.00  0.00    -0.237 OA
ATOM     90  O   UNL A   1      45.746  23.578  35.658  1.00  0.00    -0.237 OA
ATOM     91  O   UNL A   1      47.320  24.668  37.190  1.00  0.00    -0.744 OA
ENDBRANCH  85  88
ENDBRANCH  58  81
ENDBRANCH  32  33
ENDBRANCH  25  27
ENDBRANCH  24  25
ENDBRANCH  23  24
ENDBRANCH   1  23
TORSDOF 17
ENDMDL
MODEL 2
REMARK VINA RESULT:     -11.4      1.792      2.171
REMARK SMILES CC(=O)c1ccccc1S(=O)(=O)N1CCC(C(=O)OCCOC(=O)c2ccc(-c3c4nc(c(-c5cccc(S(=O)(=O)[O-])c5F)c5ccc([nH]5)c(-c5cccc(S(=O)(=O)[O-])c5F)c5nc(c(-c6cccc(S(=O)(=O)[O-])c6F)c6ccc3[nH]6)C=C5)C=C4)cc2)CC1
REMARK SMILES IDX 20 1 19 2 17 3 18 4 16 5 13 6 14 7 89 8 15 9 88 10 10 11
REMARK SMILES IDX 11 12 12 13 9 14 4 15 5 16 6 17 8 18 7 19 2 20 1 21 3 22
REMARK SMILES IDX 21 23 22 24 23 25 24 26 25 27 26 28 87 29 27 30 86 31 28 32
REMARK SMILES IDX 29 33 30 34 80 35 31 36 85 37 79 38 81 39 32 40 84 41 78 42
REMARK SMILES IDX 77 43 33 45 65 46 45 47 64 48 46 49 49 50 63 51 82 52 47 53
REMARK SMILES IDX 48 54 62 56 83 57 50 58 34 59 35 60 43 61 36 62 38 63 44 64
REMARK SMILES IDX 37 65 39 66 40 67 41 68 42 69 66 70 67 71 75 72 68 73 70 74
REMARK SMILES IDX 76 75 69 76 71 77 72 78 73 79 74 80 51 81 52 82 60 83 53 84
REMARK SMILES IDX 55 85 61 86 54 87 56 88 57 89 58 90 59 91
REMARK H PARENT 81 44 49 55
REMARK Flexibility Score: inf
ROOT
ATOM      1  C   UNL A   1      31.413  30.850  26.208  1.00  0.00     0.274 C 
ENDROOT
BRANCH   1   2
ATOM      2  O   UNL A   1      32.385  29.856  26.585  1.00  0.00    -0.462 OA
BRANCH   2   3
ATOM      3  C   UNL A   1      31.905  28.632  26.922  1.00  0.00     0.309 C 
ATOM      4  O   UNL A   1      31.229  28.406  27.918  1.00  0.00    -0.252 OA
BRANCH   3   5
ATOM      5  C   UNL A   1      32.278  27.546  25.927  1.00  0.00     0.102 C 
ATOM      6  N   UNL A   1      32.906  25.422  24.304  1.00  0.00    -0.198 NA
ATOM      7  C   UNL A   1      33.954  25.713  25.315  1.00  0.00     0.103 C 
ATOM      8  C   UNL A   1      31.524  25.375  24.885  1.00  0.00     0.103 C 
ATOM      9  C   UNL A   1      33.736  27.081  25.961  1.00  0.00     0.032 C 
ATOM     10  C   UNL A   1      31.355  26.343  26.062  1.00  0.00     0.032 C 
BRANCH   6  11
ATOM     11  S   UNL A   1      33.290  24.151  23.229  1.00  0.00     0.243 S 
ATOM     12  O   UNL A   1      33.911  24.739  22.057  1.00  0.00    -0.207 OA
ATOM     13  O   UNL A   1      32.117  23.314  23.089  1.00  0.00    -0.207 OA
BRANCH  11  14
ATOM     14  C   UNL A   1      34.503  23.092  23.968  1.00  0.00     0.093 A 
ATOM     15  C   UNL A   1      34.270  22.165  24.979  1.00  0.00     0.037 A 
ATOM     16  C   UNL A   1      35.309  21.328  25.421  1.00  0.00     0.013 A 
ATOM     17  C   UNL A   1      36.568  21.389  24.826  1.00  0.00     0.001 A 
ATOM     18  C   UNL A   1      35.782  23.150  23.379  1.00  0.00     0.022 A 
ATOM     19  C   UNL A   1      36.804  22.296  23.799  1.00  0.00     0.001 A 
BRANCH  15  20
ATOM     20  C   UNL A   1      32.962  21.905  25.590  1.00  0.00     0.161 C 
ATOM     21  C   UNL A   1      32.630  22.696  26.823  1.00  0.00     0.093 C 
ATOM     22  O   UNL A   1      32.165  21.173  25.015  1.00  0.00    -0.294 OA
ENDBRANCH  15  20
ENDBRANCH  11  14
ENDBRANCH   6  11
ENDBRANCH   3   5
ENDBRANCH   2   3
ENDBRANCH   1   2
BRANCH   1  23
ATOM     23  C   UNL A   1      31.827  32.236  26.712  1.00  0.00     0.275 C 
BRANCH  23  24
ATOM     24  O   UNL A   1      32.778  32.158  27.790  1.00  0.00    -0.458 OA
BRANCH  24  25
ATOM     25  C   UNL A   1      33.837  32.994  27.676  1.00  0.00     0.338 C 
ATOM     26  O   UNL A   1      33.817  34.164  27.333  1.00  0.00    -0.246 OA
BRANCH  25  27
ATOM     27  C   UNL A   1      35.076  32.318  28.088  1.00  0.00     0.060 A 
ATOM     28  C   UNL A   1      35.006  30.970  28.439  1.00  0.00     0.016 A 
ATOM     29  C   UNL A   1      36.259  33.036  28.266  1.00  0.00     0.016 A 
ATOM     30  C   UNL A   1      36.102  30.344  29.031  1.00  0.00     0.010 A 
ATOM     31  C   UNL A   1      37.368  32.399  28.831  1.00  0.00     0.010 A 
ATOM     32  C   UNL A   1      37.288  31.058  29.252  1.00  0.00    -0.014 A 
BRANCH  32  33
ATOM     33  C   UNL A   1      38.430  30.412  29.949  1.00  0.00     0.031 A 
ATOM     34  C   UNL A   1      38.768  30.792  31.367  1.00  0.00     0.074 A 
ATOM     35  C   UNL A   1      39.177  29.497  29.302  1.00  0.00     0.049 A 
ATOM     36  N   UNL A   1      39.756  30.380  32.118  1.00  0.00    -0.248 NA
ATOM     37  C   UNL A   1      37.885  31.769  32.025  1.00  0.00     0.031 C 
ATOM     38  C   UNL A   1      38.960  29.048  27.927  1.00  0.00     0.029 A 
ATOM     39  N   UNL A   1      40.284  28.795  29.712  1.00  0.00    -0.354 N 
ATOM     40  C   UNL A   1      39.647  31.079  33.314  1.00  0.00     0.074 A 
ATOM     41  C   UNL A   1      38.492  31.941  33.193  1.00  0.00     0.031 C 
ATOM     42  C   UNL A   1      39.909  28.155  27.602  1.00  0.00     0.029 A 
ATOM     43  C   UNL A   1      40.818  27.992  28.732  1.00  0.00     0.049 A 
ATOM     44  H   UNL A   1      40.659  28.861  30.620  1.00  0.00     0.167 HD
ATOM     45  C   UNL A   1      40.430  31.001  34.417  1.00  0.00     0.034 A 
ATOM     46  C   UNL A   1      41.926  27.224  28.736  1.00  0.00     0.034 A 
ATOM     47  C   UNL A   1      41.542  30.099  34.562  1.00  0.00     0.049 A 
ATOM     48  C   UNL A   1      42.760  27.143  29.986  1.00  0.00     0.074 A 
ATOM     49  C   UNL A   1      42.345  29.897  35.671  1.00  0.00     0.029 A 
ATOM     50  N   UNL A   1      42.010  29.252  33.570  1.00  0.00    -0.354 N 
ATOM     51  N   UNL A   1      42.562  27.713  31.149  1.00  0.00    -0.248 NA
ATOM     52  C   UNL A   1      43.954  26.286  29.932  1.00  0.00     0.031 C 
ATOM     53  C   UNL A   1      43.305  28.934  35.347  1.00  0.00     0.029 A 
ATOM     54  C   UNL A   1      43.093  28.529  34.040  1.00  0.00     0.049 A 
ATOM     55  H   UNL A   1      41.629  29.177  32.666  1.00  0.00     0.167 HD
ATOM     56  C   UNL A   1      43.581  27.253  31.976  1.00  0.00     0.074 A 
ATOM     57  C   UNL A   1      44.384  26.343  31.185  1.00  0.00     0.031 C 
ATOM     58  C   UNL A   1      43.839  27.570  33.268  1.00  0.00     0.034 A 
BRANCH  45  59
ATOM     59  C   UNL A   1      40.093  31.886  35.587  1.00  0.00     0.023 A 
ATOM     60  C   UNL A   1      40.771  33.110  35.751  1.00  0.00     0.012 A 
ATOM     61  C   UNL A   1      39.043  31.551  36.466  1.00  0.00     0.148 A 
ATOM     62  C   UNL A   1      40.422  33.981  36.783  1.00  0.00     0.002 A 
ATOM     63  C   UNL A   1      38.677  32.442  37.470  1.00  0.00     0.091 A 
ATOM     64  F   UNL A   1      38.426  30.373  36.305  1.00  0.00    -0.205 F 
ATOM     65  C   UNL A   1      39.369  33.653  37.633  1.00  0.00     0.022 A 
BRANCH  63  66
ATOM     66  S   UNL A   1      37.288  32.140  38.569  1.00  0.00     0.127 S 
ATOM     67  O   UNL A   1      37.123  30.694  38.448  1.00  0.00    -0.237 OA
ATOM     68  O   UNL A   1      37.813  32.587  39.861  1.00  0.00    -0.237 OA
ATOM     69  O   UNL A   1      36.188  32.942  38.053  1.00  0.00    -0.744 OA
ENDBRANCH  63  66
ENDBRANCH  45  59
BRANCH  46  70
ATOM     70  C   UNL A   1      42.283  26.423  27.532  1.00  0.00     0.023 A 
ATOM     71  C   UNL A   1      42.973  27.045  26.473  1.00  0.00     0.012 A 
ATOM     72  C   UNL A   1      41.957  25.057  27.431  1.00  0.00     0.148 A 
ATOM     73  C   UNL A   1      43.305  26.328  25.323  1.00  0.00     0.002 A 
ATOM     74  C   UNL A   1      42.337  24.337  26.305  1.00  0.00     0.091 A 
ATOM     75  F   UNL A   1      41.276  24.488  28.436  1.00  0.00    -0.205 F 
ATOM     76  C   UNL A   1      42.998  24.972  25.244  1.00  0.00     0.022 A 
BRANCH  74  77
ATOM     77  S   UNL A   1      42.084  22.562  26.190  1.00  0.00     0.127 S 
ATOM     78  O   UNL A   1      42.725  22.248  24.916  1.00  0.00    -0.237 OA
ATOM     79  O   UNL A   1      42.792  22.069  27.372  1.00  0.00    -0.237 OA
ATOM     80  O   UNL A   1      40.639  22.379  26.245  1.00  0.00    -0.744 OA
ENDBRANCH  74  77
ENDBRANCH  46  70
BRANCH  58  81
ATOM     81  C   UNL A   1      45.011  26.898  33.932  1.00  0.00     0.023 A 
ATOM     82  C   UNL A   1      46.288  27.488  33.860  1.00  0.00     0.012 A 
ATOM     83  C   UNL A   1      44.834  25.723  34.689  1.00  0.00     0.148 A 
ATOM     84  C   UNL A   1      47.376  26.902  34.505  1.00  0.00     0.002 A 
ATOM     85  C   UNL A   1      45.916  25.169  35.365  1.00  0.00     0.091 A 
ATOM     86  F   UNL A   1      43.617  25.162  34.729  1.00  0.00    -0.205 F 
ATOM     87  C   UNL A   1      47.189  25.751  35.266  1.00  0.00     0.022 A 
BRANCH  85  88
ATOM     88  S   UNL A   1      45.732  23.741  36.440  1.00  0.00     0.127 S 
ATOM     89  O   UNL A   1      44.787  24.234  37.438  1.00  0.00    -0.237 OA
ATOM     90  O   UNL A   1      45.189  22.728  35.534  1.00  0.00    -0.237 OA
ATOM     91  O   UNL A   1      47.072  23.445  36.931  1.00  0.00    -0.744 OA
ENDBRANCH  85  88
ENDBRANCH  58  81
ENDBRANCH  32  33
ENDBRANCH  25  27
ENDBRANCH  24  25
ENDBRANCH  23  24
ENDBRANCH   1  23
TORSDOF 17
ENDMDL
MODEL 3
REMARK VINA RESULT:     -11.2      0.882      7.821
REMARK SMILES CC(=O)c1ccccc1S(=O)(=O)N1CCC(C(=O)OCCOC(=O)c2ccc(-c3c4nc(c(-c5cccc(S(=O)(=O)[O-])c5F)c5ccc([nH]5)c(-c5cccc(S(=O)(=O)[O-])c5F)c5nc(c(-c6cccc(S(=O)(=O)[O-])c6F)c6ccc3[nH]6)C=C5)C=C4)cc2)CC1
REMARK SMILES IDX 20 1 19 2 17 3 18 4 16 5 13 6 14 7 89 8 15 9 88 10 10 11
REMARK SMILES IDX 11 12 12 13 9 14 4 15 5 16 6 17 8 18 7 19 2 20 1 21 3 22
REMARK SMILES IDX 21 23 22 24 23 25 24 26 25 27 26 28 87 29 27 30 86 31 28 32
REMARK SMILES IDX 29 33 30 34 80 35 31 36 85 37 79 38 81 39 32 40 84 41 78 42
REMARK SMILES IDX 77 43 33 45 65 46 45 47 64 48 46 49 49 50 63 51 82 52 47 53
REMARK SMILES IDX 48 54 62 56 83 57 50 58 34 59 35 60 43 61 36 62 38 63 44 64
REMARK SMILES IDX 37 65 39 66 40 67 41 68 42 69 66 70 67 71 75 72 68 73 70 74
REMARK SMILES IDX 76 75 69 76 71 77 72 78 73 79 74 80 51 81 52 82 60 83 53 84
REMARK SMILES IDX 55 85 61 86 54 87 56 88 57 89 58 90 59 91
REMARK H PARENT 81 44 49 55
REMARK Flexibility Score: inf
ROOT
ATOM      1  C   UNL A   1      31.058  29.249  25.073  1.00  0.00     0.274 C 
ENDROOT
BRANCH   1   2
ATOM      2  O   UNL A   1      30.969  29.162  23.638  1.00  0.00    -0.462 OA
BRANCH   2   3
ATOM      3  C   UNL A   1      30.271  28.113  23.133  1.00  0.00     0.309 C 
ATOM      4  O   UNL A   1      29.138  28.195  22.675  1.00  0.00    -0.252 OA
BRANCH   3   5
ATOM      5  C   UNL A   1      31.038  26.803  23.178  1.00  0.00     0.102 C 
ATOM      6  N   UNL A   1      32.357  24.399  23.030  1.00  0.00    -0.198 NA
ATOM      7  C   UNL A   1      30.884  24.249  23.131  1.00  0.00     0.103 C 
ATOM      8  C   UNL A   1      32.779  25.406  22.000  1.00  0.00     0.103 C 
ATOM      9  C   UNL A   1      30.221  25.562  23.548  1.00  0.00     0.032 C 
ATOM     10  C   UNL A   1      31.775  26.557  21.869  1.00  0.00     0.032 C 
BRANCH   6  11
ATOM     11  S   UNL A   1      33.221  22.925  23.006  1.00  0.00     0.243 S 
ATOM     12  O   UNL A   1      34.518  23.184  22.412  1.00  0.00    -0.207 OA
ATOM     13  O   UNL A   1      32.354  21.907  22.450  1.00  0.00    -0.207 OA
BRANCH  11  14
ATOM     14  C   UNL A   1      33.524  22.387  24.667  1.00  0.00     0.093 A 
ATOM     15  C   UNL A   1      34.250  23.081  25.630  1.00  0.00     0.037 A 
ATOM     16  C   UNL A   1      34.346  22.576  26.939  1.00  0.00     0.013 A 
ATOM     17  C   UNL A   1      33.685  21.402  27.295  1.00  0.00     0.001 A 
ATOM     18  C   UNL A   1      32.867  21.197  25.037  1.00  0.00     0.022 A 
ATOM     19  C   UNL A   1      32.938  20.714  26.345  1.00  0.00     0.001 A 
BRANCH  15  20
ATOM     20  C   UNL A   1      34.874  24.392  25.424  1.00  0.00     0.161 C 
ATOM     21  C   UNL A   1      34.033  25.592  25.750  1.00  0.00     0.093 C 
ATOM     22  O   UNL A   1      36.062  24.453  25.129  1.00  0.00    -0.294 OA
ENDBRANCH  15  20
ENDBRANCH  11  14
ENDBRANCH   6  11
ENDBRANCH   3   5
ENDBRANCH   2   3
ENDBRANCH   1   2
BRANCH   1  23
ATOM     23  C   UNL A   1      32.320  30.007  25.496  1.00  0.00     0.275 C 
BRANCH  23  24
ATOM     24  O   UNL A   1      32.297  30.361  26.891  1.00  0.00    -0.458 OA
BRANCH  24  25
ATOM     25  C   UNL A   1      32.976  31.490  27.203  1.00  0.00     0.338 C 
ATOM     26  O   UNL A   1      32.559  32.635  27.155  1.00  0.00    -0.246 OA
BRANCH  25  27
ATOM     27  C   UNL A   1      34.324  31.165  27.689  1.00  0.00     0.060 A 
ATOM     28  C   UNL A   1      34.620  29.831  27.972  1.00  0.00     0.016 A 
ATOM     29  C   UNL A   1      35.236  32.174  28.000  1.00  0.00     0.016 A 
ATOM     30  C   UNL A   1      35.805  29.501  28.628  1.00  0.00     0.010 A 
ATOM     31  C   UNL A   1      36.440  31.838  28.630  1.00  0.00     0.010 A 
ATOM     32  C   UNL A   1      36.718  30.504  28.981  1.00  0.00    -0.014 A 
BRANCH  32  33
ATOM     33  C   UNL A   1      37.946  30.161  29.745  1.00  0.00     0.031 A 
ATOM     34  C   UNL A   1      38.964  29.217  29.162  1.00  0.00     0.074 A 
ATOM     35  C   UNL A   1      38.138  30.684  30.971  1.00  0.00     0.049 A 
ATOM     36  N   UNL A   1      40.066  28.758  29.698  1.00  0.00    -0.248 NA
ATOM     37  C   UNL A   1      38.709  28.716  27.802  1.00  0.00     0.031 C 
ATOM     38  C   UNL A   1      37.225  31.604  31.651  1.00  0.00     0.029 A 
ATOM     39  N   UNL A   1      39.158  30.499  31.873  1.00  0.00    -0.354 N 
ATOM     40  C   UNL A   1      40.607  27.879  28.769  1.00  0.00     0.074 A 
ATOM     41  C   UNL A   1      39.717  27.871  27.629  1.00  0.00     0.031 C 
ATOM     42  C   UNL A   1      37.719  31.894  32.865  1.00  0.00     0.029 A 
ATOM     43  C   UNL A   1      38.965  31.159  33.063  1.00  0.00     0.049 A 
ATOM     44  H   UNL A   1      39.951  29.947  31.684  1.00  0.00     0.167 HD
ATOM     45  C   UNL A   1      41.750  27.155  28.852  1.00  0.00     0.034 A 
ATOM     46  C   UNL A   1      39.698  31.159  34.194  1.00  0.00     0.034 A 
ATOM     47  C   UNL A   1      42.668  27.209  29.958  1.00  0.00     0.049 A 
ATOM     48  C   UNL A   1      40.973  30.361  34.243  1.00  0.00     0.074 A 
ATOM     49  C   UNL A   1      43.887  26.569  30.095  1.00  0.00     0.029 A 
ATOM     50  N   UNL A   1      42.470  27.943  31.117  1.00  0.00    -0.354 N 
ATOM     51  N   UNL A   1      41.533  29.640  33.303  1.00  0.00    -0.248 NA
ATOM     52  C   UNL A   1      41.733  30.402  35.501  1.00  0.00     0.031 C 
ATOM     53  C   UNL A   1      44.423  26.908  31.341  1.00  0.00     0.029 A 
ATOM     54  C   UNL A   1      43.542  27.767  31.976  1.00  0.00     0.049 A 
ATOM     55  H   UNL A   1      41.684  28.505  31.302  1.00  0.00     0.167 HD
ATOM     56  C   UNL A   1      42.729  29.177  33.840  1.00  0.00     0.074 A 
ATOM     57  C   UNL A   1      42.820  29.712  35.183  1.00  0.00     0.031 C 
ATOM     58  C   UNL A   1      43.658  28.365  33.279  1.00  0.00     0.034 A 
BRANCH  45  59
ATOM     59  C   UNL A   1      42.107  26.263  27.693  1.00  0.00     0.023 A 
ATOM     60  C   UNL A   1      42.945  26.753  26.671  1.00  0.00     0.012 A 
ATOM     61  C   UNL A   1      41.694  24.916  27.665  1.00  0.00     0.148 A 
ATOM     62  C   UNL A   1      43.352  25.921  25.629  1.00  0.00     0.002 A 
ATOM     63  C   UNL A   1      42.134  24.083  26.642  1.00  0.00     0.091 A 
ATOM     64  F   UNL A   1      40.881  24.476  28.635  1.00  0.00    -0.205 F 
ATOM     65  C   UNL A   1      42.957  24.585  25.620  1.00  0.00     0.022 A 
BRANCH  63  66
ATOM     66  S   UNL A   1      41.738  22.331  26.583  1.00  0.00     0.127 S 
ATOM     67  O   UNL A   1      42.456  21.906  25.383  1.00  0.00    -0.237 OA
ATOM     68  O   UNL A   1      42.308  21.842  27.839  1.00  0.00    -0.237 OA
ATOM     69  O   UNL A   1      40.286  22.252  26.505  1.00  0.00    -0.744 OA
ENDBRANCH  63  66
ENDBRANCH  45  59
BRANCH  46  70
ATOM     70  C   UNL A   1      39.274  31.986  35.358  1.00  0.00     0.023 A 
ATOM     71  C   UNL A   1      38.375  31.443  36.296  1.00  0.00     0.012 A 
ATOM     72  C   UNL A   1      39.761  33.293  35.549  1.00  0.00     0.148 A 
ATOM     73  C   UNL A   1      37.944  32.198  37.387  1.00  0.00     0.002 A 
ATOM     74  C   UNL A   1      39.367  34.021  36.666  1.00  0.00     0.091 A 
ATOM     75  F   UNL A   1      40.595  33.805  34.632  1.00  0.00    -0.205 F 
ATOM     76  C   UNL A   1      38.448  33.482  37.578  1.00  0.00     0.022 A 
BRANCH  74  77
ATOM     77  S   UNL A   1      40.072  35.631  37.041  1.00  0.00     0.127 S 
ATOM     78  O   UNL A   1      39.657  36.418  35.883  1.00  0.00    -0.237 OA
ATOM     79  O   UNL A   1      39.403  35.980  38.295  1.00  0.00    -0.237 OA
ATOM     80  O   UNL A   1      41.504  35.395  37.177  1.00  0.00    -0.744 OA
ENDBRANCH  74  77
ENDBRANCH  46  70
BRANCH  58  81
ATOM     81  C   UNL A   1      44.883  28.038  34.092  1.00  0.00     0.023 A 
ATOM     82  C   UNL A   1      46.005  28.887  34.036  1.00  0.00     0.012 A 
ATOM     83  C   UNL A   1      44.895  26.933  34.965  1.00  0.00     0.148 A 
ATOM     84  C   UNL A   1      47.132  28.624  34.814  1.00  0.00     0.002 A 
ATOM     85  C   UNL A   1      46.004  26.702  35.770  1.00  0.00     0.091 A 
ATOM     86  F   UNL A   1      43.826  26.122  34.989  1.00  0.00    -0.205 F 
ATOM     87  C   UNL A   1      47.127  27.539  35.689  1.00  0.00     0.022 A 
BRANCH  85  88
ATOM     88  S   UNL A   1      46.036  25.381  36.987  1.00  0.00     0.127 S 
ATOM     89  O   UNL A   1      47.249  25.693  37.739  1.00  0.00    -0.237 OA
ATOM     90  O   UNL A   1      44.790  25.597  37.724  1.00  0.00    -0.237 OA
ATOM     91  O   UNL A   1      46.069  24.141  36.221  1.00  0.00    -0.744 OA
ENDBRANCH  85  88
ENDBRANCH  58  81
ENDBRANCH  32  33
ENDBRANCH  25  27
ENDBRANCH  24  25
ENDBRANCH  23  24
ENDBRANCH   1  23
TORSDOF 17
ENDMDL
