MODEL 1
REMARK VINA RESULT:     -13.0      0.000      0.000
REMARK SMILES CC1=C(C)C[C@@H](C(=O)OCCOC(=O)c2ccc(-c3c4nc(c(-c5cccc(S(=O)(=O)[O-])c5F)c5ccc([nH]5)c(-c5cccc(S(=O)(=O)[O-])c5F)c5nc(c(-c6cccc(S(=O)(=O)[O-])c6F)c6ccc3[nH]6)C=C5)C=C4)cc2)[C@@H](C(=O)N2CCN(c3cccc(C(F)(F)F)c3)CC2)C1
REMARK SMILES IDX 10 1 9 2 7 3 8 4 6 5 1 6 2 7 3 8 97 9 4 10 5 11 78 12 79 13
REMARK SMILES IDX 80 14 81 15 82 16 96 17 83 18 95 19 84 20 85 21 86 22 94 23
REMARK SMILES IDX 87 24 89 25 88 26 90 27 91 28 92 29 93 30 11 31 12 32 13 33
REMARK SMILES IDX 14 34 15 35 16 36 77 37 17 38 76 39 18 40 19 41 20 42 70 43
REMARK SMILES IDX 21 44 75 45 69 46 71 47 22 48 74 49 68 50 67 51 23 53 55 54
REMARK SMILES IDX 35 55 54 56 36 57 39 58 53 59 72 60 37 61 38 62 52 64 73 65
REMARK SMILES IDX 40 66 24 67 25 68 33 69 26 70 28 71 34 72 27 73 29 74 30 75
REMARK SMILES IDX 31 76 32 77 56 78 57 79 65 80 58 81 60 82 66 83 59 84 61 85
REMARK SMILES IDX 62 86 63 87 64 88 41 89 42 90 50 91 43 92 45 93 51 94 44 95
REMARK SMILES IDX 46 96 47 97 48 98 49 99
REMARK H PARENT 71 52 39 63
REMARK Flexibility Score: inf
ROOT
ATOM      1  C   UNL A   1      33.116  29.034  24.786  1.00  0.00     0.274 C 
ENDROOT
BRANCH   1   2
ATOM      2  O   UNL A   1      32.905  29.326  23.381  1.00  0.00    -0.462 OA
BRANCH   2   3
ATOM      3  C   UNL A   1      32.631  28.290  22.569  1.00  0.00     0.310 C 
ATOM      4  O   UNL A   1      33.506  27.641  22.004  1.00  0.00    -0.252 OA
BRANCH   3   5
ATOM      5  C   UNL A   1      31.145  27.982  22.380  1.00  0.00     0.116 C 
ATOM      6  C   UNL A   1      26.940  28.203  23.865  1.00  0.00     0.039 C 
ATOM      7  C   UNL A   1      28.321  28.210  23.262  1.00  0.00    -0.074 C 
ATOM      8  C   UNL A   1      29.007  29.344  23.029  1.00  0.00    -0.073 C 
ATOM      9  C   UNL A   1      28.905  26.858  22.920  1.00  0.00     0.045 C 
ATOM     10  C   UNL A   1      28.460  30.739  23.213  1.00  0.00     0.039 C 
ATOM     11  C   UNL A   1      30.419  29.334  22.517  1.00  0.00     0.046 C 
ATOM     12  C   UNL A   1      30.440  26.762  23.026  1.00  0.00     0.097 C 
BRANCH  12  13
ATOM     13  C   UNL A   1      30.763  26.222  24.424  1.00  0.00     0.227 C 
ATOM     14  O   UNL A   1      30.328  26.763  25.442  1.00  0.00    -0.275 OA
ATOM     15  N   UNL A   1      31.687  25.224  24.514  1.00  0.00    -0.339 N 
ATOM     16  C   UNL A   1      31.266  23.939  25.019  1.00  0.00     0.141 C 
ATOM     17  C   UNL A   1      33.114  25.442  24.707  1.00  0.00     0.141 C 
ATOM     18  C   UNL A   1      31.839  22.914  24.049  1.00  0.00     0.138 C 
ATOM     19  C   UNL A   1      33.938  24.340  23.997  1.00  0.00     0.138 C 
ATOM     20  N   UNL A   1      33.308  23.003  24.056  1.00  0.00    -0.368 N 
BRANCH  20  21
ATOM     21  C   UNL A   1      33.892  21.865  24.563  1.00  0.00     0.037 A 
ATOM     22  C   UNL A   1      35.238  21.925  24.955  1.00  0.00     0.026 A 
ATOM     23  C   UNL A   1      33.276  20.620  24.447  1.00  0.00     0.039 A 
ATOM     24  C   UNL A   1      35.977  20.769  25.173  1.00  0.00     0.003 A 
ATOM     25  C   UNL A   1      34.017  19.442  24.631  1.00  0.00     0.058 A 
ATOM     26  C   UNL A   1      35.371  19.530  24.999  1.00  0.00     0.013 A 
BRANCH  25  27
ATOM     27  C   UNL A   1      33.386  18.099  24.390  1.00  0.00     0.416 C 
ATOM     28  F   UNL A   1      33.203  17.833  23.065  1.00  0.00    -0.166 F 
ATOM     29  F   UNL A   1      34.143  17.076  24.874  1.00  0.00    -0.166 F 
ATOM     30  F   UNL A   1      32.158  17.960  24.965  1.00  0.00    -0.166 F 
ENDBRANCH  25  27
ENDBRANCH  20  21
ENDBRANCH  12  13
ENDBRANCH   3   5
ENDBRANCH   2   3
ENDBRANCH   1   2
BRANCH   1  31
ATOM     31  C   UNL A   1      32.223  29.951  25.632  1.00  0.00     0.275 C 
BRANCH  31  32
ATOM     32  O   UNL A   1      32.793  30.086  26.937  1.00  0.00    -0.458 OA
BRANCH  32  33
ATOM     33  C   UNL A   1      33.305  31.313  27.203  1.00  0.00     0.338 C 
ATOM     34  O   UNL A   1      32.733  32.388  27.172  1.00  0.00    -0.246 OA
BRANCH  33  35
ATOM     35  C   UNL A   1      34.578  31.064  27.881  1.00  0.00     0.060 A 
ATOM     36  C   UNL A   1      34.870  29.760  28.305  1.00  0.00     0.016 A 
ATOM     37  C   UNL A   1      35.512  32.091  27.984  1.00  0.00     0.016 A 
ATOM     38  C   UNL A   1      36.114  29.472  28.844  1.00  0.00     0.010 A 
ATOM     39  C   UNL A   1      36.752  31.807  28.522  1.00  0.00     0.010 A 
ATOM     40  C   UNL A   1      37.043  30.506  28.970  1.00  0.00    -0.014 A 
BRANCH  40  41
ATOM     41  C   UNL A   1      38.286  30.317  29.727  1.00  0.00     0.031 A 
ATOM     42  C   UNL A   1      39.297  29.383  29.141  1.00  0.00     0.074 A 
ATOM     43  C   UNL A   1      38.410  30.862  30.946  1.00  0.00     0.049 A 
ATOM     44  N   UNL A   1      40.324  28.815  29.704  1.00  0.00    -0.248 NA
ATOM     45  C   UNL A   1      39.086  28.998  27.732  1.00  0.00     0.031 C 
ATOM     46  C   UNL A   1      37.454  31.785  31.561  1.00  0.00     0.029 A 
ATOM     47  N   UNL A   1      39.364  30.671  31.906  1.00  0.00    -0.354 N 
ATOM     48  C   UNL A   1      40.843  27.956  28.744  1.00  0.00     0.074 A 
ATOM     49  C   UNL A   1      40.013  28.069  27.566  1.00  0.00     0.031 C 
ATOM     50  C   UNL A   1      37.853  32.051  32.816  1.00  0.00     0.029 A 
ATOM     51  C   UNL A   1      39.057  31.279  33.100  1.00  0.00     0.049 A 
ATOM     52  H   UNL A   1      40.187  30.151  31.757  1.00  0.00     0.167 HD
ATOM     53  C   UNL A   1      41.923  27.149  28.848  1.00  0.00     0.034 A 
ATOM     54  C   UNL A   1      39.672  31.177  34.293  1.00  0.00     0.034 A 
ATOM     55  C   UNL A   1      42.724  27.086  30.038  1.00  0.00     0.049 A 
ATOM     56  C   UNL A   1      40.880  30.285  34.381  1.00  0.00     0.074 A 
ATOM     57  C   UNL A   1      43.870  26.355  30.276  1.00  0.00     0.029 A 
ATOM     58  N   UNL A   1      42.446  27.794  31.203  1.00  0.00    -0.354 N 
ATOM     59  N   UNL A   1      41.419  29.531  33.449  1.00  0.00    -0.248 NA
ATOM     60  C   UNL A   1      41.582  30.247  35.668  1.00  0.00     0.031 C 
ATOM     61  C   UNL A   1      44.272  26.603  31.594  1.00  0.00     0.029 A 
ATOM     62  C   UNL A   1      43.398  27.519  32.165  1.00  0.00     0.049 A 
ATOM     63  H   UNL A   1      41.682  28.403  31.324  1.00  0.00     0.167 HD
ATOM     64  C   UNL A   1      42.546  28.960  34.022  1.00  0.00     0.074 A 
ATOM     65  C   UNL A   1      42.617  29.468  35.380  1.00  0.00     0.031 C 
ATOM     66  C   UNL A   1      43.442  28.090  33.490  1.00  0.00     0.034 A 
BRANCH  53  67
ATOM     67  C   UNL A   1      42.277  26.302  27.653  1.00  0.00     0.023 A 
ATOM     68  C   UNL A   1      42.957  26.878  26.559  1.00  0.00     0.012 A 
ATOM     69  C   UNL A   1      41.928  24.938  27.602  1.00  0.00     0.148 A 
ATOM     70  C   UNL A   1      43.235  26.129  25.415  1.00  0.00     0.002 A 
ATOM     71  C   UNL A   1      42.256  24.183  26.480  1.00  0.00     0.091 A 
ATOM     72  F   UNL A   1      41.258  24.409  28.636  1.00  0.00    -0.205 F 
ATOM     73  C   UNL A   1      42.892  24.780  25.380  1.00  0.00     0.022 A 
BRANCH  71  74
ATOM     74  S   UNL A   1      41.927  22.421  26.365  1.00  0.00     0.127 S 
ATOM     75  O   UNL A   1      42.552  21.922  27.590  1.00  0.00    -0.237 OA
ATOM     76  O   UNL A   1      40.465  22.382  26.367  1.00  0.00    -0.237 OA
ATOM     77  O   UNL A   1      42.545  21.976  25.124  1.00  0.00    -0.744 OA
ENDBRANCH  71  74
ENDBRANCH  53  67
BRANCH  54  78
ATOM     78  C   UNL A   1      39.190  31.980  35.451  1.00  0.00     0.023 A 
ATOM     79  C   UNL A   1      38.281  31.396  36.354  1.00  0.00     0.012 A 
ATOM     80  C   UNL A   1      39.667  33.282  35.704  1.00  0.00     0.148 A 
ATOM     81  C   UNL A   1      37.836  32.100  37.474  1.00  0.00     0.002 A 
ATOM     82  C   UNL A   1      39.258  33.959  36.849  1.00  0.00     0.091 A 
ATOM     83  F   UNL A   1      40.529  33.824  34.833  1.00  0.00    -0.205 F 
ATOM     84  C   UNL A   1      38.332  33.375  37.727  1.00  0.00     0.022 A 
BRANCH  82  85
ATOM     85  S   UNL A   1      39.934  35.555  37.327  1.00  0.00     0.127 S 
ATOM     86  O   UNL A   1      39.204  35.831  38.561  1.00  0.00    -0.237 OA
ATOM     87  O   UNL A   1      41.352  35.240  37.507  1.00  0.00    -0.237 OA
ATOM     88  O   UNL A   1      39.653  36.452  36.215  1.00  0.00    -0.744 OA
ENDBRANCH  82  85
ENDBRANCH  54  78
BRANCH  66  89
ATOM     89  C   UNL A   1      44.595  27.680  34.363  1.00  0.00     0.023 A 
ATOM     90  C   UNL A   1      45.770  28.455  34.390  1.00  0.00     0.012 A 
ATOM     91  C   UNL A   1      44.474  26.564  35.214  1.00  0.00     0.148 A 
ATOM     92  C   UNL A   1      46.824  28.105  35.231  1.00  0.00     0.002 A 
ATOM     93  C   UNL A   1      45.505  26.255  36.089  1.00  0.00     0.091 A 
ATOM     94  F   UNL A   1      43.351  25.832  35.155  1.00  0.00    -0.205 F 
ATOM     95  C   UNL A   1      46.687  27.015  36.088  1.00  0.00     0.022 A 
BRANCH  93  96
ATOM     96  S   UNL A   1      45.370  24.940  37.302  1.00  0.00     0.127 S 
ATOM     97  O   UNL A   1      44.242  25.395  38.111  1.00  0.00    -0.237 OA
ATOM     98  O   UNL A   1      45.089  23.774  36.462  1.00  0.00    -0.237 OA
ATOM     99  O   UNL A   1      46.654  24.892  37.990  1.00  0.00    -0.744 OA
ENDBRANCH  93  96
ENDBRANCH  66  89
ENDBRANCH  40  41
ENDBRANCH  33  35
ENDBRANCH  32  33
ENDBRANCH  31  32
ENDBRANCH   1  31
TORSDOF 17
ENDMDL
MODEL 2
REMARK VINA RESULT:     -12.4      2.234      3.126
REMARK SMILES CC1=C(C)C[C@@H](C(=O)OCCOC(=O)c2ccc(-c3c4nc(c(-c5cccc(S(=O)(=O)[O-])c5F)c5ccc([nH]5)c(-c5cccc(S(=O)(=O)[O-])c5F)c5nc(c(-c6cccc(S(=O)(=O)[O-])c6F)c6ccc3[nH]6)C=C5)C=C4)cc2)[C@@H](C(=O)N2CCN(c3cccc(C(F)(F)F)c3)CC2)C1
REMARK SMILES IDX 10 1 9 2 7 3 8 4 6 5 1 6 2 7 3 8 97 9 4 10 5 11 78 12 79 13
REMARK SMILES IDX 80 14 81 15 82 16 96 17 83 18 95 19 84 20 85 21 86 22 94 23
REMARK SMILES IDX 87 24 89 25 88 26 90 27 91 28 92 29 93 30 11 31 12 32 13 33
REMARK SMILES IDX 14 34 15 35 16 36 77 37 17 38 76 39 18 40 19 41 20 42 70 43
REMARK SMILES IDX 21 44 75 45 69 46 71 47 22 48 74 49 68 50 67 51 23 53 55 54
REMARK SMILES IDX 35 55 54 56 36 57 39 58 53 59 72 60 37 61 38 62 52 64 73 65
REMARK SMILES IDX 40 66 24 67 25 68 33 69 26 70 28 71 34 72 27 73 29 74 30 75
REMARK SMILES IDX 31 76 32 77 56 78 57 79 65 80 58 81 60 82 66 83 59 84 61 85
REMARK SMILES IDX 62 86 63 87 64 88 41 89 42 90 50 91 43 92 45 93 51 94 44 95
REMARK SMILES IDX 46 96 47 97 48 98 49 99
REMARK H PARENT 71 52 39 63
REMARK Flexibility Score: inf
ROOT
ATOM      1  C   UNL A   1      32.786  28.270  24.897  1.00  0.00     0.274 C 
ENDROOT
BRANCH   1   2
ATOM      2  O   UNL A   1      31.588  27.620  25.395  1.00  0.00    -0.462 OA
BRANCH   2   3
ATOM      3  C   UNL A   1      30.636  27.310  24.498  1.00  0.00     0.310 C 
ATOM      4  O   UNL A   1      30.029  28.161  23.854  1.00  0.00    -0.252 OA
BRANCH   3   5
ATOM      5  C   UNL A   1      30.343  25.816  24.343  1.00  0.00     0.116 C 
ATOM      6  C   UNL A   1      31.637  21.567  24.784  1.00  0.00     0.039 C 
ATOM      7  C   UNL A   1      31.106  22.975  24.730  1.00  0.00    -0.074 C 
ATOM      8  C   UNL A   1      31.029  23.766  25.816  1.00  0.00    -0.073 C 
ATOM      9  C   UNL A   1      30.651  23.464  23.374  1.00  0.00     0.045 C 
ATOM     10  C   UNL A   1      31.332  23.327  27.228  1.00  0.00     0.039 C 
ATOM     11  C   UNL A   1      30.587  25.199  25.734  1.00  0.00     0.046 C 
ATOM     12  C   UNL A   1      30.821  24.977  23.131  1.00  0.00     0.097 C 
BRANCH  12  13
ATOM     13  C   UNL A   1      32.168  25.173  22.425  1.00  0.00     0.227 C 
ATOM     14  O   UNL A   1      32.259  25.807  21.372  1.00  0.00    -0.275 OA
ATOM     15  N   UNL A   1      33.238  24.482  22.909  1.00  0.00    -0.339 N 
ATOM     16  C   UNL A   1      34.352  25.224  23.449  1.00  0.00     0.141 C 
ATOM     17  C   UNL A   1      33.641  23.163  22.442  1.00  0.00     0.141 C 
ATOM     18  C   UNL A   1      34.686  24.549  24.773  1.00  0.00     0.138 C 
ATOM     19  C   UNL A   1      34.269  22.341  23.594  1.00  0.00     0.138 C 
ATOM     20  N   UNL A   1      35.083  23.154  24.522  1.00  0.00    -0.368 N 
BRANCH  20  21
ATOM     21  C   UNL A   1      36.404  22.929  24.836  1.00  0.00     0.037 A 
ATOM     22  C   UNL A   1      36.895  21.618  24.746  1.00  0.00     0.026 A 
ATOM     23  C   UNL A   1      37.171  23.896  25.483  1.00  0.00     0.039 A 
ATOM     24  C   UNL A   1      38.101  21.258  25.336  1.00  0.00     0.003 A 
ATOM     25  C   UNL A   1      38.374  23.542  26.114  1.00  0.00     0.058 A 
ATOM     26  C   UNL A   1      38.832  22.216  26.030  1.00  0.00     0.013 A 
BRANCH  25  27
ATOM     27  C   UNL A   1      39.143  24.557  26.913  1.00  0.00     0.416 C 
ATOM     28  F   UNL A   1      39.847  23.997  27.937  1.00  0.00    -0.166 F 
ATOM     29  F   UNL A   1      40.056  25.228  26.157  1.00  0.00    -0.166 F 
ATOM     30  F   UNL A   1      38.359  25.513  27.486  1.00  0.00    -0.166 F 
ENDBRANCH  25  27
ENDBRANCH  20  21
ENDBRANCH  12  13
ENDBRANCH   3   5
ENDBRANCH   2   3
ENDBRANCH   1   2
BRANCH   1  31
ATOM     31  C   UNL A   1      32.793  29.735  25.356  1.00  0.00     0.275 C 
BRANCH  31  32
ATOM     32  O   UNL A   1      33.200  29.796  26.725  1.00  0.00    -0.458 OA
BRANCH  32  33
ATOM     33  C   UNL A   1      33.525  31.037  27.161  1.00  0.00     0.338 C 
ATOM     34  O   UNL A   1      32.798  32.008  27.274  1.00  0.00    -0.246 OA
BRANCH  33  35
ATOM     35  C   UNL A   1      34.830  30.892  27.809  1.00  0.00     0.060 A 
ATOM     36  C   UNL A   1      35.236  29.617  28.224  1.00  0.00     0.016 A 
ATOM     37  C   UNL A   1      35.680  31.992  27.892  1.00  0.00     0.016 A 
ATOM     38  C   UNL A   1      36.512  29.430  28.733  1.00  0.00     0.010 A 
ATOM     39  C   UNL A   1      36.952  31.809  28.399  1.00  0.00     0.010 A 
ATOM     40  C   UNL A   1      37.357  30.536  28.839  1.00  0.00    -0.014 A 
BRANCH  40  41
ATOM     41  C   UNL A   1      38.629  30.448  29.566  1.00  0.00     0.031 A 
ATOM     42  C   UNL A   1      39.688  29.578  28.969  1.00  0.00     0.074 A 
ATOM     43  C   UNL A   1      38.744  31.022  30.772  1.00  0.00     0.049 A 
ATOM     44  N   UNL A   1      40.767  29.093  29.513  1.00  0.00    -0.248 NA
ATOM     45  C   UNL A   1      39.470  29.154  27.572  1.00  0.00     0.031 C 
ATOM     46  C   UNL A   1      37.742  31.887  31.397  1.00  0.00     0.029 A 
ATOM     47  N   UNL A   1      39.733  30.916  31.709  1.00  0.00    -0.354 N 
ATOM     48  C   UNL A   1      41.321  28.256  28.554  1.00  0.00     0.074 A 
ATOM     49  C   UNL A   1      40.456  28.289  27.397  1.00  0.00     0.031 C 
ATOM     50  C   UNL A   1      38.152  32.203  32.637  1.00  0.00     0.029 A 
ATOM     51  C   UNL A   1      39.414  31.523  32.901  1.00  0.00     0.049 A 
ATOM     52  H   UNL A   1      40.587  30.453  31.547  1.00  0.00     0.167 HD
ATOM     53  C   UNL A   1      42.458  27.529  28.643  1.00  0.00     0.034 A 
ATOM     54  C   UNL A   1      40.064  31.485  34.079  1.00  0.00     0.034 A 
ATOM     55  C   UNL A   1      43.291  27.544  29.813  1.00  0.00     0.049 A 
ATOM     56  C   UNL A   1      41.334  30.682  34.150  1.00  0.00     0.074 A 
ATOM     57  C   UNL A   1      44.491  26.900  30.032  1.00  0.00     0.029 A 
ATOM     58  N   UNL A   1      42.992  28.251  30.973  1.00  0.00    -0.354 N 
ATOM     59  N   UNL A   1      41.902  29.951  33.216  1.00  0.00    -0.248 NA
ATOM     60  C   UNL A   1      42.069  30.717  35.419  1.00  0.00     0.031 C 
ATOM     61  C   UNL A   1      44.908  27.199  31.334  1.00  0.00     0.029 A 
ATOM     62  C   UNL A   1      43.986  28.061  31.913  1.00  0.00     0.049 A 
ATOM     63  H   UNL A   1      42.191  28.807  31.104  1.00  0.00     0.167 HD
ATOM     64  C   UNL A   1      43.081  29.471  33.769  1.00  0.00     0.074 A 
ATOM     65  C   UNL A   1      43.149  30.008  35.116  1.00  0.00     0.031 C 
ATOM     66  C   UNL A   1      44.022  28.657  33.227  1.00  0.00     0.034 A 
BRANCH  53  67
ATOM     67  C   UNL A   1      42.841  26.687  27.453  1.00  0.00     0.023 A 
ATOM     68  C   UNL A   1      43.233  27.309  26.248  1.00  0.00     0.012 A 
ATOM     69  C   UNL A   1      42.802  25.281  27.517  1.00  0.00     0.148 A 
ATOM     70  C   UNL A   1      43.527  26.551  25.114  1.00  0.00     0.002 A 
ATOM     71  C   UNL A   1      43.148  24.529  26.398  1.00  0.00     0.091 A 
ATOM     72  F   UNL A   1      42.402  24.702  28.658  1.00  0.00    -0.205 F 
ATOM     73  C   UNL A   1      43.493  25.161  25.193  1.00  0.00     0.022 A 
BRANCH  71  74
ATOM     74  S   UNL A   1      43.211  22.734  26.415  1.00  0.00     0.127 S 
ATOM     75  O   UNL A   1      44.637  22.489  26.625  1.00  0.00    -0.237 OA
ATOM     76  O   UNL A   1      42.361  22.409  27.561  1.00  0.00    -0.237 OA
ATOM     77  O   UNL A   1      42.686  22.300  25.128  1.00  0.00    -0.744 OA
ENDBRANCH  71  74
ENDBRANCH  53  67
BRANCH  54  78
ATOM     78  C   UNL A   1      39.556  32.273  35.237  1.00  0.00     0.023 A 
ATOM     79  C   UNL A   1      38.695  31.650  36.159  1.00  0.00     0.012 A 
ATOM     80  C   UNL A   1      39.964  33.602  35.469  1.00  0.00     0.148 A 
ATOM     81  C   UNL A   1      38.228  32.340  37.279  1.00  0.00     0.002 A 
ATOM     82  C   UNL A   1      39.535  34.268  36.613  1.00  0.00     0.091 A 
ATOM     83  F   UNL A   1      40.782  34.181  34.579  1.00  0.00    -0.205 F 
ATOM     84  C   UNL A   1      38.656  33.644  37.511  1.00  0.00     0.022 A 
BRANCH  82  85
ATOM     85  S   UNL A   1      40.128  35.904  37.064  1.00  0.00     0.127 S 
ATOM     86  O   UNL A   1      39.714  36.701  35.913  1.00  0.00    -0.237 OA
ATOM     87  O   UNL A   1      39.382  36.167  38.295  1.00  0.00    -0.237 OA
ATOM     88  O   UNL A   1      41.566  35.765  37.250  1.00  0.00    -0.744 OA
ENDBRANCH  82  85
ENDBRANCH  54  78
BRANCH  66  89
ATOM     89  C   UNL A   1      45.223  28.345  34.076  1.00  0.00     0.023 A 
ATOM     90  C   UNL A   1      46.346  29.194  34.049  1.00  0.00     0.012 A 
ATOM     91  C   UNL A   1      45.197  27.247  34.959  1.00  0.00     0.148 A 
ATOM     92  C   UNL A   1      47.443  28.934  34.867  1.00  0.00     0.002 A 
ATOM     93  C   UNL A   1      46.269  27.028  35.811  1.00  0.00     0.091 A 
ATOM     94  F   UNL A   1      44.122  26.445  34.951  1.00  0.00    -0.205 F 
ATOM     95  C   UNL A   1      47.400  27.861  35.756  1.00  0.00     0.022 A 
BRANCH  93  96
ATOM     96  S   UNL A   1      46.253  25.740  37.060  1.00  0.00     0.127 S 
ATOM     97  O   UNL A   1      45.113  26.138  37.883  1.00  0.00    -0.237 OA
ATOM     98  O   UNL A   1      46.036  24.536  36.258  1.00  0.00    -0.237 OA
ATOM     99  O   UNL A   1      47.551  25.801  37.719  1.00  0.00    -0.744 OA
ENDBRANCH  93  96
ENDBRANCH  66  89
ENDBRANCH  40  41
ENDBRANCH  33  35
ENDBRANCH  32  33
ENDBRANCH  31  32
ENDBRANCH   1  31
TORSDOF 17
ENDMDL
MODEL 3
REMARK VINA RESULT:     -12.2      1.844      2.156
REMARK SMILES CC1=C(C)C[C@@H](C(=O)OCCOC(=O)c2ccc(-c3c4nc(c(-c5cccc(S(=O)(=O)[O-])c5F)c5ccc([nH]5)c(-c5cccc(S(=O)(=O)[O-])c5F)c5nc(c(-c6cccc(S(=O)(=O)[O-])c6F)c6ccc3[nH]6)C=C5)C=C4)cc2)[C@@H](C(=O)N2CCN(c3cccc(C(F)(F)F)c3)CC2)C1
REMARK SMILES IDX 10 1 9 2 7 3 8 4 6 5 1 6 2 7 3 8 97 9 4 10 5 11 78 12 79 13
REMARK SMILES IDX 80 14 81 15 82 16 96 17 83 18 95 19 84 20 85 21 86 22 94 23
REMARK SMILES IDX 87 24 89 25 88 26 90 27 91 28 92 29 93 30 11 31 12 32 13 33
REMARK SMILES IDX 14 34 15 35 16 36 77 37 17 38 76 39 18 40 19 41 20 42 70 43
REMARK SMILES IDX 21 44 75 45 69 46 71 47 22 48 74 49 68 50 67 51 23 53 55 54
REMARK SMILES IDX 35 55 54 56 36 57 39 58 53 59 72 60 37 61 38 62 52 64 73 65
REMARK SMILES IDX 40 66 24 67 25 68 33 69 26 70 28 71 34 72 27 73 29 74 30 75
REMARK SMILES IDX 31 76 32 77 56 78 57 79 65 80 58 81 60 82 66 83 59 84 61 85
REMARK SMILES IDX 62 86 63 87 64 88 41 89 42 90 50 91 43 92 45 93 51 94 44 95
REMARK SMILES IDX 46 96 47 97 48 98 49 99
REMARK H PARENT 71 52 39 63
REMARK Flexibility Score: inf
ROOT
ATOM      1  C   UNL A   1      32.726  29.011  25.144  1.00  0.00     0.274 C 
ENDROOT
BRANCH   1   2
ATOM      2  O   UNL A   1      32.963  29.361  23.757  1.00  0.00    -0.462 OA
BRANCH   2   3
ATOM      3  C   UNL A   1      32.716  28.418  22.832  1.00  0.00     0.310 C 
ATOM      4  O   UNL A   1      33.608  27.780  22.281  1.00  0.00    -0.252 OA
BRANCH   3   5
ATOM      5  C   UNL A   1      31.239  28.204  22.493  1.00  0.00     0.116 C 
ATOM      6  C   UNL A   1      26.936  28.510  23.639  1.00  0.00     0.039 C 
ATOM      7  C   UNL A   1      28.362  28.499  23.156  1.00  0.00    -0.074 C 
ATOM      8  C   UNL A   1      29.115  29.612  23.084  1.00  0.00    -0.073 C 
ATOM      9  C   UNL A   1      28.915  27.154  22.741  1.00  0.00     0.045 C 
ATOM     10  C   UNL A   1      28.615  31.012  23.348  1.00  0.00     0.039 C 
ATOM     11  C   UNL A   1      30.564  29.575  22.692  1.00  0.00     0.046 C 
ATOM     12  C   UNL A   1      30.428  26.970  22.965  1.00  0.00     0.097 C 
BRANCH  12  13
ATOM     13  C   UNL A   1      30.606  26.295  24.330  1.00  0.00     0.227 C 
ATOM     14  O   UNL A   1      30.125  26.778  25.357  1.00  0.00    -0.275 OA
ATOM     15  N   UNL A   1      31.455  25.232  24.400  1.00  0.00    -0.339 N 
ATOM     16  C   UNL A   1      30.917  23.942  24.757  1.00  0.00     0.141 C 
ATOM     17  C   UNL A   1      32.873  25.335  24.716  1.00  0.00     0.141 C 
ATOM     18  C   UNL A   1      31.501  22.964  23.746  1.00  0.00     0.138 C 
ATOM     19  C   UNL A   1      33.681  24.242  23.976  1.00  0.00     0.138 C 
ATOM     20  N   UNL A   1      32.967  22.951  23.870  1.00  0.00    -0.368 N 
BRANCH  20  21
ATOM     21  C   UNL A   1      33.437  21.737  24.316  1.00  0.00     0.037 A 
ATOM     22  C   UNL A   1      34.752  21.670  24.801  1.00  0.00     0.026 A 
ATOM     23  C   UNL A   1      32.752  20.553  24.053  1.00  0.00     0.039 A 
ATOM     24  C   UNL A   1      35.397  20.451  24.970  1.00  0.00     0.003 A 
ATOM     25  C   UNL A   1      33.399  19.315  24.186  1.00  0.00     0.058 A 
ATOM     26  C   UNL A   1      34.725  19.276  24.650  1.00  0.00     0.013 A 
BRANCH  25  27
ATOM     27  C   UNL A   1      32.701  18.043  23.790  1.00  0.00     0.416 C 
ATOM     28  F   UNL A   1      33.571  17.042  23.474  1.00  0.00    -0.166 F 
ATOM     29  F   UNL A   1      31.914  17.551  24.787  1.00  0.00    -0.166 F 
ATOM     30  F   UNL A   1      31.888  18.179  22.705  1.00  0.00    -0.166 F 
ENDBRANCH  25  27
ENDBRANCH  20  21
ENDBRANCH  12  13
ENDBRANCH   3   5
ENDBRANCH   2   3
ENDBRANCH   1   2
BRANCH   1  31
ATOM     31  C   UNL A   1      32.698  30.291  25.991  1.00  0.00     0.275 C 
BRANCH  31  32
ATOM     32  O   UNL A   1      33.645  30.169  27.056  1.00  0.00    -0.458 OA
BRANCH  32  33
ATOM     33  C   UNL A   1      34.068  31.349  27.571  1.00  0.00     0.338 C 
ATOM     34  O   UNL A   1      33.418  32.362  27.760  1.00  0.00    -0.246 OA
BRANCH  33  35
ATOM     35  C   UNL A   1      35.365  31.062  28.187  1.00  0.00     0.060 A 
ATOM     36  C   UNL A   1      35.616  29.763  28.648  1.00  0.00     0.016 A 
ATOM     37  C   UNL A   1      36.352  32.044  28.195  1.00  0.00     0.016 A 
ATOM     38  C   UNL A   1      36.874  29.433  29.127  1.00  0.00     0.010 A 
ATOM     39  C   UNL A   1      37.606  31.718  28.674  1.00  0.00     0.010 A 
ATOM     40  C   UNL A   1      37.858  30.422  29.159  1.00  0.00    -0.014 A 
BRANCH  40  41
ATOM     41  C   UNL A   1      39.133  30.199  29.853  1.00  0.00     0.031 A 
ATOM     42  C   UNL A   1      40.073  29.213  29.236  1.00  0.00     0.074 A 
ATOM     43  C   UNL A   1      39.344  30.765  31.050  1.00  0.00     0.049 A 
ATOM     44  N   UNL A   1      41.105  28.616  29.756  1.00  0.00    -0.248 NA
ATOM     45  C   UNL A   1      39.770  28.806  27.849  1.00  0.00     0.031 C 
ATOM     46  C   UNL A   1      38.460  31.740  31.693  1.00  0.00     0.029 A 
ATOM     47  N   UNL A   1      40.340  30.557  31.961  1.00  0.00    -0.354 N 
ATOM     48  C   UNL A   1      41.537  27.716  28.790  1.00  0.00     0.074 A 
ATOM     49  C   UNL A   1      40.649  27.837  27.657  1.00  0.00     0.031 C 
ATOM     50  C   UNL A   1      38.937  32.017  32.918  1.00  0.00     0.029 A 
ATOM     51  C   UNL A   1      40.123  31.203  33.155  1.00  0.00     0.049 A 
ATOM     52  H   UNL A   1      41.133  30.001  31.781  1.00  0.00     0.167 HD
ATOM     53  C   UNL A   1      42.589  26.868  28.856  1.00  0.00     0.034 A 
ATOM     54  C   UNL A   1      40.797  31.102  34.315  1.00  0.00     0.034 A 
ATOM     55  C   UNL A   1      43.451  26.799  30.003  1.00  0.00     0.049 A 
ATOM     56  C   UNL A   1      41.973  30.163  34.360  1.00  0.00     0.074 A 
ATOM     57  C   UNL A   1      44.578  26.028  30.196  1.00  0.00     0.029 A 
ATOM     58  N   UNL A   1      43.264  27.543  31.163  1.00  0.00    -0.354 N 
ATOM     59  N   UNL A   1      42.430  29.368  33.419  1.00  0.00    -0.248 NA
ATOM     60  C   UNL A   1      42.742  30.125  35.608  1.00  0.00     0.031 C 
ATOM     61  C   UNL A   1      45.061  26.288  31.484  1.00  0.00     0.029 A 
ATOM     62  C   UNL A   1      44.256  27.250  32.079  1.00  0.00     0.049 A 
ATOM     63  H   UNL A   1      42.533  28.185  31.310  1.00  0.00     0.167 HD
ATOM     64  C   UNL A   1      43.564  28.764  33.944  1.00  0.00     0.074 A 
ATOM     65  C   UNL A   1      43.728  29.299  35.284  1.00  0.00     0.031 C 
ATOM     66  C   UNL A   1      44.395  27.848  33.386  1.00  0.00     0.034 A 
BRANCH  53  67
ATOM     67  C   UNL A   1      42.844  25.982  27.664  1.00  0.00     0.023 A 
ATOM     68  C   UNL A   1      43.637  26.451  26.595  1.00  0.00     0.012 A 
ATOM     69  C   UNL A   1      42.291  24.689  27.591  1.00  0.00     0.148 A 
ATOM     70  C   UNL A   1      43.831  25.673  25.453  1.00  0.00     0.002 A 
ATOM     71  C   UNL A   1      42.532  23.897  26.472  1.00  0.00     0.091 A 
ATOM     72  F   UNL A   1      41.517  24.264  28.600  1.00  0.00    -0.205 F 
ATOM     73  C   UNL A   1      43.285  24.393  25.396  1.00  0.00     0.022 A 
BRANCH  71  74
ATOM     74  S   UNL A   1      41.939  22.207  26.332  1.00  0.00     0.127 S 
ATOM     75  O   UNL A   1      42.580  21.770  25.091  1.00  0.00    -0.237 OA
ATOM     76  O   UNL A   1      42.478  21.592  27.545  1.00  0.00    -0.237 OA
ATOM     77  O   UNL A   1      40.486  22.292  26.287  1.00  0.00    -0.744 OA
ENDBRANCH  71  74
ENDBRANCH  53  67
BRANCH  54  78
ATOM     78  C   UNL A   1      40.412  31.949  35.478  1.00  0.00     0.023 A 
ATOM     79  C   UNL A   1      41.132  33.132  35.727  1.00  0.00     0.012 A 
ATOM     80  C   UNL A   1      39.309  31.633  36.296  1.00  0.00     0.148 A 
ATOM     81  C   UNL A   1      40.779  33.975  36.782  1.00  0.00     0.002 A 
ATOM     82  C   UNL A   1      38.931  32.501  37.316  1.00  0.00     0.091 A 
ATOM     83  F   UNL A   1      38.637  30.500  36.048  1.00  0.00    -0.205 F 
ATOM     84  C   UNL A   1      39.674  33.665  37.569  1.00  0.00     0.022 A 
BRANCH  82  85
ATOM     85  S   UNL A   1      37.450  32.254  38.304  1.00  0.00     0.127 S 
ATOM     86  O   UNL A   1      37.283  30.804  38.235  1.00  0.00    -0.237 OA
ATOM     87  O   UNL A   1      37.869  32.764  39.609  1.00  0.00    -0.237 OA
ATOM     88  O   UNL A   1      36.408  33.039  37.657  1.00  0.00    -0.744 OA
ENDBRANCH  82  85
ENDBRANCH  54  78
BRANCH  66  89
ATOM     89  C   UNL A   1      45.576  27.410  34.205  1.00  0.00     0.023 A 
ATOM     90  C   UNL A   1      45.472  26.290  35.052  1.00  0.00     0.012 A 
ATOM     91  C   UNL A   1      46.813  28.071  34.069  1.00  0.00     0.148 A 
ATOM     92  C   UNL A   1      46.577  25.854  35.780  1.00  0.00     0.002 A 
ATOM     93  C   UNL A   1      47.922  27.596  34.753  1.00  0.00     0.091 A 
ATOM     94  F   UNL A   1      46.880  29.146  33.269  1.00  0.00    -0.205 F 
ATOM     95  C   UNL A   1      47.803  26.498  35.621  1.00  0.00     0.022 A 
BRANCH  93  96
ATOM     96  S   UNL A   1      49.560  28.293  34.524  1.00  0.00     0.127 S 
ATOM     97  O   UNL A   1      49.901  27.818  33.185  1.00  0.00    -0.237 OA
ATOM     98  O   UNL A   1      49.298  29.730  34.613  1.00  0.00    -0.237 OA
ATOM     99  O   UNL A   1      50.379  27.761  35.604  1.00  0.00    -0.744 OA
ENDBRANCH  93  96
ENDBRANCH  66  89
ENDBRANCH  40  41
ENDBRANCH  33  35
ENDBRANCH  32  33
ENDBRANCH  31  32
ENDBRANCH   1  31
TORSDOF 17
ENDMDL
