MODEL 1
REMARK VINA RESULT:     -11.4      0.000      0.000
REMARK SMILES CC(C)(CC(=O)OCCOC(=O)c1ccc(-c2c3nc(c(-c4cccc(S(=O)(=O)[O-])c4F)c4ccc([nH]4)c(-c4cccc(S(=O)(=O)[O-])c4F)c4nc(c(-c5cccc(S(=O)(=O)[O-])c5F)c5ccc2[nH]5)C=C4)C=C3)cc1)Cc1nc([C@@]2(C)CCCO2)no1
REMARK SMILES IDX 8 1 7 2 5 3 6 4 4 5 2 6 1 7 3 8 76 9 77 10 78 11 87 12 79 13
REMARK SMILES IDX 86 14 80 15 81 16 82 17 85 18 83 19 84 20 9 21 10 22 11 23
REMARK SMILES IDX 12 24 13 25 14 26 75 27 15 28 74 29 16 30 17 31 18 32 68 33
REMARK SMILES IDX 19 34 73 35 67 36 69 37 20 38 72 39 66 40 65 41 21 43 53 44
REMARK SMILES IDX 33 45 52 46 34 47 37 48 51 49 70 50 35 51 36 52 50 54 71 55
REMARK SMILES IDX 38 56 22 57 23 58 31 59 24 60 26 61 32 62 25 63 27 64 28 65
REMARK SMILES IDX 29 66 30 67 54 68 55 69 63 70 56 71 58 72 64 73 57 74 59 75
REMARK SMILES IDX 60 76 61 77 62 78 39 79 40 80 48 81 41 82 43 83 49 84 42 85
REMARK SMILES IDX 44 86 45 87 46 88 47 89
REMARK H PARENT 69 42 37 53
REMARK Flexibility Score: inf
ROOT
ATOM      1  C   UNL A   1      32.600  30.832  26.904  1.00  0.00     0.274 C 
ENDROOT
BRANCH   1   2
ATOM      2  O   UNL A   1      31.516  29.874  26.883  1.00  0.00    -0.462 OA
BRANCH   2   3
ATOM      3  C   UNL A   1      31.810  28.651  27.378  1.00  0.00     0.306 C 
ATOM      4  O   UNL A   1      31.083  28.028  28.149  1.00  0.00    -0.252 OA
BRANCH   3   5
ATOM      5  C   UNL A   1      33.084  28.019  26.843  1.00  0.00     0.129 C 
BRANCH   5   6
ATOM      6  C   UNL A   1      33.200  27.185  25.533  1.00  0.00    -0.016 C 
ATOM      7  C   UNL A   1      34.353  26.177  25.602  1.00  0.00     0.012 C 
ATOM      8  C   UNL A   1      31.880  26.343  25.509  1.00  0.00     0.012 C 
BRANCH   6   9
ATOM      9  C   UNL A   1      33.151  28.000  24.197  1.00  0.00     0.107 C 
BRANCH   9  10
ATOM     10  C   UNL A   1      31.869  28.233  23.470  1.00  0.00     0.227 A 
ATOM     11  N   UNL A   1      30.905  29.072  23.782  1.00  0.00    -0.193 NA
ATOM     12  O   UNL A   1      31.531  27.410  22.436  1.00  0.00    -0.339 OA
ATOM     13  C   UNL A   1      29.962  28.836  22.813  1.00  0.00     0.203 A 
ATOM     14  N   UNL A   1      30.275  27.824  21.983  1.00  0.00    -0.059 NA
BRANCH  13  15
ATOM     15  C   UNL A   1      28.731  29.701  22.642  1.00  0.00     0.128 C 
ATOM     16  C   UNL A   1      27.455  28.959  23.083  1.00  0.00     0.051 C 
ATOM     17  C   UNL A   1      28.854  31.027  23.411  1.00  0.00     0.046 C 
ATOM     18  O   UNL A   1      28.517  30.082  21.255  1.00  0.00    -0.367 OA
ATOM     19  C   UNL A   1      28.025  31.984  22.593  1.00  0.00     0.032 C 
ATOM     20  C   UNL A   1      28.264  31.491  21.186  1.00  0.00     0.161 C 
ENDBRANCH  13  15
ENDBRANCH   9  10
ENDBRANCH   6   9
ENDBRANCH   5   6
ENDBRANCH   3   5
ENDBRANCH   2   3
ENDBRANCH   1   2
BRANCH   1  21
ATOM     21  C   UNL A   1      32.072  32.259  27.120  1.00  0.00     0.275 C 
BRANCH  21  22
ATOM     22  O   UNL A   1      33.075  33.299  27.082  1.00  0.00    -0.458 OA
BRANCH  22  23
ATOM     23  C   UNL A   1      33.328  33.869  28.273  1.00  0.00     0.338 C 
ATOM     24  O   UNL A   1      32.660  34.720  28.834  1.00  0.00    -0.246 OA
BRANCH  23  25
ATOM     25  C   UNL A   1      34.517  33.408  28.963  1.00  0.00     0.060 A 
ATOM     26  C   UNL A   1      35.746  33.684  28.349  1.00  0.00     0.016 A 
ATOM     27  C   UNL A   1      34.403  32.469  29.986  1.00  0.00     0.016 A 
ATOM     28  C   UNL A   1      36.885  33.013  28.769  1.00  0.00     0.010 A 
ATOM     29  C   UNL A   1      35.548  31.802  30.408  1.00  0.00     0.010 A 
ATOM     30  C   UNL A   1      36.786  32.073  29.802  1.00  0.00    -0.014 A 
BRANCH  30  31
ATOM     31  C   UNL A   1      38.010  31.499  30.386  1.00  0.00     0.031 A 
ATOM     32  C   UNL A   1      38.769  30.409  29.705  1.00  0.00     0.074 A 
ATOM     33  C   UNL A   1      38.350  31.948  31.607  1.00  0.00     0.049 A 
ATOM     34  N   UNL A   1      39.799  29.738  30.148  1.00  0.00    -0.248 NA
ATOM     35  C   UNL A   1      38.323  30.015  28.360  1.00  0.00     0.031 C 
ATOM     36  C   UNL A   1      37.630  32.994  32.340  1.00  0.00     0.029 A 
ATOM     37  N   UNL A   1      39.343  31.560  32.461  1.00  0.00    -0.354 N 
ATOM     38  C   UNL A   1      40.116  28.828  29.150  1.00  0.00     0.074 A 
ATOM     39  C   UNL A   1      39.171  29.033  28.073  1.00  0.00     0.031 C 
ATOM     40  C   UNL A   1      38.179  33.132  33.553  1.00  0.00     0.029 A 
ATOM     41  C   UNL A   1      39.269  32.174  33.686  1.00  0.00     0.049 A 
ATOM     42  H   UNL A   1      40.040  30.907  32.222  1.00  0.00     0.167 HD
ATOM     43  C   UNL A   1      41.118  27.917  29.143  1.00  0.00     0.034 A 
ATOM     44  C   UNL A   1      39.987  31.970  34.805  1.00  0.00     0.034 A 
ATOM     45  C   UNL A   1      42.054  27.750  30.226  1.00  0.00     0.049 A 
ATOM     46  C   UNL A   1      41.100  30.970  34.760  1.00  0.00     0.074 A 
ATOM     47  C   UNL A   1      43.134  26.889  30.306  1.00  0.00     0.029 A 
ATOM     48  N   UNL A   1      42.017  28.457  31.419  1.00  0.00    -0.354 N 
ATOM     49  N   UNL A   1      41.465  30.198  33.763  1.00  0.00    -0.248 NA
ATOM     50  C   UNL A   1      41.924  30.836  35.965  1.00  0.00     0.031 C 
ATOM     51  C   UNL A   1      43.752  27.080  31.547  1.00  0.00     0.029 A 
ATOM     52  C   UNL A   1      43.054  28.056  32.242  1.00  0.00     0.049 A 
ATOM     53  H   UNL A   1      41.349  29.144  31.646  1.00  0.00     0.167 HD
ATOM     54  C   UNL A   1      42.579  29.504  34.210  1.00  0.00     0.074 A 
ATOM     55  C   UNL A   1      42.835  29.957  35.565  1.00  0.00     0.031 C 
ATOM     56  C   UNL A   1      43.313  28.566  33.565  1.00  0.00     0.034 A 
BRANCH  43  57
ATOM     57  C   UNL A   1      41.299  27.074  27.912  1.00  0.00     0.023 A 
ATOM     58  C   UNL A   1      41.918  27.642  26.781  1.00  0.00     0.012 A 
ATOM     59  C   UNL A   1      40.945  25.712  27.895  1.00  0.00     0.148 A 
ATOM     60  C   UNL A   1      42.175  26.869  25.648  1.00  0.00     0.002 A 
ATOM     61  C   UNL A   1      41.227  24.941  26.770  1.00  0.00     0.091 A 
ATOM     62  F   UNL A   1      40.328  25.193  28.967  1.00  0.00    -0.205 F 
ATOM     63  C   UNL A   1      41.841  25.517  25.647  1.00  0.00     0.022 A 
BRANCH  61  64
ATOM     64  S   UNL A   1      40.878  23.177  26.719  1.00  0.00     0.127 S 
ATOM     65  O   UNL A   1      41.365  22.739  28.025  1.00  0.00    -0.237 OA
ATOM     66  O   UNL A   1      39.422  23.143  26.571  1.00  0.00    -0.237 OA
ATOM     67  O   UNL A   1      41.606  22.673  25.563  1.00  0.00    -0.744 OA
ENDBRANCH  61  64
ENDBRANCH  43  57
BRANCH  44  68
ATOM     68  C   UNL A   1      39.695  32.802  36.000  1.00  0.00     0.023 A 
ATOM     69  C   UNL A   1      40.112  34.145  36.015  1.00  0.00     0.012 A 
ATOM     70  C   UNL A   1      38.881  32.322  37.043  1.00  0.00     0.148 A 
ATOM     71  C   UNL A   1      39.724  34.995  37.051  1.00  0.00     0.002 A 
ATOM     72  C   UNL A   1      38.454  33.187  38.044  1.00  0.00     0.091 A 
ATOM     73  F   UNL A   1      38.497  31.036  37.019  1.00  0.00    -0.205 F 
ATOM     74  C   UNL A   1      38.882  34.522  38.055  1.00  0.00     0.022 A 
BRANCH  72  75
ATOM     75  S   UNL A   1      37.239  32.661  39.259  1.00  0.00     0.127 S 
ATOM     76  O   UNL A   1      37.728  31.339  39.629  1.00  0.00    -0.237 OA
ATOM     77  O   UNL A   1      37.366  33.678  40.304  1.00  0.00    -0.237 OA
ATOM     78  O   UNL A   1      35.967  32.707  38.545  1.00  0.00    -0.744 OA
ENDBRANCH  72  75
ENDBRANCH  44  68
BRANCH  56  79
ATOM     79  C   UNL A   1      44.470  27.974  34.315  1.00  0.00     0.023 A 
ATOM     80  C   UNL A   1      45.712  28.634  34.289  1.00  0.00     0.012 A 
ATOM     81  C   UNL A   1      44.309  26.815  35.097  1.00  0.00     0.148 A 
ATOM     82  C   UNL A   1      46.788  28.137  35.023  1.00  0.00     0.002 A 
ATOM     83  C   UNL A   1      45.379  26.343  35.847  1.00  0.00     0.091 A 
ATOM     84  F   UNL A   1      43.123  26.189  35.083  1.00  0.00    -0.205 F 
ATOM     85  C   UNL A   1      46.619  27.000  35.809  1.00  0.00     0.022 A 
BRANCH  83  86
ATOM     86  S   UNL A   1      45.213  24.922  36.934  1.00  0.00     0.127 S 
ATOM     87  O   UNL A   1      46.608  24.620  37.245  1.00  0.00    -0.237 OA
ATOM     88  O   UNL A   1      44.443  25.466  38.054  1.00  0.00    -0.237 OA
ATOM     89  O   UNL A   1      44.504  23.916  36.155  1.00  0.00    -0.744 OA
ENDBRANCH  83  86
ENDBRANCH  56  79
ENDBRANCH  30  31
ENDBRANCH  23  25
ENDBRANCH  22  23
ENDBRANCH  21  22
ENDBRANCH   1  21
TORSDOF 18
ENDMDL
MODEL 2
REMARK VINA RESULT:     -11.3      6.040     10.983
REMARK SMILES CC(C)(CC(=O)OCCOC(=O)c1ccc(-c2c3nc(c(-c4cccc(S(=O)(=O)[O-])c4F)c4ccc([nH]4)c(-c4cccc(S(=O)(=O)[O-])c4F)c4nc(c(-c5cccc(S(=O)(=O)[O-])c5F)c5ccc2[nH]5)C=C4)C=C3)cc1)Cc1nc([C@@]2(C)CCCO2)no1
REMARK SMILES IDX 8 1 7 2 5 3 6 4 4 5 2 6 1 7 3 8 76 9 77 10 78 11 87 12 79 13
REMARK SMILES IDX 86 14 80 15 81 16 82 17 85 18 83 19 84 20 9 21 10 22 11 23
REMARK SMILES IDX 12 24 13 25 14 26 75 27 15 28 74 29 16 30 17 31 18 32 68 33
REMARK SMILES IDX 19 34 73 35 67 36 69 37 20 38 72 39 66 40 65 41 21 43 53 44
REMARK SMILES IDX 33 45 52 46 34 47 37 48 51 49 70 50 35 51 36 52 50 54 71 55
REMARK SMILES IDX 38 56 22 57 23 58 31 59 24 60 26 61 32 62 25 63 27 64 28 65
REMARK SMILES IDX 29 66 30 67 54 68 55 69 63 70 56 71 58 72 64 73 57 74 59 75
REMARK SMILES IDX 60 76 61 77 62 78 39 79 40 80 48 81 41 82 43 83 49 84 42 85
REMARK SMILES IDX 44 86 45 87 46 88 47 89
REMARK H PARENT 69 42 37 53
REMARK Flexibility Score: inf
ROOT
ATOM      1  C   UNL A   1      36.108  21.767  24.381  1.00  0.00     0.274 C 
ENDROOT
BRANCH   1   2
ATOM      2  O   UNL A   1      35.568  22.667  25.376  1.00  0.00    -0.462 OA
BRANCH   2   3
ATOM      3  C   UNL A   1      35.031  23.812  24.897  1.00  0.00     0.306 C 
ATOM      4  O   UNL A   1      34.889  24.836  25.561  1.00  0.00    -0.252 OA
BRANCH   3   5
ATOM      5  C   UNL A   1      34.684  23.801  23.418  1.00  0.00     0.129 C 
BRANCH   5   6
ATOM      6  C   UNL A   1      33.297  24.167  22.810  1.00  0.00    -0.016 C 
ATOM      7  C   UNL A   1      33.085  25.684  22.755  1.00  0.00     0.012 C 
ATOM      8  C   UNL A   1      33.402  23.682  21.325  1.00  0.00     0.012 C 
BRANCH   6   9
ATOM      9  C   UNL A   1      32.072  23.377  23.379  1.00  0.00     0.107 C 
BRANCH   9  10
ATOM     10  C   UNL A   1      32.222  22.008  23.953  1.00  0.00     0.227 A 
ATOM     11  N   UNL A   1      32.365  20.872  23.305  1.00  0.00    -0.193 NA
ATOM     12  O   UNL A   1      32.054  21.826  25.294  1.00  0.00    -0.339 OA
ATOM     13  C   UNL A   1      32.405  19.941  24.313  1.00  0.00     0.203 A 
ATOM     14  N   UNL A   1      32.198  20.457  25.538  1.00  0.00    -0.059 NA
BRANCH  13  15
ATOM     15  C   UNL A   1      32.745  18.486  24.070  1.00  0.00     0.128 C 
ATOM     16  C   UNL A   1      32.417  18.065  22.625  1.00  0.00     0.051 C 
ATOM     17  C   UNL A   1      34.222  18.187  24.377  1.00  0.00     0.046 C 
ATOM     18  O   UNL A   1      31.987  17.594  24.932  1.00  0.00    -0.367 OA
ATOM     19  C   UNL A   1      34.203  16.744  24.811  1.00  0.00     0.032 C 
ATOM     20  C   UNL A   1      32.878  16.644  25.529  1.00  0.00     0.161 C 
ENDBRANCH  13  15
ENDBRANCH   9  10
ENDBRANCH   6   9
ENDBRANCH   5   6
ENDBRANCH   3   5
ENDBRANCH   2   3
ENDBRANCH   1   2
BRANCH   1  21
ATOM     21  C   UNL A   1      37.446  21.171  24.844  1.00  0.00     0.275 C 
BRANCH  21  22
ATOM     22  O   UNL A   1      37.930  21.655  26.117  1.00  0.00    -0.458 OA
BRANCH  22  23
ATOM     23  C   UNL A   1      39.264  21.580  26.268  1.00  0.00     0.338 C 
ATOM     24  O   UNL A   1      39.959  20.586  26.143  1.00  0.00    -0.246 OA
BRANCH  23  25
ATOM     25  C   UNL A   1      39.940  22.817  26.603  1.00  0.00     0.060 A 
ATOM     26  C   UNL A   1      40.801  22.783  27.708  1.00  0.00     0.016 A 
ATOM     27  C   UNL A   1      39.493  24.019  26.059  1.00  0.00     0.016 A 
ATOM     28  C   UNL A   1      41.229  23.972  28.277  1.00  0.00     0.010 A 
ATOM     29  C   UNL A   1      39.929  25.211  26.629  1.00  0.00     0.010 A 
ATOM     30  C   UNL A   1      40.795  25.188  27.735  1.00  0.00    -0.014 A 
BRANCH  30  31
ATOM     31  C   UNL A   1      41.390  26.451  28.203  1.00  0.00     0.031 A 
ATOM     32  C   UNL A   1      40.569  27.509  28.865  1.00  0.00     0.074 A 
ATOM     33  C   UNL A   1      42.691  26.633  27.920  1.00  0.00     0.049 A 
ATOM     34  N   UNL A   1      40.936  28.708  29.233  1.00  0.00    -0.248 NA
ATOM     35  C   UNL A   1      39.162  27.191  29.150  1.00  0.00     0.031 C 
ATOM     36  C   UNL A   1      43.543  25.647  27.248  1.00  0.00     0.029 A 
ATOM     37  N   UNL A   1      43.509  27.711  28.111  1.00  0.00    -0.354 N 
ATOM     38  C   UNL A   1      39.804  29.300  29.775  1.00  0.00     0.074 A 
ATOM     39  C   UNL A   1      38.735  28.327  29.693  1.00  0.00     0.031 C 
ATOM     40  C   UNL A   1      44.752  26.183  27.043  1.00  0.00     0.029 A 
ATOM     41  C   UNL A   1      44.750  27.550  27.548  1.00  0.00     0.049 A 
ATOM     42  H   UNL A   1      43.236  28.519  28.603  1.00  0.00     0.167 HD
ATOM     43  C   UNL A   1      39.687  30.541  30.302  1.00  0.00     0.034 A 
ATOM     44  C   UNL A   1      45.770  28.419  27.430  1.00  0.00     0.034 A 
ATOM     45  C   UNL A   1      40.776  31.481  30.385  1.00  0.00     0.049 A 
ATOM     46  C   UNL A   1      45.617  29.777  28.040  1.00  0.00     0.074 A 
ATOM     47  C   UNL A   1      40.780  32.749  30.939  1.00  0.00     0.029 A 
ATOM     48  N   UNL A   1      42.054  31.255  29.895  1.00  0.00    -0.354 N 
ATOM     49  N   UNL A   1      44.575  30.283  28.659  1.00  0.00    -0.248 NA
ATOM     50  C   UNL A   1      46.778  30.671  27.976  1.00  0.00     0.031 C 
ATOM     51  C   UNL A   1      42.063  33.286  30.788  1.00  0.00     0.029 A 
ATOM     52  C   UNL A   1      42.857  32.356  30.135  1.00  0.00     0.049 A 
ATOM     53  H   UNL A   1      42.346  30.431  29.443  1.00  0.00     0.167 HD
ATOM     54  C   UNL A   1      44.962  31.544  29.083  1.00  0.00     0.074 A 
ATOM     55  C   UNL A   1      46.339  31.721  28.660  1.00  0.00     0.031 C 
ATOM     56  C   UNL A   1      44.240  32.478  29.748  1.00  0.00     0.034 A 
BRANCH  43  57
ATOM     57  C   UNL A   1      38.360  30.939  30.887  1.00  0.00     0.023 A 
ATOM     58  C   UNL A   1      38.118  30.700  32.253  1.00  0.00     0.012 A 
ATOM     59  C   UNL A   1      37.394  31.621  30.123  1.00  0.00     0.148 A 
ATOM     60  C   UNL A   1      36.931  31.126  32.851  1.00  0.00     0.002 A 
ATOM     61  C   UNL A   1      36.223  32.065  30.731  1.00  0.00     0.091 A 
ATOM     62  F   UNL A   1      37.625  31.813  28.816  1.00  0.00    -0.205 F 
ATOM     63  C   UNL A   1      35.989  31.818  32.093  1.00  0.00     0.022 A 
BRANCH  61  64
ATOM     64  S   UNL A   1      34.990  33.016  29.831  1.00  0.00     0.127 S 
ATOM     65  O   UNL A   1      34.472  32.022  28.895  1.00  0.00    -0.237 OA
ATOM     66  O   UNL A   1      34.052  33.405  30.885  1.00  0.00    -0.237 OA
ATOM     67  O   UNL A   1      35.719  34.131  29.241  1.00  0.00    -0.744 OA
ENDBRANCH  61  64
ENDBRANCH  43  57
BRANCH  44  68
ATOM     68  C   UNL A   1      47.022  27.963  26.775  1.00  0.00     0.023 A 
ATOM     69  C   UNL A   1      47.969  27.252  27.534  1.00  0.00     0.012 A 
ATOM     70  C   UNL A   1      47.209  28.092  25.386  1.00  0.00     0.148 A 
ATOM     71  C   UNL A   1      49.082  26.678  26.919  1.00  0.00     0.002 A 
ATOM     72  C   UNL A   1      48.292  27.473  24.772  1.00  0.00     0.091 A 
ATOM     73  F   UNL A   1      46.301  28.780  24.677  1.00  0.00    -0.205 F 
ATOM     74  C   UNL A   1      49.235  26.773  25.537  1.00  0.00     0.022 A 
BRANCH  72  75
ATOM     75  S   UNL A   1      48.434  27.431  22.981  1.00  0.00     0.127 S 
ATOM     76  O   UNL A   1      48.329  26.004  22.699  1.00  0.00    -0.237 OA
ATOM     77  O   UNL A   1      47.286  28.229  22.547  1.00  0.00    -0.237 OA
ATOM     78  O   UNL A   1      49.723  28.055  22.703  1.00  0.00    -0.744 OA
ENDBRANCH  72  75
ENDBRANCH  44  68
BRANCH  56  79
ATOM     79  C   UNL A   1      44.931  33.771  30.067  1.00  0.00     0.023 A 
ATOM     80  C   UNL A   1      45.753  33.846  31.206  1.00  0.00     0.012 A 
ATOM     81  C   UNL A   1      44.824  34.880  29.208  1.00  0.00     0.148 A 
ATOM     82  C   UNL A   1      46.451  35.017  31.496  1.00  0.00     0.002 A 
ATOM     83  C   UNL A   1      45.545  36.035  29.488  1.00  0.00     0.091 A 
ATOM     84  F   UNL A   1      44.011  34.795  28.144  1.00  0.00    -0.205 F 
ATOM     85  C   UNL A   1      46.356  36.106  30.632  1.00  0.00     0.022 A 
BRANCH  83  86
ATOM     86  S   UNL A   1      45.522  37.452  28.384  1.00  0.00     0.127 S 
ATOM     87  O   UNL A   1      46.416  38.380  29.072  1.00  0.00    -0.237 OA
ATOM     88  O   UNL A   1      46.059  36.896  27.141  1.00  0.00    -0.237 OA
ATOM     89  O   UNL A   1      44.125  37.858  28.302  1.00  0.00    -0.744 OA
ENDBRANCH  83  86
ENDBRANCH  56  79
ENDBRANCH  30  31
ENDBRANCH  23  25
ENDBRANCH  22  23
ENDBRANCH  21  22
ENDBRANCH   1  21
TORSDOF 18
ENDMDL
MODEL 3
REMARK VINA RESULT:     -11.1      1.560      2.062
REMARK SMILES CC(C)(CC(=O)OCCOC(=O)c1ccc(-c2c3nc(c(-c4cccc(S(=O)(=O)[O-])c4F)c4ccc([nH]4)c(-c4cccc(S(=O)(=O)[O-])c4F)c4nc(c(-c5cccc(S(=O)(=O)[O-])c5F)c5ccc2[nH]5)C=C4)C=C3)cc1)Cc1nc([C@@]2(C)CCCO2)no1
REMARK SMILES IDX 8 1 7 2 5 3 6 4 4 5 2 6 1 7 3 8 76 9 77 10 78 11 87 12 79 13
REMARK SMILES IDX 86 14 80 15 81 16 82 17 85 18 83 19 84 20 9 21 10 22 11 23
REMARK SMILES IDX 12 24 13 25 14 26 75 27 15 28 74 29 16 30 17 31 18 32 68 33
REMARK SMILES IDX 19 34 73 35 67 36 69 37 20 38 72 39 66 40 65 41 21 43 53 44
REMARK SMILES IDX 33 45 52 46 34 47 37 48 51 49 70 50 35 51 36 52 50 54 71 55
REMARK SMILES IDX 38 56 22 57 23 58 31 59 24 60 26 61 32 62 25 63 27 64 28 65
REMARK SMILES IDX 29 66 30 67 54 68 55 69 63 70 56 71 58 72 64 73 57 74 59 75
REMARK SMILES IDX 60 76 61 77 62 78 39 79 40 80 48 81 41 82 43 83 49 84 42 85
REMARK SMILES IDX 44 86 45 87 46 88 47 89
REMARK H PARENT 69 42 37 53
REMARK Flexibility Score: inf
ROOT
ATOM      1  C   UNL A   1      31.592  29.121  26.059  1.00  0.00     0.274 C 
ENDROOT
BRANCH   1   2
ATOM      2  O   UNL A   1      32.899  28.538  25.852  1.00  0.00    -0.462 OA
BRANCH   2   3
ATOM      3  C   UNL A   1      32.907  27.224  25.532  1.00  0.00     0.306 C 
ATOM      4  O   UNL A   1      33.780  26.687  24.854  1.00  0.00    -0.252 OA
BRANCH   3   5
ATOM      5  C   UNL A   1      31.796  26.394  26.153  1.00  0.00     0.129 C 
BRANCH   5   6
ATOM      6  C   UNL A   1      31.078  25.190  25.474  1.00  0.00    -0.016 C 
ATOM      7  C   UNL A   1      31.724  23.855  25.859  1.00  0.00     0.012 C 
ATOM      8  C   UNL A   1      29.653  25.194  26.122  1.00  0.00     0.012 C 
BRANCH   6   9
ATOM      9  C   UNL A   1      30.795  25.339  23.941  1.00  0.00     0.107 C 
BRANCH   9  10
ATOM     10  C   UNL A   1      30.360  26.637  23.348  1.00  0.00     0.227 A 
ATOM     11  N   UNL A   1      29.192  27.230  23.472  1.00  0.00    -0.193 NA
ATOM     12  O   UNL A   1      31.169  27.260  22.444  1.00  0.00    -0.339 OA
ATOM     13  C   UNL A   1      29.327  28.349  22.689  1.00  0.00     0.203 A 
ATOM     14  N   UNL A   1      30.494  28.410  22.023  1.00  0.00    -0.059 NA
BRANCH  13  15
ATOM     15  C   UNL A   1      28.293  29.455  22.659  1.00  0.00     0.128 C 
ATOM     16  C   UNL A   1      26.918  28.953  23.139  1.00  0.00     0.051 C 
ATOM     17  C   UNL A   1      28.728  30.667  23.500  1.00  0.00     0.046 C 
ATOM     18  O   UNL A   1      28.086  29.975  21.317  1.00  0.00    -0.367 OA
ATOM     19  C   UNL A   1      28.071  31.830  22.803  1.00  0.00     0.032 C 
ATOM     20  C   UNL A   1      28.126  31.407  21.354  1.00  0.00     0.161 C 
ENDBRANCH  13  15
ENDBRANCH   9  10
ENDBRANCH   6   9
ENDBRANCH   5   6
ENDBRANCH   3   5
ENDBRANCH   2   3
ENDBRANCH   1   2
BRANCH   1  21
ATOM     21  C   UNL A   1      31.689  30.643  26.251  1.00  0.00     0.275 C 
BRANCH  21  22
ATOM     22  O   UNL A   1      33.010  31.203  26.073  1.00  0.00    -0.458 OA
BRANCH  22  23
ATOM     23  C   UNL A   1      33.464  31.897  27.131  1.00  0.00     0.338 C 
ATOM     24  O   UNL A   1      32.911  32.831  27.686  1.00  0.00    -0.246 OA
BRANCH  23  25
ATOM     25  C   UNL A   1      34.742  31.477  27.671  1.00  0.00     0.060 A 
ATOM     26  C   UNL A   1      34.805  30.180  28.198  1.00  0.00     0.016 A 
ATOM     27  C   UNL A   1      35.726  32.427  27.939  1.00  0.00     0.016 A 
ATOM     28  C   UNL A   1      35.874  29.823  29.006  1.00  0.00     0.010 A 
ATOM     29  C   UNL A   1      36.800  32.063  28.744  1.00  0.00     0.010 A 
ATOM     30  C   UNL A   1      36.875  30.765  29.276  1.00  0.00    -0.014 A 
BRANCH  30  31
ATOM     31  C   UNL A   1      38.106  30.345  29.967  1.00  0.00     0.031 A 
ATOM     32  C   UNL A   1      39.070  29.389  29.344  1.00  0.00     0.074 A 
ATOM     33  C   UNL A   1      38.264  30.798  31.222  1.00  0.00     0.049 A 
ATOM     34  N   UNL A   1      40.136  28.852  29.874  1.00  0.00    -0.248 NA
ATOM     35  C   UNL A   1      38.812  28.980  27.955  1.00  0.00     0.031 C 
ATOM     36  C   UNL A   1      37.340  31.712  31.900  1.00  0.00     0.029 A 
ATOM     37  N   UNL A   1      39.216  30.521  32.163  1.00  0.00    -0.354 N 
ATOM     38  C   UNL A   1      40.669  28.024  28.896  1.00  0.00     0.074 A 
ATOM     39  C   UNL A   1      39.811  28.132  27.735  1.00  0.00     0.031 C 
ATOM     40  C   UNL A   1      37.747  31.886  33.164  1.00  0.00     0.029 A 
ATOM     41  C   UNL A   1      38.942  31.082  33.385  1.00  0.00     0.049 A 
ATOM     42  H   UNL A   1      40.016  29.977  31.982  1.00  0.00     0.167 HD
ATOM     43  C   UNL A   1      41.783  27.259  28.971  1.00  0.00     0.034 A 
ATOM     44  C   UNL A   1      39.572  30.943  34.566  1.00  0.00     0.034 A 
ATOM     45  C   UNL A   1      42.627  27.187  30.137  1.00  0.00     0.049 A 
ATOM     46  C   UNL A   1      40.811  30.106  34.612  1.00  0.00     0.074 A 
ATOM     47  C   UNL A   1      43.803  26.479  30.308  1.00  0.00     0.029 A 
ATOM     48  N   UNL A   1      42.379  27.845  31.334  1.00  0.00    -0.354 N 
ATOM     49  N   UNL A   1      41.373  29.421  33.643  1.00  0.00    -0.248 NA
ATOM     50  C   UNL A   1      41.528  30.047  35.890  1.00  0.00     0.031 C 
ATOM     51  C   UNL A   1      44.268  26.714  31.607  1.00  0.00     0.029 A 
ATOM     52  C   UNL A   1      43.380  27.564  32.247  1.00  0.00     0.049 A 
ATOM     53  H   UNL A   1      41.605  28.427  31.507  1.00  0.00     0.167 HD
ATOM     54  C   UNL A   1      42.524  28.872  34.184  1.00  0.00     0.074 A 
ATOM     55  C   UNL A   1      42.586  29.313  35.565  1.00  0.00     0.031 C 
ATOM     56  C   UNL A   1      43.439  28.062  33.598  1.00  0.00     0.034 A 
BRANCH  43  57
ATOM     57  C   UNL A   1      42.195  26.486  27.749  1.00  0.00     0.023 A 
ATOM     58  C   UNL A   1      42.974  27.128  26.767  1.00  0.00     0.012 A 
ATOM     59  C   UNL A   1      41.894  25.118  27.608  1.00  0.00     0.148 A 
ATOM     60  C   UNL A   1      43.442  26.423  25.658  1.00  0.00     0.002 A 
ATOM     61  C   UNL A   1      42.386  24.415  26.510  1.00  0.00     0.091 A 
ATOM     62  F   UNL A   1      41.125  24.529  28.535  1.00  0.00    -0.205 F 
ATOM     63  C   UNL A   1      43.158  25.066  25.535  1.00  0.00     0.022 A 
BRANCH  61  64
ATOM     64  S   UNL A   1      42.109  22.649  26.317  1.00  0.00     0.127 S 
ATOM     65  O   UNL A   1      40.654  22.564  26.404  1.00  0.00    -0.237 OA
ATOM     66  O   UNL A   1      42.655  22.383  24.985  1.00  0.00    -0.237 OA
ATOM     67  O   UNL A   1      42.852  22.021  27.402  1.00  0.00    -0.744 OA
ENDBRANCH  61  64
ENDBRANCH  43  57
BRANCH  44  68
ATOM     68  C   UNL A   1      39.055  31.690  35.741  1.00  0.00     0.023 A 
ATOM     69  C   UNL A   1      38.143  31.058  36.604  1.00  0.00     0.012 A 
ATOM     70  C   UNL A   1      39.575  32.951  36.090  1.00  0.00     0.148 A 
ATOM     71  C   UNL A   1      37.755  31.671  37.796  1.00  0.00     0.002 A 
ATOM     72  C   UNL A   1      39.225  33.533  37.303  1.00  0.00     0.091 A 
ATOM     73  F   UNL A   1      40.438  33.545  35.252  1.00  0.00    -0.205 F 
ATOM     74  C   UNL A   1      38.308  32.900  38.154  1.00  0.00     0.022 A 
BRANCH  72  75
ATOM     75  S   UNL A   1      40.041  35.029  37.876  1.00  0.00     0.127 S 
ATOM     76  O   UNL A   1      39.668  35.993  36.847  1.00  0.00    -0.237 OA
ATOM     77  O   UNL A   1      39.422  35.254  39.183  1.00  0.00    -0.237 OA
ATOM     78  O   UNL A   1      41.452  34.669  37.947  1.00  0.00    -0.744 OA
ENDBRANCH  72  75
ENDBRANCH  44  68
BRANCH  56  79
ATOM     79  C   UNL A   1      44.590  27.611  34.447  1.00  0.00     0.023 A 
ATOM     80  C   UNL A   1      45.752  28.402  34.503  1.00  0.00     0.012 A 
ATOM     81  C   UNL A   1      44.495  26.451  35.239  1.00  0.00     0.148 A 
ATOM     82  C   UNL A   1      46.815  28.036  35.327  1.00  0.00     0.002 A 
ATOM     83  C   UNL A   1      45.547  26.108  36.079  1.00  0.00     0.091 A 
ATOM     84  F   UNL A   1      43.389  25.698  35.147  1.00  0.00    -0.205 F 
ATOM     85  C   UNL A   1      46.708  26.897  36.123  1.00  0.00     0.022 A 
BRANCH  83  86
ATOM     86  S   UNL A   1      45.451  24.692  37.180  1.00  0.00     0.127 S 
ATOM     87  O   UNL A   1      45.375  23.582  36.232  1.00  0.00    -0.237 OA
ATOM     88  O   UNL A   1      46.711  24.776  37.919  1.00  0.00    -0.237 OA
ATOM     89  O   UNL A   1      44.264  24.912  37.995  1.00  0.00    -0.744 OA
ENDBRANCH  83  86
ENDBRANCH  56  79
ENDBRANCH  30  31
ENDBRANCH  23  25
ENDBRANCH  22  23
ENDBRANCH  21  22
ENDBRANCH   1  21
TORSDOF 18
ENDMDL
