MODEL 1
REMARK VINA RESULT:     -11.2      0.000      0.000
REMARK SMILES O=C(C[N@@H+]1CCC[C@@H]1c1ccccc1Cl)OCCOC(=O)c1ccc(-c2c3nc(c(-c4cccc(S(=O)(=O)[O-])c4F)c4ccc([nH]4)c(-c4cccc(S(=O)(=O)[O-])c4F)c4nc(c(-c5cccc(S(=O)(=O)[O-])c5F)c5ccc2[nH]5)C=C4)C=C3)cc1
REMARK SMILES IDX 18 1 17 2 16 3 2 4 1 5 3 6 4 7 5 8 8 9 6 11 7 12 9 13 10 14
REMARK SMILES IDX 14 15 11 16 13 17 15 18 12 19 19 20 20 21 21 22 22 23 23 24
REMARK SMILES IDX 84 25 24 26 83 27 25 28 26 29 27 30 77 31 28 32 82 33 76 34
REMARK SMILES IDX 78 35 29 36 81 37 75 38 74 39 30 41 62 42 42 43 61 44 43 45
REMARK SMILES IDX 46 46 60 47 79 48 44 49 45 50 59 52 80 53 47 54 31 55 32 56
REMARK SMILES IDX 40 57 33 58 35 59 41 60 34 61 36 62 37 63 38 64 39 65 63 66
REMARK SMILES IDX 64 67 72 68 65 69 67 70 73 71 66 72 68 73 69 74 70 75 71 76
REMARK SMILES IDX 48 77 49 78 57 79 50 80 52 81 58 82 51 83 53 84 54 85 55 86
REMARK SMILES IDX 56 87
REMARK H PARENT 4 10 78 40 46 51
REMARK Flexibility Score: inf
ROOT
ATOM      1  C   UNL A   1      37.311  20.056  24.996  1.00  0.00     0.275 C 
ENDROOT
BRANCH   1   2
ATOM      2  C   UNL A   1      35.873  20.571  25.035  1.00  0.00     0.274 C 
BRANCH   2   3
ATOM      3  O   UNL A   1      35.674  21.427  26.178  1.00  0.00    -0.458 OA
BRANCH   3   4
ATOM      4  C   UNL A   1      34.510  22.003  26.545  1.00  0.00     0.361 C 
ATOM      5  O   UNL A   1      34.121  21.895  27.709  1.00  0.00    -0.245 OA
BRANCH   4   6
ATOM      6  C   UNL A   1      33.676  22.757  25.522  1.00  0.00     0.387 C 
BRANCH   6   7
ATOM      7  N   UNL A   1      32.258  22.322  25.285  1.00  0.00    -0.319 N 
ATOM      8  C   UNL A   1      32.151  20.875  25.039  1.00  0.00     0.263 C 
ATOM      9  C   UNL A   1      31.621  22.924  24.021  1.00  0.00     0.217 C 
ATOM     10  H   UNL A   1      31.789  22.633  26.136  1.00  0.00     0.349 HD
ATOM     11  C   UNL A   1      32.596  20.705  23.610  1.00  0.00     0.068 C 
ATOM     12  C   UNL A   1      31.971  21.895  22.918  1.00  0.00     0.076 C 
BRANCH   9  13
ATOM     13  C   UNL A   1      31.999  24.342  23.616  1.00  0.00     0.028 A 
ATOM     14  C   UNL A   1      32.759  24.519  22.475  1.00  0.00     0.011 A 
ATOM     15  C   UNL A   1      31.470  25.509  24.206  1.00  0.00     0.050 A 
ATOM     16  C   UNL A   1      32.481  25.616  21.683  1.00  0.00     0.001 A 
ATOM     17  C   UNL A   1      31.338  26.685  23.461  1.00  0.00     0.021 A 
ATOM     18  Cl  UNL A   1      30.973  25.574  25.859  1.00  0.00    -0.084 Cl
ATOM     19  C   UNL A   1      31.750  26.697  22.143  1.00  0.00     0.002 A 
ENDBRANCH   9  13
ENDBRANCH   6   7
ENDBRANCH   4   6
ENDBRANCH   3   4
ENDBRANCH   2   3
ENDBRANCH   1   2
BRANCH   1  20
ATOM     20  O   UNL A   1      38.237  21.147  25.143  1.00  0.00    -0.458 OA
BRANCH  20  21
ATOM     21  C   UNL A   1      39.275  20.969  26.003  1.00  0.00     0.338 C 
ATOM     22  O   UNL A   1      39.842  19.928  26.242  1.00  0.00    -0.246 OA
BRANCH  21  23
ATOM     23  C   UNL A   1      39.696  22.300  26.526  1.00  0.00     0.060 A 
ATOM     24  C   UNL A   1      40.786  22.358  27.402  1.00  0.00     0.016 A 
ATOM     25  C   UNL A   1      39.069  23.488  26.124  1.00  0.00     0.016 A 
ATOM     26  C   UNL A   1      41.279  23.604  27.816  1.00  0.00     0.010 A 
ATOM     27  C   UNL A   1      39.566  24.733  26.533  1.00  0.00     0.010 A 
ATOM     28  C   UNL A   1      40.700  24.808  27.348  1.00  0.00    -0.014 A 
BRANCH  28  29
ATOM     29  C   UNL A   1      41.262  26.119  27.788  1.00  0.00     0.031 A 
ATOM     30  C   UNL A   1      42.606  26.491  27.257  1.00  0.00     0.074 A 
ATOM     31  C   UNL A   1      40.634  26.969  28.631  1.00  0.00     0.049 A 
ATOM     32  N   UNL A   1      43.258  27.613  27.373  1.00  0.00    -0.248 NA
ATOM     33  C   UNL A   1      43.332  25.424  26.548  1.00  0.00     0.031 C 
ATOM     34  C   UNL A   1      39.412  26.683  29.367  1.00  0.00     0.029 A 
ATOM     35  N   UNL A   1      40.914  28.270  28.992  1.00  0.00    -0.354 N 
ATOM     36  C   UNL A   1      44.496  27.373  26.804  1.00  0.00     0.074 A 
ATOM     37  C   UNL A   1      44.488  26.015  26.305  1.00  0.00     0.031 C 
ATOM     38  C   UNL A   1      38.951  27.805  29.945  1.00  0.00     0.029 A 
ATOM     39  C   UNL A   1      39.918  28.874  29.741  1.00  0.00     0.049 A 
ATOM     40  H   UNL A   1      41.748  28.730  28.740  1.00  0.00     0.167 HD
ATOM     41  C   UNL A   1      45.568  28.191  26.744  1.00  0.00     0.034 A 
ATOM     42  C   UNL A   1      39.809  30.132  30.223  1.00  0.00     0.034 A 
ATOM     43  C   UNL A   1      45.617  29.503  27.317  1.00  0.00     0.049 A 
ATOM     44  C   UNL A   1      40.993  31.055  30.064  1.00  0.00     0.074 A 
ATOM     45  C   UNL A   1      46.678  30.390  27.333  1.00  0.00     0.029 A 
ATOM     46  N   UNL A   1      44.578  30.103  28.009  1.00  0.00    -0.354 N 
ATOM     47  N   UNL A   1      42.108  30.861  29.405  1.00  0.00    -0.248 NA
ATOM     48  C   UNL A   1      40.921  32.358  30.746  1.00  0.00     0.031 C 
ATOM     49  C   UNL A   1      46.289  31.516  28.064  1.00  0.00     0.029 A 
ATOM     50  C   UNL A   1      44.970  31.351  28.458  1.00  0.00     0.049 A 
ATOM     51  H   UNL A   1      43.692  29.701  28.159  1.00  0.00     0.167 HD
ATOM     52  C   UNL A   1      42.870  32.008  29.596  1.00  0.00     0.074 A 
ATOM     53  C   UNL A   1      42.067  32.918  30.385  1.00  0.00     0.031 C 
ATOM     54  C   UNL A   1      44.136  32.267  29.191  1.00  0.00     0.034 A 
BRANCH  41  55
ATOM     55  C   UNL A   1      46.790  27.626  26.084  1.00  0.00     0.023 A 
ATOM     56  C   UNL A   1      46.935  27.727  24.686  1.00  0.00     0.012 A 
ATOM     57  C   UNL A   1      47.756  26.943  26.843  1.00  0.00     0.148 A 
ATOM     58  C   UNL A   1      48.007  27.110  24.045  1.00  0.00     0.002 A 
ATOM     59  C   UNL A   1      48.847  26.375  26.203  1.00  0.00     0.091 A 
ATOM     60  F   UNL A   1      47.570  26.830  28.165  1.00  0.00    -0.205 F 
ATOM     61  C   UNL A   1      48.966  26.442  24.803  1.00  0.00     0.022 A 
BRANCH  59  62
ATOM     62  S   UNL A   1      50.162  25.542  27.091  1.00  0.00     0.127 S 
ATOM     63  O   UNL A   1      49.476  24.346  27.582  1.00  0.00    -0.237 OA
ATOM     64  O   UNL A   1      51.136  25.295  26.028  1.00  0.00    -0.237 OA
ATOM     65  O   UNL A   1      50.606  26.469  28.123  1.00  0.00    -0.744 OA
ENDBRANCH  59  62
ENDBRANCH  41  55
BRANCH  42  66
ATOM     66  C   UNL A   1      38.570  30.627  30.912  1.00  0.00     0.023 A 
ATOM     67  C   UNL A   1      38.394  30.349  32.287  1.00  0.00     0.012 A 
ATOM     68  C   UNL A   1      37.543  31.306  30.230  1.00  0.00     0.148 A 
ATOM     69  C   UNL A   1      37.211  30.692  32.948  1.00  0.00     0.002 A 
ATOM     70  C   UNL A   1      36.397  31.709  30.912  1.00  0.00     0.091 A 
ATOM     71  F   UNL A   1      37.688  31.527  28.916  1.00  0.00    -0.205 F 
ATOM     72  C   UNL A   1      36.216  31.382  32.263  1.00  0.00     0.022 A 
BRANCH  70  73
ATOM     73  S   UNL A   1      35.127  32.718  30.137  1.00  0.00     0.127 S 
ATOM     74  O   UNL A   1      34.621  31.822  29.102  1.00  0.00    -0.237 OA
ATOM     75  O   UNL A   1      34.206  32.959  31.249  1.00  0.00    -0.237 OA
ATOM     76  O   UNL A   1      35.817  33.912  29.665  1.00  0.00    -0.744 OA
ENDBRANCH  70  73
ENDBRANCH  42  66
BRANCH  54  77
ATOM     77  C   UNL A   1      44.732  33.603  29.547  1.00  0.00     0.023 A 
ATOM     78  C   UNL A   1      45.422  33.772  30.762  1.00  0.00     0.012 A 
ATOM     79  C   UNL A   1      44.701  34.658  28.613  1.00  0.00     0.148 A 
ATOM     80  C   UNL A   1      46.056  34.980  31.052  1.00  0.00     0.002 A 
ATOM     81  C   UNL A   1      45.381  35.837  28.885  1.00  0.00     0.091 A 
ATOM     82  F   UNL A   1      44.019  34.480  27.473  1.00  0.00    -0.205 F 
ATOM     83  C   UNL A   1      46.049  36.004  30.108  1.00  0.00     0.022 A 
BRANCH  81  84
ATOM     84  S   UNL A   1      45.517  37.162  27.682  1.00  0.00     0.127 S 
ATOM     85  O   UNL A   1      44.131  37.617  27.582  1.00  0.00    -0.237 OA
ATOM     86  O   UNL A   1      46.420  38.098  28.354  1.00  0.00    -0.237 OA
ATOM     87  O   UNL A   1      46.064  36.557  26.475  1.00  0.00    -0.744 OA
ENDBRANCH  81  84
ENDBRANCH  54  77
ENDBRANCH  28  29
ENDBRANCH  21  23
ENDBRANCH  20  21
ENDBRANCH   1  20
TORSDOF 16
ENDMDL
MODEL 2
REMARK VINA RESULT:     -11.1      5.384     10.212
REMARK SMILES O=C(C[N@@H+]1CCC[C@@H]1c1ccccc1Cl)OCCOC(=O)c1ccc(-c2c3nc(c(-c4cccc(S(=O)(=O)[O-])c4F)c4ccc([nH]4)c(-c4cccc(S(=O)(=O)[O-])c4F)c4nc(c(-c5cccc(S(=O)(=O)[O-])c5F)c5ccc2[nH]5)C=C4)C=C3)cc1
REMARK SMILES IDX 18 1 17 2 16 3 2 4 1 5 3 6 4 7 5 8 8 9 6 11 7 12 9 13 10 14
REMARK SMILES IDX 14 15 11 16 13 17 15 18 12 19 19 20 20 21 21 22 22 23 23 24
REMARK SMILES IDX 84 25 24 26 83 27 25 28 26 29 27 30 77 31 28 32 82 33 76 34
REMARK SMILES IDX 78 35 29 36 81 37 75 38 74 39 30 41 62 42 42 43 61 44 43 45
REMARK SMILES IDX 46 46 60 47 79 48 44 49 45 50 59 52 80 53 47 54 31 55 32 56
REMARK SMILES IDX 40 57 33 58 35 59 41 60 34 61 36 62 37 63 38 64 39 65 63 66
REMARK SMILES IDX 64 67 72 68 65 69 67 70 73 71 66 72 68 73 69 74 70 75 71 76
REMARK SMILES IDX 48 77 49 78 57 79 50 80 52 81 58 82 51 83 53 84 54 85 55 86
REMARK SMILES IDX 56 87
REMARK H PARENT 4 10 78 40 46 51
REMARK Flexibility Score: inf
ROOT
ATOM      1  C   UNL A   1      32.319  30.076  25.395  1.00  0.00     0.275 C 
ENDROOT
BRANCH   1   2
ATOM      2  C   UNL A   1      31.070  29.318  24.948  1.00  0.00     0.274 C 
BRANCH   2   3
ATOM      3  O   UNL A   1      31.094  29.101  23.523  1.00  0.00    -0.458 OA
BRANCH   3   4
ATOM      4  C   UNL A   1      31.192  27.905  22.903  1.00  0.00     0.361 C 
ATOM      5  O   UNL A   1      30.652  27.746  21.807  1.00  0.00    -0.245 OA
BRANCH   4   6
ATOM      6  C   UNL A   1      31.940  26.761  23.567  1.00  0.00     0.387 C 
BRANCH   6   7
ATOM      7  N   UNL A   1      31.194  25.496  23.880  1.00  0.00    -0.319 N 
ATOM      8  C   UNL A   1      30.032  25.733  24.752  1.00  0.00     0.263 C 
ATOM      9  C   UNL A   1      32.010  24.468  24.682  1.00  0.00     0.217 C 
ATOM     10  H   UNL A   1      30.950  25.151  22.951  1.00  0.00     0.349 HD
ATOM     11  C   UNL A   1      30.626  25.895  26.127  1.00  0.00     0.068 C 
ATOM     12  C   UNL A   1      31.709  24.842  26.154  1.00  0.00     0.076 C 
BRANCH   9  13
ATOM     13  C   UNL A   1      33.506  24.356  24.418  1.00  0.00     0.028 A 
ATOM     14  C   UNL A   1      34.379  24.837  25.375  1.00  0.00     0.011 A 
ATOM     15  C   UNL A   1      34.077  23.622  23.357  1.00  0.00     0.050 A 
ATOM     16  C   UNL A   1      35.548  24.132  25.587  1.00  0.00     0.001 A 
ATOM     17  C   UNL A   1      35.341  23.041  23.496  1.00  0.00     0.021 A 
ATOM     18  Cl  UNL A   1      33.281  23.405  21.840  1.00  0.00    -0.084 Cl
ATOM     19  C   UNL A   1      36.035  23.210  24.677  1.00  0.00     0.002 A 
ENDBRANCH   9  13
ENDBRANCH   6   7
ENDBRANCH   4   6
ENDBRANCH   3   4
ENDBRANCH   2   3
ENDBRANCH   1   2
BRANCH   1  20
ATOM     20  O   UNL A   1      32.203  30.459  26.777  1.00  0.00    -0.458 OA
BRANCH  20  21
ATOM     21  C   UNL A   1      32.906  31.551  27.179  1.00  0.00     0.338 C 
ATOM     22  O   UNL A   1      32.508  32.693  27.210  1.00  0.00    -0.246 OA
BRANCH  21  23
ATOM     23  C   UNL A   1      34.228  31.103  27.703  1.00  0.00     0.060 A 
ATOM     24  C   UNL A   1      35.186  32.074  28.016  1.00  0.00     0.016 A 
ATOM     25  C   UNL A   1      34.514  29.750  27.936  1.00  0.00     0.016 A 
ATOM     26  C   UNL A   1      36.392  31.690  28.620  1.00  0.00     0.010 A 
ATOM     27  C   UNL A   1      35.716  29.368  28.547  1.00  0.00     0.010 A 
ATOM     28  C   UNL A   1      36.651  30.334  28.934  1.00  0.00    -0.014 A 
BRANCH  28  29
ATOM     29  C   UNL A   1      37.934  29.960  29.598  1.00  0.00     0.031 A 
ATOM     30  C   UNL A   1      38.108  30.384  31.018  1.00  0.00     0.074 A 
ATOM     31  C   UNL A   1      38.931  29.277  28.993  1.00  0.00     0.049 A 
ATOM     32  N   UNL A   1      39.055  30.080  31.860  1.00  0.00    -0.248 NA
ATOM     33  C   UNL A   1      37.099  31.324  31.535  1.00  0.00     0.031 C 
ATOM     34  C   UNL A   1      38.992  28.947  27.577  1.00  0.00     0.029 A 
ATOM     35  N   UNL A   1      40.078  28.700  29.495  1.00  0.00    -0.354 N 
ATOM     36  C   UNL A   1      38.793  30.838  32.988  1.00  0.00     0.074 A 
ATOM     37  C   UNL A   1      37.576  31.579  32.740  1.00  0.00     0.031 C 
ATOM     38  C   UNL A   1      40.005  28.092  27.349  1.00  0.00     0.029 A 
ATOM     39  C   UNL A   1      40.760  27.915  28.580  1.00  0.00     0.049 A 
ATOM     40  H   UNL A   1      40.386  28.835  30.420  1.00  0.00     0.167 HD
ATOM     41  C   UNL A   1      39.527  30.950  34.116  1.00  0.00     0.034 A 
ATOM     42  C   UNL A   1      41.874  27.161  28.715  1.00  0.00     0.034 A 
ATOM     43  C   UNL A   1      40.781  30.292  34.334  1.00  0.00     0.049 A 
ATOM     44  C   UNL A   1      42.627  27.238  30.021  1.00  0.00     0.074 A 
ATOM     45  C   UNL A   1      41.610  30.377  35.437  1.00  0.00     0.029 A 
ATOM     46  N   UNL A   1      41.407  29.461  33.419  1.00  0.00    -0.354 N 
ATOM     47  N   UNL A   1      42.296  27.853  31.129  1.00  0.00    -0.248 NA
ATOM     48  C   UNL A   1      43.926  26.548  30.085  1.00  0.00     0.031 C 
ATOM     49  C   UNL A   1      42.756  29.621  35.175  1.00  0.00     0.029 A 
ATOM     50  C   UNL A   1      42.615  29.025  33.932  1.00  0.00     0.049 A 
ATOM     51  H   UNL A   1      41.046  29.219  32.536  1.00  0.00     0.167 HD
ATOM     52  C   UNL A   1      43.343  27.631  32.017  1.00  0.00     0.074 A 
ATOM     53  C   UNL A   1      44.293  26.776  31.339  1.00  0.00     0.031 C 
ATOM     54  C   UNL A   1      43.520  28.125  33.265  1.00  0.00     0.034 A 
BRANCH  41  55
ATOM     55  C   UNL A   1      38.991  31.886  35.158  1.00  0.00     0.023 A 
ATOM     56  C   UNL A   1      39.176  33.275  35.006  1.00  0.00     0.012 A 
ATOM     57  C   UNL A   1      38.365  31.382  36.311  1.00  0.00     0.148 A 
ATOM     58  C   UNL A   1      38.785  34.149  36.018  1.00  0.00     0.002 A 
ATOM     59  C   UNL A   1      37.933  32.263  37.290  1.00  0.00     0.091 A 
ATOM     60  F   UNL A   1      38.239  30.054  36.443  1.00  0.00    -0.205 F 
ATOM     61  C   UNL A   1      38.157  33.645  37.154  1.00  0.00     0.022 A 
BRANCH  59  62
ATOM     62  S   UNL A   1      37.066  31.721  38.763  1.00  0.00     0.127 S 
ATOM     63  O   UNL A   1      36.812  30.313  38.455  1.00  0.00    -0.237 OA
ATOM     64  O   UNL A   1      38.068  31.948  39.804  1.00  0.00    -0.237 OA
ATOM     65  O   UNL A   1      35.878  32.557  38.865  1.00  0.00    -0.744 OA
ENDBRANCH  59  62
ENDBRANCH  41  55
BRANCH  42  66
ATOM     66  C   UNL A   1      42.383  26.272  27.617  1.00  0.00     0.023 A 
ATOM     67  C   UNL A   1      43.264  26.812  26.652  1.00  0.00     0.012 A 
ATOM     68  C   UNL A   1      41.970  24.934  27.471  1.00  0.00     0.148 A 
ATOM     69  C   UNL A   1      43.680  26.059  25.551  1.00  0.00     0.002 A 
ATOM     70  C   UNL A   1      42.446  24.167  26.409  1.00  0.00     0.091 A 
ATOM     71  F   UNL A   1      41.097  24.437  28.358  1.00  0.00    -0.205 F 
ATOM     72  C   UNL A   1      43.279  24.732  25.435  1.00  0.00     0.022 A 
BRANCH  70  73
ATOM     73  S   UNL A   1      42.085  22.412  26.261  1.00  0.00     0.127 S 
ATOM     74  O   UNL A   1      42.829  22.053  25.058  1.00  0.00    -0.237 OA
ATOM     75  O   UNL A   1      42.635  21.880  27.508  1.00  0.00    -0.237 OA
ATOM     76  O   UNL A   1      40.634  22.322  26.163  1.00  0.00    -0.744 OA
ENDBRANCH  70  73
ENDBRANCH  42  66
BRANCH  54  77
ATOM     77  C   UNL A   1      44.765  27.726  34.012  1.00  0.00     0.023 A 
ATOM     78  C   UNL A   1      45.919  28.531  33.951  1.00  0.00     0.012 A 
ATOM     79  C   UNL A   1      44.743  26.607  34.867  1.00  0.00     0.148 A 
ATOM     80  C   UNL A   1      47.041  28.215  34.717  1.00  0.00     0.002 A 
ATOM     81  C   UNL A   1      45.844  26.331  35.667  1.00  0.00     0.091 A 
ATOM     82  F   UNL A   1      43.641  25.844  34.891  1.00  0.00    -0.205 F 
ATOM     83  C   UNL A   1      46.997  27.126  35.585  1.00  0.00     0.022 A 
BRANCH  81  84
ATOM     84  S   UNL A   1      45.832  25.018  36.892  1.00  0.00     0.127 S 
ATOM     85  O   UNL A   1      44.928  24.047  36.278  1.00  0.00    -0.237 OA
ATOM     86  O   UNL A   1      47.238  24.611  36.922  1.00  0.00    -0.237 OA
ATOM     87  O   UNL A   1      45.352  25.623  38.127  1.00  0.00    -0.744 OA
ENDBRANCH  81  84
ENDBRANCH  54  77
ENDBRANCH  28  29
ENDBRANCH  21  23
ENDBRANCH  20  21
ENDBRANCH   1  20
TORSDOF 16
ENDMDL
MODEL 3
REMARK VINA RESULT:     -11.1      5.619     11.011
REMARK SMILES O=C(C[N@@H+]1CCC[C@@H]1c1ccccc1Cl)OCCOC(=O)c1ccc(-c2c3nc(c(-c4cccc(S(=O)(=O)[O-])c4F)c4ccc([nH]4)c(-c4cccc(S(=O)(=O)[O-])c4F)c4nc(c(-c5cccc(S(=O)(=O)[O-])c5F)c5ccc2[nH]5)C=C4)C=C3)cc1
REMARK SMILES IDX 18 1 17 2 16 3 2 4 1 5 3 6 4 7 5 8 8 9 6 11 7 12 9 13 10 14
REMARK SMILES IDX 14 15 11 16 13 17 15 18 12 19 19 20 20 21 21 22 22 23 23 24
REMARK SMILES IDX 84 25 24 26 83 27 25 28 26 29 27 30 77 31 28 32 82 33 76 34
REMARK SMILES IDX 78 35 29 36 81 37 75 38 74 39 30 41 62 42 42 43 61 44 43 45
REMARK SMILES IDX 46 46 60 47 79 48 44 49 45 50 59 52 80 53 47 54 31 55 32 56
REMARK SMILES IDX 40 57 33 58 35 59 41 60 34 61 36 62 37 63 38 64 39 65 63 66
REMARK SMILES IDX 64 67 72 68 65 69 67 70 73 71 66 72 68 73 69 74 70 75 71 76
REMARK SMILES IDX 48 77 49 78 57 79 50 80 52 81 58 82 51 83 53 84 54 85 55 86
REMARK SMILES IDX 56 87
REMARK H PARENT 4 10 78 40 46 51
REMARK Flexibility Score: inf
ROOT
ATOM      1  C   UNL A   1      33.637  33.066  28.030  1.00  0.00     0.275 C 
ENDROOT
BRANCH   1   2
ATOM      2  C   UNL A   1      34.432  34.369  27.968  1.00  0.00     0.274 C 
BRANCH   2   3
ATOM      3  O   UNL A   1      34.018  35.264  29.020  1.00  0.00    -0.458 OA
BRANCH   3   4
ATOM      4  C   UNL A   1      33.978  34.975  30.338  1.00  0.00     0.361 C 
ATOM      5  O   UNL A   1      32.909  35.061  30.945  1.00  0.00    -0.245 OA
BRANCH   4   6
ATOM      6  C   UNL A   1      35.248  34.571  31.070  1.00  0.00     0.387 C 
BRANCH   6   7
ATOM      7  N   UNL A   1      35.549  33.109  31.239  1.00  0.00    -0.319 N 
ATOM      8  C   UNL A   1      34.644  32.459  32.200  1.00  0.00     0.263 C 
ATOM      9  C   UNL A   1      36.937  32.820  31.836  1.00  0.00     0.217 C 
ATOM     10  H   UNL A   1      35.462  32.757  30.285  1.00  0.00     0.349 HD
ATOM     11  C   UNL A   1      35.174  32.873  33.548  1.00  0.00     0.068 C 
ATOM     12  C   UNL A   1      36.672  32.796  33.361  1.00  0.00     0.076 C 
BRANCH   9  13
ATOM     13  C   UNL A   1      38.095  33.740  31.474  1.00  0.00     0.028 A 
ATOM     14  C   UNL A   1      38.725  34.432  32.491  1.00  0.00     0.011 A 
ATOM     15  C   UNL A   1      38.705  33.795  30.204  1.00  0.00     0.050 A 
ATOM     16  C   UNL A   1      40.094  34.600  32.400  1.00  0.00     0.001 A 
ATOM     17  C   UNL A   1      40.057  34.131  30.079  1.00  0.00     0.021 A 
ATOM     18  Cl  UNL A   1      37.843  33.474  28.742  1.00  0.00    -0.084 Cl
ATOM     19  C   UNL A   1      40.785  34.428  31.213  1.00  0.00     0.002 A 
ENDBRANCH   9  13
ENDBRANCH   6   7
ENDBRANCH   4   6
ENDBRANCH   3   4
ENDBRANCH   2   3
ENDBRANCH   1   2
BRANCH   1  20
ATOM     20  O   UNL A   1      34.426  32.027  28.638  1.00  0.00    -0.458 OA
BRANCH  20  21
ATOM     21  C   UNL A   1      34.558  30.864  27.947  1.00  0.00     0.338 C 
ATOM     22  O   UNL A   1      33.808  30.441  27.098  1.00  0.00    -0.246 OA
BRANCH  21  23
ATOM     23  C   UNL A   1      35.858  30.233  28.316  1.00  0.00     0.060 A 
ATOM     24  C   UNL A   1      36.870  30.178  27.351  1.00  0.00     0.016 A 
ATOM     25  C   UNL A   1      36.107  29.747  29.608  1.00  0.00     0.016 A 
ATOM     26  C   UNL A   1      38.140  29.700  27.704  1.00  0.00     0.010 A 
ATOM     27  C   UNL A   1      37.379  29.276  29.961  1.00  0.00     0.010 A 
ATOM     28  C   UNL A   1      38.421  29.285  29.027  1.00  0.00    -0.014 A 
BRANCH  28  29
ATOM     29  C   UNL A   1      39.789  28.803  29.378  1.00  0.00     0.031 A 
ATOM     30  C   UNL A   1      40.442  29.428  30.565  1.00  0.00     0.074 A 
ATOM     31  C   UNL A   1      40.459  27.852  28.688  1.00  0.00     0.049 A 
ATOM     32  N   UNL A   1      41.557  29.107  31.158  1.00  0.00    -0.248 NA
ATOM     33  C   UNL A   1      39.766  30.613  31.118  1.00  0.00     0.031 C 
ATOM     34  C   UNL A   1      40.041  27.275  27.419  1.00  0.00     0.029 A 
ATOM     35  N   UNL A   1      41.624  27.172  28.969  1.00  0.00    -0.354 N 
ATOM     36  C   UNL A   1      41.751  30.084  32.118  1.00  0.00     0.074 A 
ATOM     37  C   UNL A   1      40.618  30.983  32.058  1.00  0.00     0.031 C 
ATOM     38  C   UNL A   1      40.820  26.222  27.116  1.00  0.00     0.029 A 
ATOM     39  C   UNL A   1      41.889  26.127  28.099  1.00  0.00     0.049 A 
ATOM     40  H   UNL A   1      42.216  27.406  29.719  1.00  0.00     0.167 HD
ATOM     41  C   UNL A   1      42.804  30.255  32.946  1.00  0.00     0.034 A 
ATOM     42  C   UNL A   1      42.887  25.216  28.084  1.00  0.00     0.034 A 
ATOM     43  C   UNL A   1      43.972  29.426  32.950  1.00  0.00     0.049 A 
ATOM     44  C   UNL A   1      44.009  25.380  29.081  1.00  0.00     0.074 A 
ATOM     45  C   UNL A   1      45.104  29.548  33.734  1.00  0.00     0.029 A 
ATOM     46  N   UNL A   1      44.179  28.347  32.105  1.00  0.00    -0.354 N 
ATOM     47  N   UNL A   1      44.114  26.229  30.073  1.00  0.00    -0.248 NA
ATOM     48  C   UNL A   1      45.169  24.484  28.936  1.00  0.00     0.031 C 
ATOM     49  C   UNL A   1      46.011  28.559  33.341  1.00  0.00     0.029 A 
ATOM     50  C   UNL A   1      45.422  27.792  32.348  1.00  0.00     0.049 A 
ATOM     51  H   UNL A   1      43.537  28.025  31.432  1.00  0.00     0.167 HD
ATOM     52  C   UNL A   1      45.347  25.976  30.664  1.00  0.00     0.074 A 
ATOM     53  C   UNL A   1      45.929  24.856  29.957  1.00  0.00     0.031 C 
ATOM     54  C   UNL A   1      45.960  26.639  31.674  1.00  0.00     0.034 A 
BRANCH  41  55
ATOM     55  C   UNL A   1      42.735  31.440  33.861  1.00  0.00     0.023 A 
ATOM     56  C   UNL A   1      43.231  32.686  33.426  1.00  0.00     0.012 A 
ATOM     57  C   UNL A   1      42.238  31.301  35.169  1.00  0.00     0.148 A 
ATOM     58  C   UNL A   1      43.278  33.768  34.302  1.00  0.00     0.002 A 
ATOM     59  C   UNL A   1      42.242  32.396  36.018  1.00  0.00     0.091 A 
ATOM     60  F   UNL A   1      41.809  30.094  35.566  1.00  0.00    -0.205 F 
ATOM     61  C   UNL A   1      42.776  33.625  35.594  1.00  0.00     0.022 A 
BRANCH  59  62
ATOM     62  S   UNL A   1      41.570  32.333  37.679  1.00  0.00     0.127 S 
ATOM     63  O   UNL A   1      40.186  31.932  37.423  1.00  0.00    -0.237 OA
ATOM     64  O   UNL A   1      42.399  31.302  38.302  1.00  0.00    -0.237 OA
ATOM     65  O   UNL A   1      41.736  33.669  38.235  1.00  0.00    -0.744 OA
ENDBRANCH  59  62
ENDBRANCH  41  55
BRANCH  42  66
ATOM     66  C   UNL A   1      42.920  24.071  27.113  1.00  0.00     0.023 A 
ATOM     67  C   UNL A   1      43.639  24.218  25.905  1.00  0.00     0.012 A 
ATOM     68  C   UNL A   1      42.211  22.874  27.328  1.00  0.00     0.148 A 
ATOM     69  C   UNL A   1      43.611  23.226  24.920  1.00  0.00     0.002 A 
ATOM     70  C   UNL A   1      42.246  21.859  26.373  1.00  0.00     0.091 A 
ATOM     71  F   UNL A   1      41.491  22.753  28.451  1.00  0.00    -0.205 F 
ATOM     72  C   UNL A   1      42.923  22.041  25.160  1.00  0.00     0.022 A 
BRANCH  70  73
ATOM     73  S   UNL A   1      41.498  20.250  26.661  1.00  0.00     0.127 S 
ATOM     74  O   UNL A   1      42.218  19.792  27.846  1.00  0.00    -0.237 OA
ATOM     75  O   UNL A   1      40.096  20.600  26.889  1.00  0.00    -0.237 OA
ATOM     76  O   UNL A   1      41.732  19.490  25.440  1.00  0.00    -0.744 OA
ENDBRANCH  70  73
ENDBRANCH  42  66
BRANCH  54  77
ATOM     77  C   UNL A   1      47.314  26.154  32.117  1.00  0.00     0.023 A 
ATOM     78  C   UNL A   1      47.429  25.263  33.201  1.00  0.00     0.012 A 
ATOM     79  C   UNL A   1      48.461  26.499  31.376  1.00  0.00     0.148 A 
ATOM     80  C   UNL A   1      48.672  24.738  33.554  1.00  0.00     0.002 A 
ATOM     81  C   UNL A   1      49.685  25.928  31.698  1.00  0.00     0.091 A 
ATOM     82  F   UNL A   1      48.329  27.365  30.362  1.00  0.00    -0.205 F 
ATOM     83  C   UNL A   1      49.795  25.057  32.793  1.00  0.00     0.022 A 
BRANCH  81  84
ATOM     84  S   UNL A   1      51.157  26.197  30.707  1.00  0.00     0.127 S 
ATOM     85  O   UNL A   1      50.746  25.658  29.411  1.00  0.00    -0.237 OA
ATOM     86  O   UNL A   1      51.296  27.653  30.748  1.00  0.00    -0.237 OA
ATOM     87  O   UNL A   1      52.230  25.469  31.372  1.00  0.00    -0.744 OA
ENDBRANCH  81  84
ENDBRANCH  54  77
ENDBRANCH  28  29
ENDBRANCH  21  23
ENDBRANCH  20  21
ENDBRANCH   1  20
TORSDOF 16
ENDMDL
