MODEL 1
REMARK VINA RESULT:     -12.1      0.000      0.000
REMARK SMILES O=C(CSc1ccc(NC(=O)c2cccc3ccccc23)cc1)OCCOC(=O)c1ccc(-c2c3nc(c(-c4cccc(S(=O)(=O)[O-])c4F)c4ccc([nH]4)c(-c4cccc(S(=O)(=O)[O-])c4F)c4nc(c(-c5cccc(S(=O)(=O)[O-])c5F)c5ccc2[nH]5)C=C4)C=C3)cc1
REMARK SMILES IDX 25 1 24 2 2 3 1 4 3 5 4 6 5 7 6 8 23 9 7 10 22 11 8 12 9 13
REMARK SMILES IDX 10 14 11 16 12 17 13 18 21 19 14 20 16 21 20 22 15 23 17 24
REMARK SMILES IDX 19 25 18 26 26 27 27 28 28 29 29 30 30 31 31 32 92 33 32 34
REMARK SMILES IDX 91 35 33 36 34 37 35 38 85 39 36 40 90 41 84 42 86 43 37 44
REMARK SMILES IDX 89 45 83 46 82 47 38 49 70 50 50 51 69 52 51 53 54 54 68 55
REMARK SMILES IDX 87 56 52 57 53 58 67 60 88 61 55 62 39 63 40 64 48 65 41 66
REMARK SMILES IDX 43 67 49 68 42 69 44 70 45 71 46 72 47 73 71 74 72 75 80 76
REMARK SMILES IDX 73 77 75 78 81 79 74 80 76 81 77 82 78 83 79 84 56 85 57 86
REMARK SMILES IDX 65 87 58 88 60 89 66 90 59 91 61 92 62 93 63 94 64 95
REMARK H PARENT 9 15 86 48 54 59
REMARK Flexibility Score: inf
ROOT
ATOM      1  C   UNL A   1      35.678  20.952  24.610  1.00  0.00     0.274 C 
ENDROOT
BRANCH   1   2
ATOM      2  O   UNL A   1      34.645  20.137  25.200  1.00  0.00    -0.461 OA
BRANCH   2   3
ATOM      3  C   UNL A   1      33.662  19.498  24.518  1.00  0.00     0.316 C 
ATOM      4  O   UNL A   1      33.809  18.314  24.215  1.00  0.00    -0.251 OA
BRANCH   3   5
ATOM      5  C   UNL A   1      32.417  20.262  24.117  1.00  0.00     0.197 C 
BRANCH   5   6
ATOM      6  S   UNL A   1      31.800  21.352  25.441  1.00  0.00    -0.114 SA
BRANCH   6   7
ATOM      7  C   UNL A   1      32.238  22.901  24.705  1.00  0.00     0.008 A 
ATOM      8  C   UNL A   1      33.004  23.824  25.417  1.00  0.00     0.017 A 
ATOM      9  C   UNL A   1      31.884  23.161  23.385  1.00  0.00     0.017 A 
ATOM     10  C   UNL A   1      33.494  24.965  24.782  1.00  0.00     0.027 A 
ATOM     11  C   UNL A   1      32.375  24.299  22.752  1.00  0.00     0.027 A 
ATOM     12  C   UNL A   1      33.237  25.171  23.429  1.00  0.00     0.041 A 
BRANCH  12  13
ATOM     13  N   UNL A   1      33.816  26.180  22.653  1.00  0.00    -0.322 N 
ATOM     14  C   UNL A   1      33.529  27.510  22.480  1.00  0.00     0.256 C 
ATOM     15  H   UNL A   1      34.587  25.874  22.122  1.00  0.00     0.170 HD
ATOM     16  O   UNL A   1      34.185  28.142  21.646  1.00  0.00    -0.269 OA
BRANCH  14  17
ATOM     17  C   UNL A   1      32.503  28.240  23.248  1.00  0.00     0.048 A 
ATOM     18  C   UNL A   1      31.322  28.501  22.534  1.00  0.00     0.014 A 
ATOM     19  C   UNL A   1      32.714  28.772  24.556  1.00  0.00    -0.006 A 
ATOM     20  C   UNL A   1      30.338  29.305  23.088  1.00  0.00     0.001 A 
ATOM     21  C   UNL A   1      31.714  29.628  25.075  1.00  0.00    -0.018 A 
ATOM     22  C   UNL A   1      33.833  28.513  25.391  1.00  0.00     0.009 A 
ATOM     23  C   UNL A   1      30.553  29.883  24.334  1.00  0.00     0.009 A 
ATOM     24  C   UNL A   1      31.866  30.220  26.339  1.00  0.00     0.009 A 
ATOM     25  C   UNL A   1      33.935  29.052  26.679  1.00  0.00     0.001 A 
ATOM     26  C   UNL A   1      32.960  29.923  27.145  1.00  0.00     0.001 A 
ENDBRANCH  14  17
ENDBRANCH  12  13
ENDBRANCH   6   7
ENDBRANCH   5   6
ENDBRANCH   3   5
ENDBRANCH   2   3
ENDBRANCH   1   2
BRANCH   1  27
ATOM     27  C   UNL A   1      37.083  20.461  24.963  1.00  0.00     0.275 C 
BRANCH  27  28
ATOM     28  O   UNL A   1      37.951  21.565  25.267  1.00  0.00    -0.458 OA
BRANCH  28  29
ATOM     29  C   UNL A   1      39.061  21.245  25.984  1.00  0.00     0.338 C 
ATOM     30  O   UNL A   1      39.609  20.162  26.014  1.00  0.00    -0.246 OA
BRANCH  29  31
ATOM     31  C   UNL A   1      39.627  22.467  26.609  1.00  0.00     0.060 A 
ATOM     32  C   UNL A   1      39.127  23.702  26.180  1.00  0.00     0.016 A 
ATOM     33  C   UNL A   1      40.624  22.420  27.590  1.00  0.00     0.016 A 
ATOM     34  C   UNL A   1      39.655  24.888  26.693  1.00  0.00     0.010 A 
ATOM     35  C   UNL A   1      41.147  23.613  28.109  1.00  0.00     0.010 A 
ATOM     36  C   UNL A   1      40.688  24.856  27.640  1.00  0.00    -0.014 A 
BRANCH  36  37
ATOM     37  C   UNL A   1      41.336  26.130  28.051  1.00  0.00     0.031 A 
ATOM     38  C   UNL A   1      42.743  26.428  27.610  1.00  0.00     0.074 A 
ATOM     39  C   UNL A   1      40.664  27.037  28.785  1.00  0.00     0.049 A 
ATOM     40  N   UNL A   1      43.435  27.531  27.744  1.00  0.00    -0.248 NA
ATOM     41  C   UNL A   1      43.470  25.340  26.936  1.00  0.00     0.031 C 
ATOM     42  C   UNL A   1      39.321  26.854  29.329  1.00  0.00     0.029 A 
ATOM     43  N   UNL A   1      41.026  28.297  29.199  1.00  0.00    -0.354 N 
ATOM     44  C   UNL A   1      44.679  27.270  27.184  1.00  0.00     0.074 A 
ATOM     45  C   UNL A   1      44.655  25.896  26.727  1.00  0.00     0.031 C 
ATOM     46  C   UNL A   1      38.969  27.963  30.003  1.00  0.00     0.029 A 
ATOM     47  C   UNL A   1      40.052  28.943  29.927  1.00  0.00     0.049 A 
ATOM     48  H   UNL A   1      41.900  28.700  28.993  1.00  0.00     0.167 HD
ATOM     49  C   UNL A   1      45.741  28.100  27.042  1.00  0.00     0.034 A 
ATOM     50  C   UNL A   1      40.030  30.186  30.449  1.00  0.00     0.034 A 
ATOM     51  C   UNL A   1      45.773  29.467  27.488  1.00  0.00     0.049 A 
ATOM     52  C   UNL A   1      41.208  31.104  30.227  1.00  0.00     0.074 A 
ATOM     53  C   UNL A   1      46.801  30.388  27.366  1.00  0.00     0.029 A 
ATOM     54  N   UNL A   1      44.741  30.109  28.151  1.00  0.00    -0.354 N 
ATOM     55  N   UNL A   1      42.308  30.894  29.546  1.00  0.00    -0.248 NA
ATOM     56  C   UNL A   1      41.121  32.450  30.818  1.00  0.00     0.031 C 
ATOM     57  C   UNL A   1      46.394  31.583  27.971  1.00  0.00     0.029 A 
ATOM     58  C   UNL A   1      45.105  31.412  28.448  1.00  0.00     0.049 A 
ATOM     59  H   UNL A   1      43.874  29.700  28.376  1.00  0.00     0.167 HD
ATOM     60  C   UNL A   1      43.030  32.083  29.610  1.00  0.00     0.074 A 
ATOM     61  C   UNL A   1      42.216  33.027  30.347  1.00  0.00     0.031 C 
ATOM     62  C   UNL A   1      44.270  32.361  29.137  1.00  0.00     0.034 A 
BRANCH  49  63
ATOM     63  C   UNL A   1      46.954  27.561  26.333  1.00  0.00     0.023 A 
ATOM     64  C   UNL A   1      47.148  27.862  24.970  1.00  0.00     0.012 A 
ATOM     65  C   UNL A   1      47.931  26.818  27.023  1.00  0.00     0.148 A 
ATOM     66  C   UNL A   1      48.284  27.412  24.297  1.00  0.00     0.002 A 
ATOM     67  C   UNL A   1      49.080  26.407  26.357  1.00  0.00     0.091 A 
ATOM     68  F   UNL A   1      47.717  26.526  28.313  1.00  0.00    -0.205 F 
ATOM     69  C   UNL A   1      49.253  26.695  24.992  1.00  0.00     0.022 A 
BRANCH  67  70
ATOM     70  S   UNL A   1      50.421  25.539  27.179  1.00  0.00     0.127 S 
ATOM     71  O   UNL A   1      51.381  25.381  26.087  1.00  0.00    -0.237 OA
ATOM     72  O   UNL A   1      50.820  26.498  28.209  1.00  0.00    -0.237 OA
ATOM     73  O   UNL A   1      49.847  24.302  27.687  1.00  0.00    -0.744 OA
ENDBRANCH  67  70
ENDBRANCH  49  63
BRANCH  50  74
ATOM     74  C   UNL A   1      38.823  30.686  31.174  1.00  0.00     0.023 A 
ATOM     75  C   UNL A   1      38.739  30.526  32.573  1.00  0.00     0.012 A 
ATOM     76  C   UNL A   1      37.754  31.295  30.493  1.00  0.00     0.148 A 
ATOM     77  C   UNL A   1      37.596  30.921  33.272  1.00  0.00     0.002 A 
ATOM     78  C   UNL A   1      36.653  31.756  31.205  1.00  0.00     0.091 A 
ATOM     79  F   UNL A   1      37.827  31.407  29.160  1.00  0.00    -0.205 F 
ATOM     80  C   UNL A   1      36.561  31.552  32.589  1.00  0.00     0.022 A 
BRANCH  78  81
ATOM     81  S   UNL A   1      35.352  32.718  30.425  1.00  0.00     0.127 S 
ATOM     82  O   UNL A   1      36.074  33.917  30.011  1.00  0.00    -0.237 OA
ATOM     83  O   UNL A   1      34.939  31.836  29.331  1.00  0.00    -0.237 OA
ATOM     84  O   UNL A   1      34.339  32.903  31.456  1.00  0.00    -0.744 OA
ENDBRANCH  78  81
ENDBRANCH  50  74
BRANCH  62  85
ATOM     85  C   UNL A   1      44.823  33.740  29.398  1.00  0.00     0.023 A 
ATOM     86  C   UNL A   1      45.485  34.005  30.615  1.00  0.00     0.012 A 
ATOM     87  C   UNL A   1      44.733  34.760  28.430  1.00  0.00     0.148 A 
ATOM     88  C   UNL A   1      46.002  35.271  30.885  1.00  0.00     0.002 A 
ATOM     89  C   UNL A   1      45.295  36.006  28.685  1.00  0.00     0.091 A 
ATOM     90  F   UNL A   1      44.086  34.500  27.284  1.00  0.00    -0.205 F 
ATOM     91  C   UNL A   1      45.917  36.268  29.917  1.00  0.00     0.022 A 
BRANCH  89  92
ATOM     92  S   UNL A   1      45.314  37.320  27.459  1.00  0.00     0.127 S 
ATOM     93  O   UNL A   1      43.886  37.531  27.227  1.00  0.00    -0.237 OA
ATOM     94  O   UNL A   1      45.981  38.408  28.175  1.00  0.00    -0.237 OA
ATOM     95  O   UNL A   1      46.066  36.795  26.328  1.00  0.00    -0.744 OA
ENDBRANCH  89  92
ENDBRANCH  62  85
ENDBRANCH  36  37
ENDBRANCH  29  31
ENDBRANCH  28  29
ENDBRANCH  27  28
ENDBRANCH   1  27
TORSDOF 18
ENDMDL
MODEL 2
REMARK VINA RESULT:     -12.1      1.766      2.176
REMARK SMILES O=C(CSc1ccc(NC(=O)c2cccc3ccccc23)cc1)OCCOC(=O)c1ccc(-c2c3nc(c(-c4cccc(S(=O)(=O)[O-])c4F)c4ccc([nH]4)c(-c4cccc(S(=O)(=O)[O-])c4F)c4nc(c(-c5cccc(S(=O)(=O)[O-])c5F)c5ccc2[nH]5)C=C4)C=C3)cc1
REMARK SMILES IDX 25 1 24 2 2 3 1 4 3 5 4 6 5 7 6 8 23 9 7 10 22 11 8 12 9 13
REMARK SMILES IDX 10 14 11 16 12 17 13 18 21 19 14 20 16 21 20 22 15 23 17 24
REMARK SMILES IDX 19 25 18 26 26 27 27 28 28 29 29 30 30 31 31 32 92 33 32 34
REMARK SMILES IDX 91 35 33 36 34 37 35 38 85 39 36 40 90 41 84 42 86 43 37 44
REMARK SMILES IDX 89 45 83 46 82 47 38 49 70 50 50 51 69 52 51 53 54 54 68 55
REMARK SMILES IDX 87 56 52 57 53 58 67 60 88 61 55 62 39 63 40 64 48 65 41 66
REMARK SMILES IDX 43 67 49 68 42 69 44 70 45 71 46 72 47 73 71 74 72 75 80 76
REMARK SMILES IDX 73 77 75 78 81 79 74 80 76 81 77 82 78 83 79 84 56 85 57 86
REMARK SMILES IDX 65 87 58 88 60 89 66 90 59 91 61 92 62 93 63 94 64 95
REMARK H PARENT 9 15 86 48 54 59
REMARK Flexibility Score: inf
ROOT
ATOM      1  C   UNL A   1      37.129  22.263  24.705  1.00  0.00     0.274 C 
ENDROOT
BRANCH   1   2
ATOM      2  O   UNL A   1      35.826  22.479  25.285  1.00  0.00    -0.461 OA
BRANCH   2   3
ATOM      3  C   UNL A   1      35.013  21.509  25.775  1.00  0.00     0.316 C 
ATOM      4  O   UNL A   1      34.751  21.493  26.978  1.00  0.00    -0.251 OA
BRANCH   3   5
ATOM      5  C   UNL A   1      34.470  20.450  24.839  1.00  0.00     0.197 C 
BRANCH   5   6
ATOM      6  S   UNL A   1      32.718  20.062  25.151  1.00  0.00    -0.114 SA
BRANCH   6   7
ATOM      7  C   UNL A   1      32.045  21.654  24.775  1.00  0.00     0.008 A 
ATOM      8  C   UNL A   1      32.136  22.168  23.481  1.00  0.00     0.017 A 
ATOM      9  C   UNL A   1      31.351  22.358  25.756  1.00  0.00     0.017 A 
ATOM     10  C   UNL A   1      31.457  23.339  23.144  1.00  0.00     0.027 A 
ATOM     11  C   UNL A   1      30.673  23.525  25.417  1.00  0.00     0.027 A 
ATOM     12  C   UNL A   1      30.669  23.984  24.093  1.00  0.00     0.041 A 
BRANCH  12  13
ATOM     13  N   UNL A   1      29.815  25.057  23.823  1.00  0.00    -0.322 N 
ATOM     14  C   UNL A   1      30.010  26.411  23.737  1.00  0.00     0.256 C 
ATOM     15  H   UNL A   1      28.882  24.786  23.662  1.00  0.00     0.170 HD
ATOM     16  O   UNL A   1      29.023  27.131  23.559  1.00  0.00    -0.269 OA
BRANCH  14  17
ATOM     17  C   UNL A   1      31.333  27.062  23.816  1.00  0.00     0.048 A 
ATOM     18  C   UNL A   1      32.042  27.080  22.604  1.00  0.00     0.014 A 
ATOM     19  C   UNL A   1      31.926  27.517  25.032  1.00  0.00    -0.006 A 
ATOM     20  C   UNL A   1      33.353  27.529  22.573  1.00  0.00     0.001 A 
ATOM     21  C   UNL A   1      33.280  27.923  24.978  1.00  0.00    -0.018 A 
ATOM     22  C   UNL A   1      31.279  27.609  26.292  1.00  0.00     0.009 A 
ATOM     23  C   UNL A   1      33.968  27.915  23.758  1.00  0.00     0.009 A 
ATOM     24  C   UNL A   1      33.946  28.347  26.140  1.00  0.00     0.009 A 
ATOM     25  C   UNL A   1      31.933  28.105  27.426  1.00  0.00     0.001 A 
ATOM     26  C   UNL A   1      33.274  28.455  27.354  1.00  0.00     0.001 A 
ENDBRANCH  14  17
ENDBRANCH  12  13
ENDBRANCH   6   7
ENDBRANCH   5   6
ENDBRANCH   3   5
ENDBRANCH   2   3
ENDBRANCH   1   2
BRANCH   1  27
ATOM     27  C   UNL A   1      37.938  21.210  25.464  1.00  0.00     0.275 C 
BRANCH  27  28
ATOM     28  O   UNL A   1      39.340  21.530  25.445  1.00  0.00    -0.458 OA
BRANCH  28  29
ATOM     29  C   UNL A   1      39.991  21.334  26.623  1.00  0.00     0.338 C 
ATOM     30  O   UNL A   1      40.324  20.265  27.091  1.00  0.00    -0.246 OA
BRANCH  29  31
ATOM     31  C   UNL A   1      40.401  22.642  27.194  1.00  0.00     0.060 A 
ATOM     32  C   UNL A   1      39.792  23.791  26.678  1.00  0.00     0.016 A 
ATOM     33  C   UNL A   1      41.359  22.755  28.209  1.00  0.00     0.016 A 
ATOM     34  C   UNL A   1      40.173  25.053  27.140  1.00  0.00     0.010 A 
ATOM     35  C   UNL A   1      41.734  24.023  28.675  1.00  0.00     0.010 A 
ATOM     36  C   UNL A   1      41.167  25.182  28.120  1.00  0.00    -0.014 A 
BRANCH  36  37
ATOM     37  C   UNL A   1      41.661  26.538  28.478  1.00  0.00     0.031 A 
ATOM     38  C   UNL A   1      43.061  26.944  28.106  1.00  0.00     0.074 A 
ATOM     39  C   UNL A   1      40.857  27.422  29.100  1.00  0.00     0.049 A 
ATOM     40  N   UNL A   1      43.635  28.116  28.203  1.00  0.00    -0.248 NA
ATOM     41  C   UNL A   1      43.933  25.891  27.561  1.00  0.00     0.031 C 
ATOM     42  C   UNL A   1      39.502  27.143  29.570  1.00  0.00     0.029 A 
ATOM     43  N   UNL A   1      41.069  28.735  29.443  1.00  0.00    -0.354 N 
ATOM     44  C   UNL A   1      44.935  27.943  27.744  1.00  0.00     0.074 A 
ATOM     45  C   UNL A   1      45.072  26.547  27.388  1.00  0.00     0.031 C 
ATOM     46  C   UNL A   1      39.001  28.254  30.137  1.00  0.00     0.029 A 
ATOM     47  C   UNL A   1      39.990  29.329  30.059  1.00  0.00     0.049 A 
ATOM     48  H   UNL A   1      41.913  29.208  29.265  1.00  0.00     0.167 HD
ATOM     49  C   UNL A   1      45.921  28.862  27.610  1.00  0.00     0.034 A 
ATOM     50  C   UNL A   1      39.814  30.596  30.487  1.00  0.00     0.034 A 
ATOM     51  C   UNL A   1      45.794  30.252  27.957  1.00  0.00     0.049 A 
ATOM     52  C   UNL A   1      40.913  31.609  30.275  1.00  0.00     0.074 A 
ATOM     53  C   UNL A   1      46.736  31.260  27.834  1.00  0.00     0.029 A 
ATOM     54  N   UNL A   1      44.661  30.832  28.504  1.00  0.00    -0.354 N 
ATOM     55  N   UNL A   1      42.073  31.464  29.681  1.00  0.00    -0.248 NA
ATOM     56  C   UNL A   1      40.660  32.976  30.759  1.00  0.00     0.031 C 
ATOM     57  C   UNL A   1      46.177  32.447  28.324  1.00  0.00     0.029 A 
ATOM     58  C   UNL A   1      44.880  32.181  28.729  1.00  0.00     0.049 A 
ATOM     59  H   UNL A   1      43.823  30.356  28.703  1.00  0.00     0.167 HD
ATOM     60  C   UNL A   1      42.674  32.720  29.705  1.00  0.00     0.074 A 
ATOM     61  C   UNL A   1      41.726  33.625  30.318  1.00  0.00     0.031 C 
ATOM     62  C   UNL A   1      43.912  33.086  29.292  1.00  0.00     0.034 A 
BRANCH  49  63
ATOM     63  C   UNL A   1      47.227  28.400  27.021  1.00  0.00     0.023 A 
ATOM     64  C   UNL A   1      48.327  28.173  27.871  1.00  0.00     0.012 A 
ATOM     65  C   UNL A   1      47.348  28.127  25.644  1.00  0.00     0.148 A 
ATOM     66  C   UNL A   1      49.537  27.705  27.359  1.00  0.00     0.002 A 
ATOM     67  C   UNL A   1      48.543  27.622  25.147  1.00  0.00     0.091 A 
ATOM     68  F   UNL A   1      46.295  28.368  24.851  1.00  0.00    -0.205 F 
ATOM     69  C   UNL A   1      49.641  27.420  26.001  1.00  0.00     0.022 A 
BRANCH  67  70
ATOM     70  S   UNL A   1      48.759  27.155  23.425  1.00  0.00     0.127 S 
ATOM     71  O   UNL A   1      47.948  25.940  23.347  1.00  0.00    -0.237 OA
ATOM     72  O   UNL A   1      48.198  28.310  22.723  1.00  0.00    -0.237 OA
ATOM     73  O   UNL A   1      50.188  26.962  23.236  1.00  0.00    -0.744 OA
ENDBRANCH  67  70
ENDBRANCH  49  63
BRANCH  50  74
ATOM     74  C   UNL A   1      38.518  31.020  31.096  1.00  0.00     0.023 A 
ATOM     75  C   UNL A   1      38.300  30.818  32.474  1.00  0.00     0.012 A 
ATOM     76  C   UNL A   1      37.495  31.600  30.323  1.00  0.00     0.148 A 
ATOM     77  C   UNL A   1      37.075  31.143  33.061  1.00  0.00     0.002 A 
ATOM     78  C   UNL A   1      36.307  31.992  30.929  1.00  0.00     0.091 A 
ATOM     79  F   UNL A   1      37.699  31.752  29.007  1.00  0.00    -0.205 F 
ATOM     80  C   UNL A   1      36.085  31.746  32.291  1.00  0.00     0.022 A 
BRANCH  78  81
ATOM     81  S   UNL A   1      35.048  32.916  30.041  1.00  0.00     0.127 S 
ATOM     82  O   UNL A   1      34.552  31.917  29.100  1.00  0.00    -0.237 OA
ATOM     83  O   UNL A   1      34.119  33.268  31.116  1.00  0.00    -0.237 OA
ATOM     84  O   UNL A   1      35.745  34.055  29.459  1.00  0.00    -0.744 OA
ENDBRANCH  78  81
ENDBRANCH  50  74
BRANCH  62  85
ATOM     85  C   UNL A   1      44.314  34.528  29.488  1.00  0.00     0.023 A 
ATOM     86  C   UNL A   1      44.960  34.915  30.680  1.00  0.00     0.012 A 
ATOM     87  C   UNL A   1      44.098  35.490  28.481  1.00  0.00     0.148 A 
ATOM     88  C   UNL A   1      45.338  36.240  30.889  1.00  0.00     0.002 A 
ATOM     89  C   UNL A   1      44.523  36.800  28.676  1.00  0.00     0.091 A 
ATOM     90  F   UNL A   1      43.468  35.113  27.359  1.00  0.00    -0.205 F 
ATOM     91  C   UNL A   1      45.130  37.180  29.883  1.00  0.00     0.022 A 
BRANCH  89  92
ATOM     92  S   UNL A   1      44.379  38.056  27.397  1.00  0.00     0.127 S 
ATOM     93  O   UNL A   1      43.071  37.745  26.821  1.00  0.00    -0.237 OA
ATOM     94  O   UNL A   1      44.425  39.297  28.171  1.00  0.00    -0.237 OA
ATOM     95  O   UNL A   1      45.520  37.855  26.515  1.00  0.00    -0.744 OA
ENDBRANCH  89  92
ENDBRANCH  62  85
ENDBRANCH  36  37
ENDBRANCH  29  31
ENDBRANCH  28  29
ENDBRANCH  27  28
ENDBRANCH   1  27
TORSDOF 18
ENDMDL
MODEL 3
REMARK VINA RESULT:     -12.0      4.333      7.622
REMARK SMILES O=C(CSc1ccc(NC(=O)c2cccc3ccccc23)cc1)OCCOC(=O)c1ccc(-c2c3nc(c(-c4cccc(S(=O)(=O)[O-])c4F)c4ccc([nH]4)c(-c4cccc(S(=O)(=O)[O-])c4F)c4nc(c(-c5cccc(S(=O)(=O)[O-])c5F)c5ccc2[nH]5)C=C4)C=C3)cc1
REMARK SMILES IDX 25 1 24 2 2 3 1 4 3 5 4 6 5 7 6 8 23 9 7 10 22 11 8 12 9 13
REMARK SMILES IDX 10 14 11 16 12 17 13 18 21 19 14 20 16 21 20 22 15 23 17 24
REMARK SMILES IDX 19 25 18 26 26 27 27 28 28 29 29 30 30 31 31 32 92 33 32 34
REMARK SMILES IDX 91 35 33 36 34 37 35 38 85 39 36 40 90 41 84 42 86 43 37 44
REMARK SMILES IDX 89 45 83 46 82 47 38 49 70 50 50 51 69 52 51 53 54 54 68 55
REMARK SMILES IDX 87 56 52 57 53 58 67 60 88 61 55 62 39 63 40 64 48 65 41 66
REMARK SMILES IDX 43 67 49 68 42 69 44 70 45 71 46 72 47 73 71 74 72 75 80 76
REMARK SMILES IDX 73 77 75 78 81 79 74 80 76 81 77 82 78 83 79 84 56 85 57 86
REMARK SMILES IDX 65 87 58 88 60 89 66 90 59 91 61 92 62 93 63 94 64 95
REMARK H PARENT 9 15 86 48 54 59
REMARK Flexibility Score: inf
ROOT
ATOM      1  C   UNL A   1      41.982  20.604  25.986  1.00  0.00     0.274 C 
ENDROOT
BRANCH   1   2
ATOM      2  O   UNL A   1      43.094  19.807  26.442  1.00  0.00    -0.461 OA
BRANCH   2   3
ATOM      3  C   UNL A   1      43.663  18.785  25.753  1.00  0.00     0.316 C 
ATOM      4  O   UNL A   1      43.441  17.625  26.103  1.00  0.00    -0.251 OA
BRANCH   3   5
ATOM      5  C   UNL A   1      44.582  19.093  24.589  1.00  0.00     0.197 C 
BRANCH   5   6
ATOM      6  S   UNL A   1      46.116  19.930  25.102  1.00  0.00    -0.114 SA
BRANCH   6   7
ATOM      7  C   UNL A   1      45.476  21.578  25.193  1.00  0.00     0.008 A 
ATOM      8  C   UNL A   1      45.463  22.259  26.410  1.00  0.00     0.017 A 
ATOM      9  C   UNL A   1      45.062  22.221  24.030  1.00  0.00     0.017 A 
ATOM     10  C   UNL A   1      45.122  23.611  26.451  1.00  0.00     0.027 A 
ATOM     11  C   UNL A   1      44.724  23.571  24.073  1.00  0.00     0.027 A 
ATOM     12  C   UNL A   1      44.817  24.287  25.273  1.00  0.00     0.041 A 
BRANCH  12  13
ATOM     13  N   UNL A   1      44.632  25.670  25.173  1.00  0.00    -0.322 N 
ATOM     14  C   UNL A   1      45.498  26.732  25.162  1.00  0.00     0.256 C 
ATOM     15  H   UNL A   1      43.687  25.935  25.096  1.00  0.00     0.170 HD
ATOM     16  O   UNL A   1      45.021  27.871  25.143  1.00  0.00    -0.269 OA
BRANCH  14  17
ATOM     17  C   UNL A   1      46.968  26.600  25.142  1.00  0.00     0.048 A 
ATOM     18  C   UNL A   1      47.559  26.888  23.901  1.00  0.00     0.014 A 
ATOM     19  C   UNL A   1      47.738  26.091  26.232  1.00  0.00    -0.006 A 
ATOM     20  C   UNL A   1      48.912  26.662  23.706  1.00  0.00     0.001 A 
ATOM     21  C   UNL A   1      49.106  25.825  25.988  1.00  0.00    -0.018 A 
ATOM     22  C   UNL A   1      47.258  25.836  27.543  1.00  0.00     0.009 A 
ATOM     23  C   UNL A   1      49.664  26.107  24.735  1.00  0.00     0.009 A 
ATOM     24  C   UNL A   1      49.920  25.288  26.999  1.00  0.00     0.009 A 
ATOM     25  C   UNL A   1      48.099  25.371  28.561  1.00  0.00     0.001 A 
ATOM     26  C   UNL A   1      49.427  25.077  28.282  1.00  0.00     0.001 A 
ENDBRANCH  14  17
ENDBRANCH  12  13
ENDBRANCH   6   7
ENDBRANCH   5   6
ENDBRANCH   3   5
ENDBRANCH   2   3
ENDBRANCH   1   2
BRANCH   1  27
ATOM     27  C   UNL A   1      40.687  20.280  26.731  1.00  0.00     0.275 C 
BRANCH  27  28
ATOM     28  O   UNL A   1      40.247  21.406  27.509  1.00  0.00    -0.458 OA
BRANCH  28  29
ATOM     29  C   UNL A   1      39.715  22.430  26.789  1.00  0.00     0.338 C 
ATOM     30  O   UNL A   1      38.946  22.328  25.855  1.00  0.00    -0.246 OA
BRANCH  29  31
ATOM     31  C   UNL A   1      40.071  23.726  27.419  1.00  0.00     0.060 A 
ATOM     32  C   UNL A   1      39.213  24.809  27.197  1.00  0.00     0.016 A 
ATOM     33  C   UNL A   1      41.216  23.892  28.208  1.00  0.00     0.016 A 
ATOM     34  C   UNL A   1      39.521  26.066  27.721  1.00  0.00     0.010 A 
ATOM     35  C   UNL A   1      41.518  25.154  28.739  1.00  0.00     0.010 A 
ATOM     36  C   UNL A   1      40.690  26.257  28.471  1.00  0.00    -0.014 A 
BRANCH  36  37
ATOM     37  C   UNL A   1      41.071  27.634  28.883  1.00  0.00     0.031 A 
ATOM     38  C   UNL A   1      42.507  28.071  28.786  1.00  0.00     0.074 A 
ATOM     39  C   UNL A   1      40.138  28.508  29.309  1.00  0.00     0.049 A 
ATOM     40  N   UNL A   1      43.022  29.261  28.963  1.00  0.00    -0.248 NA
ATOM     41  C   UNL A   1      43.495  27.031  28.454  1.00  0.00     0.031 C 
ATOM     42  C   UNL A   1      38.724  28.202  29.508  1.00  0.00     0.029 A 
ATOM     43  N   UNL A   1      40.247  29.834  29.651  1.00  0.00    -0.354 N 
ATOM     44  C   UNL A   1      44.392  29.115  28.776  1.00  0.00     0.074 A 
ATOM     45  C   UNL A   1      44.630  27.715  28.492  1.00  0.00     0.031 C 
ATOM     46  C   UNL A   1      38.094  29.310  29.934  1.00  0.00     0.029 A 
ATOM     47  C   UNL A   1      39.053  30.410  30.024  1.00  0.00     0.049 A 
ATOM     48  H   UNL A   1      41.098  30.327  29.632  1.00  0.00     0.167 HD
ATOM     49  C   UNL A   1      45.363  30.058  28.816  1.00  0.00     0.034 A 
ATOM     50  C   UNL A   1      38.766  31.681  30.374  1.00  0.00     0.034 A 
ATOM     51  C   UNL A   1      45.136  31.451  29.092  1.00  0.00     0.049 A 
ATOM     52  C   UNL A   1      39.862  32.719  30.357  1.00  0.00     0.074 A 
ATOM     53  C   UNL A   1      46.060  32.483  29.131  1.00  0.00     0.029 A 
ATOM     54  N   UNL A   1      43.904  32.011  29.388  1.00  0.00    -0.354 N 
ATOM     55  N   UNL A   1      41.120  32.595  30.010  1.00  0.00    -0.248 NA
ATOM     56  C   UNL A   1      39.485  34.090  30.744  1.00  0.00     0.031 C 
ATOM     57  C   UNL A   1      45.388  33.664  29.468  1.00  0.00     0.029 A 
ATOM     58  C   UNL A   1      44.042  33.370  29.614  1.00  0.00     0.049 A 
ATOM     59  H   UNL A   1      43.055  31.515  29.429  1.00  0.00     0.167 HD
ATOM     60  C   UNL A   1      41.674  33.867  30.117  1.00  0.00     0.074 A 
ATOM     61  C   UNL A   1      40.602  34.759  30.505  1.00  0.00     0.031 C 
ATOM     62  C   UNL A   1      42.961  34.260  29.949  1.00  0.00     0.034 A 
BRANCH  49  63
ATOM     63  C   UNL A   1      46.770  29.620  28.510  1.00  0.00     0.023 A 
ATOM     64  C   UNL A   1      47.263  29.749  27.196  1.00  0.00     0.012 A 
ATOM     65  C   UNL A   1      47.623  29.148  29.526  1.00  0.00     0.148 A 
ATOM     66  C   UNL A   1      48.576  29.390  26.892  1.00  0.00     0.002 A 
ATOM     67  C   UNL A   1      48.942  28.831  29.224  1.00  0.00     0.091 A 
ATOM     68  F   UNL A   1      47.128  29.015  30.764  1.00  0.00    -0.205 F 
ATOM     69  C   UNL A   1      49.417  28.943  27.906  1.00  0.00     0.022 A 
BRANCH  67  70
ATOM     70  S   UNL A   1      50.126  28.312  30.472  1.00  0.00     0.127 S 
ATOM     71  O   UNL A   1      51.298  28.004  29.653  1.00  0.00    -0.237 OA
ATOM     72  O   UNL A   1      50.254  29.517  31.292  1.00  0.00    -0.237 OA
ATOM     73  O   UNL A   1      49.524  27.174  31.149  1.00  0.00    -0.744 OA
ENDBRANCH  67  70
ENDBRANCH  49  63
BRANCH  50  74
ATOM     74  C   UNL A   1      37.365  32.082  30.701  1.00  0.00     0.023 A 
ATOM     75  C   UNL A   1      36.878  31.895  32.012  1.00  0.00     0.012 A 
ATOM     76  C   UNL A   1      36.507  32.625  29.728  1.00  0.00     0.148 A 
ATOM     77  C   UNL A   1      35.553  32.197  32.334  1.00  0.00     0.002 A 
ATOM     78  C   UNL A   1      35.213  32.996  30.075  1.00  0.00     0.091 A 
ATOM     79  F   UNL A   1      36.968  32.762  28.477  1.00  0.00    -0.205 F 
ATOM     80  C   UNL A   1      34.727  32.764  31.369  1.00  0.00     0.022 A 
BRANCH  78  81
ATOM     81  S   UNL A   1      34.139  33.875  28.935  1.00  0.00     0.127 S 
ATOM     82  O   UNL A   1      33.128  34.418  29.836  1.00  0.00    -0.237 OA
ATOM     83  O   UNL A   1      35.053  34.865  28.362  1.00  0.00    -0.237 OA
ATOM     84  O   UNL A   1      33.680  32.870  27.986  1.00  0.00    -0.744 OA
ENDBRANCH  78  81
ENDBRANCH  50  74
BRANCH  62  85
ATOM     85  C   UNL A   1      43.282  35.716  30.181  1.00  0.00     0.023 A 
ATOM     86  C   UNL A   1      43.762  36.131  31.441  1.00  0.00     0.012 A 
ATOM     87  C   UNL A   1      43.155  36.666  29.148  1.00  0.00     0.148 A 
ATOM     88  C   UNL A   1      44.062  37.470  31.684  1.00  0.00     0.002 A 
ATOM     89  C   UNL A   1      43.504  37.992  29.383  1.00  0.00     0.091 A 
ATOM     90  F   UNL A   1      42.681  36.262  27.960  1.00  0.00    -0.205 F 
ATOM     91  C   UNL A   1      43.944  38.398  30.653  1.00  0.00     0.022 A 
BRANCH  89  92
ATOM     92  S   UNL A   1      43.471  39.237  28.087  1.00  0.00     0.127 S 
ATOM     93  O   UNL A   1      44.342  38.638  27.077  1.00  0.00    -0.237 OA
ATOM     94  O   UNL A   1      42.054  39.275  27.725  1.00  0.00    -0.237 OA
ATOM     95  O   UNL A   1      43.967  40.461  28.702  1.00  0.00    -0.744 OA
ENDBRANCH  89  92
ENDBRANCH  62  85
ENDBRANCH  36  37
ENDBRANCH  29  31
ENDBRANCH  28  29
ENDBRANCH  27  28
ENDBRANCH   1  27
TORSDOF 18
ENDMDL
