MODEL 1
REMARK VINA RESULT:     -13.3      0.000      0.000
REMARK SMILES CC1=C(CC(=O)OCCOC(=O)c2ccc(-c3c4nc(c(-c5cccc(S(=O)(=O)[O-])c5F)c5ccc([nH]5)c(-c5cccc(S(=O)(=O)[O-])c5F)c5nc(c(-c6cccc(S(=O)(=O)[O-])c6F)c6ccc3[nH]6)C=C5)C=C4)cc2)c2cc(F)ccc2/C1=C\c1cccc(OCc2ccccc2)c1
REMARK SMILES IDX 8 1 7 2 5 3 6 4 4 5 3 6 1 7 2 8 83 9 76 10 82 11 84 12 77 13
REMARK SMILES IDX 81 14 78 15 80 16 79 17 85 18 86 19 98 20 87 21 89 22 88 23
REMARK SMILES IDX 90 24 91 25 92 26 93 27 97 28 94 29 96 30 95 31 9 32 10 33
REMARK SMILES IDX 11 34 12 35 13 36 14 37 75 38 15 39 74 40 16 41 17 42 18 43
REMARK SMILES IDX 68 44 19 45 73 46 67 47 69 48 20 49 72 50 66 51 65 52 21 54
REMARK SMILES IDX 53 55 33 56 52 57 34 58 37 59 51 60 70 61 35 62 36 63 50 65
REMARK SMILES IDX 71 66 38 67 22 68 23 69 31 70 24 71 26 72 32 73 25 74 27 75
REMARK SMILES IDX 28 76 29 77 30 78 54 79 55 80 63 81 56 82 58 83 64 84 57 85
REMARK SMILES IDX 59 86 60 87 61 88 62 89 39 90 40 91 48 92 41 93 43 94 49 95
REMARK SMILES IDX 42 96 44 97 45 98 46 99 47 100
REMARK H PARENT 69 53 37 64
REMARK Flexibility Score: inf
ROOT
ATOM      1  C   UNL A   1      31.422  29.419  25.677  1.00  0.00     0.274 C 
ENDROOT
BRANCH   1   2
ATOM      2  O   UNL A   1      31.575  29.405  24.243  1.00  0.00    -0.462 OA
BRANCH   2   3
ATOM      3  C   UNL A   1      30.440  29.182  23.529  1.00  0.00     0.310 C 
ATOM      4  O   UNL A   1      29.484  29.951  23.488  1.00  0.00    -0.252 OA
BRANCH   3   5
ATOM      5  C   UNL A   1      30.436  27.870  22.756  1.00  0.00     0.159 C 
BRANCH   5   6
ATOM      6  C   UNL A   1      31.357  26.803  23.245  1.00  0.00    -0.025 C 
ATOM      7  C   UNL A   1      33.368  27.188  21.728  1.00  0.00     0.045 C 
ATOM      8  C   UNL A   1      32.605  26.510  22.816  1.00  0.00    -0.039 C 
ATOM      9  C   UNL A   1      33.156  25.413  23.625  1.00  0.00    -0.014 C 
ATOM     10  C   UNL A   1      31.054  25.920  24.385  1.00  0.00    -0.011 A 
ATOM     11  C   UNL A   1      32.129  25.045  24.616  1.00  0.00    -0.010 A 
ATOM     12  C   UNL A   1      34.396  24.916  23.474  1.00  0.00     0.017 C 
ATOM     13  C   UNL A   1      29.935  25.879  25.202  1.00  0.00     0.048 A 
ATOM     14  C   UNL A   1      32.068  24.093  25.629  1.00  0.00     0.012 A 
ATOM     15  C   UNL A   1      29.876  24.922  26.209  1.00  0.00     0.123 A 
ATOM     16  C   UNL A   1      30.923  24.028  26.424  1.00  0.00     0.040 A 
ATOM     17  F   UNL A   1      28.792  24.863  26.995  1.00  0.00    -0.207 F 
BRANCH  12  18
ATOM     18  C   UNL A   1      35.021  23.920  24.341  1.00  0.00    -0.021 A 
ATOM     19  C   UNL A   1      35.903  24.293  25.357  1.00  0.00     0.008 A 
ATOM     20  C   UNL A   1      34.752  22.565  24.106  1.00  0.00     0.054 A 
ATOM     21  C   UNL A   1      36.528  23.308  26.121  1.00  0.00     0.004 A 
ATOM     22  C   UNL A   1      35.341  21.578  24.892  1.00  0.00     0.120 A 
ATOM     23  C   UNL A   1      36.244  21.959  25.889  1.00  0.00     0.046 A 
BRANCH  22  24
ATOM     24  O   UNL A   1      35.119  20.232  24.792  1.00  0.00    -0.489 OA
BRANCH  24  25
ATOM     25  C   UNL A   1      33.784  19.777  24.526  1.00  0.00     0.265 C 
BRANCH  25  26
ATOM     26  C   UNL A   1      33.623  18.285  24.728  1.00  0.00    -0.011 A 
ATOM     27  C   UNL A   1      34.586  17.394  24.234  1.00  0.00     0.007 A 
ATOM     28  C   UNL A   1      32.523  17.772  25.429  1.00  0.00     0.007 A 
ATOM     29  C   UNL A   1      34.466  16.023  24.464  1.00  0.00     0.000 A 
ATOM     30  C   UNL A   1      32.409  16.402  25.669  1.00  0.00     0.000 A 
ATOM     31  C   UNL A   1      33.383  15.528  25.189  1.00  0.00     0.000 A 
ENDBRANCH  25  26
ENDBRANCH  24  25
ENDBRANCH  22  24
ENDBRANCH  12  18
ENDBRANCH   5   6
ENDBRANCH   3   5
ENDBRANCH   2   3
ENDBRANCH   1   2
BRANCH   1  32
ATOM     32  C   UNL A   1      31.860  30.763  26.251  1.00  0.00     0.275 C 
BRANCH  32  33
ATOM     33  O   UNL A   1      33.273  30.735  26.509  1.00  0.00    -0.458 OA
BRANCH  33  34
ATOM     34  C   UNL A   1      33.732  31.698  27.341  1.00  0.00     0.338 C 
ATOM     35  O   UNL A   1      33.221  32.779  27.573  1.00  0.00    -0.246 OA
BRANCH  34  36
ATOM     36  C   UNL A   1      35.009  31.261  27.929  1.00  0.00     0.060 A 
ATOM     37  C   UNL A   1      36.029  32.195  28.087  1.00  0.00     0.016 A 
ATOM     38  C   UNL A   1      35.167  29.956  28.407  1.00  0.00     0.016 A 
ATOM     39  C   UNL A   1      37.226  31.807  28.688  1.00  0.00     0.010 A 
ATOM     40  C   UNL A   1      36.322  29.603  29.103  1.00  0.00     0.010 A 
ATOM     41  C   UNL A   1      37.381  30.510  29.214  1.00  0.00    -0.014 A 
BRANCH  41  42
ATOM     42  C   UNL A   1      38.665  30.112  29.847  1.00  0.00     0.031 A 
ATOM     43  C   UNL A   1      39.024  30.611  31.222  1.00  0.00     0.074 A 
ATOM     44  C   UNL A   1      39.502  29.284  29.193  1.00  0.00     0.049 A 
ATOM     45  N   UNL A   1      40.028  30.258  31.984  1.00  0.00    -0.248 NA
ATOM     46  C   UNL A   1      38.164  31.649  31.817  1.00  0.00     0.031 C 
ATOM     47  C   UNL A   1      39.320  28.807  27.820  1.00  0.00     0.029 A 
ATOM     48  N   UNL A   1      40.669  28.685  29.599  1.00  0.00    -0.354 N 
ATOM     49  C   UNL A   1      39.925  31.032  33.133  1.00  0.00     0.074 A 
ATOM     50  C   UNL A   1      38.793  31.911  32.954  1.00  0.00     0.031 C 
ATOM     51  C   UNL A   1      40.311  27.953  27.517  1.00  0.00     0.029 A 
ATOM     52  C   UNL A   1      41.200  27.826  28.667  1.00  0.00     0.049 A 
ATOM     53  H   UNL A   1      41.084  28.855  30.475  1.00  0.00     0.167 HD
ATOM     54  C   UNL A   1      40.673  30.983  34.259  1.00  0.00     0.034 A 
ATOM     55  C   UNL A   1      42.263  27.000  28.742  1.00  0.00     0.034 A 
ATOM     56  C   UNL A   1      41.757  30.067  34.466  1.00  0.00     0.049 A 
ATOM     57  C   UNL A   1      43.037  26.912  30.028  1.00  0.00     0.074 A 
ATOM     58  C   UNL A   1      42.520  29.883  35.606  1.00  0.00     0.029 A 
ATOM     59  N   UNL A   1      42.229  29.176  33.516  1.00  0.00    -0.354 N 
ATOM     60  N   UNL A   1      42.825  27.540  31.160  1.00  0.00    -0.248 NA
ATOM     61  C   UNL A   1      44.172  25.976  30.063  1.00  0.00     0.031 C 
ATOM     62  C   UNL A   1      43.452  28.875  35.345  1.00  0.00     0.029 A 
ATOM     63  C   UNL A   1      43.271  28.435  34.044  1.00  0.00     0.049 A 
ATOM     64  H   UNL A   1      41.874  29.083  32.602  1.00  0.00     0.167 HD
ATOM     65  C   UNL A   1      43.786  27.064  32.045  1.00  0.00     0.074 A 
ATOM     66  C   UNL A   1      44.570  26.082  31.326  1.00  0.00     0.031 C 
ATOM     67  C   UNL A   1      44.006  27.424  33.331  1.00  0.00     0.034 A 
BRANCH  54  68
ATOM     68  C   UNL A   1      40.276  31.875  35.402  1.00  0.00     0.023 A 
ATOM     69  C   UNL A   1      40.947  33.104  35.565  1.00  0.00     0.012 A 
ATOM     70  C   UNL A   1      39.206  31.547  36.255  1.00  0.00     0.148 A 
ATOM     71  C   UNL A   1      40.569  33.990  36.572  1.00  0.00     0.002 A 
ATOM     72  C   UNL A   1      38.816  32.449  37.239  1.00  0.00     0.091 A 
ATOM     73  F   UNL A   1      38.595  30.366  36.088  1.00  0.00    -0.205 F 
ATOM     74  C   UNL A   1      39.498  33.667  37.401  1.00  0.00     0.022 A 
BRANCH  72  75
ATOM     75  S   UNL A   1      37.419  32.159  38.331  1.00  0.00     0.127 S 
ATOM     76  O   UNL A   1      37.917  32.699  39.596  1.00  0.00    -0.237 OA
ATOM     77  O   UNL A   1      36.367  32.954  37.699  1.00  0.00    -0.237 OA
ATOM     78  O   UNL A   1      37.190  30.721  38.320  1.00  0.00    -0.744 OA
ENDBRANCH  72  75
ENDBRANCH  54  68
BRANCH  55  79
ATOM     79  C   UNL A   1      42.576  26.107  27.594  1.00  0.00     0.023 A 
ATOM     80  C   UNL A   1      43.464  26.559  26.599  1.00  0.00     0.012 A 
ATOM     81  C   UNL A   1      42.056  24.802  27.515  1.00  0.00     0.148 A 
ATOM     82  C   UNL A   1      43.822  25.728  25.537  1.00  0.00     0.002 A 
ATOM     83  C   UNL A   1      42.444  23.966  26.475  1.00  0.00     0.091 A 
ATOM     84  F   UNL A   1      41.207  24.400  28.472  1.00  0.00    -0.205 F 
ATOM     85  C   UNL A   1      43.320  24.430  25.480  1.00  0.00     0.022 A 
BRANCH  83  86
ATOM     86  S   UNL A   1      41.927  22.249  26.364  1.00  0.00     0.127 S 
ATOM     87  O   UNL A   1      42.460  21.696  27.607  1.00  0.00    -0.237 OA
ATOM     88  O   UNL A   1      40.470  22.376  26.320  1.00  0.00    -0.237 OA
ATOM     89  O   UNL A   1      42.526  21.734  25.140  1.00  0.00    -0.744 OA
ENDBRANCH  83  86
ENDBRANCH  55  79
BRANCH  67  90
ATOM     90  C   UNL A   1      45.140  26.768  34.068  1.00  0.00     0.023 A 
ATOM     91  C   UNL A   1      46.408  27.378  34.051  1.00  0.00     0.012 A 
ATOM     92  C   UNL A   1      44.916  25.642  34.884  1.00  0.00     0.148 A 
ATOM     93  C   UNL A   1      47.444  26.872  34.835  1.00  0.00     0.002 A 
ATOM     94  C   UNL A   1      45.944  25.163  35.686  1.00  0.00     0.091 A 
ATOM     95  F   UNL A   1      43.699  25.079  34.874  1.00  0.00    -0.205 F 
ATOM     96  C   UNL A   1      47.208  25.776  35.661  1.00  0.00     0.022 A 
BRANCH  94  97
ATOM     97  S   UNL A   1      45.721  23.806  36.841  1.00  0.00     0.127 S 
ATOM     98  O   UNL A   1      44.779  24.383  37.799  1.00  0.00    -0.237 OA
ATOM     99  O   UNL A   1      45.158  22.761  35.986  1.00  0.00    -0.237 OA
ATOM    100  O   UNL A   1      47.042  23.507  37.376  1.00  0.00    -0.744 OA
ENDBRANCH  94  97
ENDBRANCH  67  90
ENDBRANCH  41  42
ENDBRANCH  34  36
ENDBRANCH  33  34
ENDBRANCH  32  33
ENDBRANCH   1  32
TORSDOF 19
ENDMDL
MODEL 2
REMARK VINA RESULT:     -12.8      4.658     11.105
REMARK SMILES CC1=C(CC(=O)OCCOC(=O)c2ccc(-c3c4nc(c(-c5cccc(S(=O)(=O)[O-])c5F)c5ccc([nH]5)c(-c5cccc(S(=O)(=O)[O-])c5F)c5nc(c(-c6cccc(S(=O)(=O)[O-])c6F)c6ccc3[nH]6)C=C5)C=C4)cc2)c2cc(F)ccc2/C1=C\c1cccc(OCc2ccccc2)c1
REMARK SMILES IDX 8 1 7 2 5 3 6 4 4 5 3 6 1 7 2 8 83 9 76 10 82 11 84 12 77 13
REMARK SMILES IDX 81 14 78 15 80 16 79 17 85 18 86 19 98 20 87 21 89 22 88 23
REMARK SMILES IDX 90 24 91 25 92 26 93 27 97 28 94 29 96 30 95 31 9 32 10 33
REMARK SMILES IDX 11 34 12 35 13 36 14 37 75 38 15 39 74 40 16 41 17 42 18 43
REMARK SMILES IDX 68 44 19 45 73 46 67 47 69 48 20 49 72 50 66 51 65 52 21 54
REMARK SMILES IDX 53 55 33 56 52 57 34 58 37 59 51 60 70 61 35 62 36 63 50 65
REMARK SMILES IDX 71 66 38 67 22 68 23 69 31 70 24 71 26 72 32 73 25 74 27 75
REMARK SMILES IDX 28 76 29 77 30 78 54 79 55 80 63 81 56 82 58 83 64 84 57 85
REMARK SMILES IDX 59 86 60 87 61 88 62 89 39 90 40 91 48 92 41 93 43 94 49 95
REMARK SMILES IDX 42 96 44 97 45 98 46 99 47 100
REMARK H PARENT 69 53 37 64
REMARK Flexibility Score: inf
ROOT
ATOM      1  C   UNL A   1      44.241  19.770  25.030  1.00  0.00     0.274 C 
ENDROOT
BRANCH   1   2
ATOM      2  O   UNL A   1      43.325  20.558  25.817  1.00  0.00    -0.462 OA
BRANCH   2   3
ATOM      3  C   UNL A   1      42.175  19.935  26.186  1.00  0.00     0.310 C 
ATOM      4  O   UNL A   1      41.612  19.070  25.522  1.00  0.00    -0.252 OA
BRANCH   3   5
ATOM      5  C   UNL A   1      41.616  20.395  27.525  1.00  0.00     0.159 C 
BRANCH   5   6
ATOM      6  C   UNL A   1      41.177  21.818  27.611  1.00  0.00    -0.025 C 
ATOM      7  C   UNL A   1      43.097  22.823  28.952  1.00  0.00     0.045 C 
ATOM      8  C   UNL A   1      41.802  22.856  28.212  1.00  0.00    -0.039 C 
ATOM      9  C   UNL A   1      41.027  24.086  27.997  1.00  0.00    -0.014 C 
ATOM     10  C   UNL A   1      39.971  22.344  26.946  1.00  0.00    -0.011 A 
ATOM     11  C   UNL A   1      39.847  23.723  27.193  1.00  0.00    -0.010 A 
ATOM     12  C   UNL A   1      41.405  25.300  28.434  1.00  0.00     0.017 C 
ATOM     13  C   UNL A   1      39.042  21.692  26.151  1.00  0.00     0.048 A 
ATOM     14  C   UNL A   1      38.768  24.441  26.688  1.00  0.00     0.012 A 
ATOM     15  C   UNL A   1      37.962  22.414  25.653  1.00  0.00     0.123 A 
ATOM     16  C   UNL A   1      37.813  23.774  25.920  1.00  0.00     0.040 A 
ATOM     17  F   UNL A   1      37.049  21.791  24.896  1.00  0.00    -0.207 F 
BRANCH  12  18
ATOM     18  C   UNL A   1      40.729  26.559  28.129  1.00  0.00    -0.021 A 
ATOM     19  C   UNL A   1      41.010  27.267  26.960  1.00  0.00     0.008 A 
ATOM     20  C   UNL A   1      39.818  27.072  29.061  1.00  0.00     0.054 A 
ATOM     21  C   UNL A   1      40.391  28.497  26.736  1.00  0.00     0.004 A 
ATOM     22  C   UNL A   1      39.165  28.279  28.825  1.00  0.00     0.120 A 
ATOM     23  C   UNL A   1      39.472  28.996  27.665  1.00  0.00     0.046 A 
BRANCH  22  24
ATOM     24  O   UNL A   1      38.222  28.855  29.632  1.00  0.00    -0.489 OA
BRANCH  24  25
ATOM     25  C   UNL A   1      38.664  29.651  30.740  1.00  0.00     0.265 C 
BRANCH  25  26
ATOM     26  C   UNL A   1      38.910  31.096  30.362  1.00  0.00    -0.011 A 
ATOM     27  C   UNL A   1      37.907  31.845  29.731  1.00  0.00     0.007 A 
ATOM     28  C   UNL A   1      40.134  31.714  30.654  1.00  0.00     0.007 A 
ATOM     29  C   UNL A   1      38.114  33.192  29.427  1.00  0.00     0.000 A 
ATOM     30  C   UNL A   1      40.336  33.064  30.362  1.00  0.00     0.000 A 
ATOM     31  C   UNL A   1      39.324  33.803  29.751  1.00  0.00     0.000 A 
ENDBRANCH  25  26
ENDBRANCH  24  25
ENDBRANCH  22  24
ENDBRANCH  12  18
ENDBRANCH   5   6
ENDBRANCH   3   5
ENDBRANCH   2   3
ENDBRANCH   1   2
BRANCH   1  32
ATOM     32  C   UNL A   1      45.462  20.597  24.638  1.00  0.00     0.275 C 
BRANCH  32  33
ATOM     33  O   UNL A   1      45.537  21.763  25.473  1.00  0.00    -0.458 OA
BRANCH  33  34
ATOM     34  C   UNL A   1      45.610  22.945  24.819  1.00  0.00     0.338 C 
ATOM     35  O   UNL A   1      45.751  23.119  23.622  1.00  0.00    -0.246 OA
BRANCH  34  36
ATOM     36  C   UNL A   1      45.526  24.044  25.795  1.00  0.00     0.060 A 
ATOM     37  C   UNL A   1      44.311  24.703  25.959  1.00  0.00     0.016 A 
ATOM     38  C   UNL A   1      46.617  24.360  26.611  1.00  0.00     0.016 A 
ATOM     39  C   UNL A   1      44.204  25.712  26.916  1.00  0.00     0.010 A 
ATOM     40  C   UNL A   1      46.473  25.293  27.638  1.00  0.00     0.010 A 
ATOM     41  C   UNL A   1      45.279  26.010  27.774  1.00  0.00    -0.014 A 
BRANCH  41  42
ATOM     42  C   UNL A   1      45.149  27.091  28.785  1.00  0.00     0.031 A 
ATOM     43  C   UNL A   1      45.195  28.537  28.365  1.00  0.00     0.074 A 
ATOM     44  C   UNL A   1      44.969  26.773  30.081  1.00  0.00     0.049 A 
ATOM     45  N   UNL A   1      44.959  29.605  29.084  1.00  0.00    -0.248 NA
ATOM     46  C   UNL A   1      45.570  28.831  26.971  1.00  0.00     0.031 C 
ATOM     47  C   UNL A   1      45.003  25.417  30.632  1.00  0.00     0.029 A 
ATOM     48  N   UNL A   1      44.709  27.567  31.171  1.00  0.00    -0.354 N 
ATOM     49  C   UNL A   1      45.165  30.687  28.238  1.00  0.00     0.074 A 
ATOM     50  C   UNL A   1      45.595  30.156  26.965  1.00  0.00     0.031 C 
ATOM     51  C   UNL A   1      44.725  25.469  31.945  1.00  0.00     0.029 A 
ATOM     52  C   UNL A   1      44.499  26.859  32.330  1.00  0.00     0.049 A 
ATOM     53  H   UNL A   1      44.676  28.550  31.125  1.00  0.00     0.167 HD
ATOM     54  C   UNL A   1      44.966  32.003  28.479  1.00  0.00     0.034 A 
ATOM     55  C   UNL A   1      44.130  27.277  33.557  1.00  0.00     0.034 A 
ATOM     56  C   UNL A   1      44.478  32.529  29.721  1.00  0.00     0.049 A 
ATOM     57  C   UNL A   1      43.848  28.736  33.784  1.00  0.00     0.074 A 
ATOM     58  C   UNL A   1      44.163  33.840  30.033  1.00  0.00     0.029 A 
ATOM     59  N   UNL A   1      44.226  31.772  30.853  1.00  0.00    -0.354 N 
ATOM     60  N   UNL A   1      43.896  29.726  32.924  1.00  0.00    -0.248 NA
ATOM     61  C   UNL A   1      43.424  29.134  35.135  1.00  0.00     0.031 C 
ATOM     62  C   UNL A   1      43.716  33.874  31.357  1.00  0.00     0.029 A 
ATOM     63  C   UNL A   1      43.756  32.586  31.867  1.00  0.00     0.049 A 
ATOM     64  H   UNL A   1      44.361  30.799  30.925  1.00  0.00     0.167 HD
ATOM     65  C   UNL A   1      43.494  30.857  33.624  1.00  0.00     0.074 A 
ATOM     66  C   UNL A   1      43.187  30.431  34.973  1.00  0.00     0.031 C 
ATOM     67  C   UNL A   1      43.404  32.136  33.188  1.00  0.00     0.034 A 
BRANCH  54  68
ATOM     68  C   UNL A   1      45.174  32.962  27.340  1.00  0.00     0.023 A 
ATOM     69  C   UNL A   1      44.138  33.128  26.398  1.00  0.00     0.012 A 
ATOM     70  C   UNL A   1      46.337  33.747  27.242  1.00  0.00     0.148 A 
ATOM     71  C   UNL A   1      44.262  34.052  25.363  1.00  0.00     0.002 A 
ATOM     72  C   UNL A   1      46.442  34.688  26.223  1.00  0.00     0.091 A 
ATOM     73  F   UNL A   1      47.313  33.560  28.141  1.00  0.00    -0.205 F 
ATOM     74  C   UNL A   1      45.408  34.839  25.282  1.00  0.00     0.022 A 
BRANCH  72  75
ATOM     75  S   UNL A   1      47.851  35.789  26.052  1.00  0.00     0.127 S 
ATOM     76  O   UNL A   1      48.700  35.039  25.128  1.00  0.00    -0.237 OA
ATOM     77  O   UNL A   1      47.235  36.987  25.480  1.00  0.00    -0.237 OA
ATOM     78  O   UNL A   1      48.394  35.961  27.392  1.00  0.00    -0.744 OA
ENDBRANCH  72  75
ENDBRANCH  54  68
BRANCH  55  79
ATOM     79  C   UNL A   1      43.894  26.273  34.630  1.00  0.00     0.023 A 
ATOM     80  C   UNL A   1      42.672  25.574  34.656  1.00  0.00     0.012 A 
ATOM     81  C   UNL A   1      44.888  25.963  35.577  1.00  0.00     0.148 A 
ATOM     82  C   UNL A   1      42.438  24.588  35.616  1.00  0.00     0.002 A 
ATOM     83  C   UNL A   1      44.664  24.955  36.507  1.00  0.00     0.091 A 
ATOM     84  F   UNL A   1      46.040  26.649  35.534  1.00  0.00    -0.205 F 
ATOM     85  C   UNL A   1      43.437  24.272  36.534  1.00  0.00     0.022 A 
BRANCH  83  86
ATOM     86  S   UNL A   1      45.919  24.410  37.671  1.00  0.00     0.127 S 
ATOM     87  O   UNL A   1      47.125  24.445  36.847  1.00  0.00    -0.237 OA
ATOM     88  O   UNL A   1      45.847  25.448  38.699  1.00  0.00    -0.237 OA
ATOM     89  O   UNL A   1      45.501  23.089  38.115  1.00  0.00    -0.744 OA
ENDBRANCH  83  86
ENDBRANCH  55  79
BRANCH  67  90
ATOM     90  C   UNL A   1      42.961  33.189  34.165  1.00  0.00     0.023 A 
ATOM     91  C   UNL A   1      43.936  33.959  34.827  1.00  0.00     0.012 A 
ATOM     92  C   UNL A   1      41.598  33.509  34.314  1.00  0.00     0.148 A 
ATOM     93  C   UNL A   1      43.559  35.034  35.631  1.00  0.00     0.002 A 
ATOM     94  C   UNL A   1      41.232  34.601  35.091  1.00  0.00     0.091 A 
ATOM     95  F   UNL A   1      40.693  32.754  33.675  1.00  0.00    -0.205 F 
ATOM     96  C   UNL A   1      42.211  35.361  35.752  1.00  0.00     0.022 A 
BRANCH  94  97
ATOM     97  S   UNL A   1      39.530  35.152  35.248  1.00  0.00     0.127 S 
ATOM     98  O   UNL A   1      38.981  34.164  36.175  1.00  0.00    -0.237 OA
ATOM     99  O   UNL A   1      39.689  36.493  35.809  1.00  0.00    -0.237 OA
ATOM    100  O   UNL A   1      38.968  35.119  33.904  1.00  0.00    -0.744 OA
ENDBRANCH  94  97
ENDBRANCH  67  90
ENDBRANCH  41  42
ENDBRANCH  34  36
ENDBRANCH  33  34
ENDBRANCH  32  33
ENDBRANCH   1  32
TORSDOF 19
ENDMDL
MODEL 3
REMARK VINA RESULT:     -12.7      1.643      2.276
REMARK SMILES CC1=C(CC(=O)OCCOC(=O)c2ccc(-c3c4nc(c(-c5cccc(S(=O)(=O)[O-])c5F)c5ccc([nH]5)c(-c5cccc(S(=O)(=O)[O-])c5F)c5nc(c(-c6cccc(S(=O)(=O)[O-])c6F)c6ccc3[nH]6)C=C5)C=C4)cc2)c2cc(F)ccc2/C1=C\c1cccc(OCc2ccccc2)c1
REMARK SMILES IDX 8 1 7 2 5 3 6 4 4 5 3 6 1 7 2 8 83 9 76 10 82 11 84 12 77 13
REMARK SMILES IDX 81 14 78 15 80 16 79 17 85 18 86 19 98 20 87 21 89 22 88 23
REMARK SMILES IDX 90 24 91 25 92 26 93 27 97 28 94 29 96 30 95 31 9 32 10 33
REMARK SMILES IDX 11 34 12 35 13 36 14 37 75 38 15 39 74 40 16 41 17 42 18 43
REMARK SMILES IDX 68 44 19 45 73 46 67 47 69 48 20 49 72 50 66 51 65 52 21 54
REMARK SMILES IDX 53 55 33 56 52 57 34 58 37 59 51 60 70 61 35 62 36 63 50 65
REMARK SMILES IDX 71 66 38 67 22 68 23 69 31 70 24 71 26 72 32 73 25 74 27 75
REMARK SMILES IDX 28 76 29 77 30 78 54 79 55 80 63 81 56 82 58 83 64 84 57 85
REMARK SMILES IDX 59 86 60 87 61 88 62 89 39 90 40 91 48 92 41 93 43 94 49 95
REMARK SMILES IDX 42 96 44 97 45 98 46 99 47 100
REMARK H PARENT 69 53 37 64
REMARK Flexibility Score: inf
ROOT
ATOM      1  C   UNL A   1      32.372  29.632  24.598  1.00  0.00     0.274 C 
ENDROOT
BRANCH   1   2
ATOM      2  O   UNL A   1      31.566  29.387  23.427  1.00  0.00    -0.462 OA
BRANCH   2   3
ATOM      3  C   UNL A   1      30.262  29.086  23.659  1.00  0.00     0.310 C 
ATOM      4  O   UNL A   1      29.334  29.880  23.535  1.00  0.00    -0.252 OA
BRANCH   3   5
ATOM      5  C   UNL A   1      30.020  27.647  24.096  1.00  0.00     0.159 C 
BRANCH   5   6
ATOM      6  C   UNL A   1      31.226  26.779  24.230  1.00  0.00    -0.025 C 
ATOM      7  C   UNL A   1      31.496  26.737  26.763  1.00  0.00     0.045 C 
ATOM      8  C   UNL A   1      31.856  26.384  25.359  1.00  0.00    -0.039 C 
ATOM      9  C   UNL A   1      32.968  25.488  25.013  1.00  0.00    -0.014 C 
ATOM     10  C   UNL A   1      31.891  26.121  23.091  1.00  0.00    -0.011 A 
ATOM     11  C   UNL A   1      32.975  25.350  23.546  1.00  0.00    -0.010 A 
ATOM     12  C   UNL A   1      33.765  24.893  25.917  1.00  0.00     0.017 C 
ATOM     13  C   UNL A   1      31.577  26.154  21.741  1.00  0.00     0.048 A 
ATOM     14  C   UNL A   1      33.778  24.653  22.649  1.00  0.00     0.012 A 
ATOM     15  C   UNL A   1      32.386  25.460  20.848  1.00  0.00     0.123 A 
ATOM     16  C   UNL A   1      33.482  24.719  21.286  1.00  0.00     0.040 A 
ATOM     17  F   UNL A   1      32.101  25.497  19.540  1.00  0.00    -0.207 F 
BRANCH  12  18
ATOM     18  C   UNL A   1      34.793  23.899  25.617  1.00  0.00    -0.021 A 
ATOM     19  C   UNL A   1      36.135  24.260  25.488  1.00  0.00     0.008 A 
ATOM     20  C   UNL A   1      34.399  22.570  25.413  1.00  0.00     0.054 A 
ATOM     21  C   UNL A   1      37.076  23.293  25.138  1.00  0.00     0.004 A 
ATOM     22  C   UNL A   1      35.340  21.591  25.103  1.00  0.00     0.120 A 
ATOM     23  C   UNL A   1      36.678  21.966  24.950  1.00  0.00     0.046 A 
BRANCH  22  24
ATOM     24  O   UNL A   1      35.087  20.257  24.933  1.00  0.00    -0.489 OA
BRANCH  24  25
ATOM     25  C   UNL A   1      33.765  19.857  24.542  1.00  0.00     0.265 C 
BRANCH  25  26
ATOM     26  C   UNL A   1      33.545  18.364  24.666  1.00  0.00    -0.011 A 
ATOM     27  C   UNL A   1      32.822  17.841  25.746  1.00  0.00     0.007 A 
ATOM     28  C   UNL A   1      34.042  17.484  23.694  1.00  0.00     0.007 A 
ATOM     29  C   UNL A   1      32.574  16.470  25.835  1.00  0.00     0.000 A 
ATOM     30  C   UNL A   1      33.783  16.115  23.776  1.00  0.00     0.000 A 
ATOM     31  C   UNL A   1      33.047  15.610  24.846  1.00  0.00     0.000 A 
ENDBRANCH  25  26
ENDBRANCH  24  25
ENDBRANCH  22  24
ENDBRANCH  12  18
ENDBRANCH   5   6
ENDBRANCH   3   5
ENDBRANCH   2   3
ENDBRANCH   1   2
BRANCH   1  32
ATOM     32  C   UNL A   1      31.584  30.427  25.635  1.00  0.00     0.275 C 
BRANCH  32  33
ATOM     33  O   UNL A   1      32.304  30.435  26.879  1.00  0.00    -0.458 OA
BRANCH  33  34
ATOM     34  C   UNL A   1      32.909  31.604  27.194  1.00  0.00     0.338 C 
ATOM     35  O   UNL A   1      32.517  32.730  26.944  1.00  0.00    -0.246 OA
BRANCH  34  36
ATOM     36  C   UNL A   1      34.181  31.320  27.878  1.00  0.00     0.060 A 
ATOM     37  C   UNL A   1      34.512  29.996  28.155  1.00  0.00     0.016 A 
ATOM     38  C   UNL A   1      35.086  32.348  28.161  1.00  0.00     0.016 A 
ATOM     39  C   UNL A   1      35.737  29.709  28.757  1.00  0.00     0.010 A 
ATOM     40  C   UNL A   1      36.351  32.045  28.663  1.00  0.00     0.010 A 
ATOM     41  C   UNL A   1      36.674  30.728  29.007  1.00  0.00    -0.014 A 
BRANCH  41  42
ATOM     42  C   UNL A   1      37.972  30.405  29.653  1.00  0.00     0.031 A 
ATOM     43  C   UNL A   1      38.282  30.910  31.038  1.00  0.00     0.074 A 
ATOM     44  C   UNL A   1      38.868  29.638  29.002  1.00  0.00     0.049 A 
ATOM     45  N   UNL A   1      39.296  30.612  31.810  1.00  0.00    -0.248 NA
ATOM     46  C   UNL A   1      37.351  31.886  31.632  1.00  0.00     0.031 C 
ATOM     47  C   UNL A   1      38.734  29.166  27.623  1.00  0.00     0.029 A 
ATOM     48  N   UNL A   1      40.065  29.109  29.418  1.00  0.00    -0.354 N 
ATOM     49  C   UNL A   1      39.131  31.366  32.965  1.00  0.00     0.074 A 
ATOM     50  C   UNL A   1      37.948  32.175  32.779  1.00  0.00     0.031 C 
ATOM     51  C   UNL A   1      39.780  28.379  27.324  1.00  0.00     0.029 A 
ATOM     52  C   UNL A   1      40.661  28.295  28.485  1.00  0.00     0.049 A 
ATOM     53  H   UNL A   1      40.458  29.295  30.301  1.00  0.00     0.167 HD
ATOM     54  C   UNL A   1      39.865  31.351  34.100  1.00  0.00     0.034 A 
ATOM     55  C   UNL A   1      41.772  27.537  28.565  1.00  0.00     0.034 A 
ATOM     56  C   UNL A   1      41.003  30.503  34.313  1.00  0.00     0.049 A 
ATOM     57  C   UNL A   1      42.534  27.483  29.860  1.00  0.00     0.074 A 
ATOM     58  C   UNL A   1      41.760  30.355  35.461  1.00  0.00     0.029 A 
ATOM     59  N   UNL A   1      41.541  29.654  33.360  1.00  0.00    -0.354 N 
ATOM     60  N   UNL A   1      42.269  28.084  30.995  1.00  0.00    -0.248 NA
ATOM     61  C   UNL A   1      43.725  26.620  29.901  1.00  0.00     0.031 C 
ATOM     62  C   UNL A   1      42.757  29.410  35.202  1.00  0.00     0.029 A 
ATOM     63  C   UNL A   1      42.620  28.974  33.894  1.00  0.00     0.049 A 
ATOM     64  H   UNL A   1      41.205  29.549  32.440  1.00  0.00     0.167 HD
ATOM     65  C   UNL A   1      43.246  27.660  31.889  1.00  0.00     0.074 A 
ATOM     66  C   UNL A   1      44.100  26.737  31.170  1.00  0.00     0.031 C 
ATOM     67  C   UNL A   1      43.427  28.019  33.181  1.00  0.00     0.034 A 
BRANCH  54  68
ATOM     68  C   UNL A   1      39.399  32.204  35.246  1.00  0.00     0.023 A 
ATOM     69  C   UNL A   1      38.493  31.653  36.175  1.00  0.00     0.012 A 
ATOM     70  C   UNL A   1      39.904  33.501  35.453  1.00  0.00     0.148 A 
ATOM     71  C   UNL A   1      38.082  32.385  37.287  1.00  0.00     0.002 A 
ATOM     72  C   UNL A   1      39.512  34.215  36.580  1.00  0.00     0.091 A 
ATOM     73  F   UNL A   1      40.752  34.008  34.548  1.00  0.00    -0.205 F 
ATOM     74  C   UNL A   1      38.600  33.661  37.495  1.00  0.00     0.022 A 
BRANCH  72  75
ATOM     75  S   UNL A   1      40.154  35.847  36.973  1.00  0.00     0.127 S 
ATOM     76  O   UNL A   1      39.732  36.618  35.805  1.00  0.00    -0.237 OA
ATOM     77  O   UNL A   1      39.437  36.167  38.208  1.00  0.00    -0.237 OA
ATOM     78  O   UNL A   1      41.593  35.690  37.124  1.00  0.00    -0.744 OA
ENDBRANCH  72  75
ENDBRANCH  54  68
BRANCH  55  79
ATOM     79  C   UNL A   1      42.156  26.678  27.413  1.00  0.00     0.023 A 
ATOM     80  C   UNL A   1      42.914  27.236  26.366  1.00  0.00     0.012 A 
ATOM     81  C   UNL A   1      41.833  25.308  27.377  1.00  0.00     0.148 A 
ATOM     82  C   UNL A   1      43.337  26.447  25.295  1.00  0.00     0.002 A 
ATOM     83  C   UNL A   1      42.287  24.519  26.327  1.00  0.00     0.091 A 
ATOM     84  F   UNL A   1      41.104  24.804  28.383  1.00  0.00    -0.205 F 
ATOM     85  C   UNL A   1      43.032  25.088  25.281  1.00  0.00     0.022 A 
BRANCH  83  86
ATOM     86  S   UNL A   1      42.027  22.743  26.264  1.00  0.00     0.127 S 
ATOM     87  O   UNL A   1      42.676  22.391  25.003  1.00  0.00    -0.237 OA
ATOM     88  O   UNL A   1      42.730  22.293  27.466  1.00  0.00    -0.237 OA
ATOM     89  O   UNL A   1      40.584  22.552  26.301  1.00  0.00    -0.744 OA
ENDBRANCH  83  86
ENDBRANCH  55  79
BRANCH  67  90
ATOM     90  C   UNL A   1      44.590  27.427  33.927  1.00  0.00     0.023 A 
ATOM     91  C   UNL A   1      45.836  28.080  33.877  1.00  0.00     0.012 A 
ATOM     92  C   UNL A   1      44.415  26.321  34.780  1.00  0.00     0.148 A 
ATOM     93  C   UNL A   1      46.896  27.637  34.666  1.00  0.00     0.002 A 
ATOM     94  C   UNL A   1      45.467  25.904  35.586  1.00  0.00     0.091 A 
ATOM     95  F   UNL A   1      43.218  25.715  34.800  1.00  0.00    -0.205 F 
ATOM     96  C   UNL A   1      46.708  26.560  35.528  1.00  0.00     0.022 A 
BRANCH  94  97
ATOM     97  S   UNL A   1      45.302  24.577  36.786  1.00  0.00     0.127 S 
ATOM     98  O   UNL A   1      46.463  24.806  37.644  1.00  0.00    -0.237 OA
ATOM     99  O   UNL A   1      44.014  24.880  37.408  1.00  0.00    -0.237 OA
ATOM    100  O   UNL A   1      45.331  23.336  36.024  1.00  0.00    -0.744 OA
ENDBRANCH  94  97
ENDBRANCH  67  90
ENDBRANCH  41  42
ENDBRANCH  34  36
ENDBRANCH  33  34
ENDBRANCH  32  33
ENDBRANCH   1  32
TORSDOF 19
ENDMDL
