MODEL 1
REMARK VINA RESULT:     -11.6      0.000      0.000
REMARK SMILES NC(=O)C[C@H](C(=O)OCCOC(=O)c1ccc(-c2c3nc(c(-c4cccc(S(=O)(=O)[O-])c4F)c4ccc([nH]4)c(-c4cccc(S(=O)(=O)[O-])c4F)c4nc(c(-c5cccc(S(=O)(=O)[O-])c5F)c5ccc2[nH]5)C=C4)C=C3)cc1)N1C(=O)/C(=C/c2ccccc2)SC1=S
REMARK SMILES IDX 10 1 9 2 8 3 6 4 7 5 5 6 4 7 2 8 1 9 3 12 77 13 78 14 89 15
REMARK SMILES IDX 79 16 80 17 88 18 90 19 81 20 82 21 83 22 87 23 84 24 86 25
REMARK SMILES IDX 85 26 11 27 12 28 13 29 14 30 15 31 76 32 16 33 75 34 17 35
REMARK SMILES IDX 18 36 19 37 69 38 20 39 74 40 68 41 70 42 21 43 73 44 67 45
REMARK SMILES IDX 66 46 22 48 54 49 34 50 53 51 35 52 38 53 52 54 71 55 36 56
REMARK SMILES IDX 37 57 51 59 72 60 39 61 23 62 24 63 32 64 25 65 27 66 33 67
REMARK SMILES IDX 26 68 28 69 29 70 30 71 31 72 55 73 56 74 64 75 57 76 59 77
REMARK SMILES IDX 65 78 58 79 60 80 61 81 62 82 63 83 40 84 41 85 49 86 42 87
REMARK SMILES IDX 44 88 50 89 43 90 45 91 46 92 47 93 48 94
REMARK H PARENT 1 10 1 11 70 47 38 58
REMARK Flexibility Score: inf
ROOT
ATOM      1  C   UNL A   1      38.910  19.483  25.353  1.00  0.00     0.275 C 
ENDROOT
BRANCH   1   2
ATOM      2  C   UNL A   1      37.498  19.602  24.788  1.00  0.00     0.274 C 
BRANCH   2   3
ATOM      3  O   UNL A   1      36.832  20.759  25.346  1.00  0.00    -0.461 OA
BRANCH   3   4
ATOM      4  C   UNL A   1      36.179  21.564  24.455  1.00  0.00     0.329 C 
ATOM      5  O   UNL A   1      36.745  22.269  23.631  1.00  0.00    -0.250 OA
BRANCH   4   6
ATOM      6  C   UNL A   1      34.658  21.603  24.698  1.00  0.00     0.211 C 
BRANCH   6   7
ATOM      7  C   UNL A   1      34.181  20.878  25.962  1.00  0.00     0.137 C 
BRANCH   7   8
ATOM      8  C   UNL A   1      33.039  19.926  25.707  1.00  0.00     0.220 C 
ATOM      9  N   UNL A   1      32.950  18.853  26.538  1.00  0.00    -0.370 N 
ATOM     10  H   UNL A   1      32.227  18.197  26.420  1.00  0.00     0.159 HD
ATOM     11  H   UNL A   1      33.612  18.732  27.258  1.00  0.00     0.159 HD
ATOM     12  O   UNL A   1      32.242  20.076  24.791  1.00  0.00    -0.275 OA
ENDBRANCH   7   8
ENDBRANCH   6   7
BRANCH   6  13
ATOM     13  N   UNL A   1      34.096  22.975  24.594  1.00  0.00    -0.278 N 
ATOM     14  C   UNL A   1      34.447  23.929  25.538  1.00  0.00     0.267 C 
ATOM     15  C   UNL A   1      33.294  23.414  23.562  1.00  0.00     0.149 C 
ATOM     16  O   UNL A   1      35.230  23.768  26.461  1.00  0.00    -0.268 OA
ATOM     17  C   UNL A   1      33.749  25.214  25.270  1.00  0.00     0.081 C 
ATOM     18  S   UNL A   1      32.840  25.091  23.821  1.00  0.00    -0.054 SA
ATOM     19  S   UNL A   1      32.752  22.559  22.234  1.00  0.00    -0.052 S 
ATOM     20  C   UNL A   1      33.855  26.271  26.087  1.00  0.00     0.029 C 
BRANCH  20  21
ATOM     21  C   UNL A   1      33.152  27.548  25.916  1.00  0.00    -0.024 A 
ATOM     22  C   UNL A   1      31.852  27.569  25.399  1.00  0.00     0.008 A 
ATOM     23  C   UNL A   1      33.777  28.758  26.245  1.00  0.00     0.008 A 
ATOM     24  C   UNL A   1      31.178  28.783  25.240  1.00  0.00     0.001 A 
ATOM     25  C   UNL A   1      33.102  29.970  26.087  1.00  0.00     0.001 A 
ATOM     26  C   UNL A   1      31.801  29.981  25.588  1.00  0.00     0.000 A 
ENDBRANCH  20  21
ENDBRANCH   6  13
ENDBRANCH   4   6
ENDBRANCH   3   4
ENDBRANCH   2   3
ENDBRANCH   1   2
BRANCH   1  27
ATOM     27  O   UNL A   1      39.244  20.722  25.991  1.00  0.00    -0.458 OA
BRANCH  27  28
ATOM     28  C   UNL A   1      40.307  20.692  26.832  1.00  0.00     0.338 C 
ATOM     29  O   UNL A   1      40.899  19.703  27.224  1.00  0.00    -0.246 OA
BRANCH  28  30
ATOM     30  C   UNL A   1      40.643  22.080  27.216  1.00  0.00     0.060 A 
ATOM     31  C   UNL A   1      40.037  23.148  26.556  1.00  0.00     0.016 A 
ATOM     32  C   UNL A   1      41.609  22.329  28.190  1.00  0.00     0.016 A 
ATOM     33  C   UNL A   1      40.442  24.457  26.806  1.00  0.00     0.010 A 
ATOM     34  C   UNL A   1      41.945  23.651  28.508  1.00  0.00     0.010 A 
ATOM     35  C   UNL A   1      41.393  24.732  27.795  1.00  0.00    -0.014 A 
BRANCH  35  36
ATOM     36  C   UNL A   1      41.825  26.138  28.040  1.00  0.00     0.031 A 
ATOM     37  C   UNL A   1      43.178  26.611  27.570  1.00  0.00     0.074 A 
ATOM     38  C   UNL A   1      41.005  27.008  28.665  1.00  0.00     0.049 A 
ATOM     39  N   UNL A   1      43.763  27.767  27.758  1.00  0.00    -0.248 NA
ATOM     40  C   UNL A   1      43.987  25.655  26.795  1.00  0.00     0.031 C 
ATOM     41  C   UNL A   1      39.660  26.704  29.157  1.00  0.00     0.029 A 
ATOM     42  N   UNL A   1      41.181  28.333  28.988  1.00  0.00    -0.354 N 
ATOM     43  C   UNL A   1      45.030  27.652  27.198  1.00  0.00     0.074 A 
ATOM     44  C   UNL A   1      45.128  26.314  26.656  1.00  0.00     0.031 C 
ATOM     45  C   UNL A   1      39.122  27.813  29.688  1.00  0.00     0.029 A 
ATOM     46  C   UNL A   1      40.101  28.893  29.633  1.00  0.00     0.049 A 
ATOM     47  H   UNL A   1      42.002  28.834  28.778  1.00  0.00     0.167 HD
ATOM     48  C   UNL A   1      46.017  28.576  27.126  1.00  0.00     0.034 A 
ATOM     49  C   UNL A   1      39.919  30.129  30.136  1.00  0.00     0.034 A 
ATOM     50  C   UNL A   1      45.897  29.934  27.583  1.00  0.00     0.049 A 
ATOM     51  C   UNL A   1      41.023  31.143  30.016  1.00  0.00     0.074 A 
ATOM     52  C   UNL A   1      46.827  30.957  27.497  1.00  0.00     0.029 A 
ATOM     53  N   UNL A   1      44.776  30.468  28.202  1.00  0.00    -0.354 N 
ATOM     54  N   UNL A   1      42.185  31.036  29.420  1.00  0.00    -0.248 NA
ATOM     55  C   UNL A   1      40.781  32.459  30.626  1.00  0.00     0.031 C 
ATOM     56  C   UNL A   1      46.272  32.107  28.073  1.00  0.00     0.029 A 
ATOM     57  C   UNL A   1      44.992  31.803  28.506  1.00  0.00     0.049 A 
ATOM     58  H   UNL A   1      43.949  29.971  28.396  1.00  0.00     0.167 HD
ATOM     59  C   UNL A   1      42.803  32.273  29.563  1.00  0.00     0.074 A 
ATOM     60  C   UNL A   1      41.871  33.126  30.272  1.00  0.00     0.031 C 
ATOM     61  C   UNL A   1      44.040  32.660  29.165  1.00  0.00     0.034 A 
BRANCH  48  62
ATOM     62  C   UNL A   1      47.321  28.151  26.503  1.00  0.00     0.023 A 
ATOM     63  C   UNL A   1      48.415  27.813  27.325  1.00  0.00     0.012 A 
ATOM     64  C   UNL A   1      47.448  28.045  25.104  1.00  0.00     0.148 A 
ATOM     65  C   UNL A   1      49.626  27.409  26.762  1.00  0.00     0.002 A 
ATOM     66  C   UNL A   1      48.645  27.603  24.552  1.00  0.00     0.091 A 
ATOM     67  F   UNL A   1      46.406  28.397  24.337  1.00  0.00    -0.205 F 
ATOM     68  C   UNL A   1      49.738  27.294  25.379  1.00  0.00     0.022 A 
BRANCH  66  69
ATOM     69  S   UNL A   1      48.851  27.350  22.785  1.00  0.00     0.127 S 
ATOM     70  O   UNL A   1      48.311  26.003  22.614  1.00  0.00    -0.237 OA
ATOM     71  O   UNL A   1      48.022  28.415  22.219  1.00  0.00    -0.237 OA
ATOM     72  O   UNL A   1      50.277  27.498  22.529  1.00  0.00    -0.744 OA
ENDBRANCH  66  69
ENDBRANCH  48  62
BRANCH  49  73
ATOM     73  C   UNL A   1      38.615  30.496  30.761  1.00  0.00     0.023 A 
ATOM     74  C   UNL A   1      38.395  30.197  32.120  1.00  0.00     0.012 A 
ATOM     75  C   UNL A   1      37.608  31.157  30.031  1.00  0.00     0.148 A 
ATOM     76  C   UNL A   1      37.188  30.527  32.734  1.00  0.00     0.002 A 
ATOM     77  C   UNL A   1      36.430  31.535  30.666  1.00  0.00     0.091 A 
ATOM     78  F   UNL A   1      37.822  31.410  28.732  1.00  0.00    -0.205 F 
ATOM     79  C   UNL A   1      36.211  31.207  32.013  1.00  0.00     0.022 A 
BRANCH  77  80
ATOM     80  S   UNL A   1      35.173  32.525  29.849  1.00  0.00     0.127 S 
ATOM     81  O   UNL A   1      34.230  32.770  30.937  1.00  0.00    -0.237 OA
ATOM     82  O   UNL A   1      35.938  33.698  29.422  1.00  0.00    -0.237 OA
ATOM     83  O   UNL A   1      34.677  31.702  28.753  1.00  0.00    -0.744 OA
ENDBRANCH  77  80
ENDBRANCH  49  73
BRANCH  61  84
ATOM     84  C   UNL A   1      44.454  34.076  29.471  1.00  0.00     0.023 A 
ATOM     85  C   UNL A   1      45.088  34.365  30.697  1.00  0.00     0.012 A 
ATOM     86  C   UNL A   1      44.256  35.111  28.537  1.00  0.00     0.148 A 
ATOM     87  C   UNL A   1      45.482  35.667  31.004  1.00  0.00     0.002 A 
ATOM     88  C   UNL A   1      44.692  36.399  28.831  1.00  0.00     0.091 A 
ATOM     89  F   UNL A   1      43.631  34.827  27.385  1.00  0.00    -0.205 F 
ATOM     90  C   UNL A   1      45.292  36.681  30.068  1.00  0.00     0.022 A 
BRANCH  88  91
ATOM     91  S   UNL A   1      44.563  37.737  27.639  1.00  0.00     0.127 S 
ATOM     92  O   UNL A   1      45.657  37.427  26.720  1.00  0.00    -0.237 OA
ATOM     93  O   UNL A   1      43.225  37.538  27.079  1.00  0.00    -0.237 OA
ATOM     94  O   UNL A   1      44.712  38.963  28.412  1.00  0.00    -0.744 OA
ENDBRANCH  88  91
ENDBRANCH  61  84
ENDBRANCH  35  36
ENDBRANCH  28  30
ENDBRANCH  27  28
ENDBRANCH   1  27
TORSDOF 18
ENDMDL
MODEL 2
REMARK VINA RESULT:     -11.5      2.002      7.936
REMARK SMILES NC(=O)C[C@H](C(=O)OCCOC(=O)c1ccc(-c2c3nc(c(-c4cccc(S(=O)(=O)[O-])c4F)c4ccc([nH]4)c(-c4cccc(S(=O)(=O)[O-])c4F)c4nc(c(-c5cccc(S(=O)(=O)[O-])c5F)c5ccc2[nH]5)C=C4)C=C3)cc1)N1C(=O)/C(=C/c2ccccc2)SC1=S
REMARK SMILES IDX 10 1 9 2 8 3 6 4 7 5 5 6 4 7 2 8 1 9 3 12 77 13 78 14 89 15
REMARK SMILES IDX 79 16 80 17 88 18 90 19 81 20 82 21 83 22 87 23 84 24 86 25
REMARK SMILES IDX 85 26 11 27 12 28 13 29 14 30 15 31 76 32 16 33 75 34 17 35
REMARK SMILES IDX 18 36 19 37 69 38 20 39 74 40 68 41 70 42 21 43 73 44 67 45
REMARK SMILES IDX 66 46 22 48 54 49 34 50 53 51 35 52 38 53 52 54 71 55 36 56
REMARK SMILES IDX 37 57 51 59 72 60 39 61 23 62 24 63 32 64 25 65 27 66 33 67
REMARK SMILES IDX 26 68 28 69 29 70 30 71 31 72 55 73 56 74 64 75 57 76 59 77
REMARK SMILES IDX 65 78 58 79 60 80 61 81 62 82 63 83 40 84 41 85 49 86 42 87
REMARK SMILES IDX 44 88 50 89 43 90 45 91 46 92 47 93 48 94
REMARK H PARENT 1 10 1 11 70 47 38 58
REMARK Flexibility Score: inf
ROOT
ATOM      1  C   UNL A   1      36.130  21.053  25.751  1.00  0.00     0.275 C 
ENDROOT
BRANCH   1   2
ATOM      2  C   UNL A   1      35.333  22.259  26.237  1.00  0.00     0.274 C 
BRANCH   2   3
ATOM      3  O   UNL A   1      34.102  22.380  25.488  1.00  0.00    -0.461 OA
BRANCH   3   4
ATOM      4  C   UNL A   1      33.783  23.638  25.056  1.00  0.00     0.329 C 
ATOM      5  O   UNL A   1      34.227  24.663  25.555  1.00  0.00    -0.250 OA
BRANCH   4   6
ATOM      6  C   UNL A   1      32.689  23.631  23.972  1.00  0.00     0.211 C 
BRANCH   6   7
ATOM      7  C   UNL A   1      31.975  22.288  23.774  1.00  0.00     0.137 C 
BRANCH   7   8
ATOM      8  C   UNL A   1      32.152  21.717  22.390  1.00  0.00     0.220 C 
ATOM      9  N   UNL A   1      32.600  22.575  21.435  1.00  0.00    -0.370 N 
ATOM     10  H   UNL A   1      32.734  22.259  20.512  1.00  0.00     0.159 HD
ATOM     11  H   UNL A   1      32.789  23.514  21.666  1.00  0.00     0.159 HD
ATOM     12  O   UNL A   1      31.885  20.555  22.113  1.00  0.00    -0.275 OA
ENDBRANCH   7   8
ENDBRANCH   6   7
BRANCH   6  13
ATOM     13  N   UNL A   1      31.732  24.758  24.115  1.00  0.00    -0.278 N 
ATOM     14  C   UNL A   1      31.631  25.700  23.101  1.00  0.00     0.267 C 
ATOM     15  C   UNL A   1      30.853  24.907  25.167  1.00  0.00     0.149 C 
ATOM     16  O   UNL A   1      32.240  25.681  22.044  1.00  0.00    -0.268 OA
ATOM     17  C   UNL A   1      30.648  26.755  23.462  1.00  0.00     0.081 C 
ATOM     18  S   UNL A   1      29.905  26.372  24.960  1.00  0.00    -0.054 SA
ATOM     19  S   UNL A   1      30.655  23.922  26.500  1.00  0.00    -0.052 S 
ATOM     20  C   UNL A   1      30.428  27.825  22.685  1.00  0.00     0.029 C 
BRANCH  20  21
ATOM     21  C   UNL A   1      29.516  28.930  23.003  1.00  0.00    -0.024 A 
ATOM     22  C   UNL A   1      28.150  28.814  22.724  1.00  0.00     0.008 A 
ATOM     23  C   UNL A   1      30.000  30.117  23.566  1.00  0.00     0.008 A 
ATOM     24  C   UNL A   1      27.278  29.862  23.031  1.00  0.00     0.001 A 
ATOM     25  C   UNL A   1      29.128  31.163  23.874  1.00  0.00     0.001 A 
ATOM     26  C   UNL A   1      27.766  31.033  23.609  1.00  0.00     0.000 A 
ENDBRANCH  20  21
ENDBRANCH   6  13
ENDBRANCH   4   6
ENDBRANCH   3   4
ENDBRANCH   2   3
ENDBRANCH   1   2
BRANCH   1  27
ATOM     27  O   UNL A   1      37.334  21.529  25.137  1.00  0.00    -0.458 OA
BRANCH  27  28
ATOM     28  C   UNL A   1      38.493  21.183  25.750  1.00  0.00     0.338 C 
ATOM     29  O   UNL A   1      38.939  20.059  25.887  1.00  0.00    -0.246 OA
BRANCH  28  30
ATOM     30  C   UNL A   1      39.148  22.413  26.245  1.00  0.00     0.060 A 
ATOM     31  C   UNL A   1      38.628  23.660  25.906  1.00  0.00     0.016 A 
ATOM     32  C   UNL A   1      40.320  22.335  26.995  1.00  0.00     0.016 A 
ATOM     33  C   UNL A   1      39.308  24.828  26.244  1.00  0.00     0.010 A 
ATOM     34  C   UNL A   1      40.951  23.513  27.417  1.00  0.00     0.010 A 
ATOM     35  C   UNL A   1      40.474  24.774  27.017  1.00  0.00    -0.014 A 
BRANCH  35  36
ATOM     36  C   UNL A   1      41.197  26.034  27.359  1.00  0.00     0.031 A 
ATOM     37  C   UNL A   1      40.553  27.061  28.256  1.00  0.00     0.074 A 
ATOM     38  C   UNL A   1      42.440  26.260  26.887  1.00  0.00     0.049 A 
ATOM     39  N   UNL A   1      40.986  28.247  28.602  1.00  0.00    -0.248 NA
ATOM     40  C   UNL A   1      39.243  26.714  28.834  1.00  0.00     0.031 C 
ATOM     41  C   UNL A   1      43.201  25.351  26.026  1.00  0.00     0.029 A 
ATOM     42  N   UNL A   1      43.289  27.325  27.071  1.00  0.00    -0.354 N 
ATOM     43  C   UNL A   1      39.975  28.816  29.367  1.00  0.00     0.074 A 
ATOM     44  C   UNL A   1      38.907  27.843  29.443  1.00  0.00     0.031 C 
ATOM     45  C   UNL A   1      44.410  25.880  25.785  1.00  0.00     0.029 A 
ATOM     46  C   UNL A   1      44.494  27.191  26.418  1.00  0.00     0.049 A 
ATOM     47  H   UNL A   1      43.058  28.110  27.618  1.00  0.00     0.167 HD
ATOM     48  C   UNL A   1      39.941  30.030  29.967  1.00  0.00     0.034 A 
ATOM     49  C   UNL A   1      45.545  28.029  26.326  1.00  0.00     0.034 A 
ATOM     50  C   UNL A   1      41.032  30.967  29.971  1.00  0.00     0.049 A 
ATOM     51  C   UNL A   1      45.490  29.359  27.026  1.00  0.00     0.074 A 
ATOM     52  C   UNL A   1      41.106  32.198  30.603  1.00  0.00     0.029 A 
ATOM     53  N   UNL A   1      42.244  30.779  29.325  1.00  0.00    -0.354 N 
ATOM     54  N   UNL A   1      44.554  29.848  27.803  1.00  0.00    -0.248 NA
ATOM     55  C   UNL A   1      46.648  30.247  26.849  1.00  0.00     0.031 C 
ATOM     56  C   UNL A   1      42.361  32.757  30.331  1.00  0.00     0.029 A 
ATOM     57  C   UNL A   1      43.072  31.870  29.539  1.00  0.00     0.049 A 
ATOM     58  H   UNL A   1      42.481  29.986  28.793  1.00  0.00     0.167 HD
ATOM     59  C   UNL A   1      45.019  31.088  28.225  1.00  0.00     0.074 A 
ATOM     60  C   UNL A   1      46.335  31.261  27.645  1.00  0.00     0.031 C 
ATOM     61  C   UNL A   1      44.400  32.012  29.002  1.00  0.00     0.034 A 
BRANCH  48  62
ATOM     62  C   UNL A   1      38.679  30.409  30.696  1.00  0.00     0.023 A 
ATOM     63  C   UNL A   1      38.508  30.037  32.044  1.00  0.00     0.012 A 
ATOM     64  C   UNL A   1      37.682  31.172  30.057  1.00  0.00     0.148 A 
ATOM     65  C   UNL A   1      37.348  30.389  32.736  1.00  0.00     0.002 A 
ATOM     66  C   UNL A   1      36.548  31.555  30.764  1.00  0.00     0.091 A 
ATOM     67  F   UNL A   1      37.849  31.495  28.766  1.00  0.00    -0.205 F 
ATOM     68  C   UNL A   1      36.374  31.156  32.100  1.00  0.00     0.022 A 
BRANCH  66  69
ATOM     69  S   UNL A   1      35.280  32.609  30.048  1.00  0.00     0.127 S 
ATOM     70  O   UNL A   1      36.063  33.768  29.624  1.00  0.00    -0.237 OA
ATOM     71  O   UNL A   1      34.771  31.783  28.952  1.00  0.00    -0.237 OA
ATOM     72  O   UNL A   1      34.319  32.850  31.115  1.00  0.00    -0.744 OA
ENDBRANCH  66  69
ENDBRANCH  48  62
BRANCH  49  73
ATOM     73  C   UNL A   1      46.766  27.615  25.577  1.00  0.00     0.023 A 
ATOM     74  C   UNL A   1      46.832  27.845  24.189  1.00  0.00     0.012 A 
ATOM     75  C   UNL A   1      47.866  27.022  26.228  1.00  0.00     0.148 A 
ATOM     76  C   UNL A   1      47.960  27.471  23.459  1.00  0.00     0.002 A 
ATOM     77  C   UNL A   1      49.010  26.706  25.503  1.00  0.00     0.091 A 
ATOM     78  F   UNL A   1      47.776  26.786  27.545  1.00  0.00    -0.205 F 
ATOM     79  C   UNL A   1      49.053  26.915  24.116  1.00  0.00     0.022 A 
BRANCH  77  80
ATOM     80  S   UNL A   1      50.509  26.104  26.289  1.00  0.00     0.127 S 
ATOM     81  O   UNL A   1      50.056  24.846  26.876  1.00  0.00    -0.237 OA
ATOM     82  O   UNL A   1      51.414  25.959  25.147  1.00  0.00    -0.237 OA
ATOM     83  O   UNL A   1      50.900  27.141  27.234  1.00  0.00    -0.744 OA
ENDBRANCH  77  80
ENDBRANCH  49  73
BRANCH  61  84
ATOM     84  C   UNL A   1      45.148  33.289  29.286  1.00  0.00     0.023 A 
ATOM     85  C   UNL A   1      45.992  33.363  30.412  1.00  0.00     0.012 A 
ATOM     86  C   UNL A   1      45.050  34.398  28.424  1.00  0.00     0.148 A 
ATOM     87  C   UNL A   1      46.695  34.533  30.697  1.00  0.00     0.002 A 
ATOM     88  C   UNL A   1      45.789  35.546  28.688  1.00  0.00     0.091 A 
ATOM     89  F   UNL A   1      44.226  34.321  27.368  1.00  0.00    -0.205 F 
ATOM     90  C   UNL A   1      46.602  35.620  29.831  1.00  0.00     0.022 A 
BRANCH  88  91
ATOM     91  S   UNL A   1      45.789  36.951  27.569  1.00  0.00     0.127 S 
ATOM     92  O   UNL A   1      44.402  36.966  27.106  1.00  0.00    -0.237 OA
ATOM     93  O   UNL A   1      46.147  38.062  28.452  1.00  0.00    -0.237 OA
ATOM     94  O   UNL A   1      46.792  36.644  26.558  1.00  0.00    -0.744 OA
ENDBRANCH  88  91
ENDBRANCH  61  84
ENDBRANCH  35  36
ENDBRANCH  28  30
ENDBRANCH  27  28
ENDBRANCH   1  27
TORSDOF 18
ENDMDL
MODEL 3
REMARK VINA RESULT:     -11.3      2.348      2.856
REMARK SMILES NC(=O)C[C@H](C(=O)OCCOC(=O)c1ccc(-c2c3nc(c(-c4cccc(S(=O)(=O)[O-])c4F)c4ccc([nH]4)c(-c4cccc(S(=O)(=O)[O-])c4F)c4nc(c(-c5cccc(S(=O)(=O)[O-])c5F)c5ccc2[nH]5)C=C4)C=C3)cc1)N1C(=O)/C(=C/c2ccccc2)SC1=S
REMARK SMILES IDX 10 1 9 2 8 3 6 4 7 5 5 6 4 7 2 8 1 9 3 12 77 13 78 14 89 15
REMARK SMILES IDX 79 16 80 17 88 18 90 19 81 20 82 21 83 22 87 23 84 24 86 25
REMARK SMILES IDX 85 26 11 27 12 28 13 29 14 30 15 31 76 32 16 33 75 34 17 35
REMARK SMILES IDX 18 36 19 37 69 38 20 39 74 40 68 41 70 42 21 43 73 44 67 45
REMARK SMILES IDX 66 46 22 48 54 49 34 50 53 51 35 52 38 53 52 54 71 55 36 56
REMARK SMILES IDX 37 57 51 59 72 60 39 61 23 62 24 63 32 64 25 65 27 66 33 67
REMARK SMILES IDX 26 68 28 69 29 70 30 71 31 72 55 73 56 74 64 75 57 76 59 77
REMARK SMILES IDX 65 78 58 79 60 80 61 81 62 82 63 83 40 84 41 85 49 86 42 87
REMARK SMILES IDX 44 88 50 89 43 90 45 91 46 92 47 93 48 94
REMARK H PARENT 1 10 1 11 70 47 38 58
REMARK Flexibility Score: inf
ROOT
ATOM      1  C   UNL A   1      37.894  21.177  25.146  1.00  0.00     0.275 C 
ENDROOT
BRANCH   1   2
ATOM      2  C   UNL A   1      36.422  20.864  25.396  1.00  0.00     0.274 C 
BRANCH   2   3
ATOM      3  O   UNL A   1      35.853  21.832  26.308  1.00  0.00    -0.461 OA
BRANCH   3   4
ATOM      4  C   UNL A   1      34.523  21.685  26.587  1.00  0.00     0.329 C 
ATOM      5  O   UNL A   1      34.079  21.493  27.711  1.00  0.00    -0.250 OA
BRANCH   4   6
ATOM      6  C   UNL A   1      33.655  21.635  25.316  1.00  0.00     0.211 C 
BRANCH   6   7
ATOM      7  C   UNL A   1      32.477  20.654  25.369  1.00  0.00     0.137 C 
BRANCH   7   8
ATOM      8  C   UNL A   1      32.904  19.208  25.358  1.00  0.00     0.220 C 
ATOM      9  N   UNL A   1      32.849  18.553  26.548  1.00  0.00    -0.370 N 
ATOM     10  H   UNL A   1      33.116  17.607  26.602  1.00  0.00     0.159 HD
ATOM     11  H   UNL A   1      32.543  19.025  27.356  1.00  0.00     0.159 HD
ATOM     12  O   UNL A   1      33.308  18.644  24.350  1.00  0.00    -0.275 OA
ENDBRANCH   7   8
ENDBRANCH   6   7
BRANCH   6  13
ATOM     13  N   UNL A   1      33.240  22.983  24.851  1.00  0.00    -0.278 N 
ATOM     14  C   UNL A   1      32.164  23.614  25.459  1.00  0.00     0.267 C 
ATOM     15  C   UNL A   1      33.904  23.716  23.889  1.00  0.00     0.149 C 
ATOM     16  O   UNL A   1      31.520  23.179  26.401  1.00  0.00    -0.268 OA
ATOM     17  C   UNL A   1      31.897  24.930  24.821  1.00  0.00     0.081 C 
ATOM     18  S   UNL A   1      33.087  25.249  23.627  1.00  0.00    -0.054 SA
ATOM     19  S   UNL A   1      35.267  23.296  23.023  1.00  0.00    -0.052 S 
ATOM     20  C   UNL A   1      30.858  25.699  25.173  1.00  0.00     0.029 C 
BRANCH  20  21
ATOM     21  C   UNL A   1      30.502  26.979  24.550  1.00  0.00    -0.024 A 
ATOM     22  C   UNL A   1      31.232  28.134  24.855  1.00  0.00     0.008 A 
ATOM     23  C   UNL A   1      29.421  27.068  23.664  1.00  0.00     0.008 A 
ATOM     24  C   UNL A   1      30.899  29.354  24.259  1.00  0.00     0.001 A 
ATOM     25  C   UNL A   1      29.091  28.286  23.068  1.00  0.00     0.001 A 
ATOM     26  C   UNL A   1      29.833  29.428  23.363  1.00  0.00     0.000 A 
ENDBRANCH  20  21
ENDBRANCH   6  13
ENDBRANCH   4   6
ENDBRANCH   3   4
ENDBRANCH   2   3
ENDBRANCH   1   2
BRANCH   1  27
ATOM     27  O   UNL A   1      38.296  22.205  26.059  1.00  0.00    -0.458 OA
BRANCH  27  28
ATOM     28  C   UNL A   1      39.529  22.069  26.607  1.00  0.00     0.338 C 
ATOM     29  O   UNL A   1      40.135  21.029  26.788  1.00  0.00    -0.246 OA
BRANCH  28  30
ATOM     30  C   UNL A   1      40.036  23.411  26.964  1.00  0.00     0.060 A 
ATOM     31  C   UNL A   1      40.881  23.564  28.061  1.00  0.00     0.016 A 
ATOM     32  C   UNL A   1      39.625  24.534  26.248  1.00  0.00     0.016 A 
ATOM     33  C   UNL A   1      41.256  24.832  28.496  1.00  0.00     0.010 A 
ATOM     34  C   UNL A   1      40.082  25.803  26.629  1.00  0.00     0.010 A 
ATOM     35  C   UNL A   1      40.874  25.973  27.780  1.00  0.00    -0.014 A 
BRANCH  35  36
ATOM     36  C   UNL A   1      41.274  27.325  28.267  1.00  0.00     0.031 A 
ATOM     37  C   UNL A   1      42.713  27.768  28.184  1.00  0.00     0.074 A 
ATOM     38  C   UNL A   1      40.352  28.173  28.768  1.00  0.00     0.049 A 
ATOM     39  N   UNL A   1      43.268  28.869  28.627  1.00  0.00    -0.248 NA
ATOM     40  C   UNL A   1      43.658  26.849  27.527  1.00  0.00     0.031 C 
ATOM     41  C   UNL A   1      38.920  27.894  28.892  1.00  0.00     0.029 A 
ATOM     42  N   UNL A   1      40.483  29.449  29.262  1.00  0.00    -0.354 N 
ATOM     43  C   UNL A   1      44.628  28.741  28.374  1.00  0.00     0.074 A 
ATOM     44  C   UNL A   1      44.817  27.458  27.732  1.00  0.00     0.031 C 
ATOM     45  C   UNL A   1      38.302  28.974  29.395  1.00  0.00     0.029 A 
ATOM     46  C   UNL A   1      39.295  30.001  29.687  1.00  0.00     0.049 A 
ATOM     47  H   UNL A   1      41.343  29.925  29.307  1.00  0.00     0.167 HD
ATOM     48  C   UNL A   1      45.630  29.614  28.636  1.00  0.00     0.034 A 
ATOM     49  C   UNL A   1      39.032  31.191  30.261  1.00  0.00     0.034 A 
ATOM     50  C   UNL A   1      45.441  30.927  29.192  1.00  0.00     0.049 A 
ATOM     51  C   UNL A   1      40.161  32.153  30.513  1.00  0.00     0.074 A 
ATOM     52  C   UNL A   1      46.393  31.902  29.437  1.00  0.00     0.029 A 
ATOM     53  N   UNL A   1      44.220  31.457  29.580  1.00  0.00    -0.354 N 
ATOM     54  N   UNL A   1      41.429  32.041  30.202  1.00  0.00    -0.248 NA
ATOM     55  C   UNL A   1      39.815  33.416  31.184  1.00  0.00     0.031 C 
ATOM     56  C   UNL A   1      45.748  33.020  29.983  1.00  0.00     0.029 A 
ATOM     57  C   UNL A   1      44.393  32.744  30.065  1.00  0.00     0.049 A 
ATOM     58  H   UNL A   1      43.357  30.988  29.519  1.00  0.00     0.167 HD
ATOM     59  C   UNL A   1      42.028  33.225  30.617  1.00  0.00     0.074 A 
ATOM     60  C   UNL A   1      40.978  34.054  31.170  1.00  0.00     0.031 C 
ATOM     61  C   UNL A   1      43.335  33.582  30.567  1.00  0.00     0.034 A 
BRANCH  48  62
ATOM     62  C   UNL A   1      47.033  29.183  28.299  1.00  0.00     0.023 A 
ATOM     63  C   UNL A   1      47.581  29.497  27.039  1.00  0.00     0.012 A 
ATOM     64  C   UNL A   1      47.825  28.506  29.247  1.00  0.00     0.148 A 
ATOM     65  C   UNL A   1      48.882  29.113  26.715  1.00  0.00     0.002 A 
ATOM     66  C   UNL A   1      49.134  28.163  28.933  1.00  0.00     0.091 A 
ATOM     67  F   UNL A   1      47.279  28.192  30.431  1.00  0.00    -0.205 F 
ATOM     68  C   UNL A   1      49.661  28.456  27.664  1.00  0.00     0.022 A 
BRANCH  66  69
ATOM     69  S   UNL A   1      50.235  27.386  30.123  1.00  0.00     0.127 S 
ATOM     70  O   UNL A   1      50.133  28.298  31.260  1.00  0.00    -0.237 OA
ATOM     71  O   UNL A   1      49.601  26.082  30.329  1.00  0.00    -0.237 OA
ATOM     72  O   UNL A   1      51.537  27.325  29.475  1.00  0.00    -0.744 OA
ENDBRANCH  66  69
ENDBRANCH  48  62
BRANCH  49  73
ATOM     73  C   UNL A   1      37.627  31.565  30.593  1.00  0.00     0.023 A 
ATOM     74  C   UNL A   1      37.115  31.251  31.867  1.00  0.00     0.012 A 
ATOM     75  C   UNL A   1      36.807  32.247  29.673  1.00  0.00     0.148 A 
ATOM     76  C   UNL A   1      35.806  31.587  32.211  1.00  0.00     0.002 A 
ATOM     77  C   UNL A   1      35.522  32.630  30.043  1.00  0.00     0.091 A 
ATOM     78  F   UNL A   1      37.300  32.514  28.455  1.00  0.00    -0.205 F 
ATOM     79  C   UNL A   1      35.014  32.288  31.306  1.00  0.00     0.022 A 
BRANCH  77  80
ATOM     80  S   UNL A   1      34.481  33.644  28.988  1.00  0.00     0.127 S 
ATOM     81  O   UNL A   1      35.411  34.686  28.560  1.00  0.00    -0.237 OA
ATOM     82  O   UNL A   1      34.094  32.697  27.940  1.00  0.00    -0.237 OA
ATOM     83  O   UNL A   1      33.379  34.085  29.833  1.00  0.00    -0.744 OA
ENDBRANCH  77  80
ENDBRANCH  49  73
BRANCH  61  84
ATOM     84  C   UNL A   1      43.703  34.939  31.110  1.00  0.00     0.023 A 
ATOM     85  C   UNL A   1      44.018  35.078  32.477  1.00  0.00     0.012 A 
ATOM     86  C   UNL A   1      43.778  36.065  30.268  1.00  0.00     0.148 A 
ATOM     87  C   UNL A   1      44.362  36.322  33.004  1.00  0.00     0.002 A 
ATOM     88  C   UNL A   1      44.166  37.295  30.791  1.00  0.00     0.091 A 
ATOM     89  F   UNL A   1      43.454  35.924  28.974  1.00  0.00    -0.205 F 
ATOM     90  C   UNL A   1      44.445  37.427  32.161  1.00  0.00     0.022 A 
BRANCH  88  91
ATOM     91  S   UNL A   1      44.382  38.741  29.749  1.00  0.00     0.127 S 
ATOM     92  O   UNL A   1      45.254  38.225  28.695  1.00  0.00    -0.237 OA
ATOM     93  O   UNL A   1      43.014  39.032  29.317  1.00  0.00    -0.237 OA
ATOM     94  O   UNL A   1      44.965  39.760  30.613  1.00  0.00    -0.744 OA
ENDBRANCH  88  91
ENDBRANCH  61  84
ENDBRANCH  35  36
ENDBRANCH  28  30
ENDBRANCH  27  28
ENDBRANCH   1  27
TORSDOF 18
ENDMDL
