MODEL 1
REMARK VINA RESULT:     -11.3      0.000      0.000
REMARK SMILES CC[C@@](C)(C(=O)OCCOC(=O)c1ccc(-c2c3nc(c(-c4cccc(S(=O)(=O)[O-])c4F)c4ccc([nH]4)c(-c4cccc(S(=O)(=O)[O-])c4F)c4nc(c(-c5cccc(S(=O)(=O)[O-])c5F)c5ccc2[nH]5)C=C4)C=C3)cc1)n1nnnc1Cc1cccs1
REMARK SMILES IDX 8 1 7 2 5 3 6 4 3 5 4 6 2 7 1 8 76 9 77 10 80 11 78 12 79 13
REMARK SMILES IDX 81 14 82 15 83 16 86 17 84 18 85 19 9 20 10 21 11 22 12 23
REMARK SMILES IDX 13 24 14 25 75 26 15 27 74 28 16 29 17 30 18 31 68 32 19 33
REMARK SMILES IDX 73 34 67 35 69 36 20 37 72 38 66 39 65 40 21 42 53 43 33 44
REMARK SMILES IDX 52 45 34 46 37 47 51 48 70 49 35 50 36 51 50 53 71 54 38 55
REMARK SMILES IDX 22 56 23 57 31 58 24 59 26 60 32 61 25 62 27 63 28 64 29 65
REMARK SMILES IDX 30 66 54 67 55 68 63 69 56 70 58 71 64 72 57 73 59 74 60 75
REMARK SMILES IDX 61 76 62 77 39 78 40 79 48 80 41 81 43 82 49 83 42 84 44 85
REMARK SMILES IDX 45 86 46 87 47 88
REMARK H PARENT 69 41 37 52
REMARK Flexibility Score: inf
ROOT
ATOM      1  C   UNL A   1      31.392  29.175  24.624  1.00  0.00     0.274 C 
ENDROOT
BRANCH   1   2
ATOM      2  O   UNL A   1      31.248  28.025  25.481  1.00  0.00    -0.460 OA
BRANCH   2   3
ATOM      3  C   UNL A   1      30.946  26.831  24.896  1.00  0.00     0.334 C 
ATOM      4  O   UNL A   1      29.960  26.669  24.185  1.00  0.00    -0.249 OA
BRANCH   3   5
ATOM      5  C   UNL A   1      31.926  25.686  25.339  1.00  0.00     0.160 C 
ATOM      6  C   UNL A   1      33.009  26.437  26.133  1.00  0.00     0.050 C 
BRANCH   5   7
ATOM      7  C   UNL A   1      32.506  25.010  24.047  1.00  0.00     0.039 C 
ATOM      8  C   UNL A   1      33.265  25.835  23.020  1.00  0.00     0.007 C 
ENDBRANCH   5   7
BRANCH   5   9
ATOM      9  N   UNL A   1      31.216  24.744  26.218  1.00  0.00    -0.212 N 
ATOM     10  N   UNL A   1      29.940  25.013  26.575  1.00  0.00    -0.044 NA
ATOM     11  C   UNL A   1      31.569  23.542  26.800  1.00  0.00     0.157 A 
ATOM     12  N   UNL A   1      29.508  23.965  27.247  1.00  0.00    -0.024 NA
ATOM     13  N   UNL A   1      30.480  23.022  27.339  1.00  0.00    -0.113 NA
BRANCH  11  14
ATOM     14  C   UNL A   1      32.915  22.922  26.938  1.00  0.00     0.125 C 
BRANCH  14  15
ATOM     15  C   UNL A   1      33.106  21.846  25.906  1.00  0.00     0.012 A 
ATOM     16  C   UNL A   1      32.178  21.362  25.003  1.00  0.00     0.016 A 
ATOM     17  S   UNL A   1      34.591  20.998  25.800  1.00  0.00    -0.148 S 
ATOM     18  C   UNL A   1      32.665  20.235  24.283  1.00  0.00     0.012 A 
ATOM     19  C   UNL A   1      33.961  19.925  24.628  1.00  0.00     0.065 A 
ENDBRANCH  14  15
ENDBRANCH  11  14
ENDBRANCH   5   9
ENDBRANCH   3   5
ENDBRANCH   2   3
ENDBRANCH   1   2
BRANCH   1  20
ATOM     20  C   UNL A   1      31.522  30.423  25.498  1.00  0.00     0.275 C 
BRANCH  20  21
ATOM     21  O   UNL A   1      32.647  30.280  26.388  1.00  0.00    -0.458 OA
BRANCH  21  22
ATOM     22  C   UNL A   1      33.056  31.418  26.994  1.00  0.00     0.338 C 
ATOM     23  O   UNL A   1      32.411  32.449  27.150  1.00  0.00    -0.246 OA
BRANCH  22  24
ATOM     24  C   UNL A   1      34.347  31.177  27.649  1.00  0.00     0.060 A 
ATOM     25  C   UNL A   1      34.636  29.862  28.009  1.00  0.00     0.016 A 
ATOM     26  C   UNL A   1      35.234  32.203  27.969  1.00  0.00     0.016 A 
ATOM     27  C   UNL A   1      35.814  29.552  28.679  1.00  0.00     0.010 A 
ATOM     28  C   UNL A   1      36.422  31.891  28.644  1.00  0.00     0.010 A 
ATOM     29  C   UNL A   1      36.718  30.563  29.006  1.00  0.00    -0.014 A 
BRANCH  29  30
ATOM     30  C   UNL A   1      37.922  30.219  29.799  1.00  0.00     0.031 A 
ATOM     31  C   UNL A   1      38.964  29.318  29.204  1.00  0.00     0.074 A 
ATOM     32  C   UNL A   1      38.111  30.750  31.022  1.00  0.00     0.049 A 
ATOM     33  N   UNL A   1      40.051  28.837  29.748  1.00  0.00    -0.248 NA
ATOM     34  C   UNL A   1      38.759  28.910  27.804  1.00  0.00     0.031 C 
ATOM     35  C   UNL A   1      37.214  31.701  31.679  1.00  0.00     0.029 A 
ATOM     36  N   UNL A   1      39.121  30.559  31.933  1.00  0.00    -0.354 N 
ATOM     37  C   UNL A   1      40.636  28.034  28.778  1.00  0.00     0.074 A 
ATOM     38  C   UNL A   1      39.791  28.101  27.605  1.00  0.00     0.031 C 
ATOM     39  C   UNL A   1      37.707  32.000  32.893  1.00  0.00     0.029 A 
ATOM     40  C   UNL A   1      38.929  31.232  33.117  1.00  0.00     0.049 A 
ATOM     41  H   UNL A   1      39.908  29.994  31.755  1.00  0.00     0.167 HD
ATOM     42  C   UNL A   1      41.778  27.312  28.856  1.00  0.00     0.034 A 
ATOM     43  C   UNL A   1      39.643  31.211  34.260  1.00  0.00     0.034 A 
ATOM     44  C   UNL A   1      42.640  27.279  30.005  1.00  0.00     0.049 A 
ATOM     45  C   UNL A   1      40.883  30.360  34.334  1.00  0.00     0.074 A 
ATOM     46  C   UNL A   1      43.824  26.582  30.173  1.00  0.00     0.029 A 
ATOM     47  N   UNL A   1      42.414  27.973  31.185  1.00  0.00    -0.354 N 
ATOM     48  N   UNL A   1      41.454  29.645  33.394  1.00  0.00    -0.248 NA
ATOM     49  C   UNL A   1      41.589  30.323  35.624  1.00  0.00     0.031 C 
ATOM     50  C   UNL A   1      44.306  26.843  31.460  1.00  0.00     0.029 A 
ATOM     51  C   UNL A   1      43.430  27.713  32.089  1.00  0.00     0.049 A 
ATOM     52  H   UNL A   1      41.644  28.564  31.353  1.00  0.00     0.167 HD
ATOM     53  C   UNL A   1      42.594  29.095  33.969  1.00  0.00     0.074 A 
ATOM     54  C   UNL A   1      42.649  29.580  35.333  1.00  0.00     0.031 C 
ATOM     55  C   UNL A   1      43.502  28.248  33.425  1.00  0.00     0.034 A 
BRANCH  42  56
ATOM     56  C   UNL A   1      42.164  26.500  27.651  1.00  0.00     0.023 A 
ATOM     57  C   UNL A   1      42.877  27.106  26.599  1.00  0.00     0.012 A 
ATOM     58  C   UNL A   1      41.852  25.129  27.581  1.00  0.00     0.148 A 
ATOM     59  C   UNL A   1      43.253  26.364  25.481  1.00  0.00     0.002 A 
ATOM     60  C   UNL A   1      42.260  24.388  26.479  1.00  0.00     0.091 A 
ATOM     61  F   UNL A   1      41.145  24.580  28.580  1.00  0.00    -0.205 F 
ATOM     62  C   UNL A   1      42.954  25.004  25.425  1.00  0.00     0.022 A 
BRANCH  60  63
ATOM     63  S   UNL A   1      41.970  22.619  26.351  1.00  0.00     0.127 S 
ATOM     64  O   UNL A   1      42.631  22.304  25.086  1.00  0.00    -0.237 OA
ATOM     65  O   UNL A   1      42.653  22.105  27.539  1.00  0.00    -0.237 OA
ATOM     66  O   UNL A   1      40.524  22.451  26.366  1.00  0.00    -0.744 OA
ENDBRANCH  60  63
ENDBRANCH  42  56
BRANCH  43  67
ATOM     67  C   UNL A   1      39.213  32.035  35.426  1.00  0.00     0.023 A 
ATOM     68  C   UNL A   1      38.318  31.490  36.367  1.00  0.00     0.012 A 
ATOM     69  C   UNL A   1      39.691  33.347  35.614  1.00  0.00     0.148 A 
ATOM     70  C   UNL A   1      37.891  32.243  37.462  1.00  0.00     0.002 A 
ATOM     71  C   UNL A   1      39.303  34.073  36.735  1.00  0.00     0.091 A 
ATOM     72  F   UNL A   1      40.516  33.862  34.691  1.00  0.00    -0.205 F 
ATOM     73  C   UNL A   1      38.392  33.528  37.652  1.00  0.00     0.022 A 
BRANCH  71  74
ATOM     74  S   UNL A   1      39.990  35.689  37.113  1.00  0.00     0.127 S 
ATOM     75  O   UNL A   1      41.410  35.382  37.267  1.00  0.00    -0.237 OA
ATOM     76  O   UNL A   1      39.654  36.455  35.911  1.00  0.00    -0.237 OA
ATOM     77  O   UNL A   1      39.302  36.134  38.317  1.00  0.00    -0.744 OA
ENDBRANCH  71  74
ENDBRANCH  43  67
BRANCH  55  78
ATOM     78  C   UNL A   1      44.648  27.797  34.291  1.00  0.00     0.023 A 
ATOM     79  C   UNL A   1      45.836  28.554  34.318  1.00  0.00     0.012 A 
ATOM     80  C   UNL A   1      44.520  26.681  35.140  1.00  0.00     0.148 A 
ATOM     81  C   UNL A   1      46.889  28.192  35.158  1.00  0.00     0.002 A 
ATOM     82  C   UNL A   1      45.556  26.351  36.008  1.00  0.00     0.091 A 
ATOM     83  F   UNL A   1      43.390  25.961  35.087  1.00  0.00    -0.205 F 
ATOM     84  C   UNL A   1      46.744  27.101  36.011  1.00  0.00     0.022 A 
BRANCH  82  85
ATOM     85  S   UNL A   1      45.418  25.018  37.204  1.00  0.00     0.127 S 
ATOM     86  O   UNL A   1      46.495  25.339  38.137  1.00  0.00    -0.237 OA
ATOM     87  O   UNL A   1      44.069  25.214  37.738  1.00  0.00    -0.237 OA
ATOM     88  O   UNL A   1      45.588  23.785  36.445  1.00  0.00    -0.744 OA
ENDBRANCH  82  85
ENDBRANCH  55  78
ENDBRANCH  29  30
ENDBRANCH  22  24
ENDBRANCH  21  22
ENDBRANCH  20  21
ENDBRANCH   1  20
TORSDOF 18
ENDMDL
MODEL 2
REMARK VINA RESULT:     -11.1      5.338     10.161
REMARK SMILES CC[C@@](C)(C(=O)OCCOC(=O)c1ccc(-c2c3nc(c(-c4cccc(S(=O)(=O)[O-])c4F)c4ccc([nH]4)c(-c4cccc(S(=O)(=O)[O-])c4F)c4nc(c(-c5cccc(S(=O)(=O)[O-])c5F)c5ccc2[nH]5)C=C4)C=C3)cc1)n1nnnc1Cc1cccs1
REMARK SMILES IDX 8 1 7 2 5 3 6 4 3 5 4 6 2 7 1 8 76 9 77 10 80 11 78 12 79 13
REMARK SMILES IDX 81 14 82 15 83 16 86 17 84 18 85 19 9 20 10 21 11 22 12 23
REMARK SMILES IDX 13 24 14 25 75 26 15 27 74 28 16 29 17 30 18 31 68 32 19 33
REMARK SMILES IDX 73 34 67 35 69 36 20 37 72 38 66 39 65 40 21 42 53 43 33 44
REMARK SMILES IDX 52 45 34 46 37 47 51 48 70 49 35 50 36 51 50 53 71 54 38 55
REMARK SMILES IDX 22 56 23 57 31 58 24 59 26 60 32 61 25 62 27 63 28 64 29 65
REMARK SMILES IDX 30 66 54 67 55 68 63 69 56 70 58 71 64 72 57 73 59 74 60 75
REMARK SMILES IDX 61 76 62 77 39 78 40 79 48 80 41 81 43 82 49 83 42 84 44 85
REMARK SMILES IDX 45 86 46 87 47 88
REMARK H PARENT 69 41 37 52
REMARK Flexibility Score: inf
ROOT
ATOM      1  C   UNL A   1      35.251  21.201  24.633  1.00  0.00     0.274 C 
ENDROOT
BRANCH   1   2
ATOM      2  O   UNL A   1      34.771  22.518  24.303  1.00  0.00    -0.460 OA
BRANCH   2   3
ATOM      3  C   UNL A   1      33.498  22.841  24.669  1.00  0.00     0.334 C 
ATOM      4  O   UNL A   1      33.040  22.585  25.777  1.00  0.00    -0.249 OA
BRANCH   3   5
ATOM      5  C   UNL A   1      32.674  23.454  23.481  1.00  0.00     0.160 C 
ATOM      6  C   UNL A   1      31.260  23.600  24.072  1.00  0.00     0.050 C 
BRANCH   5   7
ATOM      7  C   UNL A   1      32.708  22.438  22.286  1.00  0.00     0.039 C 
ATOM      8  C   UNL A   1      31.905  21.148  22.346  1.00  0.00     0.007 C 
ENDBRANCH   5   7
BRANCH   5   9
ATOM      9  N   UNL A   1      33.218  24.776  23.135  1.00  0.00    -0.212 N 
ATOM     10  N   UNL A   1      33.333  25.118  21.833  1.00  0.00    -0.044 NA
ATOM     11  C   UNL A   1      33.661  25.844  23.890  1.00  0.00     0.157 A 
ATOM     12  N   UNL A   1      33.720  26.378  21.807  1.00  0.00    -0.024 NA
ATOM     13  N   UNL A   1      33.865  26.859  23.069  1.00  0.00    -0.113 NA
BRANCH  11  14
ATOM     14  C   UNL A   1      33.982  25.903  25.342  1.00  0.00     0.125 C 
BRANCH  14  15
ATOM     15  C   UNL A   1      33.335  27.104  25.975  1.00  0.00     0.012 A 
ATOM     16  C   UNL A   1      33.950  28.144  26.646  1.00  0.00     0.016 A 
ATOM     17  S   UNL A   1      31.630  27.265  25.989  1.00  0.00    -0.148 S 
ATOM     18  C   UNL A   1      33.010  29.028  27.246  1.00  0.00     0.012 A 
ATOM     19  C   UNL A   1      31.711  28.658  26.975  1.00  0.00     0.065 A 
ENDBRANCH  14  15
ENDBRANCH  11  14
ENDBRANCH   5   9
ENDBRANCH   3   5
ENDBRANCH   2   3
ENDBRANCH   1   2
BRANCH   1  20
ATOM     20  C   UNL A   1      36.307  21.325  25.732  1.00  0.00     0.275 C 
BRANCH  20  21
ATOM     21  O   UNL A   1      37.589  21.625  25.145  1.00  0.00    -0.458 OA
BRANCH  21  22
ATOM     22  C   UNL A   1      38.663  21.213  25.857  1.00  0.00     0.338 C 
ATOM     23  O   UNL A   1      39.119  20.076  25.921  1.00  0.00    -0.246 OA
BRANCH  22  24
ATOM     24  C   UNL A   1      39.361  22.386  26.396  1.00  0.00     0.060 A 
ATOM     25  C   UNL A   1      38.984  23.630  25.894  1.00  0.00     0.016 A 
ATOM     26  C   UNL A   1      40.402  22.287  27.317  1.00  0.00     0.016 A 
ATOM     27  C   UNL A   1      39.628  24.788  26.312  1.00  0.00     0.010 A 
ATOM     28  C   UNL A   1      41.053  23.455  27.739  1.00  0.00     0.010 A 
ATOM     29  C   UNL A   1      40.670  24.713  27.236  1.00  0.00    -0.014 A 
BRANCH  29  30
ATOM     30  C   UNL A   1      41.400  25.953  27.596  1.00  0.00     0.031 A 
ATOM     31  C   UNL A   1      40.724  26.985  28.449  1.00  0.00     0.074 A 
ATOM     32  C   UNL A   1      42.678  26.132  27.209  1.00  0.00     0.049 A 
ATOM     33  N   UNL A   1      41.152  28.163  28.819  1.00  0.00    -0.248 NA
ATOM     34  C   UNL A   1      39.387  26.641  28.962  1.00  0.00     0.031 C 
ATOM     35  C   UNL A   1      43.474  25.169  26.448  1.00  0.00     0.029 A 
ATOM     36  N   UNL A   1      43.529  27.192  27.403  1.00  0.00    -0.354 N 
ATOM     37  C   UNL A   1      40.124  28.722  29.568  1.00  0.00     0.074 A 
ATOM     38  C   UNL A   1      39.054  27.748  29.611  1.00  0.00     0.031 C 
ATOM     39  C   UNL A   1      44.693  25.689  26.226  1.00  0.00     0.029 A 
ATOM     40  C   UNL A   1      44.751  27.035  26.791  1.00  0.00     0.049 A 
ATOM     41  H   UNL A   1      43.288  27.989  27.928  1.00  0.00     0.167 HD
ATOM     42  C   UNL A   1      40.080  29.933  30.170  1.00  0.00     0.034 A 
ATOM     43  C   UNL A   1      45.788  27.887  26.679  1.00  0.00     0.034 A 
ATOM     44  C   UNL A   1      41.158  30.882  30.163  1.00  0.00     0.049 A 
ATOM     45  C   UNL A   1      45.692  29.248  27.318  1.00  0.00     0.074 A 
ATOM     46  C   UNL A   1      41.208  32.133  30.753  1.00  0.00     0.029 A 
ATOM     47  N   UNL A   1      42.380  30.688  29.536  1.00  0.00    -0.354 N 
ATOM     48  N   UNL A   1      44.735  29.745  28.066  1.00  0.00    -0.248 NA
ATOM     49  C   UNL A   1      46.825  30.162  27.112  1.00  0.00     0.031 C 
ATOM     50  C   UNL A   1      42.454  32.701  30.471  1.00  0.00     0.029 A 
ATOM     51  C   UNL A   1      43.186  31.799  29.715  1.00  0.00     0.049 A 
ATOM     52  H   UNL A   1      42.636  29.878  29.036  1.00  0.00     0.167 HD
ATOM     53  C   UNL A   1      45.161  31.015  28.438  1.00  0.00     0.074 A 
ATOM     54  C   UNL A   1      46.473  31.204  27.854  1.00  0.00     0.031 C 
ATOM     55  C   UNL A   1      44.514  31.951  29.177  1.00  0.00     0.034 A 
BRANCH  42  56
ATOM     56  C   UNL A   1      38.815  30.295  30.897  1.00  0.00     0.023 A 
ATOM     57  C   UNL A   1      38.649  29.916  32.242  1.00  0.00     0.012 A 
ATOM     58  C   UNL A   1      37.809  31.044  30.256  1.00  0.00     0.148 A 
ATOM     59  C   UNL A   1      37.487  30.255  32.934  1.00  0.00     0.002 A 
ATOM     60  C   UNL A   1      36.669  31.408  30.962  1.00  0.00     0.091 A 
ATOM     61  F   UNL A   1      37.974  31.368  28.965  1.00  0.00    -0.205 F 
ATOM     62  C   UNL A   1      36.503  31.008  32.299  1.00  0.00     0.022 A 
BRANCH  60  63
ATOM     63  S   UNL A   1      35.378  32.428  30.242  1.00  0.00     0.127 S 
ATOM     64  O   UNL A   1      36.111  33.654  29.930  1.00  0.00    -0.237 OA
ATOM     65  O   UNL A   1      34.978  31.645  29.072  1.00  0.00    -0.237 OA
ATOM     66  O   UNL A   1      34.351  32.551  31.265  1.00  0.00    -0.744 OA
ENDBRANCH  60  63
ENDBRANCH  42  56
BRANCH  43  67
ATOM     67  C   UNL A   1      47.019  27.477  25.945  1.00  0.00     0.023 A 
ATOM     68  C   UNL A   1      48.031  26.772  26.626  1.00  0.00     0.012 A 
ATOM     69  C   UNL A   1      47.190  27.769  24.577  1.00  0.00     0.148 A 
ATOM     70  C   UNL A   1      49.197  26.386  25.965  1.00  0.00     0.002 A 
ATOM     71  C   UNL A   1      48.332  27.335  23.911  1.00  0.00     0.091 A 
ATOM     72  F   UNL A   1      46.233  28.469  23.951  1.00  0.00    -0.205 F 
ATOM     73  C   UNL A   1      49.343  26.656  24.607  1.00  0.00     0.022 A 
BRANCH  71  74
ATOM     74  S   UNL A   1      48.543  27.542  22.140  1.00  0.00     0.127 S 
ATOM     75  O   UNL A   1      49.689  28.446  22.078  1.00  0.00    -0.237 OA
ATOM     76  O   UNL A   1      48.816  26.172  21.700  1.00  0.00    -0.237 OA
ATOM     77  O   UNL A   1      47.280  28.084  21.657  1.00  0.00    -0.744 OA
ENDBRANCH  71  74
ENDBRANCH  43  67
BRANCH  55  78
ATOM     78  C   UNL A   1      45.214  33.261  29.417  1.00  0.00     0.023 A 
ATOM     79  C   UNL A   1      45.961  33.441  30.599  1.00  0.00     0.012 A 
ATOM     80  C   UNL A   1      45.207  34.278  28.443  1.00  0.00     0.148 A 
ATOM     81  C   UNL A   1      46.669  34.623  30.818  1.00  0.00     0.002 A 
ATOM     82  C   UNL A   1      45.951  35.435  28.647  1.00  0.00     0.091 A 
ATOM     83  F   UNL A   1      44.476  34.097  27.333  1.00  0.00    -0.205 F 
ATOM     84  C   UNL A   1      46.675  35.612  29.838  1.00  0.00     0.022 A 
BRANCH  82  85
ATOM     85  S   UNL A   1      46.089  36.720  27.398  1.00  0.00     0.127 S 
ATOM     86  O   UNL A   1      47.180  37.535  27.926  1.00  0.00    -0.237 OA
ATOM     87  O   UNL A   1      46.425  35.954  26.196  1.00  0.00    -0.237 OA
ATOM     88  O   UNL A   1      44.784  37.367  27.350  1.00  0.00    -0.744 OA
ENDBRANCH  82  85
ENDBRANCH  55  78
ENDBRANCH  29  30
ENDBRANCH  22  24
ENDBRANCH  21  22
ENDBRANCH  20  21
ENDBRANCH   1  20
TORSDOF 18
ENDMDL
MODEL 3
REMARK VINA RESULT:     -11.1      5.348      9.979
REMARK SMILES CC[C@@](C)(C(=O)OCCOC(=O)c1ccc(-c2c3nc(c(-c4cccc(S(=O)(=O)[O-])c4F)c4ccc([nH]4)c(-c4cccc(S(=O)(=O)[O-])c4F)c4nc(c(-c5cccc(S(=O)(=O)[O-])c5F)c5ccc2[nH]5)C=C4)C=C3)cc1)n1nnnc1Cc1cccs1
REMARK SMILES IDX 8 1 7 2 5 3 6 4 3 5 4 6 2 7 1 8 76 9 77 10 80 11 78 12 79 13
REMARK SMILES IDX 81 14 82 15 83 16 86 17 84 18 85 19 9 20 10 21 11 22 12 23
REMARK SMILES IDX 13 24 14 25 75 26 15 27 74 28 16 29 17 30 18 31 68 32 19 33
REMARK SMILES IDX 73 34 67 35 69 36 20 37 72 38 66 39 65 40 21 42 53 43 33 44
REMARK SMILES IDX 52 45 34 46 37 47 51 48 70 49 35 50 36 51 50 53 71 54 38 55
REMARK SMILES IDX 22 56 23 57 31 58 24 59 26 60 32 61 25 62 27 63 28 64 29 65
REMARK SMILES IDX 30 66 54 67 55 68 63 69 56 70 58 71 64 72 57 73 59 74 60 75
REMARK SMILES IDX 61 76 62 77 39 78 40 79 48 80 41 81 43 82 49 83 42 84 44 85
REMARK SMILES IDX 45 86 46 87 47 88
REMARK H PARENT 69 41 37 52
REMARK Flexibility Score: inf
ROOT
ATOM      1  C   UNL A   1      36.678  22.480  23.921  1.00  0.00     0.274 C 
ENDROOT
BRANCH   1   2
ATOM      2  O   UNL A   1      35.240  22.559  23.949  1.00  0.00    -0.460 OA
BRANCH   2   3
ATOM      3  C   UNL A   1      34.652  23.066  25.070  1.00  0.00     0.334 C 
ATOM      4  O   UNL A   1      35.065  24.070  25.640  1.00  0.00    -0.249 OA
BRANCH   3   5
ATOM      5  C   UNL A   1      33.488  22.153  25.597  1.00  0.00     0.160 C 
ATOM      6  C   UNL A   1      34.054  21.582  26.908  1.00  0.00     0.050 C 
BRANCH   5   7
ATOM      7  C   UNL A   1      33.225  21.031  24.532  1.00  0.00     0.039 C 
ATOM      8  C   UNL A   1      32.534  19.737  24.931  1.00  0.00     0.007 C 
ENDBRANCH   5   7
BRANCH   5   9
ATOM      9  N   UNL A   1      32.303  22.979  25.874  1.00  0.00    -0.212 N 
ATOM     10  N   UNL A   1      31.810  23.020  27.132  1.00  0.00    -0.044 NA
ATOM     11  C   UNL A   1      31.520  23.805  25.091  1.00  0.00     0.157 A 
ATOM     12  N   UNL A   1      30.844  23.917  27.130  1.00  0.00    -0.024 NA
ATOM     13  N   UNL A   1      30.696  24.456  25.892  1.00  0.00    -0.113 NA
BRANCH  11  14
ATOM     14  C   UNL A   1      31.467  23.924  23.608  1.00  0.00     0.125 C 
BRANCH  14  15
ATOM     15  C   UNL A   1      32.004  25.258  23.169  1.00  0.00     0.012 A 
ATOM     16  C   UNL A   1      33.324  25.623  22.986  1.00  0.00     0.016 A 
ATOM     17  S   UNL A   1      30.942  26.578  22.911  1.00  0.00    -0.148 S 
ATOM     18  C   UNL A   1      33.465  27.013  22.716  1.00  0.00     0.012 A 
ATOM     19  C   UNL A   1      32.247  27.653  22.658  1.00  0.00     0.065 A 
ENDBRANCH  14  15
ENDBRANCH  11  14
ENDBRANCH   5   9
ENDBRANCH   3   5
ENDBRANCH   2   3
ENDBRANCH   1   2
BRANCH   1  20
ATOM     20  C   UNL A   1      37.120  21.281  24.762  1.00  0.00     0.275 C 
BRANCH  20  21
ATOM     21  O   UNL A   1      37.667  21.739  26.014  1.00  0.00    -0.458 OA
BRANCH  21  22
ATOM     22  C   UNL A   1      38.994  21.533  26.177  1.00  0.00     0.338 C 
ATOM     23  O   UNL A   1      39.650  20.574  25.786  1.00  0.00    -0.246 OA
BRANCH  22  24
ATOM     24  C   UNL A   1      39.606  22.751  26.722  1.00  0.00     0.060 A 
ATOM     25  C   UNL A   1      39.199  23.964  26.169  1.00  0.00     0.016 A 
ATOM     26  C   UNL A   1      40.599  22.724  27.699  1.00  0.00     0.016 A 
ATOM     27  C   UNL A   1      39.765  25.161  26.589  1.00  0.00     0.010 A 
ATOM     28  C   UNL A   1      41.170  23.932  28.124  1.00  0.00     0.010 A 
ATOM     29  C   UNL A   1      40.758  25.158  27.569  1.00  0.00    -0.014 A 
BRANCH  29  30
ATOM     30  C   UNL A   1      41.408  26.440  27.935  1.00  0.00     0.031 A 
ATOM     31  C   UNL A   1      40.616  27.487  28.661  1.00  0.00     0.074 A 
ATOM     32  C   UNL A   1      42.712  26.645  27.669  1.00  0.00     0.049 A 
ATOM     33  N   UNL A   1      40.968  28.697  29.009  1.00  0.00    -0.248 NA
ATOM     34  C   UNL A   1      39.245  27.121  29.054  1.00  0.00     0.031 C 
ATOM     35  C   UNL A   1      43.611  25.676  27.043  1.00  0.00     0.029 A 
ATOM     36  N   UNL A   1      43.506  27.744  27.891  1.00  0.00    -0.354 N 
ATOM     37  C   UNL A   1      39.853  29.254  29.620  1.00  0.00     0.074 A 
ATOM     38  C   UNL A   1      38.814  28.246  29.607  1.00  0.00     0.031 C 
ATOM     39  C   UNL A   1      44.830  26.228  26.918  1.00  0.00     0.029 A 
ATOM     40  C   UNL A   1      44.788  27.601  27.415  1.00  0.00     0.049 A 
ATOM     41  H   UNL A   1      43.188  28.557  28.347  1.00  0.00     0.167 HD
ATOM     42  C   UNL A   1      39.709  30.491  30.151  1.00  0.00     0.034 A 
ATOM     43  C   UNL A   1      45.805  28.484  27.363  1.00  0.00     0.034 A 
ATOM     44  C   UNL A   1      40.753  31.477  30.202  1.00  0.00     0.049 A 
ATOM     45  C   UNL A   1      45.602  29.870  27.916  1.00  0.00     0.074 A 
ATOM     46  C   UNL A   1      40.703  32.756  30.728  1.00  0.00     0.029 A 
ATOM     47  N   UNL A   1      42.038  31.296  29.712  1.00  0.00    -0.354 N 
ATOM     48  N   UNL A   1      44.559  30.368  28.537  1.00  0.00    -0.248 NA
ATOM     49  C   UNL A   1      46.721  30.813  27.777  1.00  0.00     0.031 C 
ATOM     50  C   UNL A   1      41.954  33.354  30.542  1.00  0.00     0.029 A 
ATOM     51  C   UNL A   1      42.786  32.443  29.912  1.00  0.00     0.049 A 
ATOM     52  H   UNL A   1      42.368  30.473  29.283  1.00  0.00     0.167 HD
ATOM     53  C   UNL A   1      44.904  31.670  28.882  1.00  0.00     0.074 A 
ATOM     54  C   UNL A   1      46.263  31.877  28.424  1.00  0.00     0.031 C 
ATOM     55  C   UNL A   1      44.157  32.616  29.502  1.00  0.00     0.034 A 
BRANCH  42  56
ATOM     56  C   UNL A   1      38.366  30.843  30.727  1.00  0.00     0.023 A 
ATOM     57  C   UNL A   1      38.059  30.483  32.053  1.00  0.00     0.012 A 
ATOM     58  C   UNL A   1      37.425  31.562  29.966  1.00  0.00     0.148 A 
ATOM     59  C   UNL A   1      36.822  30.813  32.606  1.00  0.00     0.002 A 
ATOM     60  C   UNL A   1      36.209  31.917  30.535  1.00  0.00     0.091 A 
ATOM     61  F   UNL A   1      37.727  31.867  28.695  1.00  0.00    -0.205 F 
ATOM     62  C   UNL A   1      35.902  31.537  31.852  1.00  0.00     0.022 A 
BRANCH  60  63
ATOM     63  S   UNL A   1      34.989  32.902  29.657  1.00  0.00     0.127 S 
ATOM     64  O   UNL A   1      34.366  31.900  28.795  1.00  0.00    -0.237 OA
ATOM     65  O   UNL A   1      34.136  33.384  30.745  1.00  0.00    -0.237 OA
ATOM     66  O   UNL A   1      35.739  33.944  28.972  1.00  0.00    -0.744 OA
ENDBRANCH  60  63
ENDBRANCH  42  56
BRANCH  43  67
ATOM     67  C   UNL A   1      47.116  28.082  26.778  1.00  0.00     0.023 A 
ATOM     68  C   UNL A   1      48.195  27.785  27.633  1.00  0.00     0.012 A 
ATOM     69  C   UNL A   1      47.299  27.983  25.384  1.00  0.00     0.148 A 
ATOM     70  C   UNL A   1      49.436  27.418  27.112  1.00  0.00     0.002 A 
ATOM     71  C   UNL A   1      48.524  27.566  24.872  1.00  0.00     0.091 A 
ATOM     72  F   UNL A   1      46.272  28.302  24.583  1.00  0.00    -0.205 F 
ATOM     73  C   UNL A   1      49.597  27.297  25.734  1.00  0.00     0.022 A 
BRANCH  71  74
ATOM     74  S   UNL A   1      48.778  27.274  23.118  1.00  0.00     0.127 S 
ATOM     75  O   UNL A   1      50.234  27.319  23.015  1.00  0.00    -0.237 OA
ATOM     76  O   UNL A   1      48.189  25.945  22.939  1.00  0.00    -0.237 OA
ATOM     77  O   UNL A   1      48.059  28.342  22.437  1.00  0.00    -0.744 OA
ENDBRANCH  71  74
ENDBRANCH  43  67
BRANCH  55  78
ATOM     78  C   UNL A   1      44.788  33.962  29.743  1.00  0.00     0.023 A 
ATOM     79  C   UNL A   1      45.524  34.180  30.925  1.00  0.00     0.012 A 
ATOM     80  C   UNL A   1      44.728  34.976  28.768  1.00  0.00     0.148 A 
ATOM     81  C   UNL A   1      46.170  35.397  31.143  1.00  0.00     0.002 A 
ATOM     82  C   UNL A   1      45.411  36.171  28.972  1.00  0.00     0.091 A 
ATOM     83  F   UNL A   1      44.007  34.757  27.659  1.00  0.00    -0.205 F 
ATOM     84  C   UNL A   1      46.124  36.386  30.163  1.00  0.00     0.022 A 
BRANCH  82  85
ATOM     85  S   UNL A   1      45.481  37.461  27.723  1.00  0.00     0.127 S 
ATOM     86  O   UNL A   1      44.078  37.860  27.626  1.00  0.00    -0.237 OA
ATOM     87  O   UNL A   1      46.357  38.454  28.347  1.00  0.00    -0.237 OA
ATOM     88  O   UNL A   1      46.040  36.831  26.534  1.00  0.00    -0.744 OA
ENDBRANCH  82  85
ENDBRANCH  55  78
ENDBRANCH  29  30
ENDBRANCH  22  24
ENDBRANCH  21  22
ENDBRANCH  20  21
ENDBRANCH   1  20
TORSDOF 18
ENDMDL
