MODEL 1
REMARK VINA RESULT:     -10.9      0.000      0.000
REMARK SMILES C[C@@H](CC(=O)OCCOC(=O)c1ccc(-c2c3nc(c(-c4cccc(S(=O)(=O)[O-])c4F)c4ccc([nH]4)c(-c4cccc(S(=O)(=O)[O-])c4F)c4nc(c(-c5cccc(S(=O)(=O)[O-])c5F)c5ccc2[nH]5)C=C4)C=C3)cc1)NC(=O)N[C@H]1CCOC1
REMARK SMILES IDX 7 1 6 2 4 3 5 4 3 5 2 6 1 7 75 8 76 9 77 11 78 12 79 14
REMARK SMILES IDX 80 15 83 16 81 17 82 18 8 19 9 20 10 21 11 22 12 23 13 24
REMARK SMILES IDX 74 25 14 26 73 27 15 28 16 29 17 30 67 31 18 32 72 33 66 34
REMARK SMILES IDX 68 35 19 36 71 37 65 38 64 39 20 41 52 42 32 43 51 44 33 45
REMARK SMILES IDX 36 46 50 47 69 48 34 49 35 50 49 52 70 53 37 54 21 55 22 56
REMARK SMILES IDX 30 57 23 58 25 59 31 60 24 61 26 62 27 63 28 64 29 65 53 66
REMARK SMILES IDX 54 67 62 68 55 69 57 70 63 71 56 72 58 73 59 74 60 75 61 76
REMARK SMILES IDX 38 77 39 78 47 79 40 80 42 81 48 82 41 83 43 84 44 85 45 86
REMARK SMILES IDX 46 87
REMARK H PARENT 75 10 78 13 68 40 36 51
REMARK Flexibility Score: inf
ROOT
ATOM      1  C   UNL A   1      31.090  29.615  24.578  1.00  0.00     0.274 C 
ENDROOT
BRANCH   1   2
ATOM      2  O   UNL A   1      30.374  28.435  24.163  1.00  0.00    -0.462 OA
BRANCH   2   3
ATOM      3  C   UNL A   1      30.557  28.046  22.880  1.00  0.00     0.307 C 
ATOM      4  O   UNL A   1      30.135  28.656  21.905  1.00  0.00    -0.252 OA
BRANCH   3   5
ATOM      5  C   UNL A   1      31.233  26.706  22.743  1.00  0.00     0.147 C 
BRANCH   5   6
ATOM      6  C   UNL A   1      32.733  26.554  23.010  1.00  0.00     0.091 C 
ATOM      7  C   UNL A   1      33.592  27.748  22.609  1.00  0.00     0.031 C 
BRANCH   6   8
ATOM      8  N   UNL A   1      33.318  25.326  22.493  1.00  0.00    -0.335 N 
ATOM      9  C   UNL A   1      33.688  24.159  23.035  1.00  0.00     0.315 C 
ATOM     10  H   UNL A   1      33.480  25.361  21.522  1.00  0.00     0.165 HD
ATOM     11  O   UNL A   1      34.397  23.397  22.376  1.00  0.00    -0.249 OA
ATOM     12  N   UNL A   1      33.341  23.752  24.262  1.00  0.00    -0.333 N 
ATOM     13  H   UNL A   1      33.799  22.923  24.530  1.00  0.00     0.165 HD
BRANCH  12  14
ATOM     14  C   UNL A   1      32.445  24.252  25.285  1.00  0.00     0.112 C 
ATOM     15  C   UNL A   1      31.021  23.770  25.076  1.00  0.00     0.056 C 
ATOM     16  C   UNL A   1      32.727  23.731  26.697  1.00  0.00     0.185 C 
ATOM     17  C   UNL A   1      30.432  23.959  26.453  1.00  0.00     0.162 C 
ATOM     18  O   UNL A   1      31.464  23.579  27.370  1.00  0.00    -0.379 OA
ENDBRANCH  12  14
ENDBRANCH   6   8
ENDBRANCH   5   6
ENDBRANCH   3   5
ENDBRANCH   2   3
ENDBRANCH   1   2
BRANCH   1  19
ATOM     19  C   UNL A   1      31.842  29.390  25.893  1.00  0.00     0.275 C 
BRANCH  19  20
ATOM     20  O   UNL A   1      33.133  30.025  25.894  1.00  0.00    -0.458 OA
BRANCH  20  21
ATOM     21  C   UNL A   1      33.288  31.004  26.815  1.00  0.00     0.338 C 
ATOM     22  O   UNL A   1      32.470  31.855  27.119  1.00  0.00    -0.246 OA
BRANCH  21  23
ATOM     23  C   UNL A   1      34.545  30.805  27.547  1.00  0.00     0.060 A 
ATOM     24  C   UNL A   1      34.798  29.550  28.109  1.00  0.00     0.016 A 
ATOM     25  C   UNL A   1      35.442  31.856  27.724  1.00  0.00     0.016 A 
ATOM     26  C   UNL A   1      35.967  29.329  28.828  1.00  0.00     0.010 A 
ATOM     27  C   UNL A   1      36.624  31.629  28.432  1.00  0.00     0.010 A 
ATOM     28  C   UNL A   1      36.901  30.361  28.976  1.00  0.00    -0.014 A 
BRANCH  28  29
ATOM     29  C   UNL A   1      38.195  30.110  29.651  1.00  0.00     0.031 A 
ATOM     30  C   UNL A   1      39.194  29.169  29.048  1.00  0.00     0.074 A 
ATOM     31  C   UNL A   1      38.433  30.690  30.843  1.00  0.00     0.049 A 
ATOM     32  N   UNL A   1      40.295  28.695  29.569  1.00  0.00    -0.248 NA
ATOM     33  C   UNL A   1      38.919  28.700  27.682  1.00  0.00     0.031 C 
ATOM     34  C   UNL A   1      37.540  31.639  31.511  1.00  0.00     0.029 A 
ATOM     35  N   UNL A   1      39.479  30.542  31.717  1.00  0.00    -0.354 N 
ATOM     36  C   UNL A   1      40.823  27.834  28.617  1.00  0.00     0.074 A 
ATOM     37  C   UNL A   1      39.924  27.857  27.482  1.00  0.00     0.031 C 
ATOM     38  C   UNL A   1      38.067  31.973  32.700  1.00  0.00     0.029 A 
ATOM     39  C   UNL A   1      39.299  31.219  32.901  1.00  0.00     0.049 A 
ATOM     40  H   UNL A   1      40.280  30.005  31.518  1.00  0.00     0.167 HD
ATOM     41  C   UNL A   1      41.960  27.100  28.683  1.00  0.00     0.034 A 
ATOM     42  C   UNL A   1      40.020  31.199  34.038  1.00  0.00     0.034 A 
ATOM     43  C   UNL A   1      42.861  27.110  29.806  1.00  0.00     0.049 A 
ATOM     44  C   UNL A   1      41.244  30.330  34.108  1.00  0.00     0.074 A 
ATOM     45  C   UNL A   1      44.062  26.441  29.951  1.00  0.00     0.029 A 
ATOM     46  N   UNL A   1      42.654  27.819  30.980  1.00  0.00    -0.354 N 
ATOM     47  N   UNL A   1      41.779  29.583  33.172  1.00  0.00    -0.248 NA
ATOM     48  C   UNL A   1      41.968  30.302  35.387  1.00  0.00     0.031 C 
ATOM     49  C   UNL A   1      44.573  26.730  31.222  1.00  0.00     0.029 A 
ATOM     50  C   UNL A   1      43.696  27.590  31.863  1.00  0.00     0.049 A 
ATOM     51  H   UNL A   1      41.881  28.401  31.159  1.00  0.00     0.167 HD
ATOM     52  C   UNL A   1      42.911  29.014  33.738  1.00  0.00     0.074 A 
ATOM     53  C   UNL A   1      42.998  29.519  35.095  1.00  0.00     0.031 C 
ATOM     54  C   UNL A   1      43.789  28.135  33.194  1.00  0.00     0.034 A 
BRANCH  41  55
ATOM     55  C   UNL A   1      42.305  26.242  27.496  1.00  0.00     0.023 A 
ATOM     56  C   UNL A   1      43.041  26.796  26.430  1.00  0.00     0.012 A 
ATOM     57  C   UNL A   1      41.945  24.881  27.454  1.00  0.00     0.148 A 
ATOM     58  C   UNL A   1      43.388  26.018  25.326  1.00  0.00     0.002 A 
ATOM     59  C   UNL A   1      42.325  24.103  26.366  1.00  0.00     0.091 A 
ATOM     60  F   UNL A   1      41.222  24.377  28.464  1.00  0.00    -0.205 F 
ATOM     61  C   UNL A   1      43.038  24.670  25.298  1.00  0.00     0.022 A 
BRANCH  59  62
ATOM     62  S   UNL A   1      41.977  22.342  26.277  1.00  0.00     0.127 S 
ATOM     63  O   UNL A   1      42.652  21.969  25.034  1.00  0.00    -0.237 OA
ATOM     64  O   UNL A   1      42.618  21.834  27.491  1.00  0.00    -0.237 OA
ATOM     65  O   UNL A   1      40.526  22.224  26.267  1.00  0.00    -0.744 OA
ENDBRANCH  59  62
ENDBRANCH  41  55
BRANCH  42  66
ATOM     66  C   UNL A   1      39.604  32.045  35.192  1.00  0.00     0.023 A 
ATOM     67  C   UNL A   1      39.898  33.421  35.174  1.00  0.00     0.012 A 
ATOM     68  C   UNL A   1      38.877  31.511  36.275  1.00  0.00     0.148 A 
ATOM     69  C   UNL A   1      39.485  34.249  36.219  1.00  0.00     0.002 A 
ATOM     70  C   UNL A   1      38.423  32.350  37.285  1.00  0.00     0.091 A 
ATOM     71  F   UNL A   1      38.627  30.193  36.284  1.00  0.00    -0.205 F 
ATOM     72  C   UNL A   1      38.736  33.717  37.266  1.00  0.00     0.022 A 
BRANCH  70  73
ATOM     73  S   UNL A   1      37.342  31.775  38.602  1.00  0.00     0.127 S 
ATOM     74  O   UNL A   1      36.227  32.714  38.505  1.00  0.00    -0.237 OA
ATOM     75  O   UNL A   1      37.038  30.410  38.171  1.00  0.00    -0.237 OA
ATOM     76  O   UNL A   1      38.134  31.855  39.822  1.00  0.00    -0.744 OA
ENDBRANCH  70  73
ENDBRANCH  42  66
BRANCH  54  77
ATOM     77  C   UNL A   1      44.928  27.666  34.060  1.00  0.00     0.023 A 
ATOM     78  C   UNL A   1      46.109  28.429  34.121  1.00  0.00     0.012 A 
ATOM     79  C   UNL A   1      44.799  26.520  34.869  1.00  0.00     0.148 A 
ATOM     80  C   UNL A   1      47.156  28.049  34.960  1.00  0.00     0.002 A 
ATOM     81  C   UNL A   1      45.828  26.170  35.733  1.00  0.00     0.091 A 
ATOM     82  F   UNL A   1      43.672  25.798  34.781  1.00  0.00    -0.205 F 
ATOM     83  C   UNL A   1      47.011  26.928  35.774  1.00  0.00     0.022 A 
BRANCH  81  84
ATOM     84  S   UNL A   1      45.702  24.793  36.881  1.00  0.00     0.127 S 
ATOM     85  O   UNL A   1      46.888  24.990  37.714  1.00  0.00    -0.237 OA
ATOM     86  O   UNL A   1      44.433  25.066  37.555  1.00  0.00    -0.237 OA
ATOM     87  O   UNL A   1      45.708  23.587  36.065  1.00  0.00    -0.744 OA
ENDBRANCH  81  84
ENDBRANCH  54  77
ENDBRANCH  28  29
ENDBRANCH  21  23
ENDBRANCH  20  21
ENDBRANCH  19  20
ENDBRANCH   1  19
TORSDOF 17
ENDMDL
MODEL 2
REMARK VINA RESULT:     -10.9      1.377      2.109
REMARK SMILES C[C@@H](CC(=O)OCCOC(=O)c1ccc(-c2c3nc(c(-c4cccc(S(=O)(=O)[O-])c4F)c4ccc([nH]4)c(-c4cccc(S(=O)(=O)[O-])c4F)c4nc(c(-c5cccc(S(=O)(=O)[O-])c5F)c5ccc2[nH]5)C=C4)C=C3)cc1)NC(=O)N[C@H]1CCOC1
REMARK SMILES IDX 7 1 6 2 4 3 5 4 3 5 2 6 1 7 75 8 76 9 77 11 78 12 79 14
REMARK SMILES IDX 80 15 83 16 81 17 82 18 8 19 9 20 10 21 11 22 12 23 13 24
REMARK SMILES IDX 74 25 14 26 73 27 15 28 16 29 17 30 67 31 18 32 72 33 66 34
REMARK SMILES IDX 68 35 19 36 71 37 65 38 64 39 20 41 52 42 32 43 51 44 33 45
REMARK SMILES IDX 36 46 50 47 69 48 34 49 35 50 49 52 70 53 37 54 21 55 22 56
REMARK SMILES IDX 30 57 23 58 25 59 31 60 24 61 26 62 27 63 28 64 29 65 53 66
REMARK SMILES IDX 54 67 62 68 55 69 57 70 63 71 56 72 58 73 59 74 60 75 61 76
REMARK SMILES IDX 38 77 39 78 47 79 40 80 42 81 48 82 41 83 43 84 44 85 45 86
REMARK SMILES IDX 46 87
REMARK H PARENT 75 10 78 13 68 40 36 51
REMARK Flexibility Score: inf
ROOT
ATOM      1  C   UNL A   1      31.927  29.414  25.408  1.00  0.00     0.274 C 
ENDROOT
BRANCH   1   2
ATOM      2  O   UNL A   1      32.282  28.017  25.465  1.00  0.00    -0.462 OA
BRANCH   2   3
ATOM      3  C   UNL A   1      31.351  27.186  25.990  1.00  0.00     0.307 C 
ATOM      4  O   UNL A   1      31.129  27.066  27.189  1.00  0.00    -0.252 OA
BRANCH   3   5
ATOM      5  C   UNL A   1      30.676  26.309  24.968  1.00  0.00     0.147 C 
BRANCH   5   6
ATOM      6  C   UNL A   1      30.802  24.785  25.037  1.00  0.00     0.091 C 
ATOM      7  C   UNL A   1      30.501  24.044  23.738  1.00  0.00     0.031 C 
BRANCH   6   8
ATOM      8  N   UNL A   1      30.077  24.167  26.138  1.00  0.00    -0.335 N 
ATOM      9  C   UNL A   1      30.264  23.078  26.893  1.00  0.00     0.315 C 
ATOM     10  H   UNL A   1      29.263  24.663  26.384  1.00  0.00     0.165 HD
ATOM     11  O   UNL A   1      29.332  22.671  27.588  1.00  0.00    -0.249 OA
ATOM     12  N   UNL A   1      31.407  22.384  26.950  1.00  0.00    -0.333 N 
ATOM     13  H   UNL A   1      31.321  21.551  27.468  1.00  0.00     0.165 HD
BRANCH  12  14
ATOM     14  C   UNL A   1      32.743  22.578  26.423  1.00  0.00     0.112 C 
ATOM     15  C   UNL A   1      33.809  22.074  27.379  1.00  0.00     0.056 C 
ATOM     16  C   UNL A   1      33.065  21.761  25.168  1.00  0.00     0.185 C 
ATOM     17  C   UNL A   1      34.989  21.903  26.454  1.00  0.00     0.162 C 
ATOM     18  O   UNL A   1      34.452  21.381  25.234  1.00  0.00    -0.379 OA
ENDBRANCH  12  14
ENDBRANCH   6   8
ENDBRANCH   5   6
ENDBRANCH   3   5
ENDBRANCH   2   3
ENDBRANCH   1   2
BRANCH   1  19
ATOM     19  C   UNL A   1      33.072  30.310  25.887  1.00  0.00     0.275 C 
BRANCH  19  20
ATOM     20  O   UNL A   1      32.885  30.749  27.245  1.00  0.00    -0.458 OA
BRANCH  20  21
ATOM     21  C   UNL A   1      33.612  31.834  27.600  1.00  0.00     0.338 C 
ATOM     22  O   UNL A   1      33.245  32.996  27.582  1.00  0.00    -0.246 OA
BRANCH  21  23
ATOM     23  C   UNL A   1      34.888  31.407  28.187  1.00  0.00     0.060 A 
ATOM     24  C   UNL A   1      35.961  32.304  28.175  1.00  0.00     0.016 A 
ATOM     25  C   UNL A   1      35.044  30.121  28.699  1.00  0.00     0.016 A 
ATOM     26  C   UNL A   1      37.191  31.929  28.702  1.00  0.00     0.010 A 
ATOM     27  C   UNL A   1      36.275  29.751  29.244  1.00  0.00     0.010 A 
ATOM     28  C   UNL A   1      37.352  30.656  29.262  1.00  0.00    -0.014 A 
BRANCH  28  29
ATOM     29  C   UNL A   1      38.625  30.282  29.919  1.00  0.00     0.031 A 
ATOM     30  C   UNL A   1      39.545  29.287  29.279  1.00  0.00     0.074 A 
ATOM     31  C   UNL A   1      38.913  30.800  31.129  1.00  0.00     0.049 A 
ATOM     32  N   UNL A   1      40.607  28.711  29.776  1.00  0.00    -0.248 NA
ATOM     33  C   UNL A   1      39.228  28.888  27.899  1.00  0.00     0.031 C 
ATOM     34  C   UNL A   1      38.099  31.792  31.835  1.00  0.00     0.029 A 
ATOM     35  N   UNL A   1      39.947  30.541  31.991  1.00  0.00    -0.354 N 
ATOM     36  C   UNL A   1      41.063  27.845  28.792  1.00  0.00     0.074 A 
ATOM     37  C   UNL A   1      40.164  27.976  27.664  1.00  0.00     0.031 C 
ATOM     38  C   UNL A   1      38.655  32.043  33.031  1.00  0.00     0.029 A 
ATOM     39  C   UNL A   1      39.824  31.189  33.198  1.00  0.00     0.049 A 
ATOM     40  H   UNL A   1      40.702  29.950  31.768  1.00  0.00     0.167 HD
ATOM     41  C   UNL A   1      42.139  27.022  28.826  1.00  0.00     0.034 A 
ATOM     42  C   UNL A   1      40.546  31.073  34.330  1.00  0.00     0.034 A 
ATOM     43  C   UNL A   1      43.042  26.923  29.942  1.00  0.00     0.049 A 
ATOM     44  C   UNL A   1      41.698  30.109  34.361  1.00  0.00     0.074 A 
ATOM     45  C   UNL A   1      44.188  26.157  30.057  1.00  0.00     0.029 A 
ATOM     46  N   UNL A   1      42.896  27.605  31.141  1.00  0.00    -0.354 N 
ATOM     47  N   UNL A   1      42.170  29.356  33.397  1.00  0.00    -0.248 NA
ATOM     48  C   UNL A   1      42.423  29.981  35.634  1.00  0.00     0.031 C 
ATOM     49  C   UNL A   1      44.725  26.362  31.333  1.00  0.00     0.029 A 
ATOM     50  C   UNL A   1      43.920  27.265  32.009  1.00  0.00     0.049 A 
ATOM     51  H   UNL A   1      42.171  28.239  31.345  1.00  0.00     0.167 HD
ATOM     52  C   UNL A   1      43.256  28.680  33.937  1.00  0.00     0.074 A 
ATOM     53  C   UNL A   1      43.387  29.131  35.309  1.00  0.00     0.031 C 
ATOM     54  C   UNL A   1      44.060  27.755  33.357  1.00  0.00     0.034 A 
BRANCH  41  55
ATOM     55  C   UNL A   1      42.412  26.181  27.608  1.00  0.00     0.023 A 
ATOM     56  C   UNL A   1      43.125  26.736  26.527  1.00  0.00     0.012 A 
ATOM     57  C   UNL A   1      42.006  24.834  27.549  1.00  0.00     0.148 A 
ATOM     58  C   UNL A   1      43.404  25.973  25.394  1.00  0.00     0.002 A 
ATOM     59  C   UNL A   1      42.319  24.069  26.431  1.00  0.00     0.091 A 
ATOM     60  F   UNL A   1      41.305  24.329  28.575  1.00  0.00    -0.205 F 
ATOM     61  C   UNL A   1      43.010  24.638  25.350  1.00  0.00     0.022 A 
BRANCH  59  62
ATOM     62  S   UNL A   1      41.912  22.322  26.317  1.00  0.00     0.127 S 
ATOM     63  O   UNL A   1      42.496  21.801  27.552  1.00  0.00    -0.237 OA
ATOM     64  O   UNL A   1      40.448  22.343  26.299  1.00  0.00    -0.237 OA
ATOM     65  O   UNL A   1      42.522  21.853  25.082  1.00  0.00    -0.744 OA
ENDBRANCH  59  62
ENDBRANCH  41  55
BRANCH  42  66
ATOM     66  C   UNL A   1      40.202  31.908  35.514  1.00  0.00     0.023 A 
ATOM     67  C   UNL A   1      40.914  33.101  35.742  1.00  0.00     0.012 A 
ATOM     68  C   UNL A   1      39.146  31.561  36.381  1.00  0.00     0.148 A 
ATOM     69  C   UNL A   1      40.588  33.927  36.819  1.00  0.00     0.002 A 
ATOM     70  C   UNL A   1      38.792  32.416  37.419  1.00  0.00     0.091 A 
ATOM     71  F   UNL A   1      38.495  30.410  36.160  1.00  0.00    -0.205 F 
ATOM     72  C   UNL A   1      39.520  33.593  37.647  1.00  0.00     0.022 A 
BRANCH  70  73
ATOM     73  S   UNL A   1      37.350  32.130  38.453  1.00  0.00     0.127 S 
ATOM     74  O   UNL A   1      37.156  30.690  38.305  1.00  0.00    -0.237 OA
ATOM     75  O   UNL A   1      37.831  32.555  39.769  1.00  0.00    -0.237 OA
ATOM     76  O   UNL A   1      36.298  32.972  37.900  1.00  0.00    -0.744 OA
ENDBRANCH  70  73
ENDBRANCH  42  66
BRANCH  54  77
ATOM     77  C   UNL A   1      45.163  27.169  34.199  1.00  0.00     0.023 A 
ATOM     78  C   UNL A   1      46.420  27.802  34.229  1.00  0.00     0.012 A 
ATOM     79  C   UNL A   1      44.931  26.046  35.017  1.00  0.00     0.148 A 
ATOM     80  C   UNL A   1      47.439  27.313  35.047  1.00  0.00     0.002 A 
ATOM     81  C   UNL A   1      45.937  25.590  35.859  1.00  0.00     0.091 A 
ATOM     82  F   UNL A   1      43.731  25.448  34.958  1.00  0.00    -0.205 F 
ATOM     83  C   UNL A   1      47.194  26.217  35.869  1.00  0.00     0.022 A 
BRANCH  81  84
ATOM     84  S   UNL A   1      45.690  24.237  37.017  1.00  0.00     0.127 S 
ATOM     85  O   UNL A   1      47.011  24.130  37.634  1.00  0.00    -0.237 OA
ATOM     86  O   UNL A   1      44.648  24.766  37.895  1.00  0.00    -0.237 OA
ATOM     87  O   UNL A   1      45.283  23.091  36.216  1.00  0.00    -0.744 OA
ENDBRANCH  81  84
ENDBRANCH  54  77
ENDBRANCH  28  29
ENDBRANCH  21  23
ENDBRANCH  20  21
ENDBRANCH  19  20
ENDBRANCH   1  19
TORSDOF 17
ENDMDL
MODEL 3
REMARK VINA RESULT:     -10.9      5.351     10.013
REMARK SMILES C[C@@H](CC(=O)OCCOC(=O)c1ccc(-c2c3nc(c(-c4cccc(S(=O)(=O)[O-])c4F)c4ccc([nH]4)c(-c4cccc(S(=O)(=O)[O-])c4F)c4nc(c(-c5cccc(S(=O)(=O)[O-])c5F)c5ccc2[nH]5)C=C4)C=C3)cc1)NC(=O)N[C@H]1CCOC1
REMARK SMILES IDX 7 1 6 2 4 3 5 4 3 5 2 6 1 7 75 8 76 9 77 11 78 12 79 14
REMARK SMILES IDX 80 15 83 16 81 17 82 18 8 19 9 20 10 21 11 22 12 23 13 24
REMARK SMILES IDX 74 25 14 26 73 27 15 28 16 29 17 30 67 31 18 32 72 33 66 34
REMARK SMILES IDX 68 35 19 36 71 37 65 38 64 39 20 41 52 42 32 43 51 44 33 45
REMARK SMILES IDX 36 46 50 47 69 48 34 49 35 50 49 52 70 53 37 54 21 55 22 56
REMARK SMILES IDX 30 57 23 58 25 59 31 60 24 61 26 62 27 63 28 64 29 65 53 66
REMARK SMILES IDX 54 67 62 68 55 69 57 70 63 71 56 72 58 73 59 74 60 75 61 76
REMARK SMILES IDX 38 77 39 78 47 79 40 80 42 81 48 82 41 83 43 84 44 85 45 86
REMARK SMILES IDX 46 87
REMARK H PARENT 75 10 78 13 68 40 36 51
REMARK Flexibility Score: inf
ROOT
ATOM      1  C   UNL A   1      34.559  20.865  25.210  1.00  0.00     0.274 C 
ENDROOT
BRANCH   1   2
ATOM      2  O   UNL A   1      34.034  22.096  25.746  1.00  0.00    -0.462 OA
BRANCH   2   3
ATOM      3  C   UNL A   1      33.988  23.146  24.893  1.00  0.00     0.307 C 
ATOM      4  O   UNL A   1      34.550  24.218  25.084  1.00  0.00    -0.252 OA
BRANCH   3   5
ATOM      5  C   UNL A   1      33.069  22.932  23.717  1.00  0.00     0.147 C 
BRANCH   5   6
ATOM      6  C   UNL A   1      32.308  24.105  23.094  1.00  0.00     0.091 C 
ATOM      7  C   UNL A   1      30.790  24.049  23.233  1.00  0.00     0.031 C 
BRANCH   6   8
ATOM      8  N   UNL A   1      32.668  24.394  21.713  1.00  0.00    -0.335 N 
ATOM      9  C   UNL A   1      32.796  25.513  20.989  1.00  0.00     0.315 C 
ATOM     10  H   UNL A   1      32.862  23.582  21.192  1.00  0.00     0.165 HD
ATOM     11  O   UNL A   1      32.867  25.420  19.763  1.00  0.00    -0.249 OA
ATOM     12  N   UNL A   1      32.849  26.746  21.506  1.00  0.00    -0.333 N 
ATOM     13  H   UNL A   1      32.828  27.448  20.816  1.00  0.00     0.165 HD
BRANCH  12  14
ATOM     14  C   UNL A   1      32.933  27.284  22.849  1.00  0.00     0.112 C 
ATOM     15  C   UNL A   1      33.765  28.553  22.900  1.00  0.00     0.056 C 
ATOM     16  C   UNL A   1      31.604  27.781  23.426  1.00  0.00     0.185 C 
ATOM     17  C   UNL A   1      33.294  29.172  24.194  1.00  0.00     0.162 C 
ATOM     18  O   UNL A   1      31.884  28.930  24.248  1.00  0.00    -0.379 OA
ENDBRANCH  12  14
ENDBRANCH   6   8
ENDBRANCH   5   6
ENDBRANCH   3   5
ENDBRANCH   2   3
ENDBRANCH   1   2
BRANCH   1  19
ATOM     19  C   UNL A   1      36.031  21.001  24.809  1.00  0.00     0.275 C 
BRANCH  19  20
ATOM     20  O   UNL A   1      36.819  21.616  25.844  1.00  0.00    -0.458 OA
BRANCH  20  21
ATOM     21  C   UNL A   1      38.127  21.269  25.847  1.00  0.00     0.338 C 
ATOM     22  O   UNL A   1      38.609  20.236  25.414  1.00  0.00    -0.246 OA
BRANCH  21  23
ATOM     23  C   UNL A   1      38.942  22.403  26.301  1.00  0.00     0.060 A 
ATOM     24  C   UNL A   1      38.586  23.689  25.885  1.00  0.00     0.016 A 
ATOM     25  C   UNL A   1      40.075  22.198  27.086  1.00  0.00     0.016 A 
ATOM     26  C   UNL A   1      39.346  24.786  26.276  1.00  0.00     0.010 A 
ATOM     27  C   UNL A   1      40.828  23.301  27.493  1.00  0.00     0.010 A 
ATOM     28  C   UNL A   1      40.461  24.602  27.103  1.00  0.00    -0.014 A 
BRANCH  28  29
ATOM     29  C   UNL A   1      41.217  25.770  27.611  1.00  0.00     0.031 A 
ATOM     30  C   UNL A   1      40.526  26.829  28.415  1.00  0.00     0.074 A 
ATOM     31  C   UNL A   1      42.518  25.896  27.287  1.00  0.00     0.049 A 
ATOM     32  N   UNL A   1      40.975  27.996  28.795  1.00  0.00    -0.248 NA
ATOM     33  C   UNL A   1      39.151  26.539  28.847  1.00  0.00     0.031 C 
ATOM     34  C   UNL A   1      43.296  24.915  26.527  1.00  0.00     0.029 A 
ATOM     35  N   UNL A   1      43.405  26.915  27.524  1.00  0.00    -0.354 N 
ATOM     36  C   UNL A   1      39.925  28.603  29.471  1.00  0.00     0.074 A 
ATOM     37  C   UNL A   1      38.817  27.671  29.455  1.00  0.00     0.031 C 
ATOM     38  C   UNL A   1      44.539  25.388  26.344  1.00  0.00     0.029 A 
ATOM     39  C   UNL A   1      44.626  26.725  26.919  1.00  0.00     0.049 A 
ATOM     40  H   UNL A   1      43.190  27.703  28.073  1.00  0.00     0.167 HD
ATOM     41  C   UNL A   1      39.895  29.823  30.058  1.00  0.00     0.034 A 
ATOM     42  C   UNL A   1      45.681  27.554  26.800  1.00  0.00     0.034 A 
ATOM     43  C   UNL A   1      41.014  30.729  30.094  1.00  0.00     0.049 A 
ATOM     44  C   UNL A   1      45.600  28.926  27.409  1.00  0.00     0.074 A 
ATOM     45  C   UNL A   1      41.101  31.966  30.705  1.00  0.00     0.029 A 
ATOM     46  N   UNL A   1      42.238  30.497  29.485  1.00  0.00    -0.354 N 
ATOM     47  N   UNL A   1      44.632  29.457  28.117  1.00  0.00    -0.248 NA
ATOM     48  C   UNL A   1      46.756  29.811  27.209  1.00  0.00     0.031 C 
ATOM     49  C   UNL A   1      42.373  32.492  30.449  1.00  0.00     0.029 A 
ATOM     50  C   UNL A   1      43.082  31.576  29.689  1.00  0.00     0.049 A 
ATOM     51  H   UNL A   1      42.474  29.684  28.981  1.00  0.00     0.167 HD
ATOM     52  C   UNL A   1      45.068  30.729  28.465  1.00  0.00     0.074 A 
ATOM     53  C   UNL A   1      46.398  30.881  27.908  1.00  0.00     0.031 C 
ATOM     54  C   UNL A   1      44.419  31.693  29.163  1.00  0.00     0.034 A 
BRANCH  41  55
ATOM     55  C   UNL A   1      38.616  30.241  30.733  1.00  0.00     0.023 A 
ATOM     56  C   UNL A   1      38.396  29.891  32.081  1.00  0.00     0.012 A 
ATOM     57  C   UNL A   1      37.655  31.013  30.054  1.00  0.00     0.148 A 
ATOM     58  C   UNL A   1      37.227  30.279  32.733  1.00  0.00     0.002 A 
ATOM     59  C   UNL A   1      36.507  31.427  30.722  1.00  0.00     0.091 A 
ATOM     60  F   UNL A   1      37.867  31.315  28.765  1.00  0.00    -0.205 F 
ATOM     61  C   UNL A   1      36.287  31.054  32.057  1.00  0.00     0.022 A 
BRANCH  59  62
ATOM     62  S   UNL A   1      35.275  32.485  29.951  1.00  0.00     0.127 S 
ATOM     63  O   UNL A   1      34.771  31.623  28.883  1.00  0.00    -0.237 OA
ATOM     64  O   UNL A   1      34.330  32.713  31.045  1.00  0.00    -0.237 OA
ATOM     65  O   UNL A   1      35.992  33.676  29.517  1.00  0.00    -0.744 OA
ENDBRANCH  59  62
ENDBRANCH  41  55
BRANCH  42  66
ATOM     66  C   UNL A   1      46.906  27.094  26.088  1.00  0.00     0.023 A 
ATOM     67  C   UNL A   1      47.019  27.321  24.703  1.00  0.00     0.012 A 
ATOM     68  C   UNL A   1      47.976  26.487  26.775  1.00  0.00     0.148 A 
ATOM     69  C   UNL A   1      48.171  26.941  24.013  1.00  0.00     0.002 A 
ATOM     70  C   UNL A   1      49.141  26.160  26.092  1.00  0.00     0.091 A 
ATOM     71  F   UNL A   1      47.839  26.259  28.090  1.00  0.00    -0.205 F 
ATOM     72  C   UNL A   1      49.236  26.374  24.709  1.00  0.00     0.022 A 
BRANCH  70  73
ATOM     73  S   UNL A   1      50.609  25.549  26.929  1.00  0.00     0.127 S 
ATOM     74  O   UNL A   1      50.099  24.351  27.592  1.00  0.00    -0.237 OA
ATOM     75  O   UNL A   1      51.515  25.293  25.808  1.00  0.00    -0.237 OA
ATOM     76  O   UNL A   1      51.036  26.628  27.810  1.00  0.00    -0.744 OA
ENDBRANCH  70  73
ENDBRANCH  42  66
BRANCH  54  77
ATOM     77  C   UNL A   1      45.137  33.000  29.375  1.00  0.00     0.023 A 
ATOM     78  C   UNL A   1      46.061  33.117  30.432  1.00  0.00     0.012 A 
ATOM     79  C   UNL A   1      44.959  34.077  28.486  1.00  0.00     0.148 A 
ATOM     80  C   UNL A   1      46.783  34.296  30.613  1.00  0.00     0.002 A 
ATOM     81  C   UNL A   1      45.712  35.233  28.648  1.00  0.00     0.091 A 
ATOM     82  F   UNL A   1      44.061  33.949  27.498  1.00  0.00    -0.205 F 
ATOM     83  C   UNL A   1      46.618  35.347  29.716  1.00  0.00     0.022 A 
BRANCH  81  84
ATOM     84  S   UNL A   1      45.632  36.609  27.495  1.00  0.00     0.127 S 
ATOM     85  O   UNL A   1      45.922  35.949  26.223  1.00  0.00    -0.237 OA
ATOM     86  O   UNL A   1      44.250  37.061  27.646  1.00  0.00    -0.237 OA
ATOM     87  O   UNL A   1      46.635  37.567  27.941  1.00  0.00    -0.744 OA
ENDBRANCH  81  84
ENDBRANCH  54  77
ENDBRANCH  28  29
ENDBRANCH  21  23
ENDBRANCH  20  21
ENDBRANCH  19  20
ENDBRANCH   1  19
TORSDOF 17
ENDMDL
