MODEL 1
REMARK VINA RESULT:     -12.3      0.000      0.000
REMARK SMILES CCSc1ccc(-c2cc(Cl)cc3c2O[C@H](C(F)(F)F)C(C(=O)OCCOC(=O)c2ccc(-c4c5nc(c(-c6cccc(S(=O)(=O)[O-])c6F)c6ccc([nH]6)c(-c6cccc(S(=O)(=O)[O-])c6F)c6nc(c(-c7cccc(S(=O)(=O)[O-])c7F)c7ccc4[nH]7)C=C6)C=C5)cc2)=C3)cc1
REMARK SMILES IDX 25 1 24 2 22 3 23 4 21 5 8 6 9 7 14 8 10 9 13 10 15 11 11 12
REMARK SMILES IDX 12 13 93 14 16 15 7 16 4 17 5 18 95 19 6 20 94 21 3 22 2 23
REMARK SMILES IDX 1 24 17 25 18 26 19 27 20 28 26 29 27 30 28 31 29 32 30 33
REMARK SMILES IDX 31 34 92 35 32 36 91 37 33 38 34 39 35 40 85 41 36 42 90 43
REMARK SMILES IDX 84 44 86 45 37 46 89 47 83 48 82 49 38 51 70 52 50 53 69 54
REMARK SMILES IDX 51 55 54 56 68 57 87 58 52 59 53 60 67 62 88 63 55 64 39 65
REMARK SMILES IDX 40 66 48 67 41 68 43 69 49 70 42 71 44 72 45 73 46 74 47 75
REMARK SMILES IDX 71 76 72 77 80 78 73 79 75 80 81 81 74 82 76 83 77 84 78 85
REMARK SMILES IDX 79 86 56 87 57 88 65 89 58 90 60 91 66 92 59 93 61 94 62 95
REMARK SMILES IDX 63 96 64 97
REMARK H PARENT 86 50 54 61
REMARK Flexibility Score: inf
ROOT
ATOM      1  C   UNL A   1      31.695  28.727  24.484  1.00  0.00     0.275 C 
ENDROOT
BRANCH   1   2
ATOM      2  O   UNL A   1      32.895  28.052  24.031  1.00  0.00    -0.459 OA
BRANCH   2   3
ATOM      3  C   UNL A   1      33.123  26.898  24.713  1.00  0.00     0.338 C 
ATOM      4  O   UNL A   1      34.047  26.737  25.503  1.00  0.00    -0.246 OA
BRANCH   3   5
ATOM      5  C   UNL A   1      32.102  25.846  24.487  1.00  0.00     0.087 C 
ATOM      6  C   UNL A   1      33.048  21.885  24.426  1.00  0.00     0.026 A 
ATOM      7  C   UNL A   1      34.414  21.951  24.051  1.00  0.00     0.033 A 
ATOM      8  C   UNL A   1      32.374  23.105  24.303  1.00  0.00     0.135 A 
ATOM      9  C   UNL A   1      35.012  23.073  23.462  1.00  0.00     0.042 A 
ATOM     10  C   UNL A   1      32.906  24.107  23.447  1.00  0.00     0.019 A 
ATOM     11  O   UNL A   1      31.324  23.518  25.118  1.00  0.00    -0.475 OA
ATOM     12  Cl  UNL A   1      36.701  23.296  23.273  1.00  0.00    -0.084 Cl
ATOM     13  C   UNL A   1      34.222  24.105  23.037  1.00  0.00     0.032 A 
ATOM     14  C   UNL A   1      32.141  25.350  23.240  1.00  0.00     0.027 C 
ATOM     15  C   UNL A   1      31.494  24.959  25.557  1.00  0.00     0.316 C 
BRANCH   6  16
ATOM     16  C   UNL A   1      32.531  20.482  24.634  1.00  0.00    -0.015 A 
ATOM     17  C   UNL A   1      32.729  17.593  24.754  1.00  0.00     0.007 A 
ATOM     18  C   UNL A   1      32.682  18.362  25.917  1.00  0.00     0.015 A 
ATOM     19  C   UNL A   1      32.558  18.266  23.542  1.00  0.00     0.015 A 
ATOM     20  C   UNL A   1      32.544  19.783  25.855  1.00  0.00     0.010 A 
ATOM     21  C   UNL A   1      32.455  19.669  23.483  1.00  0.00     0.010 A 
BRANCH  17  22
ATOM     22  S   UNL A   1      33.160  15.856  24.635  1.00  0.00    -0.126 SA
BRANCH  22  23
ATOM     23  C   UNL A   1      34.870  15.713  25.260  1.00  0.00     0.071 C 
ATOM     24  C   UNL A   1      35.691  16.966  25.027  1.00  0.00     0.016 C 
ENDBRANCH  22  23
ENDBRANCH  17  22
ENDBRANCH   6  16
BRANCH  15  25
ATOM     25  C   UNL A   1      30.138  25.601  25.871  1.00  0.00     0.430 C 
ATOM     26  F   UNL A   1      29.483  25.974  24.743  1.00  0.00    -0.167 F 
ATOM     27  F   UNL A   1      29.323  24.782  26.567  1.00  0.00    -0.167 F 
ATOM     28  F   UNL A   1      30.294  26.726  26.619  1.00  0.00    -0.167 F 
ENDBRANCH  15  25
ENDBRANCH   3   5
ENDBRANCH   2   3
ENDBRANCH   1   2
BRANCH   1  29
ATOM     29  C   UNL A   1      31.885  29.487  25.801  1.00  0.00     0.275 C 
BRANCH  29  30
ATOM     30  O   UNL A   1      33.189  30.092  25.876  1.00  0.00    -0.458 OA
BRANCH  30  31
ATOM     31  C   UNL A   1      33.314  31.023  26.851  1.00  0.00     0.338 C 
ATOM     32  O   UNL A   1      32.427  31.780  27.234  1.00  0.00    -0.246 OA
BRANCH  31  33
ATOM     33  C   UNL A   1      34.630  30.928  27.529  1.00  0.00     0.060 A 
ATOM     34  C   UNL A   1      35.037  29.653  27.903  1.00  0.00     0.016 A 
ATOM     35  C   UNL A   1      35.469  32.016  27.811  1.00  0.00     0.016 A 
ATOM     36  C   UNL A   1      36.284  29.473  28.500  1.00  0.00     0.010 A 
ATOM     37  C   UNL A   1      36.740  31.815  28.410  1.00  0.00     0.010 A 
ATOM     38  C   UNL A   1      37.184  30.530  28.733  1.00  0.00    -0.014 A 
BRANCH  38  39
ATOM     39  C   UNL A   1      38.508  30.180  29.364  1.00  0.00     0.031 A 
ATOM     40  C   UNL A   1      38.759  30.588  30.784  1.00  0.00     0.074 A 
ATOM     41  C   UNL A   1      39.418  29.351  28.801  1.00  0.00     0.049 A 
ATOM     42  N   UNL A   1      39.807  30.351  31.528  1.00  0.00    -0.248 NA
ATOM     43  C   UNL A   1      37.714  31.386  31.439  1.00  0.00     0.031 C 
ATOM     44  C   UNL A   1      39.379  28.890  27.430  1.00  0.00     0.029 A 
ATOM     45  N   UNL A   1      40.513  28.683  29.316  1.00  0.00    -0.354 N 
ATOM     46  C   UNL A   1      39.564  30.990  32.730  1.00  0.00     0.074 A 
ATOM     47  C   UNL A   1      38.258  31.607  32.625  1.00  0.00     0.031 C 
ATOM     48  C   UNL A   1      40.250  27.888  27.248  1.00  0.00     0.029 A 
ATOM     49  C   UNL A   1      41.073  27.765  28.445  1.00  0.00     0.049 A 
ATOM     50  H   UNL A   1      40.861  28.846  30.222  1.00  0.00     0.167 HD
ATOM     51  C   UNL A   1      40.358  31.070  33.821  1.00  0.00     0.034 A 
ATOM     52  C   UNL A   1      42.154  26.959  28.550  1.00  0.00     0.034 A 
ATOM     53  C   UNL A   1      41.677  30.509  33.923  1.00  0.00     0.049 A 
ATOM     54  C   UNL A   1      43.007  27.050  29.789  1.00  0.00     0.074 A 
ATOM     55  C   UNL A   1      42.598  30.656  34.946  1.00  0.00     0.029 A 
ATOM     56  N   UNL A   1      42.254  29.659  32.992  1.00  0.00    -0.354 N 
ATOM     57  N   UNL A   1      42.852  27.827  30.832  1.00  0.00    -0.248 NA
ATOM     58  C   UNL A   1      44.198  26.188  29.859  1.00  0.00     0.031 C 
ATOM     59  C   UNL A   1      43.696  29.831  34.673  1.00  0.00     0.029 A 
ATOM     60  C   UNL A   1      43.447  29.159  33.489  1.00  0.00     0.049 A 
ATOM     61  H   UNL A   1      41.872  29.441  32.111  1.00  0.00     0.167 HD
ATOM     62  C   UNL A   1      43.910  27.540  31.683  1.00  0.00     0.074 A 
ATOM     63  C   UNL A   1      44.692  26.501  31.050  1.00  0.00     0.031 C 
ATOM     64  C   UNL A   1      44.216  28.111  32.872  1.00  0.00     0.034 A 
BRANCH  51  65
ATOM     65  C   UNL A   1      39.776  31.793  34.998  1.00  0.00     0.023 A 
ATOM     66  C   UNL A   1      38.855  31.128  35.835  1.00  0.00     0.012 A 
ATOM     67  C   UNL A   1      40.106  33.134  35.252  1.00  0.00     0.148 A 
ATOM     68  C   UNL A   1      38.229  31.808  36.876  1.00  0.00     0.002 A 
ATOM     69  C   UNL A   1      39.522  33.787  36.328  1.00  0.00     0.091 A 
ATOM     70  F   UNL A   1      40.949  33.760  34.419  1.00  0.00    -0.205 F 
ATOM     71  C   UNL A   1      38.569  33.134  37.129  1.00  0.00     0.022 A 
BRANCH  69  72
ATOM     72  S   UNL A   1      39.984  35.461  36.775  1.00  0.00     0.127 S 
ATOM     73  O   UNL A   1      39.465  36.224  35.642  1.00  0.00    -0.237 OA
ATOM     74  O   UNL A   1      39.259  35.661  38.031  1.00  0.00    -0.237 OA
ATOM     75  O   UNL A   1      41.434  35.439  36.917  1.00  0.00    -0.744 OA
ENDBRANCH  69  72
ENDBRANCH  51  65
BRANCH  52  76
ATOM     76  C   UNL A   1      42.549  26.048  27.426  1.00  0.00     0.023 A 
ATOM     77  C   UNL A   1      43.441  26.485  26.425  1.00  0.00     0.012 A 
ATOM     78  C   UNL A   1      42.040  24.735  27.344  1.00  0.00     0.148 A 
ATOM     79  C   UNL A   1      43.796  25.647  25.362  1.00  0.00     0.002 A 
ATOM     80  C   UNL A   1      42.471  23.876  26.340  1.00  0.00     0.091 A 
ATOM     81  F   UNL A   1      41.148  24.341  28.263  1.00  0.00    -0.205 F 
ATOM     82  C   UNL A   1      43.329  24.336  25.331  1.00  0.00     0.022 A 
BRANCH  80  83
ATOM     83  S   UNL A   1      42.063  22.126  26.346  1.00  0.00     0.127 S 
ATOM     84  O   UNL A   1      40.615  22.153  26.167  1.00  0.00    -0.237 OA
ATOM     85  O   UNL A   1      42.819  21.637  25.193  1.00  0.00    -0.237 OA
ATOM     86  O   UNL A   1      42.537  21.619  27.627  1.00  0.00    -0.744 OA
ENDBRANCH  80  83
ENDBRANCH  52  76
BRANCH  64  87
ATOM     87  C   UNL A   1      45.429  27.602  33.598  1.00  0.00     0.023 A 
ATOM     88  C   UNL A   1      46.665  28.261  33.444  1.00  0.00     0.012 A 
ATOM     89  C   UNL A   1      45.332  26.505  34.475  1.00  0.00     0.148 A 
ATOM     90  C   UNL A   1      47.792  27.821  34.136  1.00  0.00     0.002 A 
ATOM     91  C   UNL A   1      46.451  26.092  35.188  1.00  0.00     0.091 A 
ATOM     92  F   UNL A   1      44.147  25.887  34.595  1.00  0.00    -0.205 F 
ATOM     93  C   UNL A   1      47.684  26.744  35.014  1.00  0.00     0.022 A 
BRANCH  91  94
ATOM     94  S   UNL A   1      46.406  24.753  36.384  1.00  0.00     0.127 S 
ATOM     95  O   UNL A   1      45.387  25.225  37.321  1.00  0.00    -0.237 OA
ATOM     96  O   UNL A   1      45.996  23.619  35.557  1.00  0.00    -0.237 OA
ATOM     97  O   UNL A   1      47.751  24.656  36.936  1.00  0.00    -0.744 OA
ENDBRANCH  91  94
ENDBRANCH  64  87
ENDBRANCH  38  39
ENDBRANCH  31  33
ENDBRANCH  30  31
ENDBRANCH  29  30
ENDBRANCH   1  29
TORSDOF 18
ENDMDL
MODEL 2
REMARK VINA RESULT:     -12.0      1.651      2.181
REMARK SMILES CCSc1ccc(-c2cc(Cl)cc3c2O[C@H](C(F)(F)F)C(C(=O)OCCOC(=O)c2ccc(-c4c5nc(c(-c6cccc(S(=O)(=O)[O-])c6F)c6ccc([nH]6)c(-c6cccc(S(=O)(=O)[O-])c6F)c6nc(c(-c7cccc(S(=O)(=O)[O-])c7F)c7ccc4[nH]7)C=C6)C=C5)cc2)=C3)cc1
REMARK SMILES IDX 25 1 24 2 22 3 23 4 21 5 8 6 9 7 14 8 10 9 13 10 15 11 11 12
REMARK SMILES IDX 12 13 93 14 16 15 7 16 4 17 5 18 95 19 6 20 94 21 3 22 2 23
REMARK SMILES IDX 1 24 17 25 18 26 19 27 20 28 26 29 27 30 28 31 29 32 30 33
REMARK SMILES IDX 31 34 92 35 32 36 91 37 33 38 34 39 35 40 85 41 36 42 90 43
REMARK SMILES IDX 84 44 86 45 37 46 89 47 83 48 82 49 38 51 70 52 50 53 69 54
REMARK SMILES IDX 51 55 54 56 68 57 87 58 52 59 53 60 67 62 88 63 55 64 39 65
REMARK SMILES IDX 40 66 48 67 41 68 43 69 49 70 42 71 44 72 45 73 46 74 47 75
REMARK SMILES IDX 71 76 72 77 80 78 73 79 75 80 81 81 74 82 76 83 77 84 78 85
REMARK SMILES IDX 79 86 56 87 57 88 65 89 58 90 60 91 66 92 59 93 61 94 62 95
REMARK SMILES IDX 63 96 64 97
REMARK H PARENT 86 50 54 61
REMARK Flexibility Score: inf
ROOT
ATOM      1  C   UNL A   1      31.471  29.093  25.312  1.00  0.00     0.275 C 
ENDROOT
BRANCH   1   2
ATOM      2  O   UNL A   1      30.932  27.808  25.708  1.00  0.00    -0.459 OA
BRANCH   2   3
ATOM      3  C   UNL A   1      30.718  26.990  24.642  1.00  0.00     0.338 C 
ATOM      4  O   UNL A   1      29.653  26.913  24.038  1.00  0.00    -0.246 OA
BRANCH   3   5
ATOM      5  C   UNL A   1      31.917  26.237  24.202  1.00  0.00     0.087 C 
ATOM      6  C   UNL A   1      32.144  22.179  24.459  1.00  0.00     0.026 A 
ATOM      7  C   UNL A   1      31.229  21.935  25.515  1.00  0.00     0.033 A 
ATOM      8  C   UNL A   1      32.460  23.532  24.293  1.00  0.00     0.135 A 
ATOM      9  C   UNL A   1      30.794  22.915  26.416  1.00  0.00     0.042 A 
ATOM     10  C   UNL A   1      32.250  24.430  25.374  1.00  0.00     0.019 A 
ATOM     11  O   UNL A   1      32.767  24.132  23.076  1.00  0.00    -0.475 OA
ATOM     12  Cl  UNL A   1      29.479  22.732  27.502  1.00  0.00    -0.084 Cl
ATOM     13  C   UNL A   1      31.410  24.134  26.427  1.00  0.00     0.032 A 
ATOM     14  C   UNL A   1      32.678  25.833  25.231  1.00  0.00     0.027 C 
ATOM     15  C   UNL A   1      32.044  25.454  22.908  1.00  0.00     0.316 C 
BRANCH   6  16
ATOM     16  C   UNL A   1      32.788  20.933  23.900  1.00  0.00    -0.015 A 
ATOM     17  C   UNL A   1      33.480  18.119  23.852  1.00  0.00     0.007 A 
ATOM     18  C   UNL A   1      32.484  18.631  23.020  1.00  0.00     0.015 A 
ATOM     19  C   UNL A   1      34.202  19.038  24.617  1.00  0.00     0.015 A 
ATOM     20  C   UNL A   1      32.174  20.026  23.017  1.00  0.00     0.010 A 
ATOM     21  C   UNL A   1      33.871  20.407  24.635  1.00  0.00     0.010 A 
BRANCH  17  22
ATOM     22  S   UNL A   1      33.816  16.388  24.180  1.00  0.00    -0.126 SA
BRANCH  22  23
ATOM     23  C   UNL A   1      32.765  15.926  25.600  1.00  0.00     0.071 C 
ATOM     24  C   UNL A   1      32.445  14.445  25.641  1.00  0.00     0.016 C 
ENDBRANCH  22  23
ENDBRANCH  17  22
ENDBRANCH   6  16
BRANCH  15  25
ATOM     25  C   UNL A   1      32.814  26.385  21.964  1.00  0.00     0.430 C 
ATOM     26  F   UNL A   1      32.341  27.655  22.010  1.00  0.00    -0.167 F 
ATOM     27  F   UNL A   1      34.134  26.429  22.239  1.00  0.00    -0.167 F 
ATOM     28  F   UNL A   1      32.696  25.973  20.673  1.00  0.00    -0.167 F 
ENDBRANCH  15  25
ENDBRANCH   3   5
ENDBRANCH   2   3
ENDBRANCH   1   2
BRANCH   1  29
ATOM     29  C   UNL A   1      31.615  30.078  26.478  1.00  0.00     0.275 C 
BRANCH  29  30
ATOM     30  O   UNL A   1      32.954  30.078  27.004  1.00  0.00    -0.458 OA
BRANCH  30  31
ATOM     31  C   UNL A   1      33.421  31.305  27.333  1.00  0.00     0.338 C 
ATOM     32  O   UNL A   1      32.776  32.349  27.293  1.00  0.00    -0.246 OA
BRANCH  31  33
ATOM     33  C   UNL A   1      34.787  31.233  27.906  1.00  0.00     0.060 A 
ATOM     34  C   UNL A   1      35.191  29.990  28.377  1.00  0.00     0.016 A 
ATOM     35  C   UNL A   1      35.677  32.314  28.001  1.00  0.00     0.016 A 
ATOM     36  C   UNL A   1      36.480  29.828  28.883  1.00  0.00     0.010 A 
ATOM     37  C   UNL A   1      36.989  32.130  28.510  1.00  0.00     0.010 A 
ATOM     38  C   UNL A   1      37.425  30.869  28.928  1.00  0.00    -0.014 A 
BRANCH  38  39
ATOM     39  C   UNL A   1      38.788  30.539  29.480  1.00  0.00     0.031 A 
ATOM     40  C   UNL A   1      39.135  30.995  30.865  1.00  0.00     0.074 A 
ATOM     41  C   UNL A   1      39.659  29.689  28.885  1.00  0.00     0.049 A 
ATOM     42  N   UNL A   1      40.230  30.782  31.543  1.00  0.00    -0.248 NA
ATOM     43  C   UNL A   1      38.136  31.818  31.561  1.00  0.00     0.031 C 
ATOM     44  C   UNL A   1      39.526  29.182  27.537  1.00  0.00     0.029 A 
ATOM     45  N   UNL A   1      40.785  29.037  29.349  1.00  0.00    -0.354 N 
ATOM     46  C   UNL A   1      40.069  31.463  32.736  1.00  0.00     0.074 A 
ATOM     47  C   UNL A   1      38.758  32.078  32.699  1.00  0.00     0.031 C 
ATOM     48  C   UNL A   1      40.384  28.172  27.331  1.00  0.00     0.029 A 
ATOM     49  C   UNL A   1      41.286  28.089  28.473  1.00  0.00     0.049 A 
ATOM     50  H   UNL A   1      41.195  29.230  30.223  1.00  0.00     0.167 HD
ATOM     51  C   UNL A   1      40.935  31.578  33.768  1.00  0.00     0.034 A 
ATOM     52  C   UNL A   1      42.372  27.285  28.533  1.00  0.00     0.034 A 
ATOM     53  C   UNL A   1      42.258  31.019  33.800  1.00  0.00     0.049 A 
ATOM     54  C   UNL A   1      43.306  27.417  29.708  1.00  0.00     0.074 A 
ATOM     55  C   UNL A   1      43.247  31.199  34.753  1.00  0.00     0.029 A 
ATOM     56  N   UNL A   1      42.771  30.136  32.863  1.00  0.00    -0.354 N 
ATOM     57  N   UNL A   1      43.223  28.229  30.731  1.00  0.00    -0.248 NA
ATOM     58  C   UNL A   1      44.500  26.555  29.727  1.00  0.00     0.031 C 
ATOM     59  C   UNL A   1      44.324  30.363  34.434  1.00  0.00     0.029 A 
ATOM     60  C   UNL A   1      43.996  29.652  33.294  1.00  0.00     0.049 A 
ATOM     61  H   UNL A   1      42.330  29.889  32.018  1.00  0.00     0.167 HD
ATOM     62  C   UNL A   1      44.336  27.970  31.518  1.00  0.00     0.074 A 
ATOM     63  C   UNL A   1      45.074  26.908  30.870  1.00  0.00     0.031 C 
ATOM     64  C   UNL A   1      44.721  28.581  32.663  1.00  0.00     0.034 A 
BRANCH  51  65
ATOM     65  C   UNL A   1      40.434  32.343  34.956  1.00  0.00     0.023 A 
ATOM     66  C   UNL A   1      39.712  31.666  35.962  1.00  0.00     0.012 A 
ATOM     67  C   UNL A   1      40.639  33.728  35.058  1.00  0.00     0.148 A 
ATOM     68  C   UNL A   1      39.154  32.371  37.025  1.00  0.00     0.002 A 
ATOM     69  C   UNL A   1      40.131  34.414  36.152  1.00  0.00     0.091 A 
ATOM     70  F   UNL A   1      41.290  34.358  34.070  1.00  0.00    -0.205 F 
ATOM     71  C   UNL A   1      39.372  33.743  37.126  1.00  0.00     0.022 A 
BRANCH  69  72
ATOM     72  S   UNL A   1      40.455  36.160  36.401  1.00  0.00     0.127 S 
ATOM     73  O   UNL A   1      41.915  36.182  36.476  1.00  0.00    -0.237 OA
ATOM     74  O   UNL A   1      39.897  36.757  35.187  1.00  0.00    -0.237 OA
ATOM     75  O   UNL A   1      39.749  36.516  37.624  1.00  0.00    -0.744 OA
ENDBRANCH  69  72
ENDBRANCH  51  65
BRANCH  52  76
ATOM     76  C   UNL A   1      42.691  26.335  27.417  1.00  0.00     0.023 A 
ATOM     77  C   UNL A   1      43.564  26.713  26.376  1.00  0.00     0.012 A 
ATOM     78  C   UNL A   1      42.126  25.043  27.382  1.00  0.00     0.148 A 
ATOM     79  C   UNL A   1      43.848  25.838  25.322  1.00  0.00     0.002 A 
ATOM     80  C   UNL A   1      42.486  24.145  26.383  1.00  0.00     0.091 A 
ATOM     81  F   UNL A   1      41.251  24.705  28.339  1.00  0.00    -0.205 F 
ATOM     82  C   UNL A   1      43.327  24.548  25.336  1.00  0.00     0.022 A 
BRANCH  80  83
ATOM     83  S   UNL A   1      42.008  22.415  26.442  1.00  0.00     0.127 S 
ATOM     84  O   UNL A   1      42.682  21.875  25.265  1.00  0.00    -0.237 OA
ATOM     85  O   UNL A   1      42.569  21.990  27.725  1.00  0.00    -0.237 OA
ATOM     86  O   UNL A   1      40.551  22.411  26.399  1.00  0.00    -0.744 OA
ENDBRANCH  80  83
ENDBRANCH  52  76
BRANCH  64  87
ATOM     87  C   UNL A   1      45.981  28.094  33.323  1.00  0.00     0.023 A 
ATOM     88  C   UNL A   1      47.212  28.706  33.016  1.00  0.00     0.012 A 
ATOM     89  C   UNL A   1      45.935  27.069  34.287  1.00  0.00     0.148 A 
ATOM     90  C   UNL A   1      48.385  28.289  33.644  1.00  0.00     0.002 A 
ATOM     91  C   UNL A   1      47.102  26.681  34.934  1.00  0.00     0.091 A 
ATOM     92  F   UNL A   1      44.753  26.495  34.552  1.00  0.00    -0.205 F 
ATOM     93  C   UNL A   1      48.330  27.285  34.608  1.00  0.00     0.022 A 
BRANCH  91  94
ATOM     94  S   UNL A   1      47.131  25.437  36.229  1.00  0.00     0.127 S 
ATOM     95  O   UNL A   1      46.586  24.271  35.534  1.00  0.00    -0.237 OA
ATOM     96  O   UNL A   1      48.558  25.351  36.538  1.00  0.00    -0.237 OA
ATOM     97  O   UNL A   1      46.300  25.955  37.308  1.00  0.00    -0.744 OA
ENDBRANCH  91  94
ENDBRANCH  64  87
ENDBRANCH  38  39
ENDBRANCH  31  33
ENDBRANCH  30  31
ENDBRANCH  29  30
ENDBRANCH   1  29
TORSDOF 18
ENDMDL
MODEL 3
REMARK VINA RESULT:     -11.6      2.253      2.748
REMARK SMILES CCSc1ccc(-c2cc(Cl)cc3c2O[C@H](C(F)(F)F)C(C(=O)OCCOC(=O)c2ccc(-c4c5nc(c(-c6cccc(S(=O)(=O)[O-])c6F)c6ccc([nH]6)c(-c6cccc(S(=O)(=O)[O-])c6F)c6nc(c(-c7cccc(S(=O)(=O)[O-])c7F)c7ccc4[nH]7)C=C6)C=C5)cc2)=C3)cc1
REMARK SMILES IDX 25 1 24 2 22 3 23 4 21 5 8 6 9 7 14 8 10 9 13 10 15 11 11 12
REMARK SMILES IDX 12 13 93 14 16 15 7 16 4 17 5 18 95 19 6 20 94 21 3 22 2 23
REMARK SMILES IDX 1 24 17 25 18 26 19 27 20 28 26 29 27 30 28 31 29 32 30 33
REMARK SMILES IDX 31 34 92 35 32 36 91 37 33 38 34 39 35 40 85 41 36 42 90 43
REMARK SMILES IDX 84 44 86 45 37 46 89 47 83 48 82 49 38 51 70 52 50 53 69 54
REMARK SMILES IDX 51 55 54 56 68 57 87 58 52 59 53 60 67 62 88 63 55 64 39 65
REMARK SMILES IDX 40 66 48 67 41 68 43 69 49 70 42 71 44 72 45 73 46 74 47 75
REMARK SMILES IDX 71 76 72 77 80 78 73 79 75 80 81 81 74 82 76 83 77 84 78 85
REMARK SMILES IDX 79 86 56 87 57 88 65 89 58 90 60 91 66 92 59 93 61 94 62 95
REMARK SMILES IDX 63 96 64 97
REMARK H PARENT 86 50 54 61
REMARK Flexibility Score: inf
ROOT
ATOM      1  C   UNL A   1      31.871  29.021  25.265  1.00  0.00     0.275 C 
ENDROOT
BRANCH   1   2
ATOM      2  O   UNL A   1      31.100  27.876  25.704  1.00  0.00    -0.459 OA
BRANCH   2   3
ATOM      3  C   UNL A   1      30.841  27.010  24.688  1.00  0.00     0.338 C 
ATOM      4  O   UNL A   1      29.755  26.915  24.125  1.00  0.00    -0.246 OA
BRANCH   3   5
ATOM      5  C   UNL A   1      32.018  26.224  24.244  1.00  0.00     0.087 C 
ATOM      6  C   UNL A   1      32.113  22.158  24.451  1.00  0.00     0.026 A 
ATOM      7  C   UNL A   1      31.185  21.931  25.499  1.00  0.00     0.033 A 
ATOM      8  C   UNL A   1      32.473  23.503  24.304  1.00  0.00     0.135 A 
ATOM      9  C   UNL A   1      30.777  22.913  26.411  1.00  0.00     0.042 A 
ATOM     10  C   UNL A   1      32.286  24.393  25.395  1.00  0.00     0.019 A 
ATOM     11  O   UNL A   1      32.806  24.107  23.095  1.00  0.00    -0.475 OA
ATOM     12  Cl  UNL A   1      29.452  22.758  27.488  1.00  0.00    -0.084 Cl
ATOM     13  C   UNL A   1      31.432  24.112  26.440  1.00  0.00     0.032 A 
ATOM     14  C   UNL A   1      32.760  25.783  25.271  1.00  0.00     0.027 C 
ATOM     15  C   UNL A   1      32.127  25.454  22.941  1.00  0.00     0.316 C 
BRANCH   6  16
ATOM     16  C   UNL A   1      32.720  20.900  23.879  1.00  0.00    -0.015 A 
ATOM     17  C   UNL A   1      33.195  18.046  23.710  1.00  0.00     0.007 A 
ATOM     18  C   UNL A   1      32.343  18.690  22.812  1.00  0.00     0.015 A 
ATOM     19  C   UNL A   1      33.893  18.852  24.612  1.00  0.00     0.015 A 
ATOM     20  C   UNL A   1      32.143  20.103  22.873  1.00  0.00     0.010 A 
ATOM     21  C   UNL A   1      33.668  20.241  24.689  1.00  0.00     0.010 A 
BRANCH  17  22
ATOM     22  S   UNL A   1      33.358  16.276  23.949  1.00  0.00    -0.126 SA
BRANCH  22  23
ATOM     23  C   UNL A   1      34.206  16.055  25.552  1.00  0.00     0.071 C 
ATOM     24  C   UNL A   1      35.694  15.806  25.404  1.00  0.00     0.016 C 
ENDBRANCH  22  23
ENDBRANCH  17  22
ENDBRANCH   6  16
BRANCH  15  25
ATOM     25  C   UNL A   1      32.931  26.371  22.012  1.00  0.00     0.430 C 
ATOM     26  F   UNL A   1      34.254  26.360  22.313  1.00  0.00    -0.167 F 
ATOM     27  F   UNL A   1      32.803  26.036  20.712  1.00  0.00    -0.167 F 
ATOM     28  F   UNL A   1      32.518  27.662  22.127  1.00  0.00    -0.167 F 
ENDBRANCH  15  25
ENDBRANCH   3   5
ENDBRANCH   2   3
ENDBRANCH   1   2
BRANCH   1  29
ATOM     29  C   UNL A   1      32.122  30.048  26.375  1.00  0.00     0.275 C 
BRANCH  29  30
ATOM     30  O   UNL A   1      33.524  30.345  26.509  1.00  0.00    -0.458 OA
BRANCH  30  31
ATOM     31  C   UNL A   1      33.790  31.437  27.263  1.00  0.00     0.338 C 
ATOM     32  O   UNL A   1      33.026  32.380  27.450  1.00  0.00    -0.246 OA
BRANCH  31  33
ATOM     33  C   UNL A   1      35.081  31.302  27.981  1.00  0.00     0.060 A 
ATOM     34  C   UNL A   1      35.320  30.077  28.590  1.00  0.00     0.016 A 
ATOM     35  C   UNL A   1      36.053  32.309  28.081  1.00  0.00     0.016 A 
ATOM     36  C   UNL A   1      36.533  29.853  29.242  1.00  0.00     0.010 A 
ATOM     37  C   UNL A   1      37.287  32.062  28.739  1.00  0.00     0.010 A 
ATOM     38  C   UNL A   1      37.561  30.812  29.301  1.00  0.00    -0.014 A 
BRANCH  38  39
ATOM     39  C   UNL A   1      38.827  30.420  30.019  1.00  0.00     0.031 A 
ATOM     40  C   UNL A   1      39.037  30.897  31.424  1.00  0.00     0.074 A 
ATOM     41  C   UNL A   1      39.707  29.501  29.553  1.00  0.00     0.049 A 
ATOM     42  N   UNL A   1      40.030  30.641  32.233  1.00  0.00    -0.248 NA
ATOM     43  C   UNL A   1      38.017  31.798  31.977  1.00  0.00     0.031 C 
ATOM     44  C   UNL A   1      39.702  28.961  28.211  1.00  0.00     0.029 A 
ATOM     45  N   UNL A   1      40.729  28.799  30.162  1.00  0.00    -0.354 N 
ATOM     46  C   UNL A   1      39.773  31.367  33.381  1.00  0.00     0.074 A 
ATOM     47  C   UNL A   1      38.517  32.056  33.174  1.00  0.00     0.031 C 
ATOM     48  C   UNL A   1      40.513  27.897  28.132  1.00  0.00     0.029 A 
ATOM     49  C   UNL A   1      41.268  27.796  29.375  1.00  0.00     0.049 A 
ATOM     50  H   UNL A   1      41.044  28.995  31.073  1.00  0.00     0.167 HD
ATOM     51  C   UNL A   1      40.518  31.464  34.506  1.00  0.00     0.034 A 
ATOM     52  C   UNL A   1      42.288  26.932  29.583  1.00  0.00     0.034 A 
ATOM     53  C   UNL A   1      41.791  30.829  34.708  1.00  0.00     0.049 A 
ATOM     54  C   UNL A   1      43.085  27.045  30.856  1.00  0.00     0.074 A 
ATOM     55  C   UNL A   1      42.671  30.980  35.766  1.00  0.00     0.029 A 
ATOM     56  N   UNL A   1      42.354  29.888  33.859  1.00  0.00    -0.354 N 
ATOM     57  N   UNL A   1      42.933  27.893  31.842  1.00  0.00    -0.248 NA
ATOM     58  C   UNL A   1      44.212  26.116  31.038  1.00  0.00     0.031 C 
ATOM     59  C   UNL A   1      43.723  30.072  35.598  1.00  0.00     0.029 A 
ATOM     60  C   UNL A   1      43.487  29.346  34.444  1.00  0.00     0.049 A 
ATOM     61  H   UNL A   1      42.001  29.641  32.974  1.00  0.00     0.167 HD
ATOM     62  C   UNL A   1      43.928  27.593  32.762  1.00  0.00     0.074 A 
ATOM     63  C   UNL A   1      44.669  26.470  32.232  1.00  0.00     0.031 C 
ATOM     64  C   UNL A   1      44.214  28.216  33.930  1.00  0.00     0.034 A 
BRANCH  51  65
ATOM     65  C   UNL A   1      39.930  32.293  35.607  1.00  0.00     0.023 A 
ATOM     66  C   UNL A   1      38.968  31.722  36.467  1.00  0.00     0.012 A 
ATOM     67  C   UNL A   1      40.294  33.639  35.766  1.00  0.00     0.148 A 
ATOM     68  C   UNL A   1      38.337  32.498  37.435  1.00  0.00     0.002 A 
ATOM     69  C   UNL A   1      39.704  34.391  36.772  1.00  0.00     0.091 A 
ATOM     70  F   UNL A   1      41.178  34.173  34.910  1.00  0.00    -0.205 F 
ATOM     71  C   UNL A   1      38.712  33.830  37.594  1.00  0.00     0.022 A 
BRANCH  69  72
ATOM     72  S   UNL A   1      40.208  36.080  37.101  1.00  0.00     0.127 S 
ATOM     73  O   UNL A   1      39.738  36.768  35.900  1.00  0.00    -0.237 OA
ATOM     74  O   UNL A   1      39.461  36.397  38.319  1.00  0.00    -0.237 OA
ATOM     75  O   UNL A   1      41.652  36.027  37.281  1.00  0.00    -0.744 OA
ENDBRANCH  69  72
ENDBRANCH  51  65
BRANCH  52  76
ATOM     76  C   UNL A   1      42.676  25.930  28.535  1.00  0.00     0.023 A 
ATOM     77  C   UNL A   1      41.925  24.750  28.355  1.00  0.00     0.012 A 
ATOM     78  C   UNL A   1      43.797  26.146  27.706  1.00  0.00     0.148 A 
ATOM     79  C   UNL A   1      42.294  23.804  27.393  1.00  0.00     0.002 A 
ATOM     80  C   UNL A   1      44.101  25.248  26.690  1.00  0.00     0.091 A 
ATOM     81  F   UNL A   1      44.543  27.239  27.917  1.00  0.00    -0.205 F 
ATOM     82  C   UNL A   1      43.368  24.061  26.547  1.00  0.00     0.022 A 
BRANCH  80  83
ATOM     83  S   UNL A   1      45.347  25.606  25.446  1.00  0.00     0.127 S 
ATOM     84  O   UNL A   1      46.585  25.448  26.203  1.00  0.00    -0.237 OA
ATOM     85  O   UNL A   1      45.092  24.562  24.454  1.00  0.00    -0.237 OA
ATOM     86  O   UNL A   1      45.054  26.955  24.978  1.00  0.00    -0.744 OA
ENDBRANCH  80  83
ENDBRANCH  52  76
BRANCH  64  87
ATOM     87  C   UNL A   1      45.355  27.677  34.746  1.00  0.00     0.023 A 
ATOM     88  C   UNL A   1      45.116  26.678  35.709  1.00  0.00     0.012 A 
ATOM     89  C   UNL A   1      46.672  28.120  34.516  1.00  0.00     0.148 A 
ATOM     90  C   UNL A   1      46.169  26.143  36.451  1.00  0.00     0.002 A 
ATOM     91  C   UNL A   1      47.721  27.559  35.234  1.00  0.00     0.091 A 
ATOM     92  F   UNL A   1      46.872  29.080  33.602  1.00  0.00    -0.205 F 
ATOM     93  C   UNL A   1      47.470  26.576  36.208  1.00  0.00     0.022 A 
BRANCH  91  94
ATOM     94  S   UNL A   1      49.439  28.005  34.960  1.00  0.00     0.127 S 
ATOM     95  O   UNL A   1      50.141  26.955  35.697  1.00  0.00    -0.237 OA
ATOM     96  O   UNL A   1      49.550  27.909  33.505  1.00  0.00    -0.237 OA
ATOM     97  O   UNL A   1      49.601  29.349  35.500  1.00  0.00    -0.744 OA
ENDBRANCH  91  94
ENDBRANCH  64  87
ENDBRANCH  38  39
ENDBRANCH  31  33
ENDBRANCH  30  31
ENDBRANCH  29  30
ENDBRANCH   1  29
TORSDOF 18
ENDMDL
