MODEL 1
REMARK VINA RESULT:     -10.1      0.000      0.000
REMARK SMILES CCCc1nnc(SCC(=O)OCCOC(=O)c2ccc(-c3c4nc(c(-c5cccc(S(=O)(=O)[O-])c5F)c5ccc([nH]5)c(-c5cccc(S(=O)(=O)[O-])c5F)c5nc(c(-c6cccc(S(=O)(=O)[O-])c6F)c6ccc3[nH]6)C=C5)C=C4)cc2)n1C[C@H]1CCCO1
REMARK SMILES IDX 13 1 12 2 10 3 11 4 9 5 8 6 7 7 4 8 5 9 81 10 6 11 3 12 2 13
REMARK SMILES IDX 1 14 82 15 83 16 84 17 87 18 85 19 86 20 14 21 15 22 16 23
REMARK SMILES IDX 17 24 18 25 19 26 80 27 20 28 79 29 21 30 22 31 23 32 73 33
REMARK SMILES IDX 24 34 78 35 72 36 74 37 25 38 77 39 71 40 70 41 26 43 58 44
REMARK SMILES IDX 38 45 57 46 39 47 42 48 56 49 75 50 40 51 41 52 55 54 76 55
REMARK SMILES IDX 43 56 27 57 28 58 36 59 29 60 31 61 37 62 30 63 32 64 33 65
REMARK SMILES IDX 34 66 35 67 59 68 60 69 68 70 61 71 63 72 69 73 62 74 64 75
REMARK SMILES IDX 65 76 66 77 67 78 44 79 45 80 53 81 46 82 48 83 54 84 47 85
REMARK SMILES IDX 49 86 50 87 51 88 52 89
REMARK H PARENT 74 42 42 53
REMARK Flexibility Score: inf
ROOT
ATOM      1  C   UNL A   1      37.969  21.138  25.019  1.00  0.00     0.274 C 
ENDROOT
BRANCH   1   2
ATOM      2  O   UNL A   1      37.070  21.862  25.875  1.00  0.00    -0.461 OA
BRANCH   2   3
ATOM      3  C   UNL A   1      35.746  21.615  25.729  1.00  0.00     0.316 C 
ATOM      4  O   UNL A   1      35.281  20.600  25.216  1.00  0.00    -0.251 OA
BRANCH   3   5
ATOM      5  C   UNL A   1      34.864  22.687  26.317  1.00  0.00     0.200 C 
BRANCH   5   6
ATOM      6  S   UNL A   1      33.101  22.367  26.344  1.00  0.00    -0.074 SA
BRANCH   6   7
ATOM      7  C   UNL A   1      32.362  23.944  26.555  1.00  0.00     0.191 A 
ATOM      8  C   UNL A   1      30.930  24.983  25.340  1.00  0.00     0.133 A 
ATOM      9  N   UNL A   1      30.320  24.662  26.461  1.00  0.00    -0.134 NA
ATOM     10  N   UNL A   1      32.310  24.893  25.557  1.00  0.00    -0.303 N 
ATOM     11  N   UNL A   1      31.254  24.049  27.264  1.00  0.00    -0.123 NA
BRANCH   8  12
ATOM     12  C   UNL A   1      30.323  25.346  24.037  1.00  0.00     0.077 C 
BRANCH  12  13
ATOM     13  C   UNL A   1      29.653  26.716  24.147  1.00  0.00     0.005 C 
ATOM     14  C   UNL A   1      28.174  26.703  23.800  1.00  0.00     0.004 C 
ENDBRANCH  12  13
ENDBRANCH   8  12
BRANCH  10  15
ATOM     15  C   UNL A   1      33.067  26.138  25.446  1.00  0.00     0.158 C 
BRANCH  15  16
ATOM     16  C   UNL A   1      33.098  27.259  26.498  1.00  0.00     0.138 C 
ATOM     17  C   UNL A   1      34.231  28.268  26.512  1.00  0.00     0.036 C 
ATOM     18  O   UNL A   1      31.874  28.005  26.522  1.00  0.00    -0.376 OA
ATOM     19  C   UNL A   1      33.591  29.559  26.986  1.00  0.00     0.031 C 
ATOM     20  C   UNL A   1      32.126  29.236  27.199  1.00  0.00     0.160 C 
ENDBRANCH  15  16
ENDBRANCH  10  15
ENDBRANCH   6   7
ENDBRANCH   5   6
ENDBRANCH   3   5
ENDBRANCH   2   3
ENDBRANCH   1   2
BRANCH   1  21
ATOM     21  C   UNL A   1      39.334  21.115  25.693  1.00  0.00     0.275 C 
BRANCH  21  22
ATOM     22  O   UNL A   1      39.721  19.786  26.079  1.00  0.00    -0.458 OA
BRANCH  22  23
ATOM     23  C   UNL A   1      41.051  19.563  25.994  1.00  0.00     0.338 C 
ATOM     24  O   UNL A   1      41.588  18.552  25.578  1.00  0.00    -0.246 OA
BRANCH  23  25
ATOM     25  C   UNL A   1      41.794  20.578  26.763  1.00  0.00     0.060 A 
ATOM     26  C   UNL A   1      41.336  20.856  28.053  1.00  0.00     0.016 A 
ATOM     27  C   UNL A   1      42.684  21.439  26.109  1.00  0.00     0.016 A 
ATOM     28  C   UNL A   1      41.611  22.093  28.608  1.00  0.00     0.010 A 
ATOM     29  C   UNL A   1      42.978  22.664  26.679  1.00  0.00     0.010 A 
ATOM     30  C   UNL A   1      42.365  23.024  27.880  1.00  0.00    -0.014 A 
BRANCH  30  31
ATOM     31  C   UNL A   1      42.630  24.331  28.488  1.00  0.00     0.031 A 
ATOM     32  C   UNL A   1      41.677  25.370  28.025  1.00  0.00     0.074 A 
ATOM     33  C   UNL A   1      43.529  24.519  29.481  1.00  0.00     0.049 A 
ATOM     34  N   UNL A   1      41.934  26.549  27.561  1.00  0.00    -0.248 NA
ATOM     35  C   UNL A   1      40.256  24.976  27.927  1.00  0.00     0.031 C 
ATOM     36  C   UNL A   1      44.350  23.474  30.099  1.00  0.00     0.029 A 
ATOM     37  N   UNL A   1      43.791  25.619  30.266  1.00  0.00    -0.354 N 
ATOM     38  C   UNL A   1      40.681  27.131  27.405  1.00  0.00     0.074 A 
ATOM     39  C   UNL A   1      39.708  26.072  27.410  1.00  0.00     0.031 C 
ATOM     40  C   UNL A   1      44.822  23.908  31.282  1.00  0.00     0.029 A 
ATOM     41  C   UNL A   1      44.377  25.270  31.485  1.00  0.00     0.049 A 
ATOM     42  H   UNL A   1      43.588  26.546  30.000  1.00  0.00     0.167 HD
ATOM     43  C   UNL A   1      40.485  28.437  27.714  1.00  0.00     0.034 A 
ATOM     44  C   UNL A   1      44.417  25.970  32.644  1.00  0.00     0.034 A 
ATOM     45  C   UNL A   1      41.689  29.209  27.685  1.00  0.00     0.049 A 
ATOM     46  C   UNL A   1      44.175  27.394  32.351  1.00  0.00     0.074 A 
ATOM     47  C   UNL A   1      42.549  29.687  26.725  1.00  0.00     0.029 A 
ATOM     48  N   UNL A   1      42.312  29.323  28.896  1.00  0.00    -0.354 N 
ATOM     49  N   UNL A   1      45.035  28.163  31.743  1.00  0.00    -0.248 NA
ATOM     50  C   UNL A   1      42.835  27.949  32.501  1.00  0.00     0.031 C 
ATOM     51  C   UNL A   1      43.767  29.993  27.394  1.00  0.00     0.029 A 
ATOM     52  C   UNL A   1      43.622  29.686  28.746  1.00  0.00     0.049 A 
ATOM     53  H   UNL A   1      41.874  29.164  29.764  1.00  0.00     0.167 HD
ATOM     54  C   UNL A   1      44.243  29.063  31.057  1.00  0.00     0.074 A 
ATOM     55  C   UNL A   1      42.946  29.019  31.711  1.00  0.00     0.031 C 
ATOM     56  C   UNL A   1      44.587  29.473  29.805  1.00  0.00     0.034 A 
BRANCH  43  57
ATOM     57  C   UNL A   1      39.296  28.883  28.529  1.00  0.00     0.023 A 
ATOM     58  C   UNL A   1      38.355  29.735  27.926  1.00  0.00     0.012 A 
ATOM     59  C   UNL A   1      39.214  28.720  29.933  1.00  0.00     0.148 A 
ATOM     60  C   UNL A   1      37.363  30.368  28.685  1.00  0.00     0.002 A 
ATOM     61  C   UNL A   1      38.164  29.257  30.661  1.00  0.00     0.091 A 
ATOM     62  F   UNL A   1      40.235  28.175  30.606  1.00  0.00    -0.205 F 
ATOM     63  C   UNL A   1      37.247  30.105  30.047  1.00  0.00     0.022 A 
BRANCH  61  64
ATOM     64  S   UNL A   1      37.959  28.837  32.394  1.00  0.00     0.127 S 
ATOM     65  O   UNL A   1      39.038  29.598  33.014  1.00  0.00    -0.237 OA
ATOM     66  O   UNL A   1      36.609  29.330  32.671  1.00  0.00    -0.237 OA
ATOM     67  O   UNL A   1      38.077  27.383  32.438  1.00  0.00    -0.744 OA
ENDBRANCH  61  64
ENDBRANCH  43  57
BRANCH  44  68
ATOM     68  C   UNL A   1      44.535  25.464  34.035  1.00  0.00     0.023 A 
ATOM     69  C   UNL A   1      43.373  25.233  34.795  1.00  0.00     0.012 A 
ATOM     70  C   UNL A   1      45.769  25.014  34.560  1.00  0.00     0.148 A 
ATOM     71  C   UNL A   1      43.433  24.565  36.024  1.00  0.00     0.002 A 
ATOM     72  C   UNL A   1      45.829  24.380  35.797  1.00  0.00     0.091 A 
ATOM     73  F   UNL A   1      46.875  25.126  33.813  1.00  0.00    -0.205 F 
ATOM     74  C   UNL A   1      44.660  24.142  36.527  1.00  0.00     0.022 A 
BRANCH  72  75
ATOM     75  S   UNL A   1      47.387  23.832  36.510  1.00  0.00     0.127 S 
ATOM     76  O   UNL A   1      47.977  25.091  36.967  1.00  0.00    -0.237 OA
ATOM     77  O   UNL A   1      46.937  22.943  37.578  1.00  0.00    -0.237 OA
ATOM     78  O   UNL A   1      48.118  23.197  35.419  1.00  0.00    -0.744 OA
ENDBRANCH  72  75
ENDBRANCH  44  68
BRANCH  56  79
ATOM     79  C   UNL A   1      46.040  29.466  29.436  1.00  0.00     0.023 A 
ATOM     80  C   UNL A   1      46.906  30.536  29.734  1.00  0.00     0.012 A 
ATOM     81  C   UNL A   1      46.570  28.297  28.863  1.00  0.00     0.148 A 
ATOM     82  C   UNL A   1      48.269  30.449  29.442  1.00  0.00     0.002 A 
ATOM     83  C   UNL A   1      47.933  28.194  28.623  1.00  0.00     0.091 A 
ATOM     84  F   UNL A   1      45.729  27.292  28.573  1.00  0.00    -0.205 F 
ATOM     85  C   UNL A   1      48.785  29.273  28.900  1.00  0.00     0.022 A 
BRANCH  83  86
ATOM     86  S   UNL A   1      48.662  26.656  28.054  1.00  0.00     0.127 S 
ATOM     87  O   UNL A   1      48.266  25.720  29.103  1.00  0.00    -0.237 OA
ATOM     88  O   UNL A   1      48.000  26.447  26.765  1.00  0.00    -0.237 OA
ATOM     89  O   UNL A   1      50.093  26.916  27.946  1.00  0.00    -0.744 OA
ENDBRANCH  83  86
ENDBRANCH  56  79
ENDBRANCH  30  31
ENDBRANCH  23  25
ENDBRANCH  22  23
ENDBRANCH  21  22
ENDBRANCH   1  21
TORSDOF 20
ENDMDL
MODEL 2
REMARK VINA RESULT:     -10.0      4.749      9.755
REMARK SMILES CCCc1nnc(SCC(=O)OCCOC(=O)c2ccc(-c3c4nc(c(-c5cccc(S(=O)(=O)[O-])c5F)c5ccc([nH]5)c(-c5cccc(S(=O)(=O)[O-])c5F)c5nc(c(-c6cccc(S(=O)(=O)[O-])c6F)c6ccc3[nH]6)C=C5)C=C4)cc2)n1C[C@H]1CCCO1
REMARK SMILES IDX 13 1 12 2 10 3 11 4 9 5 8 6 7 7 4 8 5 9 81 10 6 11 3 12 2 13
REMARK SMILES IDX 1 14 82 15 83 16 84 17 87 18 85 19 86 20 14 21 15 22 16 23
REMARK SMILES IDX 17 24 18 25 19 26 80 27 20 28 79 29 21 30 22 31 23 32 73 33
REMARK SMILES IDX 24 34 78 35 72 36 74 37 25 38 77 39 71 40 70 41 26 43 58 44
REMARK SMILES IDX 38 45 57 46 39 47 42 48 56 49 75 50 40 51 41 52 55 54 76 55
REMARK SMILES IDX 43 56 27 57 28 58 36 59 29 60 31 61 37 62 30 63 32 64 33 65
REMARK SMILES IDX 34 66 35 67 59 68 60 69 68 70 61 71 63 72 69 73 62 74 64 75
REMARK SMILES IDX 65 76 66 77 67 78 44 79 45 80 53 81 46 82 48 83 54 84 47 85
REMARK SMILES IDX 49 86 50 87 51 88 52 89
REMARK H PARENT 74 42 42 53
REMARK Flexibility Score: inf
ROOT
ATOM      1  C   UNL A   1      31.401  30.031  26.227  1.00  0.00     0.274 C 
ENDROOT
BRANCH   1   2
ATOM      2  O   UNL A   1      31.063  29.918  24.836  1.00  0.00    -0.461 OA
BRANCH   2   3
ATOM      3  C   UNL A   1      31.276  28.717  24.245  1.00  0.00     0.316 C 
ATOM      4  O   UNL A   1      30.448  27.811  24.193  1.00  0.00    -0.251 OA
BRANCH   3   5
ATOM      5  C   UNL A   1      32.627  28.601  23.584  1.00  0.00     0.200 C 
BRANCH   5   6
ATOM      6  S   UNL A   1      33.749  27.366  24.236  1.00  0.00    -0.074 SA
BRANCH   6   7
ATOM      7  C   UNL A   1      33.414  25.918  23.304  1.00  0.00     0.191 A 
ATOM      8  C   UNL A   1      31.857  24.456  23.515  1.00  0.00     0.133 A 
ATOM      9  N   UNL A   1      31.622  25.107  22.395  1.00  0.00    -0.134 NA
ATOM     10  N   UNL A   1      33.190  24.685  23.877  1.00  0.00    -0.303 N 
ATOM     11  N   UNL A   1      32.652  26.003  22.229  1.00  0.00    -0.123 NA
BRANCH   8  12
ATOM     12  C   UNL A   1      30.914  23.642  24.318  1.00  0.00     0.077 C 
BRANCH  12  13
ATOM     13  C   UNL A   1      30.987  24.069  25.785  1.00  0.00     0.005 C 
ATOM     14  C   UNL A   1      30.350  23.077  26.742  1.00  0.00     0.004 C 
ENDBRANCH  12  13
ENDBRANCH   8  12
BRANCH  10  15
ATOM     15  C   UNL A   1      34.068  23.518  23.895  1.00  0.00     0.158 C 
BRANCH  15  16
ATOM     16  C   UNL A   1      34.422  22.688  25.141  1.00  0.00     0.138 C 
ATOM     17  C   UNL A   1      34.562  23.358  26.495  1.00  0.00     0.036 C 
ATOM     18  O   UNL A   1      33.534  21.576  25.313  1.00  0.00    -0.376 OA
ATOM     19  C   UNL A   1      34.074  22.320  27.489  1.00  0.00     0.031 C 
ATOM     20  C   UNL A   1      33.661  21.121  26.661  1.00  0.00     0.160 C 
ENDBRANCH  15  16
ENDBRANCH  10  15
ENDBRANCH   6   7
ENDBRANCH   5   6
ENDBRANCH   3   5
ENDBRANCH   2   3
ENDBRANCH   1   2
BRANCH   1  21
ATOM     21  C   UNL A   1      31.629  31.505  26.530  1.00  0.00     0.275 C 
BRANCH  21  22
ATOM     22  O   UNL A   1      32.830  31.719  27.291  1.00  0.00    -0.458 OA
BRANCH  22  23
ATOM     23  C   UNL A   1      32.895  32.937  27.871  1.00  0.00     0.338 C 
ATOM     24  O   UNL A   1      32.134  33.869  27.677  1.00  0.00    -0.246 OA
BRANCH  23  25
ATOM     25  C   UNL A   1      34.192  33.120  28.545  1.00  0.00     0.060 A 
ATOM     26  C   UNL A   1      35.271  33.511  27.748  1.00  0.00     0.016 A 
ATOM     27  C   UNL A   1      34.393  32.603  29.831  1.00  0.00     0.016 A 
ATOM     28  C   UNL A   1      36.554  33.200  28.160  1.00  0.00     0.010 A 
ATOM     29  C   UNL A   1      35.679  32.317  30.250  1.00  0.00     0.010 A 
ATOM     30  C   UNL A   1      36.746  32.528  29.375  1.00  0.00    -0.014 A 
BRANCH  30  31
ATOM     31  C   UNL A   1      38.116  32.200  29.780  1.00  0.00     0.031 A 
ATOM     32  C   UNL A   1      38.395  30.746  29.688  1.00  0.00     0.074 A 
ATOM     33  C   UNL A   1      39.057  33.135  30.040  1.00  0.00     0.049 A 
ATOM     34  N   UNL A   1      38.914  29.967  30.580  1.00  0.00    -0.248 NA
ATOM     35  C   UNL A   1      37.885  30.042  28.492  1.00  0.00     0.031 C 
ATOM     36  C   UNL A   1      38.868  34.586  29.950  1.00  0.00     0.029 A 
ATOM     37  N   UNL A   1      40.409  33.016  30.272  1.00  0.00    -0.354 N 
ATOM     38  C   UNL A   1      39.059  28.750  29.923  1.00  0.00     0.074 A 
ATOM     39  C   UNL A   1      38.214  28.781  28.760  1.00  0.00     0.031 C 
ATOM     40  C   UNL A   1      40.064  35.196  29.881  1.00  0.00     0.029 A 
ATOM     41  C   UNL A   1      41.102  34.190  29.967  1.00  0.00     0.049 A 
ATOM     42  H   UNL A   1      40.839  32.198  30.612  1.00  0.00     0.167 HD
ATOM     43  C   UNL A   1      40.161  27.986  30.125  1.00  0.00     0.034 A 
ATOM     44  C   UNL A   1      42.416  34.356  29.682  1.00  0.00     0.034 A 
ATOM     45  C   UNL A   1      40.818  28.262  31.366  1.00  0.00     0.049 A 
ATOM     46  C   UNL A   1      43.167  33.199  30.201  1.00  0.00     0.074 A 
ATOM     47  C   UNL A   1      40.568  28.045  32.700  1.00  0.00     0.029 A 
ATOM     48  N   UNL A   1      41.831  29.175  31.274  1.00  0.00    -0.354 N 
ATOM     49  N   UNL A   1      43.369  32.978  31.469  1.00  0.00    -0.248 NA
ATOM     50  C   UNL A   1      43.501  32.093  29.310  1.00  0.00     0.031 C 
ATOM     51  C   UNL A   1      41.400  28.952  33.415  1.00  0.00     0.029 A 
ATOM     52  C   UNL A   1      42.130  29.706  32.498  1.00  0.00     0.049 A 
ATOM     53  H   UNL A   1      42.286  29.418  30.436  1.00  0.00     0.167 HD
ATOM     54  C   UNL A   1      43.413  31.600  31.560  1.00  0.00     0.074 A 
ATOM     55  C   UNL A   1      43.695  31.130  30.214  1.00  0.00     0.031 C 
ATOM     56  C   UNL A   1      42.849  30.958  32.619  1.00  0.00     0.034 A 
BRANCH  43  57
ATOM     57  C   UNL A   1      40.911  27.366  28.972  1.00  0.00     0.023 A 
ATOM     58  C   UNL A   1      41.115  25.975  28.980  1.00  0.00     0.012 A 
ATOM     59  C   UNL A   1      41.650  28.122  28.030  1.00  0.00     0.148 A 
ATOM     60  C   UNL A   1      41.993  25.369  28.072  1.00  0.00     0.002 A 
ATOM     61  C   UNL A   1      42.427  27.507  27.062  1.00  0.00     0.091 A 
ATOM     62  F   UNL A   1      41.733  29.452  28.157  1.00  0.00    -0.205 F 
ATOM     63  C   UNL A   1      42.625  26.129  27.092  1.00  0.00     0.022 A 
BRANCH  61  64
ATOM     64  S   UNL A   1      43.160  28.477  25.741  1.00  0.00     0.127 S 
ATOM     65  O   UNL A   1      43.935  27.469  25.027  1.00  0.00    -0.237 OA
ATOM     66  O   UNL A   1      41.979  28.974  25.034  1.00  0.00    -0.237 OA
ATOM     67  O   UNL A   1      43.919  29.519  26.426  1.00  0.00    -0.744 OA
ENDBRANCH  61  64
ENDBRANCH  43  57
BRANCH  44  68
ATOM     68  C   UNL A   1      43.067  35.415  28.870  1.00  0.00     0.023 A 
ATOM     69  C   UNL A   1      43.043  35.330  27.465  1.00  0.00     0.012 A 
ATOM     70  C   UNL A   1      43.540  36.613  29.452  1.00  0.00     0.148 A 
ATOM     71  C   UNL A   1      43.460  36.404  26.669  1.00  0.00     0.002 A 
ATOM     72  C   UNL A   1      43.984  37.666  28.658  1.00  0.00     0.091 A 
ATOM     73  F   UNL A   1      43.475  36.762  30.782  1.00  0.00    -0.205 F 
ATOM     74  C   UNL A   1      43.932  37.570  27.264  1.00  0.00     0.022 A 
BRANCH  72  75
ATOM     75  S   UNL A   1      44.628  39.188  29.368  1.00  0.00     0.127 S 
ATOM     76  O   UNL A   1      45.048  39.929  28.179  1.00  0.00    -0.237 OA
ATOM     77  O   UNL A   1      43.452  39.731  30.044  1.00  0.00    -0.237 OA
ATOM     78  O   UNL A   1      45.730  38.783  30.235  1.00  0.00    -0.744 OA
ENDBRANCH  72  75
ENDBRANCH  44  68
BRANCH  56  79
ATOM     79  C   UNL A   1      42.752  31.697  33.921  1.00  0.00     0.023 A 
ATOM     80  C   UNL A   1      43.827  31.787  34.825  1.00  0.00     0.012 A 
ATOM     81  C   UNL A   1      41.570  32.410  34.189  1.00  0.00     0.148 A 
ATOM     82  C   UNL A   1      43.715  32.553  35.987  1.00  0.00     0.002 A 
ATOM     83  C   UNL A   1      41.482  33.212  35.318  1.00  0.00     0.091 A 
ATOM     84  F   UNL A   1      40.551  32.302  33.323  1.00  0.00    -0.205 F 
ATOM     85  C   UNL A   1      42.548  33.278  36.226  1.00  0.00     0.022 A 
BRANCH  83  86
ATOM     86  S   UNL A   1      40.057  34.265  35.598  1.00  0.00     0.127 S 
ATOM     87  O   UNL A   1      40.016  35.062  34.374  1.00  0.00    -0.237 OA
ATOM     88  O   UNL A   1      38.967  33.297  35.735  1.00  0.00    -0.237 OA
ATOM     89  O   UNL A   1      40.347  35.002  36.823  1.00  0.00    -0.744 OA
ENDBRANCH  83  86
ENDBRANCH  56  79
ENDBRANCH  30  31
ENDBRANCH  23  25
ENDBRANCH  22  23
ENDBRANCH  21  22
ENDBRANCH   1  21
TORSDOF 20
ENDMDL
MODEL 3
REMARK VINA RESULT:      -9.9      2.974      7.814
REMARK SMILES CCCc1nnc(SCC(=O)OCCOC(=O)c2ccc(-c3c4nc(c(-c5cccc(S(=O)(=O)[O-])c5F)c5ccc([nH]5)c(-c5cccc(S(=O)(=O)[O-])c5F)c5nc(c(-c6cccc(S(=O)(=O)[O-])c6F)c6ccc3[nH]6)C=C5)C=C4)cc2)n1C[C@H]1CCCO1
REMARK SMILES IDX 13 1 12 2 10 3 11 4 9 5 8 6 7 7 4 8 5 9 81 10 6 11 3 12 2 13
REMARK SMILES IDX 1 14 82 15 83 16 84 17 87 18 85 19 86 20 14 21 15 22 16 23
REMARK SMILES IDX 17 24 18 25 19 26 80 27 20 28 79 29 21 30 22 31 23 32 73 33
REMARK SMILES IDX 24 34 78 35 72 36 74 37 25 38 77 39 71 40 70 41 26 43 58 44
REMARK SMILES IDX 38 45 57 46 39 47 42 48 56 49 75 50 40 51 41 52 55 54 76 55
REMARK SMILES IDX 43 56 27 57 28 58 36 59 29 60 31 61 37 62 30 63 32 64 33 65
REMARK SMILES IDX 34 66 35 67 59 68 60 69 68 70 61 71 63 72 69 73 62 74 64 75
REMARK SMILES IDX 65 76 66 77 67 78 44 79 45 80 53 81 46 82 48 83 54 84 47 85
REMARK SMILES IDX 49 86 50 87 51 88 52 89
REMARK H PARENT 74 42 42 53
REMARK Flexibility Score: inf
ROOT
ATOM      1  C   UNL A   1      34.277  31.006  27.392  1.00  0.00     0.274 C 
ENDROOT
BRANCH   1   2
ATOM      2  O   UNL A   1      32.857  31.027  27.609  1.00  0.00    -0.461 OA
BRANCH   2   3
ATOM      3  C   UNL A   1      32.070  30.618  26.585  1.00  0.00     0.316 C 
ATOM      4  O   UNL A   1      31.308  31.350  25.958  1.00  0.00    -0.251 OA
BRANCH   3   5
ATOM      5  C   UNL A   1      32.255  29.165  26.225  1.00  0.00     0.200 C 
BRANCH   5   6
ATOM      6  S   UNL A   1      31.448  27.957  27.274  1.00  0.00    -0.074 SA
BRANCH   6   7
ATOM      7  C   UNL A   1      30.951  26.675  26.184  1.00  0.00     0.191 A 
ATOM      8  C   UNL A   1      31.870  25.944  24.388  1.00  0.00     0.133 A 
ATOM      9  N   UNL A   1      31.981  24.992  25.290  1.00  0.00    -0.134 NA
ATOM     10  N   UNL A   1      30.877  26.834  24.817  1.00  0.00    -0.303 N 
ATOM     11  N   UNL A   1      31.340  25.437  26.422  1.00  0.00    -0.123 NA
BRANCH   8  12
ATOM     12  C   UNL A   1      32.651  26.121  23.140  1.00  0.00     0.077 C 
BRANCH  12  13
ATOM     13  C   UNL A   1      33.649  24.971  22.992  1.00  0.00     0.005 C 
ATOM     14  C   UNL A   1      33.153  23.842  22.106  1.00  0.00     0.004 C 
ENDBRANCH  12  13
ENDBRANCH   8  12
BRANCH  10  15
ATOM     15  C   UNL A   1      29.687  26.934  23.976  1.00  0.00     0.158 C 
BRANCH  15  16
ATOM     16  C   UNL A   1      29.249  28.186  23.197  1.00  0.00     0.138 C 
ATOM     17  C   UNL A   1      27.776  28.520  23.048  1.00  0.00     0.036 C 
ATOM     18  O   UNL A   1      29.900  29.369  23.676  1.00  0.00    -0.376 OA
ATOM     19  C   UNL A   1      27.725  30.037  23.041  1.00  0.00     0.031 C 
ATOM     20  C   UNL A   1      29.160  30.496  23.206  1.00  0.00     0.160 C 
ENDBRANCH  15  16
ENDBRANCH  10  15
ENDBRANCH   6   7
ENDBRANCH   5   6
ENDBRANCH   3   5
ENDBRANCH   2   3
ENDBRANCH   1   2
BRANCH   1  21
ATOM     21  C   UNL A   1      34.859  32.272  28.004  1.00  0.00     0.275 C 
BRANCH  21  22
ATOM     22  O   UNL A   1      36.056  32.005  28.753  1.00  0.00    -0.458 OA
BRANCH  22  23
ATOM     23  C   UNL A   1      35.822  31.565  30.009  1.00  0.00     0.338 C 
ATOM     24  O   UNL A   1      34.918  31.923  30.743  1.00  0.00    -0.246 OA
BRANCH  23  25
ATOM     25  C   UNL A   1      36.984  30.814  30.517  1.00  0.00     0.060 A 
ATOM     26  C   UNL A   1      38.076  31.563  30.965  1.00  0.00     0.016 A 
ATOM     27  C   UNL A   1      37.108  29.445  30.246  1.00  0.00     0.016 A 
ATOM     28  C   UNL A   1      39.333  30.987  30.950  1.00  0.00     0.010 A 
ATOM     29  C   UNL A   1      38.363  28.866  30.257  1.00  0.00     0.010 A 
ATOM     30  C   UNL A   1      39.481  29.662  30.516  1.00  0.00    -0.014 A 
BRANCH  30  31
ATOM     31  C   UNL A   1      40.827  29.082  30.499  1.00  0.00     0.031 A 
ATOM     32  C   UNL A   1      41.401  28.957  31.861  1.00  0.00     0.074 A 
ATOM     33  C   UNL A   1      41.400  28.568  29.387  1.00  0.00     0.049 A 
ATOM     34  N   UNL A   1      42.560  29.344  32.285  1.00  0.00    -0.248 NA
ATOM     35  C   UNL A   1      40.499  28.469  32.924  1.00  0.00     0.031 C 
ATOM     36  C   UNL A   1      40.779  28.498  28.060  1.00  0.00     0.029 A 
ATOM     37  N   UNL A   1      42.564  27.853  29.218  1.00  0.00    -0.354 N 
ATOM     38  C   UNL A   1      42.618  28.867  33.590  1.00  0.00     0.074 A 
ATOM     39  C   UNL A   1      41.274  28.562  34.000  1.00  0.00     0.031 C 
ATOM     40  C   UNL A   1      41.430  27.599  27.302  1.00  0.00     0.029 A 
ATOM     41  C   UNL A   1      42.536  27.063  28.066  1.00  0.00     0.049 A 
ATOM     42  H   UNL A   1      43.328  27.893  29.838  1.00  0.00     0.167 HD
ATOM     43  C   UNL A   1      43.772  28.353  34.083  1.00  0.00     0.034 A 
ATOM     44  C   UNL A   1      43.271  25.965  27.767  1.00  0.00     0.034 A 
ATOM     45  C   UNL A   1      44.936  28.814  33.391  1.00  0.00     0.049 A 
ATOM     46  C   UNL A   1      44.479  25.954  28.611  1.00  0.00     0.074 A 
ATOM     47  C   UNL A   1      45.641  29.991  33.292  1.00  0.00     0.029 A 
ATOM     48  N   UNL A   1      45.350  27.993  32.380  1.00  0.00    -0.354 N 
ATOM     49  N   UNL A   1      45.475  26.781  28.458  1.00  0.00    -0.248 NA
ATOM     50  C   UNL A   1      44.499  25.168  29.840  1.00  0.00     0.031 C 
ATOM     51  C   UNL A   1      46.422  29.890  32.107  1.00  0.00     0.029 A 
ATOM     52  C   UNL A   1      46.168  28.657  31.508  1.00  0.00     0.049 A 
ATOM     53  H   UNL A   1      45.093  27.047  32.292  1.00  0.00     0.167 HD
ATOM     54  C   UNL A   1      45.968  26.941  29.739  1.00  0.00     0.074 A 
ATOM     55  C   UNL A   1      45.481  25.796  30.490  1.00  0.00     0.031 C 
ATOM     56  C   UNL A   1      46.398  28.159  30.167  1.00  0.00     0.034 A 
BRANCH  43  57
ATOM     57  C   UNL A   1      43.790  27.054  34.851  1.00  0.00     0.023 A 
ATOM     58  C   UNL A   1      43.089  25.957  34.322  1.00  0.00     0.012 A 
ATOM     59  C   UNL A   1      44.234  26.951  36.191  1.00  0.00     0.148 A 
ATOM     60  C   UNL A   1      42.870  24.803  35.086  1.00  0.00     0.002 A 
ATOM     61  C   UNL A   1      44.115  25.767  36.902  1.00  0.00     0.091 A 
ATOM     62  F   UNL A   1      44.638  28.045  36.849  1.00  0.00    -0.205 F 
ATOM     63  C   UNL A   1      43.410  24.694  36.364  1.00  0.00     0.022 A 
BRANCH  61  64
ATOM     64  S   UNL A   1      44.898  25.595  38.508  1.00  0.00     0.127 S 
ATOM     65  O   UNL A   1      44.865  24.150  38.701  1.00  0.00    -0.237 OA
ATOM     66  O   UNL A   1      46.225  26.163  38.266  1.00  0.00    -0.237 OA
ATOM     67  O   UNL A   1      44.070  26.392  39.408  1.00  0.00    -0.744 OA
ENDBRANCH  61  64
ENDBRANCH  43  57
BRANCH  44  68
ATOM     68  C   UNL A   1      42.933  24.836  26.864  1.00  0.00     0.023 A 
ATOM     69  C   UNL A   1      43.715  24.602  25.717  1.00  0.00     0.012 A 
ATOM     70  C   UNL A   1      41.971  23.862  27.219  1.00  0.00     0.148 A 
ATOM     71  C   UNL A   1      43.557  23.434  24.960  1.00  0.00     0.002 A 
ATOM     72  C   UNL A   1      41.795  22.718  26.446  1.00  0.00     0.091 A 
ATOM     73  F   UNL A   1      41.287  24.007  28.362  1.00  0.00    -0.205 F 
ATOM     74  C   UNL A   1      42.596  22.494  25.322  1.00  0.00     0.022 A 
BRANCH  72  75
ATOM     75  S   UNL A   1      40.554  21.480  26.849  1.00  0.00     0.127 S 
ATOM     76  O   UNL A   1      40.776  21.275  28.281  1.00  0.00    -0.237 OA
ATOM     77  O   UNL A   1      39.313  22.172  26.514  1.00  0.00    -0.237 OA
ATOM     78  O   UNL A   1      40.876  20.317  26.028  1.00  0.00    -0.744 OA
ENDBRANCH  72  75
ENDBRANCH  44  68
BRANCH  56  79
ATOM     79  C   UNL A   1      46.914  29.125  29.142  1.00  0.00     0.023 A 
ATOM     80  C   UNL A   1      48.223  29.061  28.628  1.00  0.00     0.012 A 
ATOM     81  C   UNL A   1      46.013  30.061  28.605  1.00  0.00     0.148 A 
ATOM     82  C   UNL A   1      48.632  29.933  27.616  1.00  0.00     0.002 A 
ATOM     83  C   UNL A   1      46.407  30.889  27.563  1.00  0.00     0.091 A 
ATOM     84  F   UNL A   1      44.773  30.117  29.116  1.00  0.00    -0.205 F 
ATOM     85  C   UNL A   1      47.719  30.836  27.073  1.00  0.00     0.022 A 
BRANCH  83  86
ATOM     86  S   UNL A   1      45.233  31.971  26.744  1.00  0.00     0.127 S 
ATOM     87  O   UNL A   1      44.788  32.829  27.838  1.00  0.00    -0.237 OA
ATOM     88  O   UNL A   1      46.063  32.640  25.740  1.00  0.00    -0.237 OA
ATOM     89  O   UNL A   1      44.217  31.091  26.176  1.00  0.00    -0.744 OA
ENDBRANCH  83  86
ENDBRANCH  56  79
ENDBRANCH  30  31
ENDBRANCH  23  25
ENDBRANCH  22  23
ENDBRANCH  21  22
ENDBRANCH   1  21
TORSDOF 20
ENDMDL
