MODEL 1
REMARK VINA RESULT:     -12.7      0.000      0.000
REMARK SMILES COc1cc([C@H]2CC(c3ccc(S(C)(=O)=O)cc3)=NN2c2ccc(C(=O)OCCOC(=O)c3ccc(-c4c5nc(c(-c6cccc(S(=O)(=O)[O-])c6F)c6ccc([nH]6)c(-c6cccc(S(=O)(=O)[O-])c6F)c6nc(c(-c7cccc(S(=O)(=O)[O-])c7F)c7ccc4[nH]7)C=C6)C=C5)cc3)cc2)cc(OC)c1OC
REMARK SMILES IDX 28 1 27 2 25 3 26 4 24 5 21 6 22 7 97 8 23 9 96 10 20 11
REMARK SMILES IDX 6 12 7 13 8 14 19 15 5 16 3 17 4 18 102 19 99 20 98 21 2 22
REMARK SMILES IDX 1 23 103 24 104 25 100 26 101 27 9 28 10 29 18 30 11 31
REMARK SMILES IDX 17 32 12 33 13 34 14 35 15 36 16 37 29 38 30 39 31 40 32 41
REMARK SMILES IDX 33 42 34 43 95 44 35 45 94 46 36 47 37 48 38 49 88 50 39 51
REMARK SMILES IDX 93 52 87 53 89 54 40 55 92 56 86 57 85 58 41 60 73 61 53 62
REMARK SMILES IDX 72 63 54 64 57 65 71 66 90 67 55 68 56 69 70 71 91 72 58 73
REMARK SMILES IDX 42 74 43 75 51 76 44 77 46 78 52 79 45 80 47 81 48 82 49 83
REMARK SMILES IDX 50 84 74 85 75 86 83 87 76 88 78 89 84 90 77 91 79 92 80 93
REMARK SMILES IDX 81 94 82 95 59 96 60 97 68 98 61 99 63 100 69 101 62 102
REMARK SMILES IDX 64 103 65 104 66 105 67 106
REMARK H PARENT 89 59 57 70
REMARK Flexibility Score: inf
ROOT
ATOM      1  C   UNL A   1      31.841  31.664  26.785  1.00  0.00     0.275 C 
ENDROOT
BRANCH   1   2
ATOM      2  O   UNL A   1      33.136  31.163  26.396  1.00  0.00    -0.458 OA
BRANCH   2   3
ATOM      3  C   UNL A   1      33.695  30.287  27.265  1.00  0.00     0.338 C 
ATOM      4  O   UNL A   1      34.505  30.548  28.145  1.00  0.00    -0.246 OA
BRANCH   3   5
ATOM      5  C   UNL A   1      33.167  28.926  27.055  1.00  0.00     0.060 A 
ATOM      6  C   UNL A   1      32.118  26.414  26.355  1.00  0.00     0.060 A 
ATOM      7  C   UNL A   1      33.434  26.751  26.031  1.00  0.00     0.029 A 
ATOM      8  C   UNL A   1      31.353  27.333  27.089  1.00  0.00     0.029 A 
ATOM      9  C   UNL A   1      33.940  28.008  26.343  1.00  0.00     0.018 A 
ATOM     10  C   UNL A   1      31.876  28.580  27.454  1.00  0.00     0.018 A 
BRANCH   6  11
ATOM     11  N   UNL A   1      31.575  25.225  25.885  1.00  0.00    -0.257 N 
ATOM     12  C   UNL A   1      30.448  25.169  24.943  1.00  0.00     0.144 C 
ATOM     13  C   UNL A   1      30.658  23.806  24.251  1.00  0.00     0.091 C 
ATOM     14  C   UNL A   1      31.845  23.290  25.018  1.00  0.00     0.071 C 
ATOM     15  N   UNL A   1      32.347  24.106  25.888  1.00  0.00    -0.176 NA
BRANCH  12  16
ATOM     16  C   UNL A   1      30.347  26.378  24.018  1.00  0.00    -0.015 A 
ATOM     17  C   UNL A   1      28.976  28.144  23.005  1.00  0.00     0.164 A 
ATOM     18  C   UNL A   1      29.099  26.979  23.783  1.00  0.00     0.056 A 
ATOM     19  C   UNL A   1      30.103  28.756  22.429  1.00  0.00     0.203 A 
ATOM     20  C   UNL A   1      31.360  28.162  22.663  1.00  0.00     0.164 A 
ATOM     21  C   UNL A   1      31.467  26.998  23.451  1.00  0.00     0.056 A 
BRANCH  17  22
ATOM     22  O   UNL A   1      27.731  28.719  22.931  1.00  0.00    -0.493 OA
ATOM     23  C   UNL A   1      26.749  27.963  23.637  1.00  0.00     0.278 C 
ENDBRANCH  17  22
BRANCH  19  24
ATOM     24  O   UNL A   1      30.098  29.873  21.641  1.00  0.00    -0.490 OA
ATOM     25  C   UNL A   1      29.219  30.953  21.899  1.00  0.00     0.278 C 
ENDBRANCH  19  24
BRANCH  20  26
ATOM     26  O   UNL A   1      32.586  28.560  22.184  1.00  0.00    -0.493 OA
ATOM     27  C   UNL A   1      33.666  27.637  22.213  1.00  0.00     0.278 C 
ENDBRANCH  20  26
ENDBRANCH  12  16
BRANCH  14  28
ATOM     28  C   UNL A   1      32.376  21.924  24.836  1.00  0.00    -0.002 A 
ATOM     29  C   UNL A   1      33.153  21.384  25.871  1.00  0.00     0.011 A 
ATOM     30  C   UNL A   1      32.119  21.172  23.685  1.00  0.00     0.011 A 
ATOM     31  C   UNL A   1      33.650  20.084  25.776  1.00  0.00     0.021 A 
ATOM     32  C   UNL A   1      32.638  19.875  23.576  1.00  0.00     0.021 A 
ATOM     33  C   UNL A   1      33.395  19.337  24.623  1.00  0.00     0.067 A 
BRANCH  33  34
ATOM     34  S   UNL A   1      33.997  17.666  24.538  1.00  0.00     0.175 S 
ATOM     35  C   UNL A   1      33.475  17.086  22.944  1.00  0.00     0.163 C 
ATOM     36  O   UNL A   1      35.444  17.747  24.547  1.00  0.00    -0.224 OA
ATOM     37  O   UNL A   1      33.296  16.894  25.549  1.00  0.00    -0.224 OA
ENDBRANCH  33  34
ENDBRANCH  14  28
ENDBRANCH   6  11
ENDBRANCH   3   5
ENDBRANCH   2   3
ENDBRANCH   1   2
BRANCH   1  38
ATOM     38  C   UNL A   1      31.893  33.154  27.124  1.00  0.00     0.275 C 
BRANCH  38  39
ATOM     39  O   UNL A   1      33.219  33.526  27.538  1.00  0.00    -0.458 OA
BRANCH  39  40
ATOM     40  C   UNL A   1      33.289  34.410  28.558  1.00  0.00     0.338 C 
ATOM     41  O   UNL A   1      32.536  35.348  28.776  1.00  0.00    -0.246 OA
BRANCH  40  42
ATOM     42  C   UNL A   1      34.429  34.090  29.435  1.00  0.00     0.060 A 
ATOM     43  C   UNL A   1      35.696  34.557  29.109  1.00  0.00     0.016 A 
ATOM     44  C   UNL A   1      34.270  33.194  30.488  1.00  0.00     0.016 A 
ATOM     45  C   UNL A   1      36.824  34.022  29.730  1.00  0.00     0.010 A 
ATOM     46  C   UNL A   1      35.394  32.761  31.203  1.00  0.00     0.010 A 
ATOM     47  C   UNL A   1      36.692  33.121  30.797  1.00  0.00    -0.014 A 
BRANCH  47  48
ATOM     48  C   UNL A   1      37.897  32.535  31.462  1.00  0.00     0.031 A 
ATOM     49  C   UNL A   1      38.663  31.411  30.801  1.00  0.00     0.074 A 
ATOM     50  C   UNL A   1      38.314  32.993  32.662  1.00  0.00     0.049 A 
ATOM     51  N   UNL A   1      39.613  30.654  31.293  1.00  0.00    -0.248 NA
ATOM     52  C   UNL A   1      38.300  31.079  29.413  1.00  0.00     0.031 C 
ATOM     53  C   UNL A   1      37.688  34.078  33.419  1.00  0.00     0.029 A 
ATOM     54  N   UNL A   1      39.360  32.598  33.461  1.00  0.00    -0.354 N 
ATOM     55  C   UNL A   1      39.895  29.707  30.313  1.00  0.00     0.074 A 
ATOM     56  C   UNL A   1      39.023  29.989  29.193  1.00  0.00     0.031 C 
ATOM     57  C   UNL A   1      38.380  34.289  34.548  1.00  0.00     0.029 A 
ATOM     58  C   UNL A   1      39.445  33.298  34.643  1.00  0.00     0.049 A 
ATOM     59  H   UNL A   1      39.989  31.883  33.211  1.00  0.00     0.167 HD
ATOM     60  C   UNL A   1      40.804  28.702  30.335  1.00  0.00     0.034 A 
ATOM     61  C   UNL A   1      40.258  33.142  35.707  1.00  0.00     0.034 A 
ATOM     62  C   UNL A   1      41.739  28.480  31.408  1.00  0.00     0.049 A 
ATOM     63  C   UNL A   1      41.280  32.040  35.695  1.00  0.00     0.074 A 
ATOM     64  C   UNL A   1      42.727  27.514  31.501  1.00  0.00     0.029 A 
ATOM     65  N   UNL A   1      41.818  29.244  32.560  1.00  0.00    -0.354 N 
ATOM     66  N   UNL A   1      41.549  31.176  34.746  1.00  0.00    -0.248 NA
ATOM     67  C   UNL A   1      42.113  31.895  36.896  1.00  0.00     0.031 C 
ATOM     68  C   UNL A   1      43.403  27.695  32.713  1.00  0.00     0.029 A 
ATOM     69  C   UNL A   1      42.843  28.779  33.369  1.00  0.00     0.049 A 
ATOM     70  H   UNL A   1      41.233  30.006  32.774  1.00  0.00     0.167 HD
ATOM     71  C   UNL A   1      42.595  30.398  35.227  1.00  0.00     0.074 A 
ATOM     72  C   UNL A   1      42.931  30.913  36.540  1.00  0.00     0.031 C 
ATOM     73  C   UNL A   1      43.204  29.336  34.647  1.00  0.00     0.034 A 
BRANCH  60  74
ATOM     74  C   UNL A   1      40.862  27.779  29.144  1.00  0.00     0.023 A 
ATOM     75  C   UNL A   1      40.015  26.656  29.087  1.00  0.00     0.012 A 
ATOM     76  C   UNL A   1      41.715  28.056  28.056  1.00  0.00     0.148 A 
ATOM     77  C   UNL A   1      40.037  25.804  27.982  1.00  0.00     0.002 A 
ATOM     78  C   UNL A   1      41.703  27.227  26.940  1.00  0.00     0.091 A 
ATOM     79  F   UNL A   1      42.532  29.117  28.135  1.00  0.00    -0.205 F 
ATOM     80  C   UNL A   1      40.872  26.094  26.906  1.00  0.00     0.022 A 
BRANCH  78  81
ATOM     81  S   UNL A   1      42.685  27.566  25.474  1.00  0.00     0.127 S 
ATOM     82  O   UNL A   1      42.394  26.398  24.646  1.00  0.00    -0.237 OA
ATOM     83  O   UNL A   1      42.100  28.817  24.989  1.00  0.00    -0.237 OA
ATOM     84  O   UNL A   1      44.061  27.686  25.938  1.00  0.00    -0.744 OA
ENDBRANCH  78  81
ENDBRANCH  60  74
BRANCH  61  85
ATOM     85  C   UNL A   1      40.151  34.077  36.865  1.00  0.00     0.023 A 
ATOM     86  C   UNL A   1      40.597  35.405  36.721  1.00  0.00     0.012 A 
ATOM     87  C   UNL A   1      39.569  33.678  38.084  1.00  0.00     0.148 A 
ATOM     88  C   UNL A   1      40.478  36.314  37.773  1.00  0.00     0.002 A 
ATOM     89  C   UNL A   1      39.395  34.605  39.105  1.00  0.00     0.091 A 
ATOM     90  F   UNL A   1      39.176  32.403  38.215  1.00  0.00    -0.205 F 
ATOM     91  C   UNL A   1      39.864  35.919  38.957  1.00  0.00     0.022 A 
BRANCH  89  92
ATOM     92  S   UNL A   1      38.477  34.215  40.599  1.00  0.00     0.127 S 
ATOM     93  O   UNL A   1      39.453  33.437  41.356  1.00  0.00    -0.237 OA
ATOM     94  O   UNL A   1      38.195  35.544  41.142  1.00  0.00    -0.237 OA
ATOM     95  O   UNL A   1      37.294  33.494  40.149  1.00  0.00    -0.744 OA
ENDBRANCH  89  92
ENDBRANCH  61  85
BRANCH  73  96
ATOM     96  C   UNL A   1      44.316  28.671  35.411  1.00  0.00     0.023 A 
ATOM     97  C   UNL A   1      45.643  29.108  35.229  1.00  0.00     0.012 A 
ATOM     98  C   UNL A   1      44.043  27.657  36.351  1.00  0.00     0.148 A 
ATOM     99  C   UNL A   1      46.686  28.528  35.950  1.00  0.00     0.002 A 
ATOM    100  C   UNL A   1      45.083  27.112  37.096  1.00  0.00     0.091 A 
ATOM    101  F   UNL A   1      42.777  27.238  36.493  1.00  0.00    -0.205 F 
ATOM    102  C   UNL A   1      46.405  27.539  36.890  1.00  0.00     0.022 A 
BRANCH 100 103
ATOM    103  S   UNL A   1      44.798  25.896  38.387  1.00  0.00     0.127 S 
ATOM    104  O   UNL A   1      46.156  25.647  38.869  1.00  0.00    -0.237 OA
ATOM    105  O   UNL A   1      43.942  26.626  39.323  1.00  0.00    -0.237 OA
ATOM    106  O   UNL A   1      44.146  24.769  37.732  1.00  0.00    -0.744 OA
ENDBRANCH 100 103
ENDBRANCH  73  96
ENDBRANCH  47  48
ENDBRANCH  40  42
ENDBRANCH  39  40
ENDBRANCH  38  39
ENDBRANCH   1  38
TORSDOF 21
ENDMDL
MODEL 2
REMARK VINA RESULT:     -11.9      1.155      2.034
REMARK SMILES COc1cc([C@H]2CC(c3ccc(S(C)(=O)=O)cc3)=NN2c2ccc(C(=O)OCCOC(=O)c3ccc(-c4c5nc(c(-c6cccc(S(=O)(=O)[O-])c6F)c6ccc([nH]6)c(-c6cccc(S(=O)(=O)[O-])c6F)c6nc(c(-c7cccc(S(=O)(=O)[O-])c7F)c7ccc4[nH]7)C=C6)C=C5)cc3)cc2)cc(OC)c1OC
REMARK SMILES IDX 28 1 27 2 25 3 26 4 24 5 21 6 22 7 97 8 23 9 96 10 20 11
REMARK SMILES IDX 6 12 7 13 8 14 19 15 5 16 3 17 4 18 102 19 99 20 98 21 2 22
REMARK SMILES IDX 1 23 103 24 104 25 100 26 101 27 9 28 10 29 18 30 11 31
REMARK SMILES IDX 17 32 12 33 13 34 14 35 15 36 16 37 29 38 30 39 31 40 32 41
REMARK SMILES IDX 33 42 34 43 95 44 35 45 94 46 36 47 37 48 38 49 88 50 39 51
REMARK SMILES IDX 93 52 87 53 89 54 40 55 92 56 86 57 85 58 41 60 73 61 53 62
REMARK SMILES IDX 72 63 54 64 57 65 71 66 90 67 55 68 56 69 70 71 91 72 58 73
REMARK SMILES IDX 42 74 43 75 51 76 44 77 46 78 52 79 45 80 47 81 48 82 49 83
REMARK SMILES IDX 50 84 74 85 75 86 83 87 76 88 78 89 84 90 77 91 79 92 80 93
REMARK SMILES IDX 81 94 82 95 59 96 60 97 68 98 61 99 63 100 69 101 62 102
REMARK SMILES IDX 64 103 65 104 66 105 67 106
REMARK H PARENT 89 59 57 70
REMARK Flexibility Score: inf
ROOT
ATOM      1  C   UNL A   1      32.367  32.062  27.690  1.00  0.00     0.275 C 
ENDROOT
BRANCH   1   2
ATOM      2  O   UNL A   1      33.027  31.187  26.753  1.00  0.00    -0.458 OA
BRANCH   2   3
ATOM      3  C   UNL A   1      33.794  30.222  27.315  1.00  0.00     0.338 C 
ATOM      4  O   UNL A   1      34.816  30.391  27.966  1.00  0.00    -0.246 OA
BRANCH   3   5
ATOM      5  C   UNL A   1      33.216  28.885  27.081  1.00  0.00     0.060 A 
ATOM      6  C   UNL A   1      32.078  26.426  26.337  1.00  0.00     0.060 A 
ATOM      7  C   UNL A   1      33.409  26.717  26.029  1.00  0.00     0.029 A 
ATOM      8  C   UNL A   1      31.342  27.364  27.078  1.00  0.00     0.029 A 
ATOM      9  C   UNL A   1      33.960  27.949  26.362  1.00  0.00     0.018 A 
ATOM     10  C   UNL A   1      31.909  28.584  27.465  1.00  0.00     0.018 A 
BRANCH   6  11
ATOM     11  N   UNL A   1      31.493  25.266  25.846  1.00  0.00    -0.257 N 
ATOM     12  C   UNL A   1      30.312  25.265  24.970  1.00  0.00     0.144 C 
ATOM     13  C   UNL A   1      30.464  23.933  24.205  1.00  0.00     0.091 C 
ATOM     14  C   UNL A   1      31.688  23.371  24.876  1.00  0.00     0.071 C 
ATOM     15  N   UNL A   1      32.250  24.141  25.752  1.00  0.00    -0.176 NA
BRANCH  12  16
ATOM     16  C   UNL A   1      30.172  26.516  24.110  1.00  0.00    -0.015 A 
ATOM     17  C   UNL A   1      31.200  28.168  22.614  1.00  0.00     0.164 A 
ATOM     18  C   UNL A   1      31.302  27.066  23.482  1.00  0.00     0.056 A 
ATOM     19  C   UNL A   1      29.957  28.765  22.340  1.00  0.00     0.203 A 
ATOM     20  C   UNL A   1      28.817  28.217  22.962  1.00  0.00     0.164 A 
ATOM     21  C   UNL A   1      28.935  27.108  23.824  1.00  0.00     0.056 A 
BRANCH  17  22
ATOM     22  O   UNL A   1      32.343  28.558  21.959  1.00  0.00    -0.493 OA
ATOM     23  C   UNL A   1      33.483  28.533  22.815  1.00  0.00     0.278 C 
ENDBRANCH  17  22
BRANCH  19  24
ATOM     24  O   UNL A   1      29.744  29.849  21.533  1.00  0.00    -0.490 OA
ATOM     25  C   UNL A   1      29.347  31.098  22.067  1.00  0.00     0.278 C 
ENDBRANCH  19  24
BRANCH  20  26
ATOM     26  O   UNL A   1      27.514  28.646  22.870  1.00  0.00    -0.493 OA
ATOM     27  C   UNL A   1      26.530  28.031  23.690  1.00  0.00     0.278 C 
ENDBRANCH  20  26
ENDBRANCH  12  16
BRANCH  14  28
ATOM     28  C   UNL A   1      32.190  22.009  24.600  1.00  0.00    -0.002 A 
ATOM     29  C   UNL A   1      32.775  21.304  25.662  1.00  0.00     0.011 A 
ATOM     30  C   UNL A   1      32.089  21.420  23.336  1.00  0.00     0.011 A 
ATOM     31  C   UNL A   1      33.233  19.999  25.475  1.00  0.00     0.021 A 
ATOM     32  C   UNL A   1      32.571  20.119  23.139  1.00  0.00     0.021 A 
ATOM     33  C   UNL A   1      33.135  19.415  24.210  1.00  0.00     0.067 A 
BRANCH  33  34
ATOM     34  S   UNL A   1      33.681  17.735  23.999  1.00  0.00     0.175 S 
ATOM     35  C   UNL A   1      32.744  16.811  25.190  1.00  0.00     0.163 C 
ATOM     36  O   UNL A   1      33.264  17.330  22.671  1.00  0.00    -0.224 OA
ATOM     37  O   UNL A   1      35.081  17.677  24.383  1.00  0.00    -0.224 OA
ENDBRANCH  33  34
ENDBRANCH  14  28
ENDBRANCH   6  11
ENDBRANCH   3   5
ENDBRANCH   2   3
ENDBRANCH   1   2
BRANCH   1  38
ATOM     38  C   UNL A   1      32.208  33.473  27.125  1.00  0.00     0.275 C 
BRANCH  38  39
ATOM     39  O   UNL A   1      33.235  34.337  27.643  1.00  0.00    -0.458 OA
BRANCH  39  40
ATOM     40  C   UNL A   1      33.328  34.397  28.990  1.00  0.00     0.338 C 
ATOM     41  O   UNL A   1      32.544  34.930  29.762  1.00  0.00    -0.246 OA
BRANCH  40  42
ATOM     42  C   UNL A   1      34.537  33.694  29.450  1.00  0.00     0.060 A 
ATOM     43  C   UNL A   1      34.422  32.678  30.391  1.00  0.00     0.016 A 
ATOM     44  C   UNL A   1      35.797  34.150  29.072  1.00  0.00     0.016 A 
ATOM     45  C   UNL A   1      35.551  32.216  31.068  1.00  0.00     0.010 A 
ATOM     46  C   UNL A   1      36.940  33.588  29.656  1.00  0.00     0.010 A 
ATOM     47  C   UNL A   1      36.832  32.656  30.705  1.00  0.00    -0.014 A 
BRANCH  47  48
ATOM     48  C   UNL A   1      38.046  32.172  31.433  1.00  0.00     0.031 A 
ATOM     49  C   UNL A   1      39.033  31.255  30.747  1.00  0.00     0.074 A 
ATOM     50  C   UNL A   1      38.274  32.538  32.713  1.00  0.00     0.049 A 
ATOM     51  N   UNL A   1      40.038  30.588  31.258  1.00  0.00    -0.248 NA
ATOM     52  C   UNL A   1      38.856  31.042  29.301  1.00  0.00     0.031 C 
ATOM     53  C   UNL A   1      37.421  33.426  33.506  1.00  0.00     0.029 A 
ATOM     54  N   UNL A   1      39.290  32.204  33.577  1.00  0.00    -0.354 N 
ATOM     55  C   UNL A   1      40.552  29.814  30.222  1.00  0.00     0.074 A 
ATOM     56  C   UNL A   1      39.755  30.101  29.049  1.00  0.00     0.031 C 
ATOM     57  C   UNL A   1      37.965  33.596  34.719  1.00  0.00     0.029 A 
ATOM     58  C   UNL A   1      39.157  32.763  34.827  1.00  0.00     0.049 A 
ATOM     59  H   UNL A   1      40.042  31.620  33.324  1.00  0.00     0.167 HD
ATOM     60  C   UNL A   1      41.599  28.954  30.239  1.00  0.00     0.034 A 
ATOM     61  C   UNL A   1      39.882  32.599  35.951  1.00  0.00     0.034 A 
ATOM     62  C   UNL A   1      42.454  28.740  31.378  1.00  0.00     0.049 A 
ATOM     63  C   UNL A   1      41.057  31.663  35.936  1.00  0.00     0.074 A 
ATOM     64  C   UNL A   1      43.565  27.920  31.479  1.00  0.00     0.029 A 
ATOM     65  N   UNL A   1      42.307  29.366  32.606  1.00  0.00    -0.354 N 
ATOM     66  N   UNL A   1      41.543  30.965  34.938  1.00  0.00    -0.248 NA
ATOM     67  C   UNL A   1      41.788  31.495  37.199  1.00  0.00     0.031 C 
ATOM     68  C   UNL A   1      44.090  28.050  32.769  1.00  0.00     0.029 A 
ATOM     69  C   UNL A   1      43.311  28.957  33.469  1.00  0.00     0.049 A 
ATOM     70  H   UNL A   1      41.595  30.006  32.833  1.00  0.00     0.167 HD
ATOM     71  C   UNL A   1      42.646  30.292  35.447  1.00  0.00     0.074 A 
ATOM     72  C   UNL A   1      42.776  30.689  36.835  1.00  0.00     0.031 C 
ATOM     73  C   UNL A   1      43.463  29.404  34.830  1.00  0.00     0.034 A 
BRANCH  60  74
ATOM     74  C   UNL A   1      41.909  28.197  28.972  1.00  0.00     0.023 A 
ATOM     75  C   UNL A   1      42.842  28.717  28.055  1.00  0.00     0.012 A 
ATOM     76  C   UNL A   1      41.319  26.941  28.718  1.00  0.00     0.148 A 
ATOM     77  C   UNL A   1      43.160  28.019  26.890  1.00  0.00     0.002 A 
ATOM     78  C   UNL A   1      41.671  26.232  27.575  1.00  0.00     0.091 A 
ATOM     79  F   UNL A   1      40.416  26.468  29.589  1.00  0.00    -0.205 F 
ATOM     80  C   UNL A   1      42.584  26.774  26.655  1.00  0.00     0.022 A 
BRANCH  78  81
ATOM     81  S   UNL A   1      41.041  24.584  27.230  1.00  0.00     0.127 S 
ATOM     82  O   UNL A   1      41.388  23.872  28.458  1.00  0.00    -0.237 OA
ATOM     83  O   UNL A   1      39.609  24.829  27.052  1.00  0.00    -0.237 OA
ATOM     84  O   UNL A   1      41.730  24.141  26.026  1.00  0.00    -0.744 OA
ENDBRANCH  78  81
ENDBRANCH  60  74
BRANCH  61  85
ATOM     85  C   UNL A   1      39.525  33.364  37.181  1.00  0.00     0.023 A 
ATOM     86  C   UNL A   1      40.000  34.681  37.334  1.00  0.00     0.012 A 
ATOM     87  C   UNL A   1      38.684  32.820  38.171  1.00  0.00     0.148 A 
ATOM     88  C   UNL A   1      39.655  35.437  38.455  1.00  0.00     0.002 A 
ATOM     89  C   UNL A   1      38.293  33.600  39.253  1.00  0.00     0.091 A 
ATOM     90  F   UNL A   1      38.264  31.555  38.025  1.00  0.00    -0.205 F 
ATOM     91  C   UNL A   1      38.790  34.902  39.406  1.00  0.00     0.022 A 
BRANCH  89  92
ATOM     92  S   UNL A   1      37.063  33.038  40.437  1.00  0.00     0.127 S 
ATOM     93  O   UNL A   1      35.914  32.777  39.574  1.00  0.00    -0.237 OA
ATOM     94  O   UNL A   1      37.697  31.843  40.995  1.00  0.00    -0.237 OA
ATOM     95  O   UNL A   1      36.913  34.131  41.387  1.00  0.00    -0.744 OA
ENDBRANCH  89  92
ENDBRANCH  61  85
BRANCH  73  96
ATOM     96  C   UNL A   1      44.588  28.818  35.638  1.00  0.00     0.023 A 
ATOM     97  C   UNL A   1      45.876  29.381  35.546  1.00  0.00     0.012 A 
ATOM     98  C   UNL A   1      44.359  27.752  36.530  1.00  0.00     0.148 A 
ATOM     99  C   UNL A   1      46.928  28.873  36.309  1.00  0.00     0.002 A 
ATOM    100  C   UNL A   1      45.403  27.279  37.319  1.00  0.00     0.091 A 
ATOM    101  F   UNL A   1      43.132  27.215  36.587  1.00  0.00    -0.205 F 
ATOM    102  C   UNL A   1      46.689  27.832  37.203  1.00  0.00     0.022 A 
BRANCH 100 103
ATOM    103  S   UNL A   1      45.161  25.999  38.556  1.00  0.00     0.127 S 
ATOM    104  O   UNL A   1      44.143  26.601  39.414  1.00  0.00    -0.237 OA
ATOM    105  O   UNL A   1      44.692  24.870  37.751  1.00  0.00    -0.237 OA
ATOM    106  O   UNL A   1      46.465  25.794  39.173  1.00  0.00    -0.744 OA
ENDBRANCH 100 103
ENDBRANCH  73  96
ENDBRANCH  47  48
ENDBRANCH  40  42
ENDBRANCH  39  40
ENDBRANCH  38  39
ENDBRANCH   1  38
TORSDOF 21
ENDMDL
MODEL 3
REMARK VINA RESULT:     -11.4      1.263      2.089
REMARK SMILES COc1cc([C@H]2CC(c3ccc(S(C)(=O)=O)cc3)=NN2c2ccc(C(=O)OCCOC(=O)c3ccc(-c4c5nc(c(-c6cccc(S(=O)(=O)[O-])c6F)c6ccc([nH]6)c(-c6cccc(S(=O)(=O)[O-])c6F)c6nc(c(-c7cccc(S(=O)(=O)[O-])c7F)c7ccc4[nH]7)C=C6)C=C5)cc3)cc2)cc(OC)c1OC
REMARK SMILES IDX 28 1 27 2 25 3 26 4 24 5 21 6 22 7 97 8 23 9 96 10 20 11
REMARK SMILES IDX 6 12 7 13 8 14 19 15 5 16 3 17 4 18 102 19 99 20 98 21 2 22
REMARK SMILES IDX 1 23 103 24 104 25 100 26 101 27 9 28 10 29 18 30 11 31
REMARK SMILES IDX 17 32 12 33 13 34 14 35 15 36 16 37 29 38 30 39 31 40 32 41
REMARK SMILES IDX 33 42 34 43 95 44 35 45 94 46 36 47 37 48 38 49 88 50 39 51
REMARK SMILES IDX 93 52 87 53 89 54 40 55 92 56 86 57 85 58 41 60 73 61 53 62
REMARK SMILES IDX 72 63 54 64 57 65 71 66 90 67 55 68 56 69 70 71 91 72 58 73
REMARK SMILES IDX 42 74 43 75 51 76 44 77 46 78 52 79 45 80 47 81 48 82 49 83
REMARK SMILES IDX 50 84 74 85 75 86 83 87 76 88 78 89 84 90 77 91 79 92 80 93
REMARK SMILES IDX 81 94 82 95 59 96 60 97 68 98 61 99 63 100 69 101 62 102
REMARK SMILES IDX 64 103 65 104 66 105 67 106
REMARK H PARENT 89 59 57 70
REMARK Flexibility Score: inf
ROOT
ATOM      1  C   UNL A   1      32.253  32.205  27.661  1.00  0.00     0.275 C 
ENDROOT
BRANCH   1   2
ATOM      2  O   UNL A   1      32.996  31.392  26.732  1.00  0.00    -0.458 OA
BRANCH   2   3
ATOM      3  C   UNL A   1      33.782  30.446  27.300  1.00  0.00     0.338 C 
ATOM      4  O   UNL A   1      34.815  30.637  27.928  1.00  0.00    -0.246 OA
BRANCH   3   5
ATOM      5  C   UNL A   1      33.211  29.100  27.107  1.00  0.00     0.060 A 
ATOM      6  C   UNL A   1      32.093  26.610  26.437  1.00  0.00     0.060 A 
ATOM      7  C   UNL A   1      33.431  26.891  26.148  1.00  0.00     0.029 A 
ATOM      8  C   UNL A   1      31.340  27.575  27.122  1.00  0.00     0.029 A 
ATOM      9  C   UNL A   1      33.973  28.136  26.444  1.00  0.00     0.018 A 
ATOM     10  C   UNL A   1      31.896  28.811  27.472  1.00  0.00     0.018 A 
BRANCH   6  11
ATOM     11  N   UNL A   1      31.522  25.430  25.979  1.00  0.00    -0.257 N 
ATOM     12  C   UNL A   1      30.375  25.391  25.061  1.00  0.00     0.144 C 
ATOM     13  C   UNL A   1      30.548  24.024  24.366  1.00  0.00     0.091 C 
ATOM     14  C   UNL A   1      31.744  23.490  25.108  1.00  0.00     0.071 C 
ATOM     15  N   UNL A   1      32.277  24.299  25.966  1.00  0.00    -0.176 NA
BRANCH  12  16
ATOM     16  C   UNL A   1      30.272  26.601  24.138  1.00  0.00    -0.015 A 
ATOM     17  C   UNL A   1      31.358  28.162  22.587  1.00  0.00     0.164 A 
ATOM     18  C   UNL A   1      31.424  27.102  23.509  1.00  0.00     0.056 A 
ATOM     19  C   UNL A   1      30.130  28.763  22.257  1.00  0.00     0.203 A 
ATOM     20  C   UNL A   1      28.968  28.263  22.880  1.00  0.00     0.164 A 
ATOM     21  C   UNL A   1      29.051  27.195  23.797  1.00  0.00     0.056 A 
BRANCH  17  22
ATOM     22  O   UNL A   1      32.520  28.503  21.940  1.00  0.00    -0.493 OA
ATOM     23  C   UNL A   1      33.670  28.281  22.754  1.00  0.00     0.278 C 
ENDBRANCH  17  22
BRANCH  19  24
ATOM     24  O   UNL A   1      29.952  29.809  21.394  1.00  0.00    -0.490 OA
ATOM     25  C   UNL A   1      29.110  30.900  21.721  1.00  0.00     0.278 C 
ENDBRANCH  19  24
BRANCH  20  26
ATOM     26  O   UNL A   1      27.675  28.706  22.738  1.00  0.00    -0.493 OA
ATOM     27  C   UNL A   1      26.665  28.147  23.566  1.00  0.00     0.278 C 
ENDBRANCH  20  26
ENDBRANCH  12  16
BRANCH  14  28
ATOM     28  C   UNL A   1      32.249  22.116  24.915  1.00  0.00    -0.002 A 
ATOM     29  C   UNL A   1      31.922  21.464  23.716  1.00  0.00     0.011 A 
ATOM     30  C   UNL A   1      33.034  21.469  25.874  1.00  0.00     0.011 A 
ATOM     31  C   UNL A   1      32.403  20.180  23.458  1.00  0.00     0.021 A 
ATOM     32  C   UNL A   1      33.497  20.170  25.629  1.00  0.00     0.021 A 
ATOM     33  C   UNL A   1      33.183  19.535  24.421  1.00  0.00     0.067 A 
BRANCH  33  34
ATOM     34  S   UNL A   1      33.826  17.917  24.057  1.00  0.00     0.175 S 
ATOM     35  C   UNL A   1      33.045  16.851  25.241  1.00  0.00     0.163 C 
ATOM     36  O   UNL A   1      33.342  17.569  22.735  1.00  0.00    -0.224 OA
ATOM     37  O   UNL A   1      35.251  17.937  24.338  1.00  0.00    -0.224 OA
ENDBRANCH  33  34
ENDBRANCH  14  28
ENDBRANCH   6  11
ENDBRANCH   3   5
ENDBRANCH   2   3
ENDBRANCH   1   2
BRANCH   1  38
ATOM     38  C   UNL A   1      32.280  33.681  27.264  1.00  0.00     0.275 C 
BRANCH  38  39
ATOM     39  O   UNL A   1      33.435  34.329  27.825  1.00  0.00    -0.458 OA
BRANCH  39  40
ATOM     40  C   UNL A   1      33.511  34.327  29.174  1.00  0.00     0.338 C 
ATOM     41  O   UNL A   1      32.724  34.837  29.960  1.00  0.00    -0.246 OA
BRANCH  40  42
ATOM     42  C   UNL A   1      34.705  33.588  29.619  1.00  0.00     0.060 A 
ATOM     43  C   UNL A   1      34.575  32.590  30.577  1.00  0.00     0.016 A 
ATOM     44  C   UNL A   1      35.972  33.994  29.207  1.00  0.00     0.016 A 
ATOM     45  C   UNL A   1      35.701  32.098  31.235  1.00  0.00     0.010 A 
ATOM     46  C   UNL A   1      37.106  33.399  29.774  1.00  0.00     0.010 A 
ATOM     47  C   UNL A   1      36.989  32.486  30.838  1.00  0.00    -0.014 A 
BRANCH  47  48
ATOM     48  C   UNL A   1      38.201  31.970  31.547  1.00  0.00     0.031 A 
ATOM     49  C   UNL A   1      39.059  30.899  30.911  1.00  0.00     0.074 A 
ATOM     50  C   UNL A   1      38.541  32.443  32.765  1.00  0.00     0.049 A 
ATOM     51  N   UNL A   1      40.033  30.198  31.436  1.00  0.00    -0.248 NA
ATOM     52  C   UNL A   1      38.771  30.555  29.508  1.00  0.00     0.031 C 
ATOM     53  C   UNL A   1      37.821  33.482  33.502  1.00  0.00     0.029 A 
ATOM     54  N   UNL A   1      39.578  32.106  33.603  1.00  0.00    -0.354 N 
ATOM     55  C   UNL A   1      40.410  29.277  30.463  1.00  0.00     0.074 A 
ATOM     56  C   UNL A   1      39.567  29.514  29.311  1.00  0.00     0.031 C 
ATOM     57  C   UNL A   1      38.455  33.726  34.658  1.00  0.00     0.029 A 
ATOM     58  C   UNL A   1      39.575  32.801  34.791  1.00  0.00     0.049 A 
ATOM     59  H   UNL A   1      40.259  31.432  33.374  1.00  0.00     0.167 HD
ATOM     60  C   UNL A   1      41.378  28.329  30.516  1.00  0.00     0.034 A 
ATOM     61  C   UNL A   1      40.353  32.687  35.884  1.00  0.00     0.034 A 
ATOM     62  C   UNL A   1      42.282  28.155  31.623  1.00  0.00     0.049 A 
ATOM     63  C   UNL A   1      41.440  31.649  35.907  1.00  0.00     0.074 A 
ATOM     64  C   UNL A   1      43.323  27.251  31.750  1.00  0.00     0.029 A 
ATOM     65  N   UNL A   1      42.269  28.915  32.782  1.00  0.00    -0.354 N 
ATOM     66  N   UNL A   1      41.799  30.811  34.965  1.00  0.00    -0.248 NA
ATOM     67  C   UNL A   1      42.234  31.546  37.139  1.00  0.00     0.031 C 
ATOM     68  C   UNL A   1      43.939  27.463  32.989  1.00  0.00     0.029 A 
ATOM     69  C   UNL A   1      43.288  28.506  33.627  1.00  0.00     0.049 A 
ATOM     70  H   UNL A   1      41.631  29.638  32.976  1.00  0.00     0.167 HD
ATOM     71  C   UNL A   1      42.870  30.094  35.482  1.00  0.00     0.074 A 
ATOM     72  C   UNL A   1      43.123  30.618  36.810  1.00  0.00     0.031 C 
ATOM     73  C   UNL A   1      43.565  29.075  34.921  1.00  0.00     0.034 A 
BRANCH  60  74
ATOM     74  C   UNL A   1      41.538  27.420  29.323  1.00  0.00     0.023 A 
ATOM     75  C   UNL A   1      40.621  26.373  29.112  1.00  0.00     0.012 A 
ATOM     76  C   UNL A   1      42.564  27.639  28.381  1.00  0.00     0.148 A 
ATOM     77  C   UNL A   1      40.738  25.537  28.001  1.00  0.00     0.002 A 
ATOM     78  C   UNL A   1      42.652  26.828  27.255  1.00  0.00     0.091 A 
ATOM     79  F   UNL A   1      43.444  28.625  28.607  1.00  0.00    -0.205 F 
ATOM     80  C   UNL A   1      41.746  25.770  27.068  1.00  0.00     0.022 A 
BRANCH  78  81
ATOM     81  S   UNL A   1      43.868  27.103  25.960  1.00  0.00     0.127 S 
ATOM     82  O   UNL A   1      43.550  26.027  25.023  1.00  0.00    -0.237 OA
ATOM     83  O   UNL A   1      43.521  28.444  25.486  1.00  0.00    -0.237 OA
ATOM     84  O   UNL A   1      45.167  27.011  26.610  1.00  0.00    -0.744 OA
ENDBRANCH  78  81
ENDBRANCH  60  74
BRANCH  61  85
ATOM     85  C   UNL A   1      40.144  33.605  37.042  1.00  0.00     0.023 A 
ATOM     86  C   UNL A   1      39.123  33.321  37.970  1.00  0.00     0.012 A 
ATOM     87  C   UNL A   1      40.975  34.721  37.258  1.00  0.00     0.148 A 
ATOM     88  C   UNL A   1      38.925  34.140  39.082  1.00  0.00     0.002 A 
ATOM     89  C   UNL A   1      40.813  35.495  38.401  1.00  0.00     0.091 A 
ATOM     90  F   UNL A   1      41.924  34.994  36.350  1.00  0.00    -0.205 F 
ATOM     91  C   UNL A   1      39.779  35.216  39.306  1.00  0.00     0.022 A 
BRANCH  89  92
ATOM     92  S   UNL A   1      41.967  36.802  38.837  1.00  0.00     0.127 S 
ATOM     93  O   UNL A   1      42.412  37.259  37.524  1.00  0.00    -0.237 OA
ATOM     94  O   UNL A   1      41.107  37.743  39.557  1.00  0.00    -0.237 OA
ATOM     95  O   UNL A   1      42.977  36.163  39.669  1.00  0.00    -0.744 OA
ENDBRANCH  89  92
ENDBRANCH  61  85
BRANCH  73  96
ATOM     96  C   UNL A   1      44.685  28.473  35.726  1.00  0.00     0.023 A 
ATOM     97  C   UNL A   1      45.966  29.058  35.679  1.00  0.00     0.012 A 
ATOM     98  C   UNL A   1      44.458  27.369  36.570  1.00  0.00     0.148 A 
ATOM     99  C   UNL A   1      47.012  28.536  36.441  1.00  0.00     0.002 A 
ATOM    100  C   UNL A   1      45.494  26.880  37.357  1.00  0.00     0.091 A 
ATOM    101  F   UNL A   1      43.238  26.811  36.582  1.00  0.00    -0.205 F 
ATOM    102  C   UNL A   1      46.774  27.456  37.287  1.00  0.00     0.022 A 
BRANCH 100 103
ATOM    103  S   UNL A   1      45.251  25.547  38.537  1.00  0.00     0.127 S 
ATOM    104  O   UNL A   1      44.112  24.838  37.956  1.00  0.00    -0.237 OA
ATOM    105  O   UNL A   1      46.522  24.824  38.460  1.00  0.00    -0.237 OA
ATOM    106  O   UNL A   1      45.005  26.193  39.819  1.00  0.00    -0.744 OA
ENDBRANCH 100 103
ENDBRANCH  73  96
ENDBRANCH  47  48
ENDBRANCH  40  42
ENDBRANCH  39  40
ENDBRANCH  38  39
ENDBRANCH   1  38
TORSDOF 21
ENDMDL
