MODEL 1
REMARK VINA RESULT:     -11.3      0.000      0.000
REMARK SMILES CC(C)C[C@H](C(=O)OCCOC(=O)c1ccc(-c2c3nc(c(-c4cccc(S(=O)(=O)[O-])c4F)c4ccc([nH]4)c(-c4cccc(S(=O)(=O)[O-])c4F)c4nc(c(-c5cccc(S(=O)(=O)[O-])c5F)c5ccc2[nH]5)C=C4)C=C3)cc1)[C@@H]1CCO[C@]2(CCOC2)C1
REMARK SMILES IDX 10 1 9 2 8 3 6 4 7 5 5 6 4 7 2 8 1 9 3 10 77 11 78 12 86 13
REMARK SMILES IDX 79 14 81 15 80 16 82 17 85 18 83 19 84 20 11 21 12 22 13 23
REMARK SMILES IDX 14 24 15 25 76 26 16 27 75 28 17 29 18 30 19 31 69 32 20 33
REMARK SMILES IDX 74 34 68 35 70 36 21 37 73 38 67 39 66 40 22 42 54 43 34 44
REMARK SMILES IDX 53 45 35 46 38 47 52 48 71 49 36 50 37 51 51 53 72 54 39 55
REMARK SMILES IDX 23 56 24 57 32 58 25 59 27 60 33 61 26 62 28 63 29 64 30 65
REMARK SMILES IDX 31 66 55 67 56 68 64 69 57 70 59 71 65 72 58 73 60 74 61 75
REMARK SMILES IDX 62 76 63 77 40 78 41 79 49 80 42 81 44 82 50 83 43 84 45 85
REMARK SMILES IDX 46 86 47 87 48 88
REMARK H PARENT 70 41 38 52
REMARK Flexibility Score: inf
ROOT
ATOM      1  C   UNL A   1      36.118  21.530  24.589  1.00  0.00     0.275 C 
ENDROOT
BRANCH   1   2
ATOM      2  C   UNL A   1      36.423  22.547  23.493  1.00  0.00     0.274 C 
BRANCH   2   3
ATOM      3  O   UNL A   1      35.743  23.793  23.785  1.00  0.00    -0.462 OA
BRANCH   3   4
ATOM      4  C   UNL A   1      34.408  23.827  23.571  1.00  0.00     0.309 C 
ATOM      5  O   UNL A   1      33.860  23.315  22.602  1.00  0.00    -0.252 OA
BRANCH   4   6
ATOM      6  C   UNL A   1      33.637  24.643  24.618  1.00  0.00     0.103 C 
BRANCH   6   7
ATOM      7  C   UNL A   1      33.866  24.166  26.067  1.00  0.00     0.018 C 
BRANCH   7   8
ATOM      8  C   UNL A   1      33.130  22.859  26.449  1.00  0.00    -0.017 C 
ATOM      9  C   UNL A   1      33.816  22.144  27.617  1.00  0.00     0.007 C 
ATOM     10  C   UNL A   1      31.676  23.158  26.824  1.00  0.00     0.007 C 
ENDBRANCH   7   8
ENDBRANCH   6   7
BRANCH   6  11
ATOM     11  C   UNL A   1      33.632  26.190  24.416  1.00  0.00     0.008 C 
ATOM     12  C   UNL A   1      34.026  26.995  25.660  1.00  0.00     0.033 C 
ATOM     13  C   UNL A   1      32.426  26.861  23.718  1.00  0.00     0.042 C 
ATOM     14  C   UNL A   1      32.831  27.388  26.514  1.00  0.00     0.161 C 
ATOM     15  C   UNL A   1      31.304  27.371  24.640  1.00  0.00     0.094 C 
ATOM     16  O   UNL A   1      31.834  28.066  25.769  1.00  0.00    -0.372 OA
ATOM     17  C   UNL A   1      30.259  26.313  24.962  1.00  0.00     0.066 C 
ATOM     18  C   UNL A   1      30.398  28.367  23.897  1.00  0.00     0.195 C 
ATOM     19  C   UNL A   1      29.329  26.327  23.761  1.00  0.00     0.163 C 
ATOM     20  O   UNL A   1      29.449  27.611  23.139  1.00  0.00    -0.378 OA
ENDBRANCH   6  11
ENDBRANCH   4   6
ENDBRANCH   3   4
ENDBRANCH   2   3
ENDBRANCH   1   2
BRANCH   1  21
ATOM     21  O   UNL A   1      36.832  21.939  25.762  1.00  0.00    -0.458 OA
BRANCH  21  22
ATOM     22  C   UNL A   1      38.114  21.533  25.841  1.00  0.00     0.338 C 
ATOM     23  O   UNL A   1      38.610  20.504  25.399  1.00  0.00    -0.246 OA
BRANCH  22  24
ATOM     24  C   UNL A   1      38.883  22.638  26.415  1.00  0.00     0.060 A 
ATOM     25  C   UNL A   1      38.468  23.939  26.127  1.00  0.00     0.016 A 
ATOM     26  C   UNL A   1      40.026  22.406  27.168  1.00  0.00     0.016 A 
ATOM     27  C   UNL A   1      39.250  25.022  26.506  1.00  0.00     0.010 A 
ATOM     28  C   UNL A   1      40.750  23.500  27.645  1.00  0.00     0.010 A 
ATOM     29  C   UNL A   1      40.386  24.816  27.296  1.00  0.00    -0.014 A 
BRANCH  29  30
ATOM     30  C   UNL A   1      41.198  25.963  27.775  1.00  0.00     0.031 A 
ATOM     31  C   UNL A   1      40.545  27.044  28.590  1.00  0.00     0.074 A 
ATOM     32  C   UNL A   1      42.494  26.064  27.420  1.00  0.00     0.049 A 
ATOM     33  N   UNL A   1      40.979  28.243  28.870  1.00  0.00    -0.248 NA
ATOM     34  C   UNL A   1      39.213  26.742  29.142  1.00  0.00     0.031 C 
ATOM     35  C   UNL A   1      43.242  25.071  26.647  1.00  0.00     0.029 A 
ATOM     36  N   UNL A   1      43.403  27.071  27.631  1.00  0.00    -0.354 N 
ATOM     37  C   UNL A   1      39.945  28.869  29.554  1.00  0.00     0.074 A 
ATOM     38  C   UNL A   1      38.868  27.910  29.665  1.00  0.00     0.031 C 
ATOM     39  C   UNL A   1      44.489  25.518  26.440  1.00  0.00     0.029 A 
ATOM     40  C   UNL A   1      44.605  26.861  26.993  1.00  0.00     0.049 A 
ATOM     41  H   UNL A   1      43.215  27.863  28.185  1.00  0.00     0.167 HD
ATOM     42  C   UNL A   1      39.903  30.131  30.044  1.00  0.00     0.034 A 
ATOM     43  C   UNL A   1      45.660  27.679  26.819  1.00  0.00     0.034 A 
ATOM     44  C   UNL A   1      41.011  31.045  29.987  1.00  0.00     0.049 A 
ATOM     45  C   UNL A   1      45.603  29.061  27.401  1.00  0.00     0.074 A 
ATOM     46  C   UNL A   1      41.093  32.333  30.483  1.00  0.00     0.029 A 
ATOM     47  N   UNL A   1      42.240  30.759  29.409  1.00  0.00    -0.354 N 
ATOM     48  N   UNL A   1      44.631  29.630  28.074  1.00  0.00    -0.248 NA
ATOM     49  C   UNL A   1      46.786  29.910  27.216  1.00  0.00     0.031 C 
ATOM     50  C   UNL A   1      42.374  32.826  30.206  1.00  0.00     0.029 A 
ATOM     51  C   UNL A   1      43.092  31.841  29.545  1.00  0.00     0.049 A 
ATOM     52  H   UNL A   1      42.472  29.910  28.968  1.00  0.00     0.167 HD
ATOM     53  C   UNL A   1      45.090  30.897  28.408  1.00  0.00     0.074 A 
ATOM     54  C   UNL A   1      46.439  31.001  27.888  1.00  0.00     0.031 C 
ATOM     55  C   UNL A   1      44.449  31.895  29.064  1.00  0.00     0.034 A 
BRANCH  42  56
ATOM     56  C   UNL A   1      38.630  30.584  30.709  1.00  0.00     0.023 A 
ATOM     57  C   UNL A   1      38.477  30.435  32.101  1.00  0.00     0.012 A 
ATOM     58  C   UNL A   1      37.603  31.198  29.963  1.00  0.00     0.148 A 
ATOM     59  C   UNL A   1      37.311  30.862  32.738  1.00  0.00     0.002 A 
ATOM     60  C   UNL A   1      36.461  31.657  30.610  1.00  0.00     0.091 A 
ATOM     61  F   UNL A   1      37.754  31.307  28.635  1.00  0.00    -0.205 F 
ATOM     62  C   UNL A   1      36.309  31.482  31.995  1.00  0.00     0.022 A 
BRANCH  60  63
ATOM     63  S   UNL A   1      35.147  32.528  29.748  1.00  0.00     0.127 S 
ATOM     64  O   UNL A   1      34.678  31.507  28.812  1.00  0.00    -0.237 OA
ATOM     65  O   UNL A   1      34.213  32.835  30.832  1.00  0.00    -0.237 OA
ATOM     66  O   UNL A   1      35.774  33.696  29.143  1.00  0.00    -0.744 OA
ENDBRANCH  60  63
ENDBRANCH  42  56
BRANCH  43  67
ATOM     67  C   UNL A   1      46.855  27.191  26.072  1.00  0.00     0.023 A 
ATOM     68  C   UNL A   1      46.958  27.451  24.693  1.00  0.00     0.012 A 
ATOM     69  C   UNL A   1      47.921  26.546  26.730  1.00  0.00     0.148 A 
ATOM     70  C   UNL A   1      48.095  27.066  23.979  1.00  0.00     0.002 A 
ATOM     71  C   UNL A   1      49.076  26.220  26.027  1.00  0.00     0.091 A 
ATOM     72  F   UNL A   1      47.798  26.286  28.040  1.00  0.00    -0.205 F 
ATOM     73  C   UNL A   1      49.159  26.467  24.648  1.00  0.00     0.022 A 
BRANCH  71  74
ATOM     74  S   UNL A   1      50.544  25.594  26.851  1.00  0.00     0.127 S 
ATOM     75  O   UNL A   1      50.011  24.456  27.594  1.00  0.00    -0.237 OA
ATOM     76  O   UNL A   1      51.408  25.244  25.722  1.00  0.00    -0.237 OA
ATOM     77  O   UNL A   1      51.039  26.707  27.652  1.00  0.00    -0.744 OA
ENDBRANCH  71  74
ENDBRANCH  43  67
BRANCH  55  78
ATOM     78  C   UNL A   1      45.206  33.176  29.276  1.00  0.00     0.023 A 
ATOM     79  C   UNL A   1      46.063  33.298  30.386  1.00  0.00     0.012 A 
ATOM     80  C   UNL A   1      45.121  34.225  28.342  1.00  0.00     0.148 A 
ATOM     81  C   UNL A   1      46.808  34.461  30.577  1.00  0.00     0.002 A 
ATOM     82  C   UNL A   1      45.897  35.364  28.517  1.00  0.00     0.091 A 
ATOM     83  F   UNL A   1      44.279  34.096  27.306  1.00  0.00    -0.205 F 
ATOM     84  C   UNL A   1      46.735  35.487  29.638  1.00  0.00     0.022 A 
BRANCH  82  85
ATOM     85  S   UNL A   1      45.922  36.695  27.312  1.00  0.00     0.127 S 
ATOM     86  O   UNL A   1      44.508  37.057  27.237  1.00  0.00    -0.237 OA
ATOM     87  O   UNL A   1      46.774  37.692  27.960  1.00  0.00    -0.237 OA
ATOM     88  O   UNL A   1      46.489  36.119  26.100  1.00  0.00    -0.744 OA
ENDBRANCH  82  85
ENDBRANCH  55  78
ENDBRANCH  29  30
ENDBRANCH  22  24
ENDBRANCH  21  22
ENDBRANCH   1  21
TORSDOF 17
ENDMDL
MODEL 2
REMARK VINA RESULT:     -11.3      4.852      9.863
REMARK SMILES CC(C)C[C@H](C(=O)OCCOC(=O)c1ccc(-c2c3nc(c(-c4cccc(S(=O)(=O)[O-])c4F)c4ccc([nH]4)c(-c4cccc(S(=O)(=O)[O-])c4F)c4nc(c(-c5cccc(S(=O)(=O)[O-])c5F)c5ccc2[nH]5)C=C4)C=C3)cc1)[C@@H]1CCO[C@]2(CCOC2)C1
REMARK SMILES IDX 10 1 9 2 8 3 6 4 7 5 5 6 4 7 2 8 1 9 3 10 77 11 78 12 86 13
REMARK SMILES IDX 79 14 81 15 80 16 82 17 85 18 83 19 84 20 11 21 12 22 13 23
REMARK SMILES IDX 14 24 15 25 76 26 16 27 75 28 17 29 18 30 19 31 69 32 20 33
REMARK SMILES IDX 74 34 68 35 70 36 21 37 73 38 67 39 66 40 22 42 54 43 34 44
REMARK SMILES IDX 53 45 35 46 38 47 52 48 71 49 36 50 37 51 51 53 72 54 39 55
REMARK SMILES IDX 23 56 24 57 32 58 25 59 27 60 33 61 26 62 28 63 29 64 30 65
REMARK SMILES IDX 31 66 55 67 56 68 64 69 57 70 59 71 65 72 58 73 60 74 61 75
REMARK SMILES IDX 62 76 63 77 40 78 41 79 49 80 42 81 44 82 50 83 43 84 45 85
REMARK SMILES IDX 46 86 47 87 48 88
REMARK H PARENT 70 41 38 52
REMARK Flexibility Score: inf
ROOT
ATOM      1  C   UNL A   1      31.610  30.022  25.978  1.00  0.00     0.275 C 
ENDROOT
BRANCH   1   2
ATOM      2  C   UNL A   1      31.582  28.865  24.983  1.00  0.00     0.274 C 
BRANCH   2   3
ATOM      3  O   UNL A   1      32.649  27.935  25.292  1.00  0.00    -0.462 OA
BRANCH   3   4
ATOM      4  C   UNL A   1      33.567  27.712  24.323  1.00  0.00     0.309 C 
ATOM      5  O   UNL A   1      34.345  28.565  23.912  1.00  0.00    -0.252 OA
BRANCH   4   6
ATOM      6  C   UNL A   1      33.495  26.303  23.719  1.00  0.00     0.103 C 
BRANCH   6   7
ATOM      7  C   UNL A   1      33.725  26.269  22.195  1.00  0.00     0.018 C 
BRANCH   7   8
ATOM      8  C   UNL A   1      32.437  26.172  21.341  1.00  0.00    -0.017 C 
ATOM      9  C   UNL A   1      32.619  25.233  20.146  1.00  0.00     0.007 C 
ATOM     10  C   UNL A   1      31.268  25.677  22.198  1.00  0.00     0.007 C 
ENDBRANCH   7   8
ENDBRANCH   6   7
BRANCH   6  11
ATOM     11  C   UNL A   1      34.204  25.172  24.528  1.00  0.00     0.008 C 
ATOM     12  C   UNL A   1      34.761  24.030  23.670  1.00  0.00     0.033 C 
ATOM     13  C   UNL A   1      33.518  24.595  25.788  1.00  0.00     0.042 C 
ATOM     14  C   UNL A   1      33.771  22.889  23.488  1.00  0.00     0.161 C 
ATOM     15  C   UNL A   1      32.637  23.351  25.573  1.00  0.00     0.094 C 
ATOM     16  O   UNL A   1      33.278  22.399  24.724  1.00  0.00    -0.372 OA
ATOM     17  C   UNL A   1      31.199  23.685  25.201  1.00  0.00     0.066 C 
ATOM     18  C   UNL A   1      32.366  22.636  26.907  1.00  0.00     0.195 C 
ATOM     19  C   UNL A   1      30.526  23.978  26.532  1.00  0.00     0.163 C 
ATOM     20  O   UNL A   1      31.280  23.310  27.550  1.00  0.00    -0.378 OA
ENDBRANCH   6  11
ENDBRANCH   4   6
ENDBRANCH   3   4
ENDBRANCH   2   3
ENDBRANCH   1   2
BRANCH   1  21
ATOM     21  O   UNL A   1      32.977  30.429  26.121  1.00  0.00    -0.458 OA
BRANCH  21  22
ATOM     22  C   UNL A   1      33.198  31.460  26.959  1.00  0.00     0.338 C 
ATOM     23  O   UNL A   1      32.424  32.355  27.278  1.00  0.00    -0.246 OA
BRANCH  22  24
ATOM     24  C   UNL A   1      34.503  31.240  27.581  1.00  0.00     0.060 A 
ATOM     25  C   UNL A   1      34.840  29.935  27.944  1.00  0.00     0.016 A 
ATOM     26  C   UNL A   1      35.355  32.299  27.863  1.00  0.00     0.016 A 
ATOM     27  C   UNL A   1      35.990  29.690  28.682  1.00  0.00     0.010 A 
ATOM     28  C   UNL A   1      36.566  32.035  28.505  1.00  0.00     0.010 A 
ATOM     29  C   UNL A   1      36.882  30.734  28.947  1.00  0.00    -0.014 A 
BRANCH  29  30
ATOM     30  C   UNL A   1      38.154  30.485  29.672  1.00  0.00     0.031 A 
ATOM     31  C   UNL A   1      39.183  29.570  29.069  1.00  0.00     0.074 A 
ATOM     32  C   UNL A   1      38.348  31.021  30.893  1.00  0.00     0.049 A 
ATOM     33  N   UNL A   1      40.214  29.001  29.634  1.00  0.00    -0.248 NA
ATOM     34  C   UNL A   1      39.013  29.230  27.646  1.00  0.00     0.031 C 
ATOM     35  C   UNL A   1      37.431  31.937  31.573  1.00  0.00     0.029 A 
ATOM     36  N   UNL A   1      39.367  30.843  31.795  1.00  0.00    -0.354 N 
ATOM     37  C   UNL A   1      40.764  28.172  28.665  1.00  0.00     0.074 A 
ATOM     38  C   UNL A   1      39.966  28.325  27.469  1.00  0.00     0.031 C 
ATOM     39  C   UNL A   1      37.919  32.234  32.786  1.00  0.00     0.029 A 
ATOM     40  C   UNL A   1      39.140  31.468  33.002  1.00  0.00     0.049 A 
ATOM     41  H   UNL A   1      40.179  30.322  31.599  1.00  0.00     0.167 HD
ATOM     42  C   UNL A   1      41.842  27.357  28.769  1.00  0.00     0.034 A 
ATOM     43  C   UNL A   1      39.804  31.387  34.169  1.00  0.00     0.034 A 
ATOM     44  C   UNL A   1      42.666  27.272  29.944  1.00  0.00     0.049 A 
ATOM     45  C   UNL A   1      41.015  30.503  34.249  1.00  0.00     0.074 A 
ATOM     46  C   UNL A   1      43.801  26.509  30.148  1.00  0.00     0.029 A 
ATOM     47  N   UNL A   1      42.450  27.990  31.112  1.00  0.00    -0.354 N 
ATOM     48  N   UNL A   1      41.545  29.749  33.316  1.00  0.00    -0.248 NA
ATOM     49  C   UNL A   1      41.729  30.467  35.532  1.00  0.00     0.031 C 
ATOM     50  C   UNL A   1      44.274  26.767  31.440  1.00  0.00     0.029 A 
ATOM     51  C   UNL A   1      43.437  27.697  32.037  1.00  0.00     0.049 A 
ATOM     52  H   UNL A   1      41.705  28.616  31.260  1.00  0.00     0.167 HD
ATOM     53  C   UNL A   1      42.663  29.160  33.891  1.00  0.00     0.074 A 
ATOM     54  C   UNL A   1      42.750  29.670  35.246  1.00  0.00     0.031 C 
ATOM     55  C   UNL A   1      43.528  28.262  33.360  1.00  0.00     0.034 A 
BRANCH  42  56
ATOM     56  C   UNL A   1      42.205  26.517  27.573  1.00  0.00     0.023 A 
ATOM     57  C   UNL A   1      42.935  27.089  26.513  1.00  0.00     0.012 A 
ATOM     58  C   UNL A   1      41.863  25.150  27.518  1.00  0.00     0.148 A 
ATOM     59  C   UNL A   1      43.293  26.323  25.403  1.00  0.00     0.002 A 
ATOM     60  C   UNL A   1      42.257  24.384  26.427  1.00  0.00     0.091 A 
ATOM     61  F   UNL A   1      41.145  24.629  28.523  1.00  0.00    -0.205 F 
ATOM     62  C   UNL A   1      42.965  24.970  25.364  1.00  0.00     0.022 A 
BRANCH  60  63
ATOM     63  S   UNL A   1      41.939  22.619  26.321  1.00  0.00     0.127 S 
ATOM     64  O   UNL A   1      42.592  22.276  25.058  1.00  0.00    -0.237 OA
ATOM     65  O   UNL A   1      42.617  22.108  27.514  1.00  0.00    -0.237 OA
ATOM     66  O   UNL A   1      40.490  22.473  26.341  1.00  0.00    -0.744 OA
ENDBRANCH  60  63
ENDBRANCH  42  56
BRANCH  43  67
ATOM     67  C   UNL A   1      39.334  32.182  35.340  1.00  0.00     0.023 A 
ATOM     68  C   UNL A   1      38.523  31.565  36.311  1.00  0.00     0.012 A 
ATOM     69  C   UNL A   1      39.749  33.513  35.540  1.00  0.00     0.148 A 
ATOM     70  C   UNL A   1      38.123  32.262  37.452  1.00  0.00     0.002 A 
ATOM     71  C   UNL A   1      39.398  34.183  36.707  1.00  0.00     0.091 A 
ATOM     72  F   UNL A   1      40.503  34.095  34.595  1.00  0.00    -0.205 F 
ATOM     73  C   UNL A   1      38.573  33.564  37.658  1.00  0.00     0.022 A 
BRANCH  71  74
ATOM     74  S   UNL A   1      40.070  35.799  37.113  1.00  0.00     0.127 S 
ATOM     75  O   UNL A   1      39.399  36.095  38.376  1.00  0.00    -0.237 OA
ATOM     76  O   UNL A   1      41.502  35.520  37.226  1.00  0.00    -0.237 OA
ATOM     77  O   UNL A   1      39.720  36.655  35.986  1.00  0.00    -0.744 OA
ENDBRANCH  71  74
ENDBRANCH  43  67
BRANCH  55  78
ATOM     78  C   UNL A   1      44.655  27.791  34.236  1.00  0.00     0.023 A 
ATOM     79  C   UNL A   1      45.844  28.542  34.296  1.00  0.00     0.012 A 
ATOM     80  C   UNL A   1      44.508  26.649  35.045  1.00  0.00     0.148 A 
ATOM     81  C   UNL A   1      46.885  28.147  35.136  1.00  0.00     0.002 A 
ATOM     82  C   UNL A   1      45.534  26.286  35.909  1.00  0.00     0.091 A 
ATOM     83  F   UNL A   1      43.376  25.937  34.951  1.00  0.00    -0.205 F 
ATOM     84  C   UNL A   1      46.726  27.028  35.949  1.00  0.00     0.022 A 
BRANCH  82  85
ATOM     85  S   UNL A   1      45.375  24.907  37.048  1.00  0.00     0.127 S 
ATOM     86  O   UNL A   1      45.347  23.766  36.135  1.00  0.00    -0.237 OA
ATOM     87  O   UNL A   1      46.595  25.018  37.849  1.00  0.00    -0.237 OA
ATOM     88  O   UNL A   1      44.146  25.149  37.792  1.00  0.00    -0.744 OA
ENDBRANCH  82  85
ENDBRANCH  55  78
ENDBRANCH  29  30
ENDBRANCH  22  24
ENDBRANCH  21  22
ENDBRANCH   1  21
TORSDOF 17
ENDMDL
MODEL 3
REMARK VINA RESULT:     -11.0      1.520      1.892
REMARK SMILES CC(C)C[C@H](C(=O)OCCOC(=O)c1ccc(-c2c3nc(c(-c4cccc(S(=O)(=O)[O-])c4F)c4ccc([nH]4)c(-c4cccc(S(=O)(=O)[O-])c4F)c4nc(c(-c5cccc(S(=O)(=O)[O-])c5F)c5ccc2[nH]5)C=C4)C=C3)cc1)[C@@H]1CCO[C@]2(CCOC2)C1
REMARK SMILES IDX 10 1 9 2 8 3 6 4 7 5 5 6 4 7 2 8 1 9 3 10 77 11 78 12 86 13
REMARK SMILES IDX 79 14 81 15 80 16 82 17 85 18 83 19 84 20 11 21 12 22 13 23
REMARK SMILES IDX 14 24 15 25 76 26 16 27 75 28 17 29 18 30 19 31 69 32 20 33
REMARK SMILES IDX 74 34 68 35 70 36 21 37 73 38 67 39 66 40 22 42 54 43 34 44
REMARK SMILES IDX 53 45 35 46 38 47 52 48 71 49 36 50 37 51 51 53 72 54 39 55
REMARK SMILES IDX 23 56 24 57 32 58 25 59 27 60 33 61 26 62 28 63 29 64 30 65
REMARK SMILES IDX 31 66 55 67 56 68 64 69 57 70 59 71 65 72 58 73 60 74 61 75
REMARK SMILES IDX 62 76 63 77 40 78 41 79 49 80 42 81 44 82 50 83 43 84 45 85
REMARK SMILES IDX 46 86 47 87 48 88
REMARK H PARENT 70 41 38 52
REMARK Flexibility Score: inf
ROOT
ATOM      1  C   UNL A   1      36.552  21.145  25.362  1.00  0.00     0.275 C 
ENDROOT
BRANCH   1   2
ATOM      2  C   UNL A   1      35.542  22.198  25.808  1.00  0.00     0.274 C 
BRANCH   2   3
ATOM      3  O   UNL A   1      35.763  23.425  25.070  1.00  0.00    -0.462 OA
BRANCH   3   4
ATOM      4  C   UNL A   1      35.047  23.594  23.934  1.00  0.00     0.309 C 
ATOM      5  O   UNL A   1      35.433  23.241  22.826  1.00  0.00    -0.252 OA
BRANCH   4   6
ATOM      6  C   UNL A   1      33.727  24.349  24.146  1.00  0.00     0.103 C 
BRANCH   6   7
ATOM      7  C   UNL A   1      32.478  23.537  23.748  1.00  0.00     0.018 C 
BRANCH   7   8
ATOM      8  C   UNL A   1      32.694  22.007  23.656  1.00  0.00    -0.017 C 
ATOM      9  C   UNL A   1      32.070  21.274  24.847  1.00  0.00     0.007 C 
ATOM     10  C   UNL A   1      32.093  21.463  22.357  1.00  0.00     0.007 C 
ENDBRANCH   7   8
ENDBRANCH   6   7
BRANCH   6  11
ATOM     11  C   UNL A   1      33.605  25.158  25.474  1.00  0.00     0.008 C 
ATOM     12  C   UNL A   1      32.732  24.494  26.546  1.00  0.00     0.033 C 
ATOM     13  C   UNL A   1      33.298  26.673  25.415  1.00  0.00     0.042 C 
ATOM     14  C   UNL A   1      31.276  24.928  26.478  1.00  0.00     0.161 C 
ATOM     15  C   UNL A   1      31.813  27.070  25.493  1.00  0.00     0.094 C 
ATOM     16  O   UNL A   1      31.132  26.339  26.512  1.00  0.00    -0.372 OA
ATOM     17  C   UNL A   1      31.122  27.093  24.138  1.00  0.00     0.066 C 
ATOM     18  C   UNL A   1      31.665  28.559  25.849  1.00  0.00     0.195 C 
ATOM     19  C   UNL A   1      31.491  28.444  23.550  1.00  0.00     0.163 C 
ATOM     20  O   UNL A   1      31.816  29.312  24.642  1.00  0.00    -0.378 OA
ENDBRANCH   6  11
ENDBRANCH   4   6
ENDBRANCH   3   4
ENDBRANCH   2   3
ENDBRANCH   1   2
BRANCH   1  21
ATOM     21  O   UNL A   1      37.808  21.809  25.174  1.00  0.00    -0.458 OA
BRANCH  21  22
ATOM     22  C   UNL A   1      38.833  21.348  25.916  1.00  0.00     0.338 C 
ATOM     23  O   UNL A   1      39.249  20.200  26.000  1.00  0.00    -0.246 OA
BRANCH  22  24
ATOM     24  C   UNL A   1      39.502  22.512  26.498  1.00  0.00     0.060 A 
ATOM     25  C   UNL A   1      39.089  23.778  26.081  1.00  0.00     0.016 A 
ATOM     26  C   UNL A   1      40.559  22.365  27.387  1.00  0.00     0.016 A 
ATOM     27  C   UNL A   1      39.794  24.908  26.473  1.00  0.00     0.010 A 
ATOM     28  C   UNL A   1      41.195  23.510  27.869  1.00  0.00     0.010 A 
ATOM     29  C   UNL A   1      40.838  24.790  27.396  1.00  0.00    -0.014 A 
BRANCH  29  30
ATOM     30  C   UNL A   1      41.560  25.991  27.887  1.00  0.00     0.031 A 
ATOM     31  C   UNL A   1      40.818  27.027  28.684  1.00  0.00     0.074 A 
ATOM     32  C   UNL A   1      42.853  26.179  27.558  1.00  0.00     0.049 A 
ATOM     33  N   UNL A   1      41.164  28.254  28.967  1.00  0.00    -0.248 NA
ATOM     34  C   UNL A   1      39.499  26.637  29.210  1.00  0.00     0.031 C 
ATOM     35  C   UNL A   1      43.683  25.237  26.804  1.00  0.00     0.029 A 
ATOM     36  N   UNL A   1      43.687  27.246  27.783  1.00  0.00    -0.354 N 
ATOM     37  C   UNL A   1      40.076  28.810  29.627  1.00  0.00     0.074 A 
ATOM     38  C   UNL A   1      39.064  27.781  29.721  1.00  0.00     0.031 C 
ATOM     39  C   UNL A   1      44.901  25.767  26.620  1.00  0.00     0.029 A 
ATOM     40  C   UNL A   1      44.913  27.117  27.170  1.00  0.00     0.049 A 
ATOM     41  H   UNL A   1      43.434  28.025  28.330  1.00  0.00     0.167 HD
ATOM     42  C   UNL A   1      39.938  30.068  30.111  1.00  0.00     0.034 A 
ATOM     43  C   UNL A   1      45.913  28.004  27.014  1.00  0.00     0.034 A 
ATOM     44  C   UNL A   1      40.982  31.055  30.072  1.00  0.00     0.049 A 
ATOM     45  C   UNL A   1      45.750  29.381  27.589  1.00  0.00     0.074 A 
ATOM     46  C   UNL A   1      40.966  32.347  30.564  1.00  0.00     0.029 A 
ATOM     47  N   UNL A   1      42.239  30.851  29.521  1.00  0.00    -0.354 N 
ATOM     48  N   UNL A   1      44.729  29.884  28.240  1.00  0.00    -0.248 NA
ATOM     49  C   UNL A   1      46.877  30.308  27.425  1.00  0.00     0.031 C 
ATOM     50  C   UNL A   1      42.216  32.925  30.312  1.00  0.00     0.029 A 
ATOM     51  C   UNL A   1      43.012  31.990  29.670  1.00  0.00     0.049 A 
ATOM     52  H   UNL A   1      42.538  30.019  29.088  1.00  0.00     0.167 HD
ATOM     53  C   UNL A   1      45.093  31.181  28.578  1.00  0.00     0.074 A 
ATOM     54  C   UNL A   1      46.443  31.375  28.084  1.00  0.00     0.031 C 
ATOM     55  C   UNL A   1      44.372  32.135  29.216  1.00  0.00     0.034 A 
BRANCH  42  56
ATOM     56  C   UNL A   1      38.624  30.435  30.748  1.00  0.00     0.023 A 
ATOM     57  C   UNL A   1      38.383  30.105  32.096  1.00  0.00     0.012 A 
ATOM     58  C   UNL A   1      37.644  31.147  30.026  1.00  0.00     0.148 A 
ATOM     59  C   UNL A   1      37.178  30.449  32.708  1.00  0.00     0.002 A 
ATOM     60  C   UNL A   1      36.461  31.521  30.653  1.00  0.00     0.091 A 
ATOM     61  F   UNL A   1      37.878  31.429  28.736  1.00  0.00    -0.205 F 
ATOM     62  C   UNL A   1      36.222  31.166  31.991  1.00  0.00     0.022 A 
BRANCH  60  63
ATOM     63  S   UNL A   1      35.201  32.504  29.833  1.00  0.00     0.127 S 
ATOM     64  O   UNL A   1      34.751  31.592  28.782  1.00  0.00    -0.237 OA
ATOM     65  O   UNL A   1      34.229  32.723  30.905  1.00  0.00    -0.237 OA
ATOM     66  O   UNL A   1      35.875  33.711  29.373  1.00  0.00    -0.744 OA
ENDBRANCH  60  63
ENDBRANCH  42  56
BRANCH  43  67
ATOM     67  C   UNL A   1      47.154  27.597  26.293  1.00  0.00     0.023 A 
ATOM     68  C   UNL A   1      48.126  26.837  26.970  1.00  0.00     0.012 A 
ATOM     69  C   UNL A   1      47.339  27.886  24.927  1.00  0.00     0.148 A 
ATOM     70  C   UNL A   1      49.265  26.384  26.304  1.00  0.00     0.002 A 
ATOM     71  C   UNL A   1      48.446  27.380  24.253  1.00  0.00     0.091 A 
ATOM     72  F   UNL A   1      46.414  28.630  24.301  1.00  0.00    -0.205 F 
ATOM     73  C   UNL A   1      49.417  26.641  24.944  1.00  0.00     0.022 A 
BRANCH  71  74
ATOM     74  S   UNL A   1      48.626  27.535  22.472  1.00  0.00     0.127 S 
ATOM     75  O   UNL A   1      48.671  26.138  22.052  1.00  0.00    -0.237 OA
ATOM     76  O   UNL A   1      47.407  28.254  22.098  1.00  0.00    -0.237 OA
ATOM     77  O   UNL A   1      49.850  28.303  22.275  1.00  0.00    -0.744 OA
ENDBRANCH  71  74
ENDBRANCH  43  67
BRANCH  55  78
ATOM     78  C   UNL A   1      45.036  33.465  29.437  1.00  0.00     0.023 A 
ATOM     79  C   UNL A   1      45.767  33.685  30.620  1.00  0.00     0.012 A 
ATOM     80  C   UNL A   1      44.992  34.465  28.447  1.00  0.00     0.148 A 
ATOM     81  C   UNL A   1      46.427  34.896  30.825  1.00  0.00     0.002 A 
ATOM     82  C   UNL A   1      45.685  35.652  28.642  1.00  0.00     0.091 A 
ATOM     83  F   UNL A   1      44.268  34.241  27.341  1.00  0.00    -0.205 F 
ATOM     84  C   UNL A   1      46.397  35.873  29.834  1.00  0.00     0.022 A 
BRANCH  82  85
ATOM     85  S   UNL A   1      45.764  36.927  27.380  1.00  0.00     0.127 S 
ATOM     86  O   UNL A   1      44.362  37.324  27.267  1.00  0.00    -0.237 OA
ATOM     87  O   UNL A   1      46.634  37.929  27.997  1.00  0.00    -0.237 OA
ATOM     88  O   UNL A   1      46.333  36.283  26.203  1.00  0.00    -0.744 OA
ENDBRANCH  82  85
ENDBRANCH  55  78
ENDBRANCH  29  30
ENDBRANCH  22  24
ENDBRANCH  21  22
ENDBRANCH   1  21
TORSDOF 17
ENDMDL
