MODEL 1
REMARK VINA RESULT:     -12.1      0.000      0.000
REMARK SMILES O=C(CSc1cc(-c2ccccc2)nc(-c2ccccc2F)n1)OCCOC(=O)c1ccc(-c2c3nc(c(-c4cccc(S(=O)(=O)[O-])c4F)c4ccc([nH]4)c(-c4cccc(S(=O)(=O)[O-])c4F)c4nc(c(-c5cccc(S(=O)(=O)[O-])c5F)c5ccc2[nH]5)C=C4)C=C3)cc1
REMARK SMILES IDX 25 1 24 2 2 3 1 4 3 5 4 6 5 7 6 8 23 9 7 10 15 11 14 12 8 13
REMARK SMILES IDX 9 14 13 15 10 16 12 17 11 18 16 19 17 20 21 21 18 22 20 23
REMARK SMILES IDX 22 24 19 25 26 26 27 27 28 28 29 29 30 30 31 31 92 32 32 33
REMARK SMILES IDX 91 34 33 35 34 36 35 37 85 38 36 39 90 40 84 41 86 42 37 43
REMARK SMILES IDX 89 44 83 45 82 46 38 48 70 49 50 50 69 51 51 52 54 53 68 54
REMARK SMILES IDX 87 55 52 56 53 57 67 59 88 60 55 61 39 62 40 63 48 64 41 65
REMARK SMILES IDX 43 66 49 67 42 68 44 69 45 70 46 71 47 72 71 73 72 74 80 75
REMARK SMILES IDX 73 76 75 77 81 78 74 79 76 80 77 81 78 82 79 83 56 84 57 85
REMARK SMILES IDX 65 86 58 87 60 88 66 89 59 90 61 91 62 92 63 93 64 94
REMARK H PARENT 86 47 54 58
REMARK Flexibility Score: inf
ROOT
ATOM      1  C   UNL A   1      35.665  21.192  25.121  1.00  0.00     0.274 C 
ENDROOT
BRANCH   1   2
ATOM      2  O   UNL A   1      35.827  22.622  25.006  1.00  0.00    -0.461 OA
BRANCH   2   3
ATOM      3  C   UNL A   1      35.350  23.385  23.991  1.00  0.00     0.316 C 
ATOM      4  O   UNL A   1      35.524  23.020  22.829  1.00  0.00    -0.251 OA
BRANCH   3   5
ATOM      5  C   UNL A   1      34.566  24.639  24.315  1.00  0.00     0.199 C 
BRANCH   5   6
ATOM      6  S   UNL A   1      33.452  25.076  22.956  1.00  0.00    -0.094 SA
BRANCH   6   7
ATOM      7  C   UNL A   1      32.826  26.586  23.649  1.00  0.00     0.101 A 
ATOM      8  C   UNL A   1      33.551  27.228  24.618  1.00  0.00     0.064 A 
ATOM      9  N   UNL A   1      31.658  27.031  23.181  1.00  0.00    -0.222 NA
ATOM     10  C   UNL A   1      33.014  28.398  25.111  1.00  0.00     0.075 A 
ATOM     11  C   UNL A   1      31.225  28.198  23.687  1.00  0.00     0.163 A 
ATOM     12  N   UNL A   1      31.843  28.899  24.660  1.00  0.00    -0.228 NA
BRANCH  10  13
ATOM     13  C   UNL A   1      33.716  29.159  26.157  1.00  0.00     0.000 A 
ATOM     14  C   UNL A   1      34.902  28.682  26.736  1.00  0.00     0.010 A 
ATOM     15  C   UNL A   1      33.241  30.418  26.575  1.00  0.00     0.010 A 
ATOM     16  C   UNL A   1      35.599  29.447  27.677  1.00  0.00     0.001 A 
ATOM     17  C   UNL A   1      33.934  31.182  27.515  1.00  0.00     0.001 A 
ATOM     18  C   UNL A   1      35.118  30.697  28.062  1.00  0.00     0.000 A 
ENDBRANCH  10  13
BRANCH  11  19
ATOM     19  C   UNL A   1      30.034  28.754  23.061  1.00  0.00     0.055 A 
ATOM     20  C   UNL A   1      30.078  29.962  22.339  1.00  0.00     0.015 A 
ATOM     21  C   UNL A   1      28.784  28.157  23.261  1.00  0.00     0.134 A 
ATOM     22  C   UNL A   1      28.907  30.546  21.845  1.00  0.00     0.001 A 
ATOM     23  C   UNL A   1      27.612  28.745  22.788  1.00  0.00     0.040 A 
ATOM     24  F   UNL A   1      28.684  27.016  23.962  1.00  0.00    -0.206 F 
ATOM     25  C   UNL A   1      27.674  29.942  22.080  1.00  0.00     0.003 A 
ENDBRANCH  11  19
ENDBRANCH   6   7
ENDBRANCH   5   6
ENDBRANCH   3   5
ENDBRANCH   2   3
ENDBRANCH   1   2
BRANCH   1  26
ATOM     26  C   UNL A   1      37.007  20.470  24.995  1.00  0.00     0.275 C 
BRANCH  26  27
ATOM     27  O   UNL A   1      38.082  21.419  25.105  1.00  0.00    -0.458 OA
BRANCH  27  28
ATOM     28  C   UNL A   1      39.018  21.148  26.051  1.00  0.00     0.338 C 
ATOM     29  O   UNL A   1      39.450  20.047  26.345  1.00  0.00    -0.246 OA
BRANCH  28  30
ATOM     30  C   UNL A   1      39.595  22.423  26.539  1.00  0.00     0.060 A 
ATOM     31  C   UNL A   1      39.039  23.620  26.070  1.00  0.00     0.016 A 
ATOM     32  C   UNL A   1      40.633  22.455  27.478  1.00  0.00     0.016 A 
ATOM     33  C   UNL A   1      39.541  24.847  26.512  1.00  0.00     0.010 A 
ATOM     34  C   UNL A   1      41.130  23.684  27.923  1.00  0.00     0.010 A 
ATOM     35  C   UNL A   1      40.606  24.888  27.423  1.00  0.00    -0.014 A 
BRANCH  35  36
ATOM     36  C   UNL A   1      41.238  26.184  27.773  1.00  0.00     0.031 A 
ATOM     37  C   UNL A   1      42.647  26.461  27.322  1.00  0.00     0.074 A 
ATOM     38  C   UNL A   1      40.578  27.101  28.503  1.00  0.00     0.049 A 
ATOM     39  N   UNL A   1      43.371  27.538  27.486  1.00  0.00    -0.248 NA
ATOM     40  C   UNL A   1      43.335  25.379  26.596  1.00  0.00     0.031 C 
ATOM     41  C   UNL A   1      39.229  26.942  29.045  1.00  0.00     0.029 A 
ATOM     42  N   UNL A   1      40.969  28.345  28.934  1.00  0.00    -0.354 N 
ATOM     43  C   UNL A   1      44.599  27.263  26.895  1.00  0.00     0.074 A 
ATOM     44  C   UNL A   1      44.532  25.909  26.390  1.00  0.00     0.031 C 
ATOM     45  C   UNL A   1      38.914  28.040  29.756  1.00  0.00     0.029 A 
ATOM     46  C   UNL A   1      40.033  28.980  29.716  1.00  0.00     0.049 A 
ATOM     47  H   UNL A   1      41.839  28.745  28.706  1.00  0.00     0.167 HD
ATOM     48  C   UNL A   1      45.676  28.072  26.759  1.00  0.00     0.034 A 
ATOM     49  C   UNL A   1      40.074  30.182  30.327  1.00  0.00     0.034 A 
ATOM     50  C   UNL A   1      45.747  29.424  27.242  1.00  0.00     0.049 A 
ATOM     51  C   UNL A   1      41.288  31.061  30.157  1.00  0.00     0.074 A 
ATOM     52  C   UNL A   1      46.780  30.334  27.101  1.00  0.00     0.029 A 
ATOM     53  N   UNL A   1      44.753  30.056  27.972  1.00  0.00    -0.354 N 
ATOM     54  N   UNL A   1      42.370  30.853  29.447  1.00  0.00    -0.248 NA
ATOM     55  C   UNL A   1      41.268  32.362  30.846  1.00  0.00     0.031 C 
ATOM     56  C   UNL A   1      46.416  31.514  27.760  1.00  0.00     0.029 A 
ATOM     57  C   UNL A   1      45.152  31.343  28.297  1.00  0.00     0.049 A 
ATOM     58  H   UNL A   1      43.892  29.652  28.220  1.00  0.00     0.167 HD
ATOM     59  C   UNL A   1      43.141  32.004  29.577  1.00  0.00     0.074 A 
ATOM     60  C   UNL A   1      42.389  32.920  30.408  1.00  0.00     0.031 C 
ATOM     61  C   UNL A   1      44.372  32.272  29.071  1.00  0.00     0.034 A 
BRANCH  48  62
ATOM     62  C   UNL A   1      46.859  27.531  26.003  1.00  0.00     0.023 A 
ATOM     63  C   UNL A   1      47.730  26.627  26.644  1.00  0.00     0.012 A 
ATOM     64  C   UNL A   1      47.072  27.858  24.651  1.00  0.00     0.148 A 
ATOM     65  C   UNL A   1      48.808  26.071  25.957  1.00  0.00     0.002 A 
ATOM     66  C   UNL A   1      48.127  27.271  23.961  1.00  0.00     0.091 A 
ATOM     67  F   UNL A   1      46.246  28.738  24.067  1.00  0.00    -0.205 F 
ATOM     68  C   UNL A   1      48.999  26.384  24.615  1.00  0.00     0.022 A 
BRANCH  66  69
ATOM     69  S   UNL A   1      48.420  27.557  22.212  1.00  0.00     0.127 S 
ATOM     70  O   UNL A   1      49.591  28.433  22.249  1.00  0.00    -0.237 OA
ATOM     71  O   UNL A   1      48.685  26.205  21.718  1.00  0.00    -0.237 OA
ATOM     72  O   UNL A   1      47.202  28.165  21.695  1.00  0.00    -0.744 OA
ENDBRANCH  66  69
ENDBRANCH  48  62
BRANCH  49  73
ATOM     73  C   UNL A   1      38.902  30.666  31.111  1.00  0.00     0.023 A 
ATOM     74  C   UNL A   1      38.696  30.175  32.416  1.00  0.00     0.012 A 
ATOM     75  C   UNL A   1      37.985  31.586  30.570  1.00  0.00     0.148 A 
ATOM     76  C   UNL A   1      37.576  30.562  33.153  1.00  0.00     0.002 A 
ATOM     77  C   UNL A   1      36.901  32.009  31.332  1.00  0.00     0.091 A 
ATOM     78  F   UNL A   1      38.180  32.019  29.317  1.00  0.00    -0.205 F 
ATOM     79  C   UNL A   1      36.685  31.487  32.615  1.00  0.00     0.022 A 
BRANCH  77  80
ATOM     80  S   UNL A   1      35.767  33.277  30.757  1.00  0.00     0.127 S 
ATOM     81  O   UNL A   1      36.291  33.565  29.425  1.00  0.00    -0.237 OA
ATOM     82  O   UNL A   1      34.485  32.570  30.774  1.00  0.00    -0.237 OA
ATOM     83  O   UNL A   1      35.868  34.357  31.729  1.00  0.00    -0.744 OA
ENDBRANCH  77  80
ENDBRANCH  49  73
BRANCH  61  84
ATOM     84  C   UNL A   1      44.981  33.617  29.375  1.00  0.00     0.023 A 
ATOM     85  C   UNL A   1      45.760  33.781  30.537  1.00  0.00     0.012 A 
ATOM     86  C   UNL A   1      44.846  34.695  28.477  1.00  0.00     0.148 A 
ATOM     87  C   UNL A   1      46.368  35.005  30.819  1.00  0.00     0.002 A 
ATOM     88  C   UNL A   1      45.491  35.898  28.741  1.00  0.00     0.091 A 
ATOM     89  F   UNL A   1      44.084  34.528  27.386  1.00  0.00    -0.205 F 
ATOM     90  C   UNL A   1      46.244  36.059  29.915  1.00  0.00     0.022 A 
BRANCH  88  91
ATOM     91  S   UNL A   1      45.460  37.276  27.587  1.00  0.00     0.127 S 
ATOM     92  O   UNL A   1      44.025  37.512  27.441  1.00  0.00    -0.237 OA
ATOM     93  O   UNL A   1      46.177  38.319  28.323  1.00  0.00    -0.237 OA
ATOM     94  O   UNL A   1      46.147  36.807  26.391  1.00  0.00    -0.744 OA
ENDBRANCH  88  91
ENDBRANCH  61  84
ENDBRANCH  35  36
ENDBRANCH  28  30
ENDBRANCH  27  28
ENDBRANCH  26  27
ENDBRANCH   1  26
TORSDOF 18
ENDMDL
MODEL 2
REMARK VINA RESULT:     -11.9      5.099     10.783
REMARK SMILES O=C(CSc1cc(-c2ccccc2)nc(-c2ccccc2F)n1)OCCOC(=O)c1ccc(-c2c3nc(c(-c4cccc(S(=O)(=O)[O-])c4F)c4ccc([nH]4)c(-c4cccc(S(=O)(=O)[O-])c4F)c4nc(c(-c5cccc(S(=O)(=O)[O-])c5F)c5ccc2[nH]5)C=C4)C=C3)cc1
REMARK SMILES IDX 25 1 24 2 2 3 1 4 3 5 4 6 5 7 6 8 23 9 7 10 15 11 14 12 8 13
REMARK SMILES IDX 9 14 13 15 10 16 12 17 11 18 16 19 17 20 21 21 18 22 20 23
REMARK SMILES IDX 22 24 19 25 26 26 27 27 28 28 29 29 30 30 31 31 92 32 32 33
REMARK SMILES IDX 91 34 33 35 34 36 35 37 85 38 36 39 90 40 84 41 86 42 37 43
REMARK SMILES IDX 89 44 83 45 82 46 38 48 70 49 50 50 69 51 51 52 54 53 68 54
REMARK SMILES IDX 87 55 52 56 53 57 67 59 88 60 55 61 39 62 40 63 48 64 41 65
REMARK SMILES IDX 43 66 49 67 42 68 44 69 45 70 46 71 47 72 71 73 72 74 80 75
REMARK SMILES IDX 73 76 75 77 81 78 74 79 76 80 77 81 78 82 79 83 56 84 57 85
REMARK SMILES IDX 65 86 58 87 60 88 66 89 59 90 61 91 62 92 63 93 64 94
REMARK H PARENT 86 47 54 58
REMARK Flexibility Score: inf
ROOT
ATOM      1  C   UNL A   1      32.598  28.075  25.054  1.00  0.00     0.274 C 
ENDROOT
BRANCH   1   2
ATOM      2  O   UNL A   1      33.380  27.671  23.909  1.00  0.00    -0.461 OA
BRANCH   2   3
ATOM      3  C   UNL A   1      33.316  26.457  23.307  1.00  0.00     0.316 C 
ATOM      4  O   UNL A   1      33.249  26.394  22.080  1.00  0.00    -0.251 OA
BRANCH   3   5
ATOM      5  C   UNL A   1      33.385  25.206  24.158  1.00  0.00     0.199 C 
BRANCH   5   6
ATOM      6  S   UNL A   1      32.699  23.782  23.274  1.00  0.00    -0.094 SA
BRANCH   6   7
ATOM      7  C   UNL A   1      33.716  22.536  24.023  1.00  0.00     0.101 A 
ATOM      8  C   UNL A   1      33.288  21.234  24.024  1.00  0.00     0.064 A 
ATOM      9  N   UNL A   1      34.873  22.935  24.557  1.00  0.00    -0.222 NA
ATOM     10  C   UNL A   1      34.126  20.313  24.615  1.00  0.00     0.075 A 
ATOM     11  C   UNL A   1      35.647  21.968  25.077  1.00  0.00     0.163 A 
ATOM     12  N   UNL A   1      35.314  20.664  25.155  1.00  0.00    -0.228 NA
BRANCH  10  13
ATOM     13  C   UNL A   1      33.752  18.891  24.670  1.00  0.00     0.000 A 
ATOM     14  C   UNL A   1      34.326  17.950  23.801  1.00  0.00     0.010 A 
ATOM     15  C   UNL A   1      32.839  18.422  25.634  1.00  0.00     0.010 A 
ATOM     16  C   UNL A   1      34.017  16.590  23.910  1.00  0.00     0.001 A 
ATOM     17  C   UNL A   1      32.527  17.066  25.744  1.00  0.00     0.001 A 
ATOM     18  C   UNL A   1      33.123  16.149  24.883  1.00  0.00     0.000 A 
ENDBRANCH  10  13
BRANCH  11  19
ATOM     19  C   UNL A   1      36.972  22.389  25.514  1.00  0.00     0.055 A 
ATOM     20  C   UNL A   1      38.043  21.479  25.592  1.00  0.00     0.015 A 
ATOM     21  C   UNL A   1      37.184  23.691  25.981  1.00  0.00     0.134 A 
ATOM     22  C   UNL A   1      39.277  21.867  26.126  1.00  0.00     0.001 A 
ATOM     23  C   UNL A   1      38.404  24.078  26.532  1.00  0.00     0.040 A 
ATOM     24  F   UNL A   1      36.188  24.591  25.950  1.00  0.00    -0.206 F 
ATOM     25  C   UNL A   1      39.452  23.164  26.605  1.00  0.00     0.003 A 
ENDBRANCH  11  19
ENDBRANCH   6   7
ENDBRANCH   5   6
ENDBRANCH   3   5
ENDBRANCH   2   3
ENDBRANCH   1   2
BRANCH   1  26
ATOM     26  C   UNL A   1      32.675  29.586  25.272  1.00  0.00     0.275 C 
BRANCH  26  27
ATOM     27  O   UNL A   1      32.722  29.873  26.680  1.00  0.00    -0.458 OA
BRANCH  27  28
ATOM     28  C   UNL A   1      33.359  31.020  27.031  1.00  0.00     0.338 C 
ATOM     29  O   UNL A   1      32.889  32.144  27.006  1.00  0.00    -0.246 OA
BRANCH  28  30
ATOM     30  C   UNL A   1      34.661  30.679  27.652  1.00  0.00     0.060 A 
ATOM     31  C   UNL A   1      34.929  29.332  27.924  1.00  0.00     0.016 A 
ATOM     32  C   UNL A   1      35.630  31.653  27.922  1.00  0.00     0.016 A 
ATOM     33  C   UNL A   1      36.148  28.961  28.496  1.00  0.00     0.010 A 
ATOM     34  C   UNL A   1      36.851  31.279  28.491  1.00  0.00     0.010 A 
ATOM     35  C   UNL A   1      37.108  29.934  28.806  1.00  0.00    -0.014 A 
BRANCH  35  36
ATOM     36  C   UNL A   1      38.336  29.560  29.553  1.00  0.00     0.031 A 
ATOM     37  C   UNL A   1      38.525  30.065  30.958  1.00  0.00     0.074 A 
ATOM     38  C   UNL A   1      39.285  28.795  28.983  1.00  0.00     0.049 A 
ATOM     39  N   UNL A   1      39.500  29.829  31.797  1.00  0.00    -0.248 NA
ATOM     40  C   UNL A   1      37.482  30.963  31.485  1.00  0.00     0.031 C 
ATOM     41  C   UNL A   1      39.251  28.279  27.616  1.00  0.00     0.029 A 
ATOM     42  N   UNL A   1      40.479  28.339  29.485  1.00  0.00    -0.354 N 
ATOM     43  C   UNL A   1      39.196  30.551  32.944  1.00  0.00     0.074 A 
ATOM     44  C   UNL A   1      37.959  31.256  32.686  1.00  0.00     0.031 C 
ATOM     45  C   UNL A   1      40.385  27.595  27.381  1.00  0.00     0.029 A 
ATOM     46  C   UNL A   1      41.222  27.619  28.580  1.00  0.00     0.049 A 
ATOM     47  H   UNL A   1      40.777  28.512  30.408  1.00  0.00     0.167 HD
ATOM     48  C   UNL A   1      39.869  30.605  34.118  1.00  0.00     0.034 A 
ATOM     49  C   UNL A   1      42.436  27.045  28.704  1.00  0.00     0.034 A 
ATOM     50  C   UNL A   1      41.090  29.896  34.390  1.00  0.00     0.049 A 
ATOM     51  C   UNL A   1      43.162  27.120  30.025  1.00  0.00     0.074 A 
ATOM     52  C   UNL A   1      41.812  29.850  35.571  1.00  0.00     0.029 A 
ATOM     53  N   UNL A   1      41.778  29.123  33.470  1.00  0.00    -0.354 N 
ATOM     54  N   UNL A   1      42.776  27.663  31.154  1.00  0.00    -0.248 NA
ATOM     55  C   UNL A   1      44.480  26.469  30.096  1.00  0.00     0.031 C 
ATOM     56  C   UNL A   1      42.947  29.059  35.358  1.00  0.00     0.029 A 
ATOM     57  C   UNL A   1      42.922  28.602  34.052  1.00  0.00     0.049 A 
ATOM     58  H   UNL A   1      41.495  28.966  32.541  1.00  0.00     0.167 HD
ATOM     59  C   UNL A   1      43.784  27.390  32.074  1.00  0.00     0.074 A 
ATOM     60  C   UNL A   1      44.784  26.609  31.380  1.00  0.00     0.031 C 
ATOM     61  C   UNL A   1      43.883  27.772  33.373  1.00  0.00     0.034 A 
BRANCH  48  62
ATOM     62  C   UNL A   1      39.266  31.421  35.229  1.00  0.00     0.023 A 
ATOM     63  C   UNL A   1      38.320  30.822  36.086  1.00  0.00     0.012 A 
ATOM     64  C   UNL A   1      39.679  32.745  35.469  1.00  0.00     0.148 A 
ATOM     65  C   UNL A   1      37.777  31.537  37.153  1.00  0.00     0.002 A 
ATOM     66  C   UNL A   1      39.161  33.438  36.557  1.00  0.00     0.091 A 
ATOM     67  F   UNL A   1      40.562  33.303  34.627  1.00  0.00    -0.205 F 
ATOM     68  C   UNL A   1      38.205  32.838  37.394  1.00  0.00     0.022 A 
BRANCH  66  69
ATOM     69  S   UNL A   1      39.697  35.096  36.993  1.00  0.00     0.127 S 
ATOM     70  O   UNL A   1      39.282  35.859  35.817  1.00  0.00    -0.237 OA
ATOM     71  O   UNL A   1      38.916  35.365  38.202  1.00  0.00    -0.237 OA
ATOM     72  O   UNL A   1      41.135  35.011  37.207  1.00  0.00    -0.744 OA
ENDBRANCH  66  69
ENDBRANCH  48  62
BRANCH  49  73
ATOM     73  C   UNL A   1      43.028  26.285  27.567  1.00  0.00     0.023 A 
ATOM     74  C   UNL A   1      43.762  26.978  26.583  1.00  0.00     0.012 A 
ATOM     75  C   UNL A   1      42.852  24.894  27.441  1.00  0.00     0.148 A 
ATOM     76  C   UNL A   1      44.276  26.306  25.474  1.00  0.00     0.002 A 
ATOM     77  C   UNL A   1      43.416  24.222  26.361  1.00  0.00     0.091 A 
ATOM     78  F   UNL A   1      42.127  24.257  28.370  1.00  0.00    -0.205 F 
ATOM     79  C   UNL A   1      44.113  24.927  25.369  1.00  0.00     0.022 A 
BRANCH  77  80
ATOM     80  S   UNL A   1      43.344  22.435  26.207  1.00  0.00     0.127 S 
ATOM     81  O   UNL A   1      42.667  22.273  24.923  1.00  0.00    -0.237 OA
ATOM     82  O   UNL A   1      44.762  22.072  26.205  1.00  0.00    -0.237 OA
ATOM     83  O   UNL A   1      42.610  21.974  27.378  1.00  0.00    -0.744 OA
ENDBRANCH  77  80
ENDBRANCH  49  73
BRANCH  61  84
ATOM     84  C   UNL A   1      45.101  27.333  34.145  1.00  0.00     0.023 A 
ATOM     85  C   UNL A   1      46.233  28.170  34.195  1.00  0.00     0.012 A 
ATOM     86  C   UNL A   1      45.099  26.131  34.882  1.00  0.00     0.148 A 
ATOM     87  C   UNL A   1      47.356  27.803  34.937  1.00  0.00     0.002 A 
ATOM     88  C   UNL A   1      46.204  25.793  35.656  1.00  0.00     0.091 A 
ATOM     89  F   UNL A   1      44.021  25.336  34.809  1.00  0.00    -0.205 F 
ATOM     90  C   UNL A   1      47.337  26.622  35.676  1.00  0.00     0.022 A 
BRANCH  88  91
ATOM     91  S   UNL A   1      46.228  24.338  36.710  1.00  0.00     0.127 S 
ATOM     92  O   UNL A   1      46.137  23.257  35.731  1.00  0.00    -0.237 OA
ATOM     93  O   UNL A   1      47.528  24.452  37.374  1.00  0.00    -0.237 OA
ATOM     94  O   UNL A   1      45.085  24.477  37.603  1.00  0.00    -0.744 OA
ENDBRANCH  88  91
ENDBRANCH  61  84
ENDBRANCH  35  36
ENDBRANCH  28  30
ENDBRANCH  27  28
ENDBRANCH  26  27
ENDBRANCH   1  26
TORSDOF 18
ENDMDL
MODEL 3
REMARK VINA RESULT:     -11.8      1.538      3.261
REMARK SMILES O=C(CSc1cc(-c2ccccc2)nc(-c2ccccc2F)n1)OCCOC(=O)c1ccc(-c2c3nc(c(-c4cccc(S(=O)(=O)[O-])c4F)c4ccc([nH]4)c(-c4cccc(S(=O)(=O)[O-])c4F)c4nc(c(-c5cccc(S(=O)(=O)[O-])c5F)c5ccc2[nH]5)C=C4)C=C3)cc1
REMARK SMILES IDX 25 1 24 2 2 3 1 4 3 5 4 6 5 7 6 8 23 9 7 10 15 11 14 12 8 13
REMARK SMILES IDX 9 14 13 15 10 16 12 17 11 18 16 19 17 20 21 21 18 22 20 23
REMARK SMILES IDX 22 24 19 25 26 26 27 27 28 28 29 29 30 30 31 31 92 32 32 33
REMARK SMILES IDX 91 34 33 35 34 36 35 37 85 38 36 39 90 40 84 41 86 42 37 43
REMARK SMILES IDX 89 44 83 45 82 46 38 48 70 49 50 50 69 51 51 52 54 53 68 54
REMARK SMILES IDX 87 55 52 56 53 57 67 59 88 60 55 61 39 62 40 63 48 64 41 65
REMARK SMILES IDX 43 66 49 67 42 68 44 69 45 70 46 71 47 72 71 73 72 74 80 75
REMARK SMILES IDX 73 76 75 77 81 78 74 79 76 80 77 81 78 82 79 83 56 84 57 85
REMARK SMILES IDX 65 86 58 87 60 88 66 89 59 90 61 91 62 92 63 93 64 94
REMARK H PARENT 86 47 54 58
REMARK Flexibility Score: inf
ROOT
ATOM      1  C   UNL A   1      35.108  21.457  24.757  1.00  0.00     0.274 C 
ENDROOT
BRANCH   1   2
ATOM      2  O   UNL A   1      34.252  22.478  25.312  1.00  0.00    -0.461 OA
BRANCH   2   3
ATOM      3  C   UNL A   1      34.212  23.772  24.904  1.00  0.00     0.316 C 
ATOM      4  O   UNL A   1      35.170  24.508  25.138  1.00  0.00    -0.251 OA
BRANCH   3   5
ATOM      5  C   UNL A   1      33.011  24.264  24.122  1.00  0.00     0.199 C 
BRANCH   5   6
ATOM      6  S   UNL A   1      31.630  24.647  25.228  1.00  0.00    -0.094 SA
BRANCH   6   7
ATOM      7  C   UNL A   1      31.614  26.404  24.975  1.00  0.00     0.101 A 
ATOM      8  C   UNL A   1      30.666  26.953  24.153  1.00  0.00     0.064 A 
ATOM      9  N   UNL A   1      32.545  27.118  25.613  1.00  0.00    -0.222 NA
ATOM     10  C   UNL A   1      30.703  28.323  24.002  1.00  0.00     0.075 A 
ATOM     11  C   UNL A   1      32.486  28.450  25.442  1.00  0.00     0.163 A 
ATOM     12  N   UNL A   1      31.614  29.092  24.638  1.00  0.00    -0.228 NA
BRANCH  10  13
ATOM     13  C   UNL A   1      29.729  29.005  23.136  1.00  0.00     0.000 A 
ATOM     14  C   UNL A   1      28.347  28.832  23.312  1.00  0.00     0.010 A 
ATOM     15  C   UNL A   1      30.156  29.896  22.131  1.00  0.00     0.010 A 
ATOM     16  C   UNL A   1      27.430  29.542  22.530  1.00  0.00     0.001 A 
ATOM     17  C   UNL A   1      29.242  30.604  21.349  1.00  0.00     0.001 A 
ATOM     18  C   UNL A   1      27.877  30.429  21.554  1.00  0.00     0.000 A 
ENDBRANCH  10  13
BRANCH  11  19
ATOM     19  C   UNL A   1      33.401  29.231  26.263  1.00  0.00     0.055 A 
ATOM     20  C   UNL A   1      34.646  28.716  26.669  1.00  0.00     0.015 A 
ATOM     21  C   UNL A   1      33.012  30.477  26.769  1.00  0.00     0.134 A 
ATOM     22  C   UNL A   1      35.463  29.428  27.554  1.00  0.00     0.001 A 
ATOM     23  C   UNL A   1      33.812  31.181  27.666  1.00  0.00     0.040 A 
ATOM     24  F   UNL A   1      31.823  31.002  26.431  1.00  0.00    -0.206 F 
ATOM     25  C   UNL A   1      35.040  30.655  28.060  1.00  0.00     0.003 A 
ENDBRANCH  11  19
ENDBRANCH   6   7
ENDBRANCH   5   6
ENDBRANCH   3   5
ENDBRANCH   2   3
ENDBRANCH   1   2
BRANCH   1  26
ATOM     26  C   UNL A   1      36.268  21.136  25.699  1.00  0.00     0.275 C 
BRANCH  26  27
ATOM     27  O   UNL A   1      37.478  21.733  25.202  1.00  0.00    -0.458 OA
BRANCH  27  28
ATOM     28  C   UNL A   1      38.618  21.403  25.862  1.00  0.00     0.338 C 
ATOM     29  O   UNL A   1      39.152  20.308  25.880  1.00  0.00    -0.246 OA
BRANCH  28  30
ATOM     30  C   UNL A   1      39.239  22.637  26.401  1.00  0.00     0.060 A 
ATOM     31  C   UNL A   1      38.722  23.870  25.985  1.00  0.00     0.016 A 
ATOM     32  C   UNL A   1      40.281  22.594  27.335  1.00  0.00     0.016 A 
ATOM     33  C   UNL A   1      39.266  25.060  26.476  1.00  0.00     0.010 A 
ATOM     34  C   UNL A   1      40.821  23.787  27.828  1.00  0.00     0.010 A 
ATOM     35  C   UNL A   1      40.335  25.027  27.382  1.00  0.00    -0.014 A 
BRANCH  35  36
ATOM     36  C   UNL A   1      41.012  26.286  27.783  1.00  0.00     0.031 A 
ATOM     37  C   UNL A   1      42.435  26.524  27.356  1.00  0.00     0.074 A 
ATOM     38  C   UNL A   1      40.377  27.202  28.538  1.00  0.00     0.049 A 
ATOM     39  N   UNL A   1      43.197  27.567  27.565  1.00  0.00    -0.248 NA
ATOM     40  C   UNL A   1      43.090  25.442  26.601  1.00  0.00     0.031 C 
ATOM     41  C   UNL A   1      39.017  27.076  29.059  1.00  0.00     0.029 A 
ATOM     42  N   UNL A   1      40.810  28.415  29.015  1.00  0.00    -0.354 N 
ATOM     43  C   UNL A   1      44.420  27.266  26.978  1.00  0.00     0.074 A 
ATOM     44  C   UNL A   1      44.309  25.932  26.426  1.00  0.00     0.031 C 
ATOM     45  C   UNL A   1      38.736  28.160  29.804  1.00  0.00     0.029 A 
ATOM     46  C   UNL A   1      39.890  29.058  29.808  1.00  0.00     0.049 A 
ATOM     47  H   UNL A   1      41.697  28.789  28.810  1.00  0.00     0.167 HD
ATOM     48  C   UNL A   1      45.529  28.037  26.881  1.00  0.00     0.034 A 
ATOM     49  C   UNL A   1      39.969  30.236  30.461  1.00  0.00     0.034 A 
ATOM     50  C   UNL A   1      45.645  29.368  27.411  1.00  0.00     0.049 A 
ATOM     51  C   UNL A   1      41.217  31.074  30.334  1.00  0.00     0.074 A 
ATOM     52  C   UNL A   1      46.713  30.242  27.312  1.00  0.00     0.029 A 
ATOM     53  N   UNL A   1      44.667  30.012  28.152  1.00  0.00    -0.354 N 
ATOM     54  N   UNL A   1      42.299  30.848  29.629  1.00  0.00    -0.248 NA
ATOM     55  C   UNL A   1      41.238  32.350  31.067  1.00  0.00     0.031 C 
ATOM     56  C   UNL A   1      46.387  31.412  28.007  1.00  0.00     0.029 A 
ATOM     57  C   UNL A   1      45.110  31.271  28.525  1.00  0.00     0.049 A 
ATOM     58  H   UNL A   1      43.788  29.633  28.377  1.00  0.00     0.167 HD
ATOM     59  C   UNL A   1      43.111  31.965  29.806  1.00  0.00     0.074 A 
ATOM     60  C   UNL A   1      42.384  32.879  30.661  1.00  0.00     0.031 C 
ATOM     61  C   UNL A   1      44.357  32.203  29.322  1.00  0.00     0.034 A 
BRANCH  48  62
ATOM     62  C   UNL A   1      46.700  27.478  26.119  1.00  0.00     0.023 A 
ATOM     63  C   UNL A   1      46.766  27.669  24.724  1.00  0.00     0.012 A 
ATOM     64  C   UNL A   1      47.760  26.831  26.782  1.00  0.00     0.148 A 
ATOM     65  C   UNL A   1      47.861  27.205  23.995  1.00  0.00     0.002 A 
ATOM     66  C   UNL A   1      48.865  26.403  26.053  1.00  0.00     0.091 A 
ATOM     67  F   UNL A   1      47.665  26.638  28.105  1.00  0.00    -0.205 F 
ATOM     68  C   UNL A   1      48.912  26.583  24.661  1.00  0.00     0.022 A 
BRANCH  66  69
ATOM     69  S   UNL A   1      50.302  25.651  26.825  1.00  0.00     0.127 S 
ATOM     70  O   UNL A   1      51.185  25.456  25.676  1.00  0.00    -0.237 OA
ATOM     71  O   UNL A   1      50.734  26.694  27.756  1.00  0.00    -0.237 OA
ATOM     72  O   UNL A   1      49.825  24.431  27.460  1.00  0.00    -0.744 OA
ENDBRANCH  66  69
ENDBRANCH  48  62
BRANCH  49  73
ATOM     73  C   UNL A   1      38.807  30.737  31.249  1.00  0.00     0.023 A 
ATOM     74  C   UNL A   1      38.634  30.298  32.577  1.00  0.00     0.012 A 
ATOM     75  C   UNL A   1      37.867  31.622  30.690  1.00  0.00     0.148 A 
ATOM     76  C   UNL A   1      37.525  30.701  33.321  1.00  0.00     0.002 A 
ATOM     77  C   UNL A   1      36.793  32.063  31.457  1.00  0.00     0.091 A 
ATOM     78  F   UNL A   1      38.031  32.006  29.416  1.00  0.00    -0.205 F 
ATOM     79  C   UNL A   1      36.610  31.592  32.765  1.00  0.00     0.022 A 
BRANCH  77  80
ATOM     80  S   UNL A   1      35.630  33.292  30.854  1.00  0.00     0.127 S 
ATOM     81  O   UNL A   1      36.120  33.526  29.498  1.00  0.00    -0.237 OA
ATOM     82  O   UNL A   1      34.358  32.573  30.934  1.00  0.00    -0.237 OA
ATOM     83  O   UNL A   1      35.742  34.415  31.775  1.00  0.00    -0.744 OA
ENDBRANCH  77  80
ENDBRANCH  49  73
BRANCH  61  84
ATOM     84  C   UNL A   1      45.013  33.512  29.679  1.00  0.00     0.023 A 
ATOM     85  C   UNL A   1      45.837  33.590  30.819  1.00  0.00     0.012 A 
ATOM     86  C   UNL A   1      44.875  34.643  28.848  1.00  0.00     0.148 A 
ATOM     87  C   UNL A   1      46.487  34.781  31.146  1.00  0.00     0.002 A 
ATOM     88  C   UNL A   1      45.562  35.812  29.155  1.00  0.00     0.091 A 
ATOM     89  F   UNL A   1      44.072  34.558  27.778  1.00  0.00    -0.205 F 
ATOM     90  C   UNL A   1      46.360  35.886  30.309  1.00  0.00     0.022 A 
BRANCH  88  91
ATOM     91  S   UNL A   1      45.528  37.255  28.083  1.00  0.00     0.127 S 
ATOM     92  O   UNL A   1      44.119  37.636  28.140  1.00  0.00    -0.237 OA
ATOM     93  O   UNL A   1      46.438  38.176  28.765  1.00  0.00    -0.237 OA
ATOM     94  O   UNL A   1      46.004  36.794  26.785  1.00  0.00    -0.744 OA
ENDBRANCH  88  91
ENDBRANCH  61  84
ENDBRANCH  35  36
ENDBRANCH  28  30
ENDBRANCH  27  28
ENDBRANCH  26  27
ENDBRANCH   1  26
TORSDOF 18
ENDMDL
