MODEL 1
REMARK VINA RESULT:     -11.6      0.000      0.000
REMARK SMILES C[C@@H](C(=O)OCCOC(=O)c1ccc(-c2c3nc(c(-c4cccc(S(=O)(=O)[O-])c4F)c4ccc([nH]4)c(-c4cccc(S(=O)(=O)[O-])c4F)c4nc(c(-c5cccc(S(=O)(=O)[O-])c5F)c5ccc2[nH]5)C=C4)C=C3)cc1)c1ccc(C[C@H]2CCCC2=O)cc1I
REMARK SMILES IDX 6 1 5 2 3 3 4 4 2 5 1 6 74 7 75 8 86 9 76 10 85 11 87 12
REMARK SMILES IDX 77 13 78 14 79 15 80 16 83 17 81 18 82 19 84 20 7 21 8 22
REMARK SMILES IDX 9 23 10 24 11 25 12 26 73 27 13 28 72 29 14 30 15 31 16 32
REMARK SMILES IDX 66 33 17 34 71 35 65 36 67 37 18 38 70 39 64 40 63 41 19 43
REMARK SMILES IDX 51 44 31 45 50 46 32 47 35 48 49 49 68 50 33 51 34 52 48 54
REMARK SMILES IDX 69 55 36 56 20 57 21 58 29 59 22 60 24 61 30 62 23 63 25 64
REMARK SMILES IDX 26 65 27 66 28 67 52 68 53 69 61 70 54 71 56 72 62 73 55 74
REMARK SMILES IDX 57 75 58 76 59 77 60 78 37 79 38 80 46 81 39 82 41 83 47 84
REMARK SMILES IDX 40 85 42 86 43 87 44 88 45 89
REMARK H PARENT 67 42 35 53
REMARK Flexibility Score: inf
ROOT
ATOM      1  C   UNL A   1      33.010  27.677  25.079  1.00  0.00     0.274 C 
ENDROOT
BRANCH   1   2
ATOM      2  O   UNL A   1      32.081  26.743  24.489  1.00  0.00    -0.462 OA
BRANCH   2   3
ATOM      3  C   UNL A   1      32.359  25.418  24.674  1.00  0.00     0.313 C 
ATOM      4  O   UNL A   1      31.945  24.765  25.624  1.00  0.00    -0.252 OA
BRANCH   3   5
ATOM      5  C   UNL A   1      33.340  24.894  23.607  1.00  0.00     0.127 C 
ATOM      6  C   UNL A   1      32.957  25.374  22.202  1.00  0.00     0.025 C 
BRANCH   5   7
ATOM      7  C   UNL A   1      33.502  23.373  23.723  1.00  0.00    -0.021 A 
ATOM      8  C   UNL A   1      32.528  22.519  23.171  1.00  0.00     0.006 A 
ATOM      9  C   UNL A   1      34.521  22.772  24.491  1.00  0.00     0.017 A 
ATOM     10  C   UNL A   1      32.507  21.148  23.458  1.00  0.00     0.004 A 
ATOM     11  C   UNL A   1      34.512  21.393  24.755  1.00  0.00     0.018 A 
ATOM     12  I   UNL A   1      36.103  23.842  25.383  1.00  0.00    -0.044 I 
ATOM     13  C   UNL A   1      33.473  20.581  24.296  1.00  0.00    -0.046 A 
BRANCH  13  14
ATOM     14  C   UNL A   1      33.324  19.159  24.811  1.00  0.00     0.047 C 
BRANCH  14  15
ATOM     15  C   UNL A   1      34.213  18.108  24.110  1.00  0.00     0.060 C 
ATOM     16  C   UNL A   1      35.136  17.269  24.997  1.00  0.00     0.012 C 
ATOM     17  C   UNL A   1      33.325  17.077  23.494  1.00  0.00     0.136 C 
ATOM     18  C   UNL A   1      34.623  15.829  25.014  1.00  0.00     0.009 C 
ATOM     19  C   UNL A   1      33.291  15.803  24.295  1.00  0.00     0.076 C 
ATOM     20  O   UNL A   1      32.587  17.352  22.556  1.00  0.00    -0.299 OA
ENDBRANCH  14  15
ENDBRANCH  13  14
ENDBRANCH   5   7
ENDBRANCH   3   5
ENDBRANCH   2   3
ENDBRANCH   1   2
BRANCH   1  21
ATOM     21  C   UNL A   1      32.328  28.959  25.566  1.00  0.00     0.275 C 
BRANCH  21  22
ATOM     22  O   UNL A   1      33.236  30.079  25.591  1.00  0.00    -0.458 OA
BRANCH  22  23
ATOM     23  C   UNL A   1      33.223  30.811  26.731  1.00  0.00     0.338 C 
ATOM     24  O   UNL A   1      32.244  31.323  27.251  1.00  0.00    -0.246 OA
BRANCH  23  25
ATOM     25  C   UNL A   1      34.543  30.760  27.395  1.00  0.00     0.060 A 
ATOM     26  C   UNL A   1      34.975  29.497  27.774  1.00  0.00     0.016 A 
ATOM     27  C   UNL A   1      35.324  31.879  27.712  1.00  0.00     0.016 A 
ATOM     28  C   UNL A   1      36.191  29.346  28.433  1.00  0.00     0.010 A 
ATOM     29  C   UNL A   1      36.568  31.715  28.369  1.00  0.00     0.010 A 
ATOM     30  C   UNL A   1      37.032  30.437  28.714  1.00  0.00    -0.014 A 
BRANCH  30  31
ATOM     31  C   UNL A   1      38.345  30.147  29.386  1.00  0.00     0.031 A 
ATOM     32  C   UNL A   1      38.472  30.363  30.873  1.00  0.00     0.074 A 
ATOM     33  C   UNL A   1      39.339  29.472  28.761  1.00  0.00     0.049 A 
ATOM     34  N   UNL A   1      39.423  29.988  31.692  1.00  0.00    -0.248 NA
ATOM     35  C   UNL A   1      37.381  31.111  31.518  1.00  0.00     0.031 C 
ATOM     36  C   UNL A   1      39.347  29.097  27.354  1.00  0.00     0.029 A 
ATOM     37  N   UNL A   1      40.469  28.855  29.269  1.00  0.00    -0.354 N 
ATOM     38  C   UNL A   1      39.081  30.511  32.931  1.00  0.00     0.074 A 
ATOM     39  C   UNL A   1      37.793  31.156  32.776  1.00  0.00     0.031 C 
ATOM     40  C   UNL A   1      40.299  28.169  27.153  1.00  0.00     0.029 A 
ATOM     41  C   UNL A   1      41.045  27.953  28.393  1.00  0.00     0.049 A 
ATOM     42  H   UNL A   1      40.829  29.041  30.167  1.00  0.00     0.167 HD
ATOM     43  C   UNL A   1      39.798  30.517  34.079  1.00  0.00     0.034 A 
ATOM     44  C   UNL A   1      42.031  27.044  28.573  1.00  0.00     0.034 A 
ATOM     45  C   UNL A   1      41.081  29.900  34.259  1.00  0.00     0.049 A 
ATOM     46  C   UNL A   1      42.797  27.026  29.878  1.00  0.00     0.074 A 
ATOM     47  C   UNL A   1      41.943  30.002  35.338  1.00  0.00     0.029 A 
ATOM     48  N   UNL A   1      41.689  29.060  33.342  1.00  0.00    -0.354 N 
ATOM     49  N   UNL A   1      42.502  27.578  31.027  1.00  0.00    -0.248 NA
ATOM     50  C   UNL A   1      44.070  26.278  29.888  1.00  0.00     0.031 C 
ATOM     51  C   UNL A   1      43.083  29.237  35.065  1.00  0.00     0.029 A 
ATOM     52  C   UNL A   1      42.916  28.639  33.829  1.00  0.00     0.049 A 
ATOM     53  H   UNL A   1      41.307  28.802  32.473  1.00  0.00     0.167 HD
ATOM     54  C   UNL A   1      43.568  27.285  31.876  1.00  0.00     0.074 A 
ATOM     55  C   UNL A   1      44.468  26.424  31.144  1.00  0.00     0.031 C 
ATOM     56  C   UNL A   1      43.806  27.751  33.128  1.00  0.00     0.034 A 
BRANCH  43  57
ATOM     57  C   UNL A   1      39.247  31.345  35.201  1.00  0.00     0.023 A 
ATOM     58  C   UNL A   1      38.318  30.804  36.108  1.00  0.00     0.012 A 
ATOM     59  C   UNL A   1      39.659  32.685  35.336  1.00  0.00     0.148 A 
ATOM     60  C   UNL A   1      37.784  31.600  37.121  1.00  0.00     0.002 A 
ATOM     61  C   UNL A   1      39.150  33.460  36.367  1.00  0.00     0.091 A 
ATOM     62  F   UNL A   1      40.522  33.181  34.436  1.00  0.00    -0.205 F 
ATOM     63  C   UNL A   1      38.205  32.923  37.255  1.00  0.00     0.022 A 
BRANCH  61  64
ATOM     64  S   UNL A   1      39.676  35.153  36.639  1.00  0.00     0.127 S 
ATOM     65  O   UNL A   1      38.957  35.493  37.866  1.00  0.00    -0.237 OA
ATOM     66  O   UNL A   1      41.123  35.005  36.802  1.00  0.00    -0.237 OA
ATOM     67  O   UNL A   1      39.274  35.896  35.453  1.00  0.00    -0.744 OA
ENDBRANCH  61  64
ENDBRANCH  43  57
BRANCH  44  68
ATOM     68  C   UNL A   1      42.382  26.033  27.522  1.00  0.00     0.023 A 
ATOM     69  C   UNL A   1      43.261  26.406  26.480  1.00  0.00     0.012 A 
ATOM     70  C   UNL A   1      41.839  24.737  27.502  1.00  0.00     0.148 A 
ATOM     71  C   UNL A   1      43.560  25.526  25.436  1.00  0.00     0.002 A 
ATOM     72  C   UNL A   1      42.217  23.833  26.512  1.00  0.00     0.091 A 
ATOM     73  F   UNL A   1      40.940  24.398  28.438  1.00  0.00    -0.205 F 
ATOM     74  C   UNL A   1      43.054  24.231  25.461  1.00  0.00     0.022 A 
BRANCH  72  75
ATOM     75  S   UNL A   1      41.752  22.103  26.630  1.00  0.00     0.127 S 
ATOM     76  O   UNL A   1      40.298  22.179  26.722  1.00  0.00    -0.237 OA
ATOM     77  O   UNL A   1      42.263  21.549  25.375  1.00  0.00    -0.237 OA
ATOM     78  O   UNL A   1      42.456  21.623  27.815  1.00  0.00    -0.744 OA
ENDBRANCH  72  75
ENDBRANCH  44  68
BRANCH  56  79
ATOM     79  C   UNL A   1      45.121  27.404  33.781  1.00  0.00     0.023 A 
ATOM     80  C   UNL A   1      46.222  28.268  33.604  1.00  0.00     0.012 A 
ATOM     81  C   UNL A   1      45.251  26.297  34.645  1.00  0.00     0.148 A 
ATOM     82  C   UNL A   1      47.435  28.025  34.250  1.00  0.00     0.002 A 
ATOM     83  C   UNL A   1      46.452  26.083  35.317  1.00  0.00     0.091 A 
ATOM     84  F   UNL A   1      44.202  25.475  34.793  1.00  0.00    -0.205 F 
ATOM     85  C   UNL A   1      47.545  26.941  35.114  1.00  0.00     0.022 A 
BRANCH  83  86
ATOM     86  S   UNL A   1      46.670  24.762  36.517  1.00  0.00     0.127 S 
ATOM     87  O   UNL A   1      46.518  23.572  35.681  1.00  0.00    -0.237 OA
ATOM     88  O   UNL A   1      48.031  24.999  36.998  1.00  0.00    -0.237 OA
ATOM     89  O   UNL A   1      45.632  24.957  37.521  1.00  0.00    -0.744 OA
ENDBRANCH  83  86
ENDBRANCH  56  79
ENDBRANCH  30  31
ENDBRANCH  23  25
ENDBRANCH  22  23
ENDBRANCH  21  22
ENDBRANCH   1  21
TORSDOF 17
ENDMDL
MODEL 2
REMARK VINA RESULT:     -11.5      1.482      7.692
REMARK SMILES C[C@@H](C(=O)OCCOC(=O)c1ccc(-c2c3nc(c(-c4cccc(S(=O)(=O)[O-])c4F)c4ccc([nH]4)c(-c4cccc(S(=O)(=O)[O-])c4F)c4nc(c(-c5cccc(S(=O)(=O)[O-])c5F)c5ccc2[nH]5)C=C4)C=C3)cc1)c1ccc(C[C@H]2CCCC2=O)cc1I
REMARK SMILES IDX 6 1 5 2 3 3 4 4 2 5 1 6 74 7 75 8 86 9 76 10 85 11 87 12
REMARK SMILES IDX 77 13 78 14 79 15 80 16 83 17 81 18 82 19 84 20 7 21 8 22
REMARK SMILES IDX 9 23 10 24 11 25 12 26 73 27 13 28 72 29 14 30 15 31 16 32
REMARK SMILES IDX 66 33 17 34 71 35 65 36 67 37 18 38 70 39 64 40 63 41 19 43
REMARK SMILES IDX 51 44 31 45 50 46 32 47 35 48 49 49 68 50 33 51 34 52 48 54
REMARK SMILES IDX 69 55 36 56 20 57 21 58 29 59 22 60 24 61 30 62 23 63 25 64
REMARK SMILES IDX 26 65 27 66 28 67 52 68 53 69 61 70 54 71 56 72 62 73 55 74
REMARK SMILES IDX 57 75 58 76 59 77 60 78 37 79 38 80 46 81 39 82 41 83 47 84
REMARK SMILES IDX 40 85 42 86 43 87 44 88 45 89
REMARK H PARENT 67 42 35 53
REMARK Flexibility Score: inf
ROOT
ATOM      1  C   UNL A   1      33.469  27.817  24.121  1.00  0.00     0.274 C 
ENDROOT
BRANCH   1   2
ATOM      2  O   UNL A   1      32.547  26.739  23.858  1.00  0.00    -0.462 OA
BRANCH   2   3
ATOM      3  C   UNL A   1      32.929  25.500  24.290  1.00  0.00     0.313 C 
ATOM      4  O   UNL A   1      32.854  25.136  25.457  1.00  0.00    -0.252 OA
BRANCH   3   5
ATOM      5  C   UNL A   1      33.565  24.678  23.152  1.00  0.00     0.127 C 
ATOM      6  C   UNL A   1      32.963  25.040  21.789  1.00  0.00     0.025 C 
BRANCH   5   7
ATOM      7  C   UNL A   1      33.517  23.180  23.476  1.00  0.00    -0.021 A 
ATOM      8  C   UNL A   1      32.329  22.453  23.263  1.00  0.00     0.006 A 
ATOM      9  C   UNL A   1      34.575  22.506  24.122  1.00  0.00     0.017 A 
ATOM     10  C   UNL A   1      32.164  21.155  23.764  1.00  0.00     0.004 A 
ATOM     11  C   UNL A   1      34.414  21.195  24.599  1.00  0.00     0.018 A 
ATOM     12  I   UNL A   1      36.453  23.377  24.515  1.00  0.00    -0.044 I 
ATOM     13  C   UNL A   1      33.191  20.532  24.482  1.00  0.00    -0.046 A 
BRANCH  13  14
ATOM     14  C   UNL A   1      32.942  19.237  25.236  1.00  0.00     0.047 C 
BRANCH  14  15
ATOM     15  C   UNL A   1      32.505  18.041  24.362  1.00  0.00     0.060 C 
ATOM     16  C   UNL A   1      33.109  17.941  22.959  1.00  0.00     0.012 C 
ATOM     17  C   UNL A   1      32.983  16.783  25.013  1.00  0.00     0.136 C 
ATOM     18  C   UNL A   1      34.064  16.747  22.919  1.00  0.00     0.009 C 
ATOM     19  C   UNL A   1      34.197  16.214  24.330  1.00  0.00     0.076 C 
ATOM     20  O   UNL A   1      32.525  16.409  26.085  1.00  0.00    -0.299 OA
ENDBRANCH  14  15
ENDBRANCH  13  14
ENDBRANCH   5   7
ENDBRANCH   3   5
ENDBRANCH   2   3
ENDBRANCH   1   2
BRANCH   1  21
ATOM     21  C   UNL A   1      32.759  29.147  24.396  1.00  0.00     0.275 C 
BRANCH  21  22
ATOM     22  O   UNL A   1      32.475  29.329  25.798  1.00  0.00    -0.458 OA
BRANCH  22  23
ATOM     23  C   UNL A   1      32.860  30.520  26.317  1.00  0.00     0.338 C 
ATOM     24  O   UNL A   1      32.252  31.575  26.233  1.00  0.00    -0.246 OA
BRANCH  23  25
ATOM     25  C   UNL A   1      34.045  30.350  27.184  1.00  0.00     0.060 A 
ATOM     26  C   UNL A   1      34.284  29.055  27.625  1.00  0.00     0.016 A 
ATOM     27  C   UNL A   1      34.872  31.390  27.625  1.00  0.00     0.016 A 
ATOM     28  C   UNL A   1      35.358  28.795  28.470  1.00  0.00     0.010 A 
ATOM     29  C   UNL A   1      35.973  31.115  28.473  1.00  0.00     0.010 A 
ATOM     30  C   UNL A   1      36.247  29.802  28.884  1.00  0.00    -0.014 A 
BRANCH  30  31
ATOM     31  C   UNL A   1      37.400  29.394  29.758  1.00  0.00     0.031 A 
ATOM     32  C   UNL A   1      38.633  28.808  29.120  1.00  0.00     0.074 A 
ATOM     33  C   UNL A   1      37.476  29.752  31.062  1.00  0.00     0.049 A 
ATOM     34  N   UNL A   1      39.815  28.581  29.639  1.00  0.00    -0.248 NA
ATOM     35  C   UNL A   1      38.513  28.416  27.706  1.00  0.00     0.031 C 
ATOM     36  C   UNL A   1      36.419  30.409  31.818  1.00  0.00     0.029 A 
ATOM     37  N   UNL A   1      38.547  29.743  31.939  1.00  0.00    -0.354 N 
ATOM     38  C   UNL A   1      40.553  27.962  28.641  1.00  0.00     0.074 A 
ATOM     39  C   UNL A   1      39.717  27.925  27.459  1.00  0.00     0.031 C 
ATOM     40  C   UNL A   1      36.937  30.911  32.952  1.00  0.00     0.029 A 
ATOM     41  C   UNL A   1      38.345  30.525  33.062  1.00  0.00     0.049 A 
ATOM     42  H   UNL A   1      39.372  29.230  31.780  1.00  0.00     0.167 HD
ATOM     43  C   UNL A   1      41.788  27.412  28.713  1.00  0.00     0.034 A 
ATOM     44  C   UNL A   1      39.195  30.910  34.043  1.00  0.00     0.034 A 
ATOM     45  C   UNL A   1      42.633  27.420  29.874  1.00  0.00     0.049 A 
ATOM     46  C   UNL A   1      40.590  30.326  34.090  1.00  0.00     0.074 A 
ATOM     47  C   UNL A   1      43.824  26.744  30.077  1.00  0.00     0.029 A 
ATOM     48  N   UNL A   1      42.384  28.144  31.026  1.00  0.00    -0.354 N 
ATOM     49  N   UNL A   1      41.257  29.683  33.166  1.00  0.00    -0.248 NA
ATOM     50  C   UNL A   1      41.335  30.494  35.353  1.00  0.00     0.031 C 
ATOM     51  C   UNL A   1      44.288  27.045  31.363  1.00  0.00     0.029 A 
ATOM     52  C   UNL A   1      43.397  27.929  31.947  1.00  0.00     0.049 A 
ATOM     53  H   UNL A   1      41.603  28.724  31.172  1.00  0.00     0.167 HD
ATOM     54  C   UNL A   1      42.474  29.332  33.748  1.00  0.00     0.074 A 
ATOM     55  C   UNL A   1      42.496  29.918  35.069  1.00  0.00     0.031 C 
ATOM     56  C   UNL A   1      43.452  28.535  33.251  1.00  0.00     0.034 A 
BRANCH  43  57
ATOM     57  C   UNL A   1      42.237  26.629  27.516  1.00  0.00     0.023 A 
ATOM     58  C   UNL A   1      42.903  27.261  26.451  1.00  0.00     0.012 A 
ATOM     59  C   UNL A   1      41.973  25.247  27.457  1.00  0.00     0.148 A 
ATOM     60  C   UNL A   1      43.277  26.525  25.326  1.00  0.00     0.002 A 
ATOM     61  C   UNL A   1      42.379  24.517  26.351  1.00  0.00     0.091 A 
ATOM     62  F   UNL A   1      41.307  24.681  28.475  1.00  0.00    -0.205 F 
ATOM     63  C   UNL A   1      43.022  25.155  25.279  1.00  0.00     0.022 A 
BRANCH  61  64
ATOM     64  S   UNL A   1      42.135  22.743  26.235  1.00  0.00     0.127 S 
ATOM     65  O   UNL A   1      40.677  22.646  26.215  1.00  0.00    -0.237 OA
ATOM     66  O   UNL A   1      42.785  22.425  24.962  1.00  0.00    -0.237 OA
ATOM     67  O   UNL A   1      42.784  22.168  27.405  1.00  0.00    -0.744 OA
ENDBRANCH  61  64
ENDBRANCH  43  57
BRANCH  44  68
ATOM     68  C   UNL A   1      38.804  31.918  35.084  1.00  0.00     0.023 A 
ATOM     69  C   UNL A   1      39.005  33.291  34.815  1.00  0.00     0.012 A 
ATOM     70  C   UNL A   1      38.287  31.554  36.338  1.00  0.00     0.148 A 
ATOM     71  C   UNL A   1      38.728  34.264  35.779  1.00  0.00     0.002 A 
ATOM     72  C   UNL A   1      37.923  32.534  37.258  1.00  0.00     0.091 A 
ATOM     73  F   UNL A   1      38.170  30.251  36.636  1.00  0.00    -0.205 F 
ATOM     74  C   UNL A   1      38.167  33.888  36.996  1.00  0.00     0.022 A 
BRANCH  72  75
ATOM     75  S   UNL A   1      37.009  32.100  38.741  1.00  0.00     0.127 S 
ATOM     76  O   UNL A   1      37.819  32.706  39.792  1.00  0.00    -0.237 OA
ATOM     77  O   UNL A   1      35.712  32.741  38.515  1.00  0.00    -0.237 OA
ATOM     78  O   UNL A   1      36.958  30.642  38.716  1.00  0.00    -0.744 OA
ENDBRANCH  72  75
ENDBRANCH  44  68
BRANCH  56  79
ATOM     79  C   UNL A   1      44.611  28.181  34.150  1.00  0.00     0.023 A 
ATOM     80  C   UNL A   1      45.747  29.018  34.162  1.00  0.00     0.012 A 
ATOM     81  C   UNL A   1      44.549  27.097  35.049  1.00  0.00     0.148 A 
ATOM     82  C   UNL A   1      46.810  28.770  35.032  1.00  0.00     0.002 A 
ATOM     83  C   UNL A   1      45.595  26.878  35.941  1.00  0.00     0.091 A 
ATOM     84  F   UNL A   1      43.471  26.301  35.016  1.00  0.00    -0.205 F 
ATOM     85  C   UNL A   1      46.728  27.708  35.928  1.00  0.00     0.022 A 
BRANCH  83  86
ATOM     86  S   UNL A   1      45.550  25.588  37.193  1.00  0.00     0.127 S 
ATOM     87  O   UNL A   1      44.364  25.961  37.962  1.00  0.00    -0.237 OA
ATOM     88  O   UNL A   1      45.397  24.377  36.387  1.00  0.00    -0.237 OA
ATOM     89  O   UNL A   1      46.814  25.681  37.910  1.00  0.00    -0.744 OA
ENDBRANCH  83  86
ENDBRANCH  56  79
ENDBRANCH  30  31
ENDBRANCH  23  25
ENDBRANCH  22  23
ENDBRANCH  21  22
ENDBRANCH   1  21
TORSDOF 17
ENDMDL
MODEL 3
REMARK VINA RESULT:     -11.3      1.711      2.108
REMARK SMILES C[C@@H](C(=O)OCCOC(=O)c1ccc(-c2c3nc(c(-c4cccc(S(=O)(=O)[O-])c4F)c4ccc([nH]4)c(-c4cccc(S(=O)(=O)[O-])c4F)c4nc(c(-c5cccc(S(=O)(=O)[O-])c5F)c5ccc2[nH]5)C=C4)C=C3)cc1)c1ccc(C[C@H]2CCCC2=O)cc1I
REMARK SMILES IDX 6 1 5 2 3 3 4 4 2 5 1 6 74 7 75 8 86 9 76 10 85 11 87 12
REMARK SMILES IDX 77 13 78 14 79 15 80 16 83 17 81 18 82 19 84 20 7 21 8 22
REMARK SMILES IDX 9 23 10 24 11 25 12 26 73 27 13 28 72 29 14 30 15 31 16 32
REMARK SMILES IDX 66 33 17 34 71 35 65 36 67 37 18 38 70 39 64 40 63 41 19 43
REMARK SMILES IDX 51 44 31 45 50 46 32 47 35 48 49 49 68 50 33 51 34 52 48 54
REMARK SMILES IDX 69 55 36 56 20 57 21 58 29 59 22 60 24 61 30 62 23 63 25 64
REMARK SMILES IDX 26 65 27 66 28 67 52 68 53 69 61 70 54 71 56 72 62 73 55 74
REMARK SMILES IDX 57 75 58 76 59 77 60 78 37 79 38 80 46 81 39 82 41 83 47 84
REMARK SMILES IDX 40 85 42 86 43 87 44 88 45 89
REMARK H PARENT 67 42 35 53
REMARK Flexibility Score: inf
ROOT
ATOM      1  C   UNL A   1      32.405  28.485  24.784  1.00  0.00     0.274 C 
ENDROOT
BRANCH   1   2
ATOM      2  O   UNL A   1      32.610  27.108  25.166  1.00  0.00    -0.462 OA
BRANCH   2   3
ATOM      3  C   UNL A   1      31.516  26.447  25.647  1.00  0.00     0.313 C 
ATOM      4  O   UNL A   1      31.277  26.310  26.841  1.00  0.00    -0.252 OA
BRANCH   3   5
ATOM      5  C   UNL A   1      30.699  25.806  24.509  1.00  0.00     0.127 C 
ATOM      6  C   UNL A   1      29.190  25.944  24.749  1.00  0.00     0.025 C 
BRANCH   5   7
ATOM      7  C   UNL A   1      31.160  24.366  24.256  1.00  0.00    -0.021 A 
ATOM      8  C   UNL A   1      30.824  23.349  25.172  1.00  0.00     0.006 A 
ATOM      9  C   UNL A   1      32.041  24.020  23.209  1.00  0.00     0.017 A 
ATOM     10  C   UNL A   1      31.420  22.083  25.112  1.00  0.00     0.004 A 
ATOM     11  C   UNL A   1      32.615  22.741  23.138  1.00  0.00     0.018 A 
ATOM     12  I   UNL A   1      32.656  25.361  21.704  1.00  0.00    -0.044 I 
ATOM     13  C   UNL A   1      32.361  21.783  24.122  1.00  0.00    -0.046 A 
BRANCH  13  14
ATOM     14  C   UNL A   1      33.189  20.512  24.190  1.00  0.00     0.047 C 
BRANCH  14  15
ATOM     15  C   UNL A   1      32.406  19.202  23.952  1.00  0.00     0.060 C 
ATOM     16  C   UNL A   1      32.719  18.423  22.672  1.00  0.00     0.012 C 
ATOM     17  C   UNL A   1      32.776  18.230  25.025  1.00  0.00     0.136 C 
ATOM     18  C   UNL A   1      33.436  17.126  23.050  1.00  0.00     0.009 C 
ATOM     19  C   UNL A   1      33.733  17.178  24.534  1.00  0.00     0.076 C 
ATOM     20  O   UNL A   1      32.465  18.424  26.193  1.00  0.00    -0.299 OA
ENDBRANCH  14  15
ENDBRANCH  13  14
ENDBRANCH   5   7
ENDBRANCH   3   5
ENDBRANCH   2   3
ENDBRANCH   1   2
BRANCH   1  21
ATOM     21  C   UNL A   1      33.291  29.454  25.574  1.00  0.00     0.275 C 
BRANCH  21  22
ATOM     22  O   UNL A   1      32.633  29.944  26.760  1.00  0.00    -0.458 OA
BRANCH  22  23
ATOM     23  C   UNL A   1      33.035  31.167  27.182  1.00  0.00     0.338 C 
ATOM     24  O   UNL A   1      32.345  32.172  27.247  1.00  0.00    -0.246 OA
BRANCH  23  25
ATOM     25  C   UNL A   1      34.399  31.099  27.748  1.00  0.00     0.060 A 
ATOM     26  C   UNL A   1      34.736  29.897  28.354  1.00  0.00     0.016 A 
ATOM     27  C   UNL A   1      35.312  32.160  27.767  1.00  0.00     0.016 A 
ATOM     28  C   UNL A   1      35.986  29.742  28.944  1.00  0.00     0.010 A 
ATOM     29  C   UNL A   1      36.589  31.990  28.356  1.00  0.00     0.010 A 
ATOM     30  C   UNL A   1      36.954  30.762  28.930  1.00  0.00    -0.014 A 
BRANCH  30  31
ATOM     31  C   UNL A   1      38.288  30.463  29.556  1.00  0.00     0.031 A 
ATOM     32  C   UNL A   1      38.470  30.683  31.035  1.00  0.00     0.074 A 
ATOM     33  C   UNL A   1      39.253  29.779  28.897  1.00  0.00     0.049 A 
ATOM     34  N   UNL A   1      39.447  30.304  31.822  1.00  0.00    -0.248 NA
ATOM     35  C   UNL A   1      37.409  31.443  31.717  1.00  0.00     0.031 C 
ATOM     36  C   UNL A   1      39.208  29.399  27.492  1.00  0.00     0.029 A 
ATOM     37  N   UNL A   1      40.396  29.155  29.367  1.00  0.00    -0.354 N 
ATOM     38  C   UNL A   1      39.154  30.833  33.070  1.00  0.00     0.074 A 
ATOM     39  C   UNL A   1      37.866  31.488  32.960  1.00  0.00     0.031 C 
ATOM     40  C   UNL A   1      40.144  28.464  27.260  1.00  0.00     0.029 A 
ATOM     41  C   UNL A   1      40.933  28.246  28.473  1.00  0.00     0.049 A 
ATOM     42  H   UNL A   1      40.789  29.341  30.250  1.00  0.00     0.167 HD
ATOM     43  C   UNL A   1      39.911  30.837  34.192  1.00  0.00     0.034 A 
ATOM     44  C   UNL A   1      41.918  27.329  28.622  1.00  0.00     0.034 A 
ATOM     45  C   UNL A   1      41.195  30.210  34.327  1.00  0.00     0.049 A 
ATOM     46  C   UNL A   1      42.730  27.308  29.898  1.00  0.00     0.074 A 
ATOM     47  C   UNL A   1      42.097  30.308  35.375  1.00  0.00     0.029 A 
ATOM     48  N   UNL A   1      41.763  29.363  33.392  1.00  0.00    -0.354 N 
ATOM     49  N   UNL A   1      42.481  27.867  31.054  1.00  0.00    -0.248 NA
ATOM     50  C   UNL A   1      43.997  26.551  29.865  1.00  0.00     0.031 C 
ATOM     51  C   UNL A   1      43.219  29.533  35.064  1.00  0.00     0.029 A 
ATOM     52  C   UNL A   1      43.003  28.933  33.836  1.00  0.00     0.049 A 
ATOM     53  H   UNL A   1      41.348  29.105  32.538  1.00  0.00     0.167 HD
ATOM     54  C   UNL A   1      43.574  27.568  31.866  1.00  0.00     0.074 A 
ATOM     55  C   UNL A   1      44.441  26.698  31.105  1.00  0.00     0.031 C 
ATOM     56  C   UNL A   1      43.860  28.036  33.107  1.00  0.00     0.034 A 
BRANCH  43  57
ATOM     57  C   UNL A   1      39.408  31.673  35.330  1.00  0.00     0.023 A 
ATOM     58  C   UNL A   1      38.512  31.140  36.274  1.00  0.00     0.012 A 
ATOM     59  C   UNL A   1      39.830  33.012  35.442  1.00  0.00     0.148 A 
ATOM     60  C   UNL A   1      38.021  31.943  37.303  1.00  0.00     0.002 A 
ATOM     61  C   UNL A   1      39.365  33.793  36.488  1.00  0.00     0.091 A 
ATOM     62  F   UNL A   1      40.659  33.499  34.507  1.00  0.00    -0.205 F 
ATOM     63  C   UNL A   1      38.452  33.265  37.414  1.00  0.00     0.022 A 
BRANCH  61  64
ATOM     64  S   UNL A   1      39.908  35.486  36.731  1.00  0.00     0.127 S 
ATOM     65  O   UNL A   1      39.182  35.858  37.944  1.00  0.00    -0.237 OA
ATOM     66  O   UNL A   1      41.351  35.324  36.910  1.00  0.00    -0.237 OA
ATOM     67  O   UNL A   1      39.525  36.210  35.527  1.00  0.00    -0.744 OA
ENDBRANCH  61  64
ENDBRANCH  43  57
BRANCH  44  68
ATOM     68  C   UNL A   1      42.223  26.312  27.562  1.00  0.00     0.023 A 
ATOM     69  C   UNL A   1      43.052  26.680  26.477  1.00  0.00     0.012 A 
ATOM     70  C   UNL A   1      41.684  25.015  27.575  1.00  0.00     0.148 A 
ATOM     71  C   UNL A   1      43.305  25.794  25.427  1.00  0.00     0.002 A 
ATOM     72  C   UNL A   1      42.018  24.105  26.575  1.00  0.00     0.091 A 
ATOM     73  F   UNL A   1      40.829  24.679  28.554  1.00  0.00    -0.205 F 
ATOM     74  C   UNL A   1      42.804  24.497  25.484  1.00  0.00     0.022 A 
BRANCH  72  75
ATOM     75  S   UNL A   1      41.564  22.374  26.726  1.00  0.00     0.127 S 
ATOM     76  O   UNL A   1      42.147  22.013  28.013  1.00  0.00    -0.237 OA
ATOM     77  O   UNL A   1      40.101  22.426  26.704  1.00  0.00    -0.237 OA
ATOM     78  O   UNL A   1      42.149  21.746  25.546  1.00  0.00    -0.744 OA
ENDBRANCH  72  75
ENDBRANCH  44  68
BRANCH  56  79
ATOM     79  C   UNL A   1      45.196  27.680  33.714  1.00  0.00     0.023 A 
ATOM     80  C   UNL A   1      45.294  26.527  34.521  1.00  0.00     0.012 A 
ATOM     81  C   UNL A   1      46.364  28.409  33.414  1.00  0.00     0.148 A 
ATOM     82  C   UNL A   1      46.523  26.120  35.041  1.00  0.00     0.002 A 
ATOM     83  C   UNL A   1      47.594  27.974  33.904  1.00  0.00     0.091 A 
ATOM     84  F   UNL A   1      46.255  29.511  32.659  1.00  0.00    -0.205 F 
ATOM     85  C   UNL A   1      47.673  26.836  34.723  1.00  0.00     0.022 A 
BRANCH  83  86
ATOM     86  S   UNL A   1      49.145  28.779  33.483  1.00  0.00     0.127 S 
ATOM     87  O   UNL A   1      50.110  27.978  34.235  1.00  0.00    -0.237 OA
ATOM     88  O   UNL A   1      49.205  28.601  32.032  1.00  0.00    -0.237 OA
ATOM     89  O   UNL A   1      49.010  30.164  33.916  1.00  0.00    -0.744 OA
ENDBRANCH  83  86
ENDBRANCH  56  79
ENDBRANCH  30  31
ENDBRANCH  23  25
ENDBRANCH  22  23
ENDBRANCH  21  22
ENDBRANCH   1  21
TORSDOF 17
ENDMDL
