MODEL 1
REMARK VINA RESULT:     -10.9      0.000      0.000
REMARK SMILES O=C(CC[NH2+]C[C@H](O)Cn1c2ccccc2c2ccccc21)OCCOC(=O)c1ccc(-c2c3nc(c(-c4cccc(S(=O)(=O)[O-])c4F)c4ccc([nH]4)c(-c4cccc(S(=O)(=O)[O-])c4F)c4nc(c(-c5cccc(S(=O)(=O)[O-])c5F)c5ccc2[nH]5)C=C4)C=C3)cc1
REMARK SMILES IDX 23 1 2 2 1 3 3 4 4 5 5 6 6 9 7 10 9 11 10 12 11 13 22 14
REMARK SMILES IDX 12 15 16 16 17 17 21 18 13 19 15 20 18 21 20 22 14 23 19 24
REMARK SMILES IDX 8 25 24 27 25 28 26 29 27 30 28 31 29 32 30 33 91 34 31 35
REMARK SMILES IDX 90 36 32 37 33 38 34 39 84 40 35 41 89 42 83 43 85 44 36 45
REMARK SMILES IDX 88 46 82 47 81 48 37 50 69 51 49 52 68 53 50 54 53 55 67 56
REMARK SMILES IDX 86 57 51 58 52 59 66 61 87 62 54 63 38 64 39 65 47 66 40 67
REMARK SMILES IDX 42 68 48 69 41 70 43 71 44 72 45 73 46 74 70 75 71 76 79 77
REMARK SMILES IDX 72 78 74 79 80 80 73 81 75 82 76 83 77 84 78 85 55 86 56 87
REMARK SMILES IDX 64 88 57 89 59 90 65 91 58 92 60 93 61 94 62 95 63 96
REMARK H PARENT 5 7 5 8 8 26 85 49 53 60
REMARK Flexibility Score: inf
ROOT
ATOM      1  O   UNL A   1      46.716  21.162  24.738  1.00  0.00    -0.462 OA
ENDROOT
BRANCH   1   2
ATOM      2  C   UNL A   1      46.447  19.836  24.811  1.00  0.00     0.311 C 
ATOM      3  O   UNL A   1      47.233  19.088  25.387  1.00  0.00    -0.252 OA
BRANCH   2   4
ATOM      4  C   UNL A   1      45.297  19.281  23.999  1.00  0.00     0.184 C 
BRANCH   4   5
ATOM      5  C   UNL A   1      43.968  18.771  24.556  1.00  0.00     0.272 C 
BRANCH   5   6
ATOM      6  N   UNL A   1      43.818  18.593  25.998  1.00  0.00    -0.344 N 
ATOM      7  H   UNL A   1      44.299  19.364  26.463  1.00  0.00     0.346 HD
ATOM      8  H   UNL A   1      44.213  17.679  26.218  1.00  0.00     0.346 HD
BRANCH   6   9
ATOM      9  C   UNL A   1      42.421  18.569  26.476  1.00  0.00     0.294 C 
BRANCH   9  10
ATOM     10  C   UNL A   1      42.133  19.750  27.441  1.00  0.00     0.189 C 
BRANCH  10  11
ATOM     11  C   UNL A   1      41.684  20.912  26.579  1.00  0.00     0.160 C 
BRANCH  11  12
ATOM     12  N   UNL A   1      40.385  21.509  26.528  1.00  0.00    -0.338 N 
ATOM     13  C   UNL A   1      40.265  22.783  27.058  1.00  0.00     0.049 A 
ATOM     14  C   UNL A   1      39.232  21.111  25.910  1.00  0.00     0.049 A 
ATOM     15  C   UNL A   1      41.117  23.523  27.905  1.00  0.00     0.027 A 
ATOM     16  C   UNL A   1      39.112  23.307  26.506  1.00  0.00     0.007 A 
ATOM     17  C   UNL A   1      38.400  22.237  25.890  1.00  0.00     0.007 A 
ATOM     18  C   UNL A   1      38.823  19.889  25.366  1.00  0.00     0.027 A 
ATOM     19  C   UNL A   1      40.747  24.813  28.236  1.00  0.00     0.002 A 
ATOM     20  C   UNL A   1      38.867  24.663  26.712  1.00  0.00     0.011 A 
ATOM     21  C   UNL A   1      37.096  22.119  25.367  1.00  0.00     0.011 A 
ATOM     22  C   UNL A   1      37.511  19.784  24.895  1.00  0.00     0.002 A 
ATOM     23  C   UNL A   1      39.640  25.375  27.634  1.00  0.00     0.001 A 
ATOM     24  C   UNL A   1      36.651  20.877  24.911  1.00  0.00     0.001 A 
ENDBRANCH  11  12
ENDBRANCH  10  11
BRANCH  10  25
ATOM     25  O   UNL A   1      41.075  19.286  28.297  1.00  0.00    -0.385 OA
ATOM     26  H   UNL A   1      41.455  18.872  29.087  1.00  0.00     0.211 HD
ENDBRANCH  10  25
ENDBRANCH   9  10
ENDBRANCH   6   9
ENDBRANCH   5   6
ENDBRANCH   4   5
ENDBRANCH   2   4
ENDBRANCH   1   2
BRANCH   1  27
ATOM     27  C   UNL A   1      45.814  22.150  25.245  1.00  0.00     0.274 C 
BRANCH  27  28
ATOM     28  C   UNL A   1      45.244  23.089  24.177  1.00  0.00     0.275 C 
BRANCH  28  29
ATOM     29  O   UNL A   1      44.935  24.390  24.706  1.00  0.00    -0.458 OA
BRANCH  29  30
ATOM     30  C   UNL A   1      43.624  24.621  24.990  1.00  0.00     0.338 C 
ATOM     31  O   UNL A   1      42.726  23.790  24.933  1.00  0.00    -0.246 OA
BRANCH  30  32
ATOM     32  C   UNL A   1      43.499  25.937  25.671  1.00  0.00     0.060 A 
ATOM     33  C   UNL A   1      44.267  26.287  26.788  1.00  0.00     0.016 A 
ATOM     34  C   UNL A   1      42.410  26.734  25.302  1.00  0.00     0.016 A 
ATOM     35  C   UNL A   1      43.820  27.315  27.627  1.00  0.00     0.010 A 
ATOM     36  C   UNL A   1      41.997  27.791  26.116  1.00  0.00     0.010 A 
ATOM     37  C   UNL A   1      42.656  28.047  27.319  1.00  0.00    -0.014 A 
BRANCH  37  38
ATOM     38  C   UNL A   1      42.275  29.185  28.181  1.00  0.00     0.031 A 
ATOM     39  C   UNL A   1      43.209  30.339  28.114  1.00  0.00     0.074 A 
ATOM     40  C   UNL A   1      41.186  29.290  28.978  1.00  0.00     0.049 A 
ATOM     41  N   UNL A   1      43.872  30.872  29.093  1.00  0.00    -0.248 NA
ATOM     42  C   UNL A   1      43.541  30.873  26.787  1.00  0.00     0.031 C 
ATOM     43  C   UNL A   1      40.153  28.280  29.210  1.00  0.00     0.029 A 
ATOM     44  N   UNL A   1      40.775  30.351  29.765  1.00  0.00    -0.354 N 
ATOM     45  C   UNL A   1      44.532  31.950  28.537  1.00  0.00     0.074 A 
ATOM     46  C   UNL A   1      44.418  31.824  27.104  1.00  0.00     0.031 C 
ATOM     47  C   UNL A   1      39.182  28.805  29.989  1.00  0.00     0.029 A 
ATOM     48  C   UNL A   1      39.538  30.168  30.366  1.00  0.00     0.049 A 
ATOM     49  H   UNL A   1      41.313  31.166  29.887  1.00  0.00     0.167 HD
ATOM     50  C   UNL A   1      44.902  33.027  29.273  1.00  0.00     0.034 A 
ATOM     51  C   UNL A   1      38.836  31.031  31.143  1.00  0.00     0.034 A 
ATOM     52  C   UNL A   1      45.014  32.793  30.683  1.00  0.00     0.049 A 
ATOM     53  C   UNL A   1      39.771  31.955  31.872  1.00  0.00     0.074 A 
ATOM     54  C   UNL A   1      45.883  32.104  31.495  1.00  0.00     0.029 A 
ATOM     55  N   UNL A   1      43.952  33.179  31.460  1.00  0.00    -0.354 N 
ATOM     56  N   UNL A   1      40.447  31.701  32.968  1.00  0.00    -0.248 NA
ATOM     57  C   UNL A   1      40.091  33.232  31.246  1.00  0.00     0.031 C 
ATOM     58  C   UNL A   1      45.222  31.937  32.742  1.00  0.00     0.029 A 
ATOM     59  C   UNL A   1      43.957  32.533  32.678  1.00  0.00     0.049 A 
ATOM     60  H   UNL A   1      43.271  33.834  31.183  1.00  0.00     0.167 HD
ATOM     61  C   UNL A   1      41.512  32.603  32.976  1.00  0.00     0.074 A 
ATOM     62  C   UNL A   1      41.148  33.596  31.974  1.00  0.00     0.031 C 
ATOM     63  C   UNL A   1      42.751  32.347  33.521  1.00  0.00     0.034 A 
BRANCH  50  64
ATOM     64  C   UNL A   1      44.807  34.406  28.693  1.00  0.00     0.023 A 
ATOM     65  C   UNL A   1      43.565  35.059  28.638  1.00  0.00     0.012 A 
ATOM     66  C   UNL A   1      45.891  34.982  27.987  1.00  0.00     0.148 A 
ATOM     67  C   UNL A   1      43.420  36.261  27.936  1.00  0.00     0.002 A 
ATOM     68  C   UNL A   1      45.761  36.209  27.358  1.00  0.00     0.091 A 
ATOM     69  F   UNL A   1      47.021  34.278  27.830  1.00  0.00    -0.205 F 
ATOM     70  C   UNL A   1      44.521  36.849  27.316  1.00  0.00     0.022 A 
BRANCH  68  71
ATOM     71  S   UNL A   1      47.173  37.009  26.591  1.00  0.00     0.127 S 
ATOM     72  O   UNL A   1      46.561  38.210  26.032  1.00  0.00    -0.237 OA
ATOM     73  O   UNL A   1      48.053  37.235  27.738  1.00  0.00    -0.237 OA
ATOM     74  O   UNL A   1      47.686  36.038  25.633  1.00  0.00    -0.744 OA
ENDBRANCH  68  71
ENDBRANCH  50  64
BRANCH  51  75
ATOM     75  C   UNL A   1      37.362  31.324  30.996  1.00  0.00     0.023 A 
ATOM     76  C   UNL A   1      36.583  31.557  32.152  1.00  0.00     0.012 A 
ATOM     77  C   UNL A   1      36.756  31.636  29.751  1.00  0.00     0.148 A 
ATOM     78  C   UNL A   1      35.312  32.151  32.077  1.00  0.00     0.002 A 
ATOM     79  C   UNL A   1      35.490  32.215  29.679  1.00  0.00     0.091 A 
ATOM     80  F   UNL A   1      37.437  31.452  28.616  1.00  0.00    -0.205 F 
ATOM     81  C   UNL A   1      34.772  32.496  30.842  1.00  0.00     0.022 A 
BRANCH  79  82
ATOM     82  S   UNL A   1      34.753  32.682  28.102  1.00  0.00     0.127 S 
ATOM     83  O   UNL A   1      33.535  33.378  28.521  1.00  0.00    -0.237 OA
ATOM     84  O   UNL A   1      35.782  33.544  27.528  1.00  0.00    -0.237 OA
ATOM     85  O   UNL A   1      34.504  31.432  27.395  1.00  0.00    -0.744 OA
ENDBRANCH  79  82
ENDBRANCH  51  75
BRANCH  63  86
ATOM     86  C   UNL A   1      42.948  31.494  34.786  1.00  0.00     0.023 A 
ATOM     87  C   UNL A   1      43.263  30.131  34.754  1.00  0.00     0.012 A 
ATOM     88  C   UNL A   1      42.960  32.098  36.065  1.00  0.00     0.148 A 
ATOM     89  C   UNL A   1      43.826  29.460  35.847  1.00  0.00     0.002 A 
ATOM     90  C   UNL A   1      43.406  31.393  37.191  1.00  0.00     0.091 A 
ATOM     91  F   UNL A   1      42.565  33.376  36.170  1.00  0.00    -0.205 F 
ATOM     92  C   UNL A   1      43.925  30.101  37.065  1.00  0.00     0.022 A 
BRANCH  90  93
ATOM     93  S   UNL A   1      43.240  32.007  38.869  1.00  0.00     0.127 S 
ATOM     94  O   UNL A   1      41.790  31.959  39.065  1.00  0.00    -0.237 OA
ATOM     95  O   UNL A   1      43.991  31.021  39.646  1.00  0.00    -0.237 OA
ATOM     96  O   UNL A   1      43.801  33.352  38.862  1.00  0.00    -0.744 OA
ENDBRANCH  90  93
ENDBRANCH  63  86
ENDBRANCH  37  38
ENDBRANCH  30  32
ENDBRANCH  29  30
ENDBRANCH  28  29
ENDBRANCH  27  28
ENDBRANCH   1  27
TORSDOF 21
ENDMDL
MODEL 2
REMARK VINA RESULT:     -10.6      4.639      9.563
REMARK SMILES O=C(CC[NH2+]C[C@H](O)Cn1c2ccccc2c2ccccc21)OCCOC(=O)c1ccc(-c2c3nc(c(-c4cccc(S(=O)(=O)[O-])c4F)c4ccc([nH]4)c(-c4cccc(S(=O)(=O)[O-])c4F)c4nc(c(-c5cccc(S(=O)(=O)[O-])c5F)c5ccc2[nH]5)C=C4)C=C3)cc1
REMARK SMILES IDX 23 1 2 2 1 3 3 4 4 5 5 6 6 9 7 10 9 11 10 12 11 13 22 14
REMARK SMILES IDX 12 15 16 16 17 17 21 18 13 19 15 20 18 21 20 22 14 23 19 24
REMARK SMILES IDX 8 25 24 27 25 28 26 29 27 30 28 31 29 32 30 33 91 34 31 35
REMARK SMILES IDX 90 36 32 37 33 38 34 39 84 40 35 41 89 42 83 43 85 44 36 45
REMARK SMILES IDX 88 46 82 47 81 48 37 50 69 51 49 52 68 53 50 54 53 55 67 56
REMARK SMILES IDX 86 57 51 58 52 59 66 61 87 62 54 63 38 64 39 65 47 66 40 67
REMARK SMILES IDX 42 68 48 69 41 70 43 71 44 72 45 73 46 74 70 75 71 76 79 77
REMARK SMILES IDX 72 78 74 79 80 80 73 81 75 82 76 83 77 84 78 85 55 86 56 87
REMARK SMILES IDX 64 88 57 89 59 90 65 91 58 92 60 93 61 94 62 95 63 96
REMARK H PARENT 5 7 5 8 8 26 85 49 53 60
REMARK Flexibility Score: inf
ROOT
ATOM      1  O   UNL A   1      37.402  20.907  25.665  1.00  0.00    -0.462 OA
ENDROOT
BRANCH   1   2
ATOM      2  C   UNL A   1      37.775  22.209  25.633  1.00  0.00     0.311 C 
ATOM      3  O   UNL A   1      38.915  22.523  25.966  1.00  0.00    -0.252 OA
BRANCH   2   4
ATOM      4  C   UNL A   1      36.717  23.264  25.394  1.00  0.00     0.184 C 
BRANCH   4   5
ATOM      5  C   UNL A   1      35.865  23.411  24.133  1.00  0.00     0.272 C 
BRANCH   5   6
ATOM      6  N   UNL A   1      34.988  24.570  23.994  1.00  0.00    -0.344 N 
ATOM      7  H   UNL A   1      35.483  25.277  23.449  1.00  0.00     0.346 HD
ATOM      8  H   UNL A   1      34.762  24.876  24.940  1.00  0.00     0.346 HD
BRANCH   6   9
ATOM      9  C   UNL A   1      33.700  24.296  23.327  1.00  0.00     0.294 C 
BRANCH   9  10
ATOM     10  C   UNL A   1      33.041  25.603  22.810  1.00  0.00     0.189 C 
BRANCH  10  11
ATOM     11  C   UNL A   1      33.333  26.672  23.844  1.00  0.00     0.160 C 
BRANCH  11  12
ATOM     12  N   UNL A   1      32.459  27.711  24.292  1.00  0.00    -0.338 N 
ATOM     13  C   UNL A   1      32.830  28.381  25.446  1.00  0.00     0.049 A 
ATOM     14  C   UNL A   1      31.366  28.289  23.706  1.00  0.00     0.049 A 
ATOM     15  C   UNL A   1      33.770  28.059  26.447  1.00  0.00     0.027 A 
ATOM     16  C   UNL A   1      32.134  29.575  25.423  1.00  0.00     0.007 A 
ATOM     17  C   UNL A   1      31.133  29.474  24.413  1.00  0.00     0.007 A 
ATOM     18  C   UNL A   1      30.554  27.904  22.634  1.00  0.00     0.027 A 
ATOM     19  C   UNL A   1      33.961  28.961  27.478  1.00  0.00     0.002 A 
ATOM     20  C   UNL A   1      32.484  30.534  26.371  1.00  0.00     0.011 A 
ATOM     21  C   UNL A   1      30.016  30.266  24.079  1.00  0.00     0.011 A 
ATOM     22  C   UNL A   1      29.426  28.681  22.351  1.00  0.00     0.002 A 
ATOM     23  C   UNL A   1      33.331  30.188  27.428  1.00  0.00     0.001 A 
ATOM     24  C   UNL A   1      29.149  29.836  23.074  1.00  0.00     0.001 A 
ENDBRANCH  11  12
ENDBRANCH  10  11
BRANCH  10  25
ATOM     25  O   UNL A   1      33.695  25.883  21.560  1.00  0.00    -0.385 OA
ATOM     26  H   UNL A   1      33.305  25.335  20.861  1.00  0.00     0.211 HD
ENDBRANCH  10  25
ENDBRANCH   9  10
ENDBRANCH   6   9
ENDBRANCH   5   6
ENDBRANCH   4   5
ENDBRANCH   2   4
ENDBRANCH   1   2
BRANCH   1  27
ATOM     27  C   UNL A   1      38.085  19.901  24.911  1.00  0.00     0.274 C 
BRANCH  27  28
ATOM     28  C   UNL A   1      39.252  19.241  25.653  1.00  0.00     0.275 C 
BRANCH  28  29
ATOM     29  O   UNL A   1      40.527  19.619  25.106  1.00  0.00    -0.458 OA
BRANCH  29  30
ATOM     30  C   UNL A   1      41.618  19.254  25.834  1.00  0.00     0.338 C 
ATOM     31  O   UNL A   1      42.306  18.260  25.637  1.00  0.00    -0.246 OA
BRANCH  30  32
ATOM     32  C   UNL A   1      42.029  20.395  26.696  1.00  0.00     0.060 A 
ATOM     33  C   UNL A   1      41.540  20.576  27.995  1.00  0.00     0.016 A 
ATOM     34  C   UNL A   1      42.747  21.424  26.076  1.00  0.00     0.016 A 
ATOM     35  C   UNL A   1      41.609  21.846  28.579  1.00  0.00     0.010 A 
ATOM     36  C   UNL A   1      42.857  22.676  26.684  1.00  0.00     0.010 A 
ATOM     37  C   UNL A   1      42.232  22.919  27.907  1.00  0.00    -0.014 A 
BRANCH  37  38
ATOM     38  C   UNL A   1      42.367  24.217  28.600  1.00  0.00     0.031 A 
ATOM     39  C   UNL A   1      41.335  25.218  28.223  1.00  0.00     0.074 A 
ATOM     40  C   UNL A   1      43.286  24.566  29.530  1.00  0.00     0.049 A 
ATOM     41  N   UNL A   1      41.530  26.394  27.712  1.00  0.00    -0.248 NA
ATOM     42  C   UNL A   1      39.926  24.810  28.304  1.00  0.00     0.031 C 
ATOM     43  C   UNL A   1      44.395  23.755  30.033  1.00  0.00     0.029 A 
ATOM     44  N   UNL A   1      43.419  25.753  30.228  1.00  0.00    -0.354 N 
ATOM     45  C   UNL A   1      40.272  26.958  27.615  1.00  0.00     0.074 A 
ATOM     46  C   UNL A   1      39.316  25.903  27.849  1.00  0.00     0.031 C 
ATOM     47  C   UNL A   1      45.023  24.422  31.026  1.00  0.00     0.029 A 
ATOM     48  C   UNL A   1      44.408  25.734  31.201  1.00  0.00     0.049 A 
ATOM     49  H   UNL A   1      42.859  26.543  30.051  1.00  0.00     0.167 HD
ATOM     50  C   UNL A   1      40.083  28.300  27.618  1.00  0.00     0.034 A 
ATOM     51  C   UNL A   1      44.748  26.704  32.086  1.00  0.00     0.034 A 
ATOM     52  C   UNL A   1      41.226  29.078  27.244  1.00  0.00     0.049 A 
ATOM     53  C   UNL A   1      44.439  28.060  31.515  1.00  0.00     0.074 A 
ATOM     54  C   UNL A   1      41.914  29.310  26.076  1.00  0.00     0.029 A 
ATOM     55  N   UNL A   1      41.963  29.624  28.264  1.00  0.00    -0.354 N 
ATOM     56  N   UNL A   1      45.161  28.748  30.661  1.00  0.00    -0.248 NA
ATOM     57  C   UNL A   1      43.138  28.645  31.816  1.00  0.00     0.031 C 
ATOM     58  C   UNL A   1      43.171  29.856  26.452  1.00  0.00     0.029 A 
ATOM     59  C   UNL A   1      43.234  29.956  27.846  1.00  0.00     0.049 A 
ATOM     60  H   UNL A   1      41.627  29.761  29.179  1.00  0.00     0.167 HD
ATOM     61  C   UNL A   1      44.281  29.646  30.056  1.00  0.00     0.074 A 
ATOM     62  C   UNL A   1      43.101  29.624  30.911  1.00  0.00     0.031 C 
ATOM     63  C   UNL A   1      44.394  30.100  28.760  1.00  0.00     0.034 A 
BRANCH  50  64
ATOM     64  C   UNL A   1      38.904  28.893  28.329  1.00  0.00     0.023 A 
ATOM     65  C   UNL A   1      37.968  29.658  27.615  1.00  0.00     0.012 A 
ATOM     66  C   UNL A   1      38.825  28.900  29.743  1.00  0.00     0.148 A 
ATOM     67  C   UNL A   1      36.968  30.373  28.285  1.00  0.00     0.002 A 
ATOM     68  C   UNL A   1      37.790  29.545  30.397  1.00  0.00     0.091 A 
ATOM     69  F   UNL A   1      39.828  28.370  30.458  1.00  0.00    -0.205 F 
ATOM     70  C   UNL A   1      36.864  30.298  29.673  1.00  0.00     0.022 A 
BRANCH  68  71
ATOM     71  S   UNL A   1      37.606  29.429  32.178  1.00  0.00     0.127 S 
ATOM     72  O   UNL A   1      36.321  30.090  32.384  1.00  0.00    -0.237 OA
ATOM     73  O   UNL A   1      37.602  27.980  32.388  1.00  0.00    -0.237 OA
ATOM     74  O   UNL A   1      38.776  30.103  32.726  1.00  0.00    -0.744 OA
ENDBRANCH  68  71
ENDBRANCH  50  64
BRANCH  51  75
ATOM     75  C   UNL A   1      44.994  26.485  33.559  1.00  0.00     0.023 A 
ATOM     76  C   UNL A   1      46.292  26.681  34.082  1.00  0.00     0.012 A 
ATOM     77  C   UNL A   1      43.945  26.342  34.505  1.00  0.00     0.148 A 
ATOM     78  C   UNL A   1      46.517  26.819  35.462  1.00  0.00     0.002 A 
ATOM     79  C   UNL A   1      44.173  26.468  35.875  1.00  0.00     0.091 A 
ATOM     80  F   UNL A   1      42.689  26.163  34.083  1.00  0.00    -0.205 F 
ATOM     81  C   UNL A   1      45.456  26.730  36.358  1.00  0.00     0.022 A 
BRANCH  79  82
ATOM     82  S   UNL A   1      42.829  26.362  37.070  1.00  0.00     0.127 S 
ATOM     83  O   UNL A   1      42.036  27.552  36.753  1.00  0.00    -0.237 OA
ATOM     84  O   UNL A   1      42.198  25.096  36.707  1.00  0.00    -0.237 OA
ATOM     85  O   UNL A   1      43.460  26.406  38.382  1.00  0.00    -0.744 OA
ENDBRANCH  79  82
ENDBRANCH  51  75
BRANCH  63  86
ATOM     86  C   UNL A   1      45.750  30.357  28.079  1.00  0.00     0.023 A 
ATOM     87  C   UNL A   1      46.418  31.585  28.133  1.00  0.00     0.012 A 
ATOM     88  C   UNL A   1      46.463  29.295  27.475  1.00  0.00     0.148 A 
ATOM     89  C   UNL A   1      47.789  31.710  27.875  1.00  0.00     0.002 A 
ATOM     90  C   UNL A   1      47.803  29.449  27.097  1.00  0.00     0.091 A 
ATOM     91  F   UNL A   1      45.834  28.122  27.301  1.00  0.00    -0.205 F 
ATOM     92  C   UNL A   1      48.493  30.631  27.381  1.00  0.00     0.022 A 
BRANCH  90  93
ATOM     93  S   UNL A   1      48.701  28.235  26.128  1.00  0.00     0.127 S 
ATOM     94  O   UNL A   1      49.983  28.911  25.912  1.00  0.00    -0.237 OA
ATOM     95  O   UNL A   1      48.765  27.088  27.033  1.00  0.00    -0.237 OA
ATOM     96  O   UNL A   1      47.919  28.029  24.916  1.00  0.00    -0.744 OA
ENDBRANCH  90  93
ENDBRANCH  63  86
ENDBRANCH  37  38
ENDBRANCH  30  32
ENDBRANCH  29  30
ENDBRANCH  28  29
ENDBRANCH  27  28
ENDBRANCH   1  27
TORSDOF 21
ENDMDL
MODEL 3
REMARK VINA RESULT:     -10.5      4.589     10.586
REMARK SMILES O=C(CC[NH2+]C[C@H](O)Cn1c2ccccc2c2ccccc21)OCCOC(=O)c1ccc(-c2c3nc(c(-c4cccc(S(=O)(=O)[O-])c4F)c4ccc([nH]4)c(-c4cccc(S(=O)(=O)[O-])c4F)c4nc(c(-c5cccc(S(=O)(=O)[O-])c5F)c5ccc2[nH]5)C=C4)C=C3)cc1
REMARK SMILES IDX 23 1 2 2 1 3 3 4 4 5 5 6 6 9 7 10 9 11 10 12 11 13 22 14
REMARK SMILES IDX 12 15 16 16 17 17 21 18 13 19 15 20 18 21 20 22 14 23 19 24
REMARK SMILES IDX 8 25 24 27 25 28 26 29 27 30 28 31 29 32 30 33 91 34 31 35
REMARK SMILES IDX 90 36 32 37 33 38 34 39 84 40 35 41 89 42 83 43 85 44 36 45
REMARK SMILES IDX 88 46 82 47 81 48 37 50 69 51 49 52 68 53 50 54 53 55 67 56
REMARK SMILES IDX 86 57 51 58 52 59 66 61 87 62 54 63 38 64 39 65 47 66 40 67
REMARK SMILES IDX 42 68 48 69 41 70 43 71 44 72 45 73 46 74 70 75 71 76 79 77
REMARK SMILES IDX 72 78 74 79 80 80 73 81 75 82 76 83 77 84 78 85 55 86 56 87
REMARK SMILES IDX 64 88 57 89 59 90 65 91 58 92 60 93 61 94 62 95 63 96
REMARK H PARENT 5 7 5 8 8 26 85 49 53 60
REMARK Flexibility Score: inf
ROOT
ATOM      1  O   UNL A   1      31.834  29.585  26.834  1.00  0.00    -0.462 OA
ENDROOT
BRANCH   1   2
ATOM      2  C   UNL A   1      31.434  29.428  25.549  1.00  0.00     0.311 C 
ATOM      3  O   UNL A   1      31.042  30.403  24.912  1.00  0.00    -0.252 OA
BRANCH   2   4
ATOM      4  C   UNL A   1      31.279  28.027  25.000  1.00  0.00     0.184 C 
BRANCH   4   5
ATOM      5  C   UNL A   1      30.415  27.620  23.806  1.00  0.00     0.272 C 
BRANCH   5   6
ATOM      6  N   UNL A   1      31.054  27.332  22.525  1.00  0.00    -0.344 N 
ATOM      7  H   UNL A   1      31.061  28.191  21.975  1.00  0.00     0.346 HD
ATOM      8  H   UNL A   1      30.512  26.583  22.096  1.00  0.00     0.346 HD
BRANCH   6   9
ATOM      9  C   UNL A   1      32.441  26.838  22.623  1.00  0.00     0.294 C 
BRANCH   9  10
ATOM     10  C   UNL A   1      32.717  25.717  21.585  1.00  0.00     0.189 C 
BRANCH  10  11
ATOM     11  C   UNL A   1      32.441  24.402  22.287  1.00  0.00     0.160 C 
BRANCH  11  12
ATOM     12  N   UNL A   1      33.109  23.870  23.434  1.00  0.00    -0.338 N 
ATOM     13  C   UNL A   1      32.352  23.727  24.584  1.00  0.00     0.049 A 
ATOM     14  C   UNL A   1      34.354  23.324  23.582  1.00  0.00     0.049 A 
ATOM     15  C   UNL A   1      31.099  24.266  24.947  1.00  0.00     0.027 A 
ATOM     16  C   UNL A   1      33.033  22.814  25.367  1.00  0.00     0.007 A 
ATOM     17  C   UNL A   1      34.335  22.652  24.809  1.00  0.00     0.007 A 
ATOM     18  C   UNL A   1      35.498  23.343  22.776  1.00  0.00     0.027 A 
ATOM     19  C   UNL A   1      30.561  23.901  26.167  1.00  0.00     0.002 A 
ATOM     20  C   UNL A   1      32.378  22.331  26.497  1.00  0.00     0.011 A 
ATOM     21  C   UNL A   1      35.514  22.035  25.275  1.00  0.00     0.011 A 
ATOM     22  C   UNL A   1      36.667  22.764  23.278  1.00  0.00     0.002 A 
ATOM     23  C   UNL A   1      31.191  22.935  26.923  1.00  0.00     0.001 A 
ATOM     24  C   UNL A   1      36.683  22.135  24.518  1.00  0.00     0.001 A 
ENDBRANCH  11  12
ENDBRANCH  10  11
BRANCH  10  25
ATOM     25  O   UNL A   1      31.781  25.954  20.519  1.00  0.00    -0.385 OA
ATOM     26  H   UNL A   1      32.124  25.572  19.697  1.00  0.00     0.211 HD
ENDBRANCH  10  25
ENDBRANCH   9  10
ENDBRANCH   6   9
ENDBRANCH   5   6
ENDBRANCH   4   5
ENDBRANCH   2   4
ENDBRANCH   1   2
BRANCH   1  27
ATOM     27  C   UNL A   1      33.192  29.879  27.177  1.00  0.00     0.274 C 
BRANCH  27  28
ATOM     28  C   UNL A   1      33.463  31.360  27.460  1.00  0.00     0.275 C 
BRANCH  28  29
ATOM     29  O   UNL A   1      34.844  31.609  27.774  1.00  0.00    -0.458 OA
BRANCH  29  30
ATOM     30  C   UNL A   1      35.112  31.928  29.069  1.00  0.00     0.338 C 
ATOM     31  O   UNL A   1      34.341  32.487  29.839  1.00  0.00    -0.246 OA
BRANCH  30  32
ATOM     32  C   UNL A   1      36.351  31.225  29.497  1.00  0.00     0.060 A 
ATOM     33  C   UNL A   1      37.586  31.873  29.618  1.00  0.00     0.016 A 
ATOM     34  C   UNL A   1      36.296  29.827  29.545  1.00  0.00     0.016 A 
ATOM     35  C   UNL A   1      38.761  31.113  29.592  1.00  0.00     0.010 A 
ATOM     36  C   UNL A   1      37.469  29.072  29.570  1.00  0.00     0.010 A 
ATOM     37  C   UNL A   1      38.712  29.706  29.525  1.00  0.00    -0.014 A 
BRANCH  37  38
ATOM     38  C   UNL A   1      39.973  28.940  29.597  1.00  0.00     0.031 A 
ATOM     39  C   UNL A   1      40.499  28.760  30.975  1.00  0.00     0.074 A 
ATOM     40  C   UNL A   1      40.661  28.381  28.574  1.00  0.00     0.049 A 
ATOM     41  N   UNL A   1      41.652  29.138  31.433  1.00  0.00    -0.248 NA
ATOM     42  C   UNL A   1      39.585  28.218  31.990  1.00  0.00     0.031 C 
ATOM     43  C   UNL A   1      40.342  28.447  27.147  1.00  0.00     0.029 A 
ATOM     44  N   UNL A   1      41.819  27.625  28.605  1.00  0.00    -0.354 N 
ATOM     45  C   UNL A   1      41.692  28.679  32.735  1.00  0.00     0.074 A 
ATOM     46  C   UNL A   1      40.356  28.255  33.076  1.00  0.00     0.031 C 
ATOM     47  C   UNL A   1      41.213  27.677  26.459  1.00  0.00     0.029 A 
ATOM     48  C   UNL A   1      42.192  27.104  27.375  1.00  0.00     0.049 A 
ATOM     49  H   UNL A   1      42.333  27.468  29.431  1.00  0.00     0.167 HD
ATOM     50  C   UNL A   1      42.860  28.419  33.372  1.00  0.00     0.034 A 
ATOM     51  C   UNL A   1      43.232  26.284  27.081  1.00  0.00     0.034 A 
ATOM     52  C   UNL A   1      44.010  29.080  32.831  1.00  0.00     0.049 A 
ATOM     53  C   UNL A   1      44.359  26.503  28.052  1.00  0.00     0.074 A 
ATOM     54  C   UNL A   1      44.470  30.375  32.797  1.00  0.00     0.029 A 
ATOM     55  N   UNL A   1      44.811  28.343  31.996  1.00  0.00    -0.354 N 
ATOM     56  N   UNL A   1      45.258  27.460  28.026  1.00  0.00    -0.248 NA
ATOM     57  C   UNL A   1      44.407  25.660  29.240  1.00  0.00     0.031 C 
ATOM     58  C   UNL A   1      45.460  30.423  31.778  1.00  0.00     0.029 A 
ATOM     59  C   UNL A   1      45.597  29.154  31.205  1.00  0.00     0.049 A 
ATOM     60  H   UNL A   1      44.822  27.359  31.964  1.00  0.00     0.167 HD
ATOM     61  C   UNL A   1      45.742  27.561  29.330  1.00  0.00     0.074 A 
ATOM     62  C   UNL A   1      45.284  26.340  29.979  1.00  0.00     0.031 C 
ATOM     63  C   UNL A   1      46.186  28.728  29.912  1.00  0.00     0.034 A 
BRANCH  50  64
ATOM     64  C   UNL A   1      42.969  27.243  34.296  1.00  0.00     0.023 A 
ATOM     65  C   UNL A   1      42.771  27.417  35.676  1.00  0.00     0.012 A 
ATOM     66  C   UNL A   1      43.490  26.004  33.853  1.00  0.00     0.148 A 
ATOM     67  C   UNL A   1      43.049  26.380  36.574  1.00  0.00     0.002 A 
ATOM     68  C   UNL A   1      43.691  24.957  34.735  1.00  0.00     0.091 A 
ATOM     69  F   UNL A   1      43.900  25.882  32.582  1.00  0.00    -0.205 F 
ATOM     70  C   UNL A   1      43.486  25.143  36.103  1.00  0.00     0.022 A 
BRANCH  68  71
ATOM     71  S   UNL A   1      44.210  23.342  34.151  1.00  0.00     0.127 S 
ATOM     72  O   UNL A   1      44.242  22.577  35.394  1.00  0.00    -0.237 OA
ATOM     73  O   UNL A   1      43.128  22.990  33.231  1.00  0.00    -0.237 OA
ATOM     74  O   UNL A   1      45.493  23.568  33.497  1.00  0.00    -0.744 OA
ENDBRANCH  68  71
ENDBRANCH  50  64
BRANCH  51  75
ATOM     75  C   UNL A   1      43.145  25.055  26.209  1.00  0.00     0.023 A 
ATOM     76  C   UNL A   1      44.067  24.889  25.150  1.00  0.00     0.012 A 
ATOM     77  C   UNL A   1      42.355  23.924  26.543  1.00  0.00     0.148 A 
ATOM     78  C   UNL A   1      44.254  23.645  24.524  1.00  0.00     0.002 A 
ATOM     79  C   UNL A   1      42.536  22.693  25.913  1.00  0.00     0.091 A 
ATOM     80  F   UNL A   1      41.470  24.003  27.541  1.00  0.00    -0.205 F 
ATOM     81  C   UNL A   1      43.502  22.543  24.916  1.00  0.00     0.022 A 
BRANCH  79  82
ATOM     82  S   UNL A   1      41.586  21.239  26.391  1.00  0.00     0.127 S 
ATOM     83  O   UNL A   1      41.874  21.136  27.823  1.00  0.00    -0.237 OA
ATOM     84  O   UNL A   1      40.221  21.648  26.072  1.00  0.00    -0.237 OA
ATOM     85  O   UNL A   1      42.121  20.137  25.601  1.00  0.00    -0.744 OA
ENDBRANCH  79  82
ENDBRANCH  51  75
BRANCH  63  86
ATOM     86  C   UNL A   1      46.931  29.823  29.128  1.00  0.00     0.023 A 
ATOM     87  C   UNL A   1      48.326  29.905  29.056  1.00  0.00     0.012 A 
ATOM     88  C   UNL A   1      46.219  30.732  28.310  1.00  0.00     0.148 A 
ATOM     89  C   UNL A   1      48.990  30.623  28.054  1.00  0.00     0.002 A 
ATOM     90  C   UNL A   1      46.888  31.547  27.387  1.00  0.00     0.091 A 
ATOM     91  F   UNL A   1      44.882  30.770  28.415  1.00  0.00    -0.205 F 
ATOM     92  C   UNL A   1      48.267  31.427  27.196  1.00  0.00     0.022 A 
BRANCH  90  93
ATOM     93  S   UNL A   1      46.087  32.875  26.483  1.00  0.00     0.127 S 
ATOM     94  O   UNL A   1      47.234  33.571  25.895  1.00  0.00    -0.237 OA
ATOM     95  O   UNL A   1      45.259  32.151  25.520  1.00  0.00    -0.237 OA
ATOM     96  O   UNL A   1      45.356  33.653  27.474  1.00  0.00    -0.744 OA
ENDBRANCH  90  93
ENDBRANCH  63  86
ENDBRANCH  37  38
ENDBRANCH  30  32
ENDBRANCH  29  30
ENDBRANCH  28  29
ENDBRANCH  27  28
ENDBRANCH   1  27
TORSDOF 21
ENDMDL
