MODEL 1
REMARK VINA RESULT:     -10.5      0.000      0.000
REMARK SMILES O=C(OCCOC(=O)[C@@H]1CS[C@@H](c2cc(Br)ccc2O)[NH2+]1)c1ccc(-c2c3nc(c(-c4cccc(S(=O)(=O)[O-])c4F)c4ccc([nH]4)c(-c4cccc(S(=O)(=O)[O-])c4F)c4nc(c(-c5cccc(S(=O)(=O)[O-])c5F)c5ccc2[nH]5)C=C4)C=C3)cc1
REMARK SMILES IDX 4 1 3 2 2 3 1 4 22 5 23 6 84 7 24 8 83 9 25 10 26 11 27 12
REMARK SMILES IDX 77 13 28 14 82 15 76 16 78 17 29 18 81 19 75 20 74 21 30 23
REMARK SMILES IDX 62 24 42 25 61 26 43 27 46 28 60 29 79 30 44 31 45 32 59 34
REMARK SMILES IDX 80 35 47 36 31 37 32 38 40 39 33 40 35 41 41 42 34 43 36 44
REMARK SMILES IDX 37 45 38 46 39 47 63 48 64 49 72 50 65 51 67 52 73 53 66 54
REMARK SMILES IDX 68 55 69 56 70 57 71 58 48 59 49 60 57 61 50 62 52 63 58 64
REMARK SMILES IDX 51 65 53 66 54 67 55 68 56 69 5 70 6 71 7 72 8 73 9 74 10 75
REMARK SMILES IDX 21 76 11 77 12 78 13 81 14 82 19 83 15 84 18 85 16 86 17 87
REMARK SMILES IDX 20 88
REMARK H PARENT 78 22 46 33 21 79 21 80 20 89
REMARK Flexibility Score: inf
ROOT
ATOM      1  C   UNL A   1      34.758  33.544  28.107  1.00  0.00     0.275 C 
ENDROOT
BRANCH   1   2
ATOM      2  O   UNL A   1      34.103  32.263  28.012  1.00  0.00    -0.458 OA
BRANCH   2   3
ATOM      3  C   UNL A   1      34.612  31.065  27.627  1.00  0.00     0.338 C 
ATOM      4  O   UNL A   1      33.931  30.343  26.900  1.00  0.00    -0.246 OA
BRANCH   3   5
ATOM      5  C   UNL A   1      35.856  30.478  28.221  1.00  0.00     0.060 A 
ATOM      6  C   UNL A   1      35.918  29.673  29.360  1.00  0.00     0.016 A 
ATOM      7  C   UNL A   1      37.057  30.723  27.524  1.00  0.00     0.016 A 
ATOM      8  C   UNL A   1      37.104  29.032  29.726  1.00  0.00     0.010 A 
ATOM      9  C   UNL A   1      38.248  30.079  27.881  1.00  0.00     0.010 A 
ATOM     10  C   UNL A   1      38.270  29.216  28.982  1.00  0.00    -0.014 A 
BRANCH  10  11
ATOM     11  C   UNL A   1      39.529  28.634  29.491  1.00  0.00     0.031 A 
ATOM     12  C   UNL A   1      40.113  29.225  30.740  1.00  0.00     0.074 A 
ATOM     13  C   UNL A   1      40.087  27.558  28.902  1.00  0.00     0.049 A 
ATOM     14  N   UNL A   1      41.135  28.823  31.443  1.00  0.00    -0.248 NA
ATOM     15  C   UNL A   1      39.438  30.418  31.283  1.00  0.00     0.031 C 
ATOM     16  C   UNL A   1      39.580  26.885  27.704  1.00  0.00     0.029 A 
ATOM     17  N   UNL A   1      41.207  26.838  29.235  1.00  0.00    -0.354 N 
ATOM     18  C   UNL A   1      41.235  29.717  32.499  1.00  0.00     0.074 A 
ATOM     19  C   UNL A   1      40.184  30.694  32.340  1.00  0.00     0.031 C 
ATOM     20  C   UNL A   1      40.400  25.864  27.392  1.00  0.00     0.029 A 
ATOM     21  C   UNL A   1      41.490  25.812  28.361  1.00  0.00     0.049 A 
ATOM     22  H   UNL A   1      41.757  27.037  30.027  1.00  0.00     0.167 HD
ATOM     23  C   UNL A   1      42.116  29.714  33.523  1.00  0.00     0.034 A 
ATOM     24  C   UNL A   1      42.516  24.938  28.355  1.00  0.00     0.034 A 
ATOM     25  C   UNL A   1      43.158  28.742  33.673  1.00  0.00     0.049 A 
ATOM     26  C   UNL A   1      43.518  24.999  29.485  1.00  0.00     0.074 A 
ATOM     27  C   UNL A   1      44.096  28.636  34.681  1.00  0.00     0.029 A 
ATOM     28  N   UNL A   1      43.415  27.722  32.770  1.00  0.00    -0.354 N 
ATOM     29  N   UNL A   1      43.520  25.770  30.547  1.00  0.00    -0.248 NA
ATOM     30  C   UNL A   1      44.636  24.044  29.438  1.00  0.00     0.031 C 
ATOM     31  C   UNL A   1      44.950  27.574  34.365  1.00  0.00     0.029 A 
ATOM     32  C   UNL A   1      44.513  26.993  33.184  1.00  0.00     0.049 A 
ATOM     33  H   UNL A   1      42.892  27.543  31.954  1.00  0.00     0.167 HD
ATOM     34  C   UNL A   1      44.610  25.366  31.311  1.00  0.00     0.074 A 
ATOM     35  C   UNL A   1      45.230  24.266  30.603  1.00  0.00     0.031 C 
ATOM     36  C   UNL A   1      45.070  25.865  32.485  1.00  0.00     0.034 A 
BRANCH  23  37
ATOM     37  C   UNL A   1      41.988  30.803  34.548  1.00  0.00     0.023 A 
ATOM     38  C   UNL A   1      41.154  30.622  35.671  1.00  0.00     0.012 A 
ATOM     39  C   UNL A   1      42.714  31.999  34.408  1.00  0.00     0.148 A 
ATOM     40  C   UNL A   1      41.025  31.630  36.625  1.00  0.00     0.002 A 
ATOM     41  C   UNL A   1      42.616  32.980  35.384  1.00  0.00     0.091 A 
ATOM     42  F   UNL A   1      43.478  32.156  33.317  1.00  0.00    -0.205 F 
ATOM     43  C   UNL A   1      41.762  32.803  36.486  1.00  0.00     0.022 A 
BRANCH  41  44
ATOM     44  S   UNL A   1      43.573  34.497  35.334  1.00  0.00     0.127 S 
ATOM     45  O   UNL A   1      43.191  35.128  36.597  1.00  0.00    -0.237 OA
ATOM     46  O   UNL A   1      44.943  33.988  35.294  1.00  0.00    -0.237 OA
ATOM     47  O   UNL A   1      43.146  35.205  34.136  1.00  0.00    -0.744 OA
ENDBRANCH  41  44
ENDBRANCH  23  37
BRANCH  24  48
ATOM     48  C   UNL A   1      42.665  23.916  27.274  1.00  0.00     0.023 A 
ATOM     49  C   UNL A   1      43.356  24.244  26.089  1.00  0.00     0.012 A 
ATOM     50  C   UNL A   1      42.069  22.645  27.383  1.00  0.00     0.148 A 
ATOM     51  C   UNL A   1      43.396  23.353  25.015  1.00  0.00     0.002 A 
ATOM     52  C   UNL A   1      42.150  21.745  26.325  1.00  0.00     0.091 A 
ATOM     53  F   UNL A   1      41.442  22.332  28.527  1.00  0.00    -0.205 F 
ATOM     54  C   UNL A   1      42.790  22.107  25.130  1.00  0.00     0.022 A 
BRANCH  52  55
ATOM     55  S   UNL A   1      41.473  20.087  26.412  1.00  0.00     0.127 S 
ATOM     56  O   UNL A   1      41.922  19.633  27.726  1.00  0.00    -0.237 OA
ATOM     57  O   UNL A   1      40.039  20.356  26.309  1.00  0.00    -0.237 OA
ATOM     58  O   UNL A   1      42.049  19.361  25.290  1.00  0.00    -0.744 OA
ENDBRANCH  52  55
ENDBRANCH  24  48
BRANCH  36  59
ATOM     59  C   UNL A   1      46.271  25.203  33.106  1.00  0.00     0.023 A 
ATOM     60  C   UNL A   1      47.560  25.720  32.873  1.00  0.00     0.012 A 
ATOM     61  C   UNL A   1      46.104  24.129  34.002  1.00  0.00     0.148 A 
ATOM     62  C   UNL A   1      48.670  25.157  33.501  1.00  0.00     0.002 A 
ATOM     63  C   UNL A   1      47.207  23.611  34.668  1.00  0.00     0.091 A 
ATOM     64  F   UNL A   1      44.868  23.644  34.196  1.00  0.00    -0.205 F 
ATOM     65  C   UNL A   1      48.492  24.114  34.408  1.00  0.00     0.022 A 
BRANCH  63  66
ATOM     66  S   UNL A   1      47.058  22.348  35.935  1.00  0.00     0.127 S 
ATOM     67  O   UNL A   1      48.446  22.197  36.368  1.00  0.00    -0.237 OA
ATOM     68  O   UNL A   1      46.179  22.991  36.912  1.00  0.00    -0.237 OA
ATOM     69  O   UNL A   1      46.479  21.184  35.276  1.00  0.00    -0.744 OA
ENDBRANCH  63  66
ENDBRANCH  36  59
ENDBRANCH  10  11
ENDBRANCH   3   5
ENDBRANCH   2   3
ENDBRANCH   1   2
BRANCH   1  70
ATOM     70  C   UNL A   1      33.795  34.733  28.032  1.00  0.00     0.274 C 
BRANCH  70  71
ATOM     71  O   UNL A   1      32.840  34.691  29.101  1.00  0.00    -0.458 OA
BRANCH  71  72
ATOM     72  C   UNL A   1      32.903  35.688  30.040  1.00  0.00     0.365 C 
ATOM     73  O   UNL A   1      32.887  36.888  29.781  1.00  0.00    -0.245 OA
BRANCH  72  74
ATOM     74  C   UNL A   1      32.842  35.072  31.440  1.00  0.00     0.304 C 
ATOM     75  C   UNL A   1      32.765  36.158  32.500  1.00  0.00     0.153 C 
ATOM     76  N   UNL A   1      33.916  34.112  31.718  1.00  0.00    -0.319 N 
ATOM     77  S   UNL A   1      34.412  36.261  33.223  1.00  0.00    -0.087 SA
ATOM     78  C   UNL A   1      35.056  34.809  32.326  1.00  0.00     0.278 C 
ATOM     79  H   UNL A   1      34.213  33.672  30.847  1.00  0.00     0.348 HD
ATOM     80  H   UNL A   1      33.573  33.399  32.362  1.00  0.00     0.348 HD
BRANCH  78  81
ATOM     81  C   UNL A   1      35.891  33.845  33.159  1.00  0.00     0.063 A 
ATOM     82  C   UNL A   1      36.208  34.056  34.518  1.00  0.00     0.030 A 
ATOM     83  C   UNL A   1      36.331  32.640  32.585  1.00  0.00     0.125 A 
ATOM     84  C   UNL A   1      36.965  33.124  35.240  1.00  0.00     0.018 A 
ATOM     85  C   UNL A   1      37.081  31.711  33.306  1.00  0.00     0.048 A 
ATOM     86  Br  UNL A   1      37.403  33.462  37.049  1.00  0.00    -0.051 Br
ATOM     87  C   UNL A   1      37.403  31.953  34.636  1.00  0.00     0.019 A 
BRANCH  83  88
ATOM     88  O   UNL A   1      36.000  32.343  31.290  1.00  0.00    -0.507 OA
ATOM     89  H   UNL A   1      36.548  32.634  30.587  1.00  0.00     0.293 HD
ENDBRANCH  83  88
ENDBRANCH  78  81
ENDBRANCH  72  74
ENDBRANCH  71  72
ENDBRANCH  70  71
ENDBRANCH   1  70
TORSDOF 16
ENDMDL
MODEL 2
REMARK VINA RESULT:     -10.5      5.945     11.593
REMARK SMILES O=C(OCCOC(=O)[C@@H]1CS[C@@H](c2cc(Br)ccc2O)[NH2+]1)c1ccc(-c2c3nc(c(-c4cccc(S(=O)(=O)[O-])c4F)c4ccc([nH]4)c(-c4cccc(S(=O)(=O)[O-])c4F)c4nc(c(-c5cccc(S(=O)(=O)[O-])c5F)c5ccc2[nH]5)C=C4)C=C3)cc1
REMARK SMILES IDX 4 1 3 2 2 3 1 4 22 5 23 6 84 7 24 8 83 9 25 10 26 11 27 12
REMARK SMILES IDX 77 13 28 14 82 15 76 16 78 17 29 18 81 19 75 20 74 21 30 23
REMARK SMILES IDX 62 24 42 25 61 26 43 27 46 28 60 29 79 30 44 31 45 32 59 34
REMARK SMILES IDX 80 35 47 36 31 37 32 38 40 39 33 40 35 41 41 42 34 43 36 44
REMARK SMILES IDX 37 45 38 46 39 47 63 48 64 49 72 50 65 51 67 52 73 53 66 54
REMARK SMILES IDX 68 55 69 56 70 57 71 58 48 59 49 60 57 61 50 62 52 63 58 64
REMARK SMILES IDX 51 65 53 66 54 67 55 68 56 69 5 70 6 71 7 72 8 73 9 74 10 75
REMARK SMILES IDX 21 76 11 77 12 78 13 81 14 82 19 83 15 84 18 85 16 86 17 87
REMARK SMILES IDX 20 88
REMARK H PARENT 78 22 46 33 21 79 21 80 20 89
REMARK Flexibility Score: inf
ROOT
ATOM      1  C   UNL A   1      36.938  20.488  24.754  1.00  0.00     0.275 C 
ENDROOT
BRANCH   1   2
ATOM      2  O   UNL A   1      37.591  21.283  25.764  1.00  0.00    -0.458 OA
BRANCH   2   3
ATOM      3  C   UNL A   1      38.910  21.357  26.077  1.00  0.00     0.338 C 
ATOM      4  O   UNL A   1      39.562  20.316  26.129  1.00  0.00    -0.246 OA
BRANCH   3   5
ATOM      5  C   UNL A   1      39.559  22.609  26.585  1.00  0.00     0.060 A 
ATOM      6  C   UNL A   1      40.587  22.674  27.527  1.00  0.00     0.016 A 
ATOM      7  C   UNL A   1      39.119  23.818  26.009  1.00  0.00     0.016 A 
ATOM      8  C   UNL A   1      41.242  23.878  27.797  1.00  0.00     0.010 A 
ATOM      9  C   UNL A   1      39.775  25.028  26.271  1.00  0.00     0.010 A 
ATOM     10  C   UNL A   1      40.853  25.057  27.160  1.00  0.00    -0.014 A 
BRANCH  10  11
ATOM     11  C   UNL A   1      41.478  26.327  27.586  1.00  0.00     0.031 A 
ATOM     12  C   UNL A   1      42.888  26.589  27.146  1.00  0.00     0.074 A 
ATOM     13  C   UNL A   1      40.779  27.252  28.272  1.00  0.00     0.049 A 
ATOM     14  N   UNL A   1      43.611  27.665  27.290  1.00  0.00    -0.248 NA
ATOM     15  C   UNL A   1      43.569  25.496  26.426  1.00  0.00     0.031 C 
ATOM     16  C   UNL A   1      39.392  27.111  28.718  1.00  0.00     0.029 A 
ATOM     17  N   UNL A   1      41.143  28.499  28.715  1.00  0.00    -0.354 N 
ATOM     18  C   UNL A   1      44.830  27.377  26.693  1.00  0.00     0.074 A 
ATOM     19  C   UNL A   1      44.762  26.021  26.201  1.00  0.00     0.031 C 
ATOM     20  C   UNL A   1      39.029  28.220  29.390  1.00  0.00     0.029 A 
ATOM     21  C   UNL A   1      40.157  29.147  29.426  1.00  0.00     0.049 A 
ATOM     22  H   UNL A   1      42.027  28.895  28.539  1.00  0.00     0.167 HD
ATOM     23  C   UNL A   1      45.908  28.179  26.553  1.00  0.00     0.034 A 
ATOM     24  C   UNL A   1      40.176  30.350  30.033  1.00  0.00     0.034 A 
ATOM     25  C   UNL A   1      45.969  29.523  27.047  1.00  0.00     0.049 A 
ATOM     26  C   UNL A   1      41.419  31.199  29.905  1.00  0.00     0.074 A 
ATOM     27  C   UNL A   1      47.006  30.429  26.946  1.00  0.00     0.029 A 
ATOM     28  N   UNL A   1      44.956  30.143  27.762  1.00  0.00    -0.354 N 
ATOM     29  N   UNL A   1      42.516  30.962  29.224  1.00  0.00    -0.248 NA
ATOM     30  C   UNL A   1      41.415  32.499  30.595  1.00  0.00     0.031 C 
ATOM     31  C   UNL A   1      46.635  31.586  27.638  1.00  0.00     0.029 A 
ATOM     32  C   UNL A   1      45.351  31.414  28.130  1.00  0.00     0.049 A 
ATOM     33  H   UNL A   1      44.084  29.737  27.976  1.00  0.00     0.167 HD
ATOM     34  C   UNL A   1      43.310  32.095  29.369  1.00  0.00     0.074 A 
ATOM     35  C   UNL A   1      42.559  33.028  30.182  1.00  0.00     0.031 C 
ATOM     36  C   UNL A   1      44.554  32.341  28.890  1.00  0.00     0.034 A 
BRANCH  23  37
ATOM     37  C   UNL A   1      47.104  27.612  25.845  1.00  0.00     0.023 A 
ATOM     38  C   UNL A   1      48.036  26.826  26.553  1.00  0.00     0.012 A 
ATOM     39  C   UNL A   1      47.290  27.841  24.470  1.00  0.00     0.148 A 
ATOM     40  C   UNL A   1      49.153  26.300  25.905  1.00  0.00     0.002 A 
ATOM     41  C   UNL A   1      48.379  27.277  23.822  1.00  0.00     0.091 A 
ATOM     42  F   UNL A   1      46.403  28.614  23.827  1.00  0.00    -0.205 F 
ATOM     43  C   UNL A   1      49.319  26.517  24.540  1.00  0.00     0.022 A 
BRANCH  41  44
ATOM     44  S   UNL A   1      48.648  27.441  22.055  1.00  0.00     0.127 S 
ATOM     45  O   UNL A   1      49.798  28.343  22.015  1.00  0.00    -0.237 OA
ATOM     46  O   UNL A   1      48.938  26.062  21.665  1.00  0.00    -0.237 OA
ATOM     47  O   UNL A   1      47.415  27.988  21.508  1.00  0.00    -0.744 OA
ENDBRANCH  41  44
ENDBRANCH  23  37
BRANCH  24  48
ATOM     48  C   UNL A   1      38.998  30.855  30.802  1.00  0.00     0.023 A 
ATOM     49  C   UNL A   1      38.936  30.661  32.198  1.00  0.00     0.012 A 
ATOM     50  C   UNL A   1      37.908  31.466  30.153  1.00  0.00     0.148 A 
ATOM     51  C   UNL A   1      37.791  31.007  32.918  1.00  0.00     0.002 A 
ATOM     52  C   UNL A   1      36.787  31.847  30.883  1.00  0.00     0.091 A 
ATOM     53  F   UNL A   1      37.991  31.674  28.831  1.00  0.00    -0.205 F 
ATOM     54  C   UNL A   1      36.715  31.595  32.261  1.00  0.00     0.022 A 
BRANCH  52  55
ATOM     55  S   UNL A   1      35.387  32.687  30.140  1.00  0.00     0.127 S 
ATOM     56  O   UNL A   1      35.983  33.938  29.674  1.00  0.00    -0.237 OA
ATOM     57  O   UNL A   1      35.018  31.747  29.081  1.00  0.00    -0.237 OA
ATOM     58  O   UNL A   1      34.404  32.842  31.201  1.00  0.00    -0.744 OA
ENDBRANCH  52  55
ENDBRANCH  24  48
BRANCH  36  59
ATOM     59  C   UNL A   1      45.166  33.684  29.186  1.00  0.00     0.023 A 
ATOM     60  C   UNL A   1      45.947  33.863  30.344  1.00  0.00     0.012 A 
ATOM     61  C   UNL A   1      45.048  34.738  28.258  1.00  0.00     0.148 A 
ATOM     62  C   UNL A   1      46.577  35.083  30.589  1.00  0.00     0.002 A 
ATOM     63  C   UNL A   1      45.725  35.929  28.480  1.00  0.00     0.091 A 
ATOM     64  F   UNL A   1      44.287  34.548  27.169  1.00  0.00    -0.205 F 
ATOM     65  C   UNL A   1      46.478  36.108  29.652  1.00  0.00     0.022 A 
BRANCH  63  66
ATOM     66  S   UNL A   1      45.748  37.260  27.274  1.00  0.00     0.127 S 
ATOM     67  O   UNL A   1      46.369  36.607  26.123  1.00  0.00    -0.237 OA
ATOM     68  O   UNL A   1      44.325  37.558  27.115  1.00  0.00    -0.237 OA
ATOM     69  O   UNL A   1      46.527  38.334  27.877  1.00  0.00    -0.744 OA
ENDBRANCH  63  66
ENDBRANCH  36  59
ENDBRANCH  10  11
ENDBRANCH   3   5
ENDBRANCH   2   3
ENDBRANCH   1   2
BRANCH   1  70
ATOM     70  C   UNL A   1      35.438  20.294  25.001  1.00  0.00     0.274 C 
BRANCH  70  71
ATOM     71  O   UNL A   1      34.672  21.317  24.351  1.00  0.00    -0.458 OA
BRANCH  71  72
ATOM     72  C   UNL A   1      33.307  21.234  24.443  1.00  0.00     0.365 C 
ATOM     73  O   UNL A   1      32.648  20.246  24.131  1.00  0.00    -0.245 OA
BRANCH  72  74
ATOM     74  C   UNL A   1      32.767  22.492  25.128  1.00  0.00     0.304 C 
ATOM     75  C   UNL A   1      31.280  22.654  24.855  1.00  0.00     0.153 C 
ATOM     76  N   UNL A   1      33.515  23.713  24.812  1.00  0.00    -0.319 N 
ATOM     77  S   UNL A   1      31.144  23.948  23.609  1.00  0.00    -0.087 SA
ATOM     78  C   UNL A   1      32.917  24.372  23.645  1.00  0.00     0.278 C 
ATOM     79  H   UNL A   1      34.485  23.474  24.607  1.00  0.00     0.348 HD
ATOM     80  H   UNL A   1      33.481  24.346  25.612  1.00  0.00     0.348 HD
BRANCH  78  81
ATOM     81  C   UNL A   1      33.232  25.862  23.651  1.00  0.00     0.063 A 
ATOM     82  C   UNL A   1      33.436  26.616  24.827  1.00  0.00     0.030 A 
ATOM     83  C   UNL A   1      33.396  26.537  22.429  1.00  0.00     0.125 A 
ATOM     84  C   UNL A   1      33.742  27.981  24.770  1.00  0.00     0.018 A 
ATOM     85  C   UNL A   1      33.705  27.897  22.373  1.00  0.00     0.048 A 
ATOM     86  Br  UNL A   1      33.969  28.965  26.370  1.00  0.00    -0.051 Br
ATOM     87  C   UNL A   1      33.876  28.623  23.546  1.00  0.00     0.019 A 
BRANCH  83  88
ATOM     88  O   UNL A   1      33.278  25.850  21.250  1.00  0.00    -0.507 OA
ATOM     89  H   UNL A   1      32.742  25.084  21.206  1.00  0.00     0.293 HD
ENDBRANCH  83  88
ENDBRANCH  78  81
ENDBRANCH  72  74
ENDBRANCH  71  72
ENDBRANCH  70  71
ENDBRANCH   1  70
TORSDOF 16
ENDMDL
MODEL 3
REMARK VINA RESULT:     -10.4      5.727     11.337
REMARK SMILES O=C(OCCOC(=O)[C@@H]1CS[C@@H](c2cc(Br)ccc2O)[NH2+]1)c1ccc(-c2c3nc(c(-c4cccc(S(=O)(=O)[O-])c4F)c4ccc([nH]4)c(-c4cccc(S(=O)(=O)[O-])c4F)c4nc(c(-c5cccc(S(=O)(=O)[O-])c5F)c5ccc2[nH]5)C=C4)C=C3)cc1
REMARK SMILES IDX 4 1 3 2 2 3 1 4 22 5 23 6 84 7 24 8 83 9 25 10 26 11 27 12
REMARK SMILES IDX 77 13 28 14 82 15 76 16 78 17 29 18 81 19 75 20 74 21 30 23
REMARK SMILES IDX 62 24 42 25 61 26 43 27 46 28 60 29 79 30 44 31 45 32 59 34
REMARK SMILES IDX 80 35 47 36 31 37 32 38 40 39 33 40 35 41 41 42 34 43 36 44
REMARK SMILES IDX 37 45 38 46 39 47 63 48 64 49 72 50 65 51 67 52 73 53 66 54
REMARK SMILES IDX 68 55 69 56 70 57 71 58 48 59 49 60 57 61 50 62 52 63 58 64
REMARK SMILES IDX 51 65 53 66 54 67 55 68 56 69 5 70 6 71 7 72 8 73 9 74 10 75
REMARK SMILES IDX 21 76 11 77 12 78 13 81 14 82 19 83 15 84 18 85 16 86 17 87
REMARK SMILES IDX 20 88
REMARK H PARENT 78 22 46 33 21 79 21 80 20 89
REMARK Flexibility Score: inf
ROOT
ATOM      1  C   UNL A   1      36.538  20.724  24.653  1.00  0.00     0.275 C 
ENDROOT
BRANCH   1   2
ATOM      2  O   UNL A   1      37.292  21.171  25.798  1.00  0.00    -0.458 OA
BRANCH   2   3
ATOM      3  C   UNL A   1      38.636  21.294  25.945  1.00  0.00     0.338 C 
ATOM      4  O   UNL A   1      39.336  20.291  25.818  1.00  0.00    -0.246 OA
BRANCH   3   5
ATOM      5  C   UNL A   1      39.288  22.534  26.478  1.00  0.00     0.060 A 
ATOM      6  C   UNL A   1      40.365  22.576  27.364  1.00  0.00     0.016 A 
ATOM      7  C   UNL A   1      38.793  23.759  25.986  1.00  0.00     0.016 A 
ATOM      8  C   UNL A   1      41.012  23.779  27.656  1.00  0.00     0.010 A 
ATOM      9  C   UNL A   1      39.440  24.969  26.270  1.00  0.00     0.010 A 
ATOM     10  C   UNL A   1      40.565  24.979  27.100  1.00  0.00    -0.014 A 
BRANCH  10  11
ATOM     11  C   UNL A   1      41.189  26.240  27.553  1.00  0.00     0.031 A 
ATOM     12  C   UNL A   1      42.602  26.508  27.126  1.00  0.00     0.074 A 
ATOM     13  C   UNL A   1      40.486  27.153  28.251  1.00  0.00     0.049 A 
ATOM     14  N   UNL A   1      43.324  27.581  27.294  1.00  0.00    -0.248 NA
ATOM     15  C   UNL A   1      43.286  25.428  26.391  1.00  0.00     0.031 C 
ATOM     16  C   UNL A   1      39.096  27.005  28.686  1.00  0.00     0.029 A 
ATOM     17  N   UNL A   1      40.848  28.392  28.719  1.00  0.00    -0.354 N 
ATOM     18  C   UNL A   1      44.547  27.302  26.700  1.00  0.00     0.074 A 
ATOM     19  C   UNL A   1      44.481  25.956  26.183  1.00  0.00     0.031 C 
ATOM     20  C   UNL A   1      38.731  28.103  29.375  1.00  0.00     0.029 A 
ATOM     21  C   UNL A   1      39.859  29.028  29.435  1.00  0.00     0.049 A 
ATOM     22  H   UNL A   1      41.734  28.789  28.556  1.00  0.00     0.167 HD
ATOM     23  C   UNL A   1      45.626  28.106  26.581  1.00  0.00     0.034 A 
ATOM     24  C   UNL A   1      39.875  30.219  30.064  1.00  0.00     0.034 A 
ATOM     25  C   UNL A   1      45.686  29.440  27.100  1.00  0.00     0.049 A 
ATOM     26  C   UNL A   1      41.120  31.070  29.959  1.00  0.00     0.074 A 
ATOM     27  C   UNL A   1      46.724  30.347  27.021  1.00  0.00     0.029 A 
ATOM     28  N   UNL A   1      44.669  30.048  27.820  1.00  0.00    -0.354 N 
ATOM     29  N   UNL A   1      42.221  30.844  29.281  1.00  0.00    -0.248 NA
ATOM     30  C   UNL A   1      41.113  32.356  30.673  1.00  0.00     0.031 C 
ATOM     31  C   UNL A   1      46.350  31.492  27.732  1.00  0.00     0.029 A 
ATOM     32  C   UNL A   1      45.063  31.312  28.213  1.00  0.00     0.049 A 
ATOM     33  H   UNL A   1      43.795  29.639  28.020  1.00  0.00     0.167 HD
ATOM     34  C   UNL A   1      43.015  31.972  29.452  1.00  0.00     0.074 A 
ATOM     35  C   UNL A   1      42.260  32.892  30.277  1.00  0.00     0.031 C 
ATOM     36  C   UNL A   1      44.262  32.226  28.985  1.00  0.00     0.034 A 
BRANCH  23  37
ATOM     37  C   UNL A   1      46.826  27.550  25.870  1.00  0.00     0.023 A 
ATOM     38  C   UNL A   1      46.944  27.684  24.472  1.00  0.00     0.012 A 
ATOM     39  C   UNL A   1      47.849  26.914  26.596  1.00  0.00     0.148 A 
ATOM     40  C   UNL A   1      48.052  27.166  23.803  1.00  0.00     0.002 A 
ATOM     41  C   UNL A   1      48.971  26.441  25.930  1.00  0.00     0.091 A 
ATOM     42  F   UNL A   1      47.699  26.775  27.921  1.00  0.00    -0.205 F 
ATOM     43  C   UNL A   1      49.068  26.554  24.533  1.00  0.00     0.022 A 
BRANCH  41  44
ATOM     44  S   UNL A   1      50.363  25.697  26.783  1.00  0.00     0.127 S 
ATOM     45  O   UNL A   1      51.329  25.546  25.695  1.00  0.00    -0.237 OA
ATOM     46  O   UNL A   1      50.702  26.728  27.763  1.00  0.00    -0.237 OA
ATOM     47  O   UNL A   1      49.872  24.450  27.349  1.00  0.00    -0.744 OA
ENDBRANCH  41  44
ENDBRANCH  23  37
BRANCH  24  48
ATOM     48  C   UNL A   1      38.693  30.712  30.835  1.00  0.00     0.023 A 
ATOM     49  C   UNL A   1      38.588  30.430  32.213  1.00  0.00     0.012 A 
ATOM     50  C   UNL A   1      37.640  31.398  30.200  1.00  0.00     0.148 A 
ATOM     51  C   UNL A   1      37.434  30.765  32.926  1.00  0.00     0.002 A 
ATOM     52  C   UNL A   1      36.512  31.767  30.926  1.00  0.00     0.091 A 
ATOM     53  F   UNL A   1      37.765  31.689  28.897  1.00  0.00    -0.205 F 
ATOM     54  C   UNL A   1      36.396  31.429  32.282  1.00  0.00     0.022 A 
BRANCH  52  55
ATOM     55  S   UNL A   1      35.160  32.699  30.204  1.00  0.00     0.127 S 
ATOM     56  O   UNL A   1      34.249  32.859  31.336  1.00  0.00    -0.237 OA
ATOM     57  O   UNL A   1      35.845  33.921  29.784  1.00  0.00    -0.237 OA
ATOM     58  O   UNL A   1      34.642  31.876  29.121  1.00  0.00    -0.744 OA
ENDBRANCH  52  55
ENDBRANCH  24  48
BRANCH  36  59
ATOM     59  C   UNL A   1      44.874  33.563  29.308  1.00  0.00     0.023 A 
ATOM     60  C   UNL A   1      45.607  33.733  30.499  1.00  0.00     0.012 A 
ATOM     61  C   UNL A   1      44.805  34.619  28.379  1.00  0.00     0.148 A 
ATOM     62  C   UNL A   1      46.237  34.946  30.773  1.00  0.00     0.002 A 
ATOM     63  C   UNL A   1      45.483  35.803  28.631  1.00  0.00     0.091 A 
ATOM     64  F   UNL A   1      44.088  34.438  27.259  1.00  0.00    -0.205 F 
ATOM     65  C   UNL A   1      46.187  35.974  29.834  1.00  0.00     0.022 A 
BRANCH  63  66
ATOM     66  S   UNL A   1      45.569  37.136  27.430  1.00  0.00     0.127 S 
ATOM     67  O   UNL A   1      46.092  36.443  26.255  1.00  0.00    -0.237 OA
ATOM     68  O   UNL A   1      44.169  37.548  27.325  1.00  0.00    -0.237 OA
ATOM     69  O   UNL A   1      46.452  38.141  28.008  1.00  0.00    -0.744 OA
ENDBRANCH  63  66
ENDBRANCH  36  59
ENDBRANCH  10  11
ENDBRANCH   3   5
ENDBRANCH   2   3
ENDBRANCH   1   2
BRANCH   1  70
ATOM     70  C   UNL A   1      35.074  20.398  24.972  1.00  0.00     0.274 C 
BRANCH  70  71
ATOM     71  O   UNL A   1      34.349  21.581  25.334  1.00  0.00    -0.458 OA
BRANCH  71  72
ATOM     72  C   UNL A   1      32.982  21.496  25.362  1.00  0.00     0.365 C 
ATOM     73  O   UNL A   1      32.346  20.460  25.187  1.00  0.00    -0.245 OA
BRANCH  72  74
ATOM     74  C   UNL A   1      32.398  22.845  25.788  1.00  0.00     0.304 C 
ATOM     75  C   UNL A   1      30.975  22.999  25.277  1.00  0.00     0.153 C 
ATOM     76  N   UNL A   1      33.232  23.998  25.433  1.00  0.00    -0.319 N 
ATOM     77  S   UNL A   1      31.074  24.116  23.868  1.00  0.00    -0.087 SA
ATOM     78  C   UNL A   1      32.838  24.506  24.114  1.00  0.00     0.278 C 
ATOM     79  H   UNL A   1      34.211  23.713  25.409  1.00  0.00     0.348 HD
ATOM     80  H   UNL A   1      33.107  24.732  26.130  1.00  0.00     0.348 HD
BRANCH  78  81
ATOM     81  C   UNL A   1      33.207  25.977  23.974  1.00  0.00     0.063 A 
ATOM     82  C   UNL A   1      33.244  26.882  25.056  1.00  0.00     0.030 A 
ATOM     83  C   UNL A   1      33.599  26.473  22.718  1.00  0.00     0.125 A 
ATOM     84  C   UNL A   1      33.610  28.221  24.869  1.00  0.00     0.018 A 
ATOM     85  C   UNL A   1      33.968  27.806  22.535  1.00  0.00     0.048 A 
ATOM     86  Br  UNL A   1      33.608  29.414  26.338  1.00  0.00    -0.051 Br
ATOM     87  C   UNL A   1      33.971  28.685  23.612  1.00  0.00     0.019 A 
BRANCH  83  88
ATOM     88  O   UNL A   1      33.651  25.631  21.639  1.00  0.00    -0.507 OA
ATOM     89  H   UNL A   1      34.335  24.994  21.574  1.00  0.00     0.293 HD
ENDBRANCH  83  88
ENDBRANCH  78  81
ENDBRANCH  72  74
ENDBRANCH  71  72
ENDBRANCH  70  71
ENDBRANCH   1  70
TORSDOF 16
ENDMDL
