MODEL 1
REMARK VINA RESULT:     -11.3      0.000      0.000
REMARK SMILES C[NH2+][C@]1(C(=O)OCCOC(=O)c2ccc(-c3c4nc(c(-c5cccc(S(=O)(=O)[O-])c5F)c5ccc([nH]5)c(-c5cccc(S(=O)(=O)[O-])c5F)c5nc(c(-c6cccc(S(=O)(=O)[O-])c6F)c6ccc3[nH]6)C=C5)C=C4)cc2)CCC[C@@H]1CC[N@H+]1CCC[C@H]([NH+](C)C)C1
REMARK SMILES IDX 7 1 6 2 4 3 5 4 3 5 75 6 78 7 76 8 77 9 2 10 1 11 79 14
REMARK SMILES IDX 80 15 81 16 82 17 89 18 83 20 85 21 84 22 86 23 87 24 88 25
REMARK SMILES IDX 8 27 9 28 10 29 11 30 12 31 13 32 74 33 14 34 73 35 15 36
REMARK SMILES IDX 16 37 17 38 67 39 18 40 72 41 66 42 68 43 19 44 71 45 65 46
REMARK SMILES IDX 64 47 20 49 52 50 32 51 51 52 33 53 36 54 50 55 69 56 34 57
REMARK SMILES IDX 35 58 49 60 70 61 37 62 21 63 22 64 30 65 23 66 25 67 31 68
REMARK SMILES IDX 24 69 26 70 27 71 28 72 29 73 53 74 54 75 62 76 55 77 57 78
REMARK SMILES IDX 63 79 56 80 58 81 59 82 60 83 61 84 38 85 39 86 47 87 40 88
REMARK SMILES IDX 42 89 48 90 41 91 43 92 44 93 45 94 46 95
REMARK H PARENT 2 12 2 13 81 19 86 26 68 48 36 59
REMARK Flexibility Score: inf
ROOT
ATOM      1  C   UNL A   1      31.761  28.601  27.417  1.00  0.00     0.274 C 
ENDROOT
BRANCH   1   2
ATOM      2  O   UNL A   1      31.604  27.502  26.493  1.00  0.00    -0.457 OA
BRANCH   2   3
ATOM      3  C   UNL A   1      32.738  27.194  25.814  1.00  0.00     0.368 C 
ATOM      4  O   UNL A   1      33.792  26.910  26.376  1.00  0.00    -0.245 OA
BRANCH   3   5
ATOM      5  C   UNL A   1      32.634  27.278  24.278  1.00  0.00     0.197 C 
ATOM      6  C   UNL A   1      33.556  28.311  23.614  1.00  0.00     0.081 C 
ATOM      7  C   UNL A   1      33.243  25.959  23.689  1.00  0.00     0.068 C 
ATOM      8  C   UNL A   1      33.668  27.837  22.167  1.00  0.00     0.008 C 
ATOM      9  C   UNL A   1      33.534  26.311  22.218  1.00  0.00     0.011 C 
BRANCH   5  10
ATOM     10  N   UNL A   1      31.216  27.408  23.838  1.00  0.00    -0.334 N 
ATOM     11  C   UNL A   1      30.800  28.763  23.506  1.00  0.00     0.331 C 
ATOM     12  H   UNL A   1      31.085  26.825  23.011  1.00  0.00     0.347 HD
ATOM     13  H   UNL A   1      30.643  27.119  24.631  1.00  0.00     0.347 HD
ENDBRANCH   5  10
BRANCH   7  14
ATOM     14  C   UNL A   1      32.378  24.687  23.848  1.00  0.00     0.072 C 
BRANCH  14  15
ATOM     15  C   UNL A   1      32.719  23.520  22.897  1.00  0.00     0.262 C 
BRANCH  15  16
ATOM     16  N   UNL A   1      33.623  22.461  23.396  1.00  0.00    -0.330 N 
ATOM     17  C   UNL A   1      34.902  22.968  23.902  1.00  0.00     0.262 C 
ATOM     18  C   UNL A   1      32.955  21.709  24.479  1.00  0.00     0.327 C 
ATOM     19  H   UNL A   1      33.830  21.861  22.596  1.00  0.00     0.348 HD
ATOM     20  C   UNL A   1      35.850  21.864  24.365  1.00  0.00     0.068 C 
ATOM     21  C   UNL A   1      33.770  20.486  24.990  1.00  0.00     0.239 C 
ATOM     22  C   UNL A   1      35.203  20.916  25.364  1.00  0.00     0.077 C 
BRANCH  21  23
ATOM     23  N   UNL A   1      33.722  19.246  24.168  1.00  0.00    -0.333 N 
ATOM     24  C   UNL A   1      34.758  18.297  24.581  1.00  0.00     0.332 C 
ATOM     25  C   UNL A   1      32.427  18.568  24.146  1.00  0.00     0.332 C 
ATOM     26  H   UNL A   1      33.890  19.569  23.214  1.00  0.00     0.348 HD
ENDBRANCH  21  23
ENDBRANCH  15  16
ENDBRANCH  14  15
ENDBRANCH   7  14
ENDBRANCH   3   5
ENDBRANCH   2   3
ENDBRANCH   1   2
BRANCH   1  27
ATOM     27  C   UNL A   1      31.749  29.974  26.737  1.00  0.00     0.275 C 
BRANCH  27  28
ATOM     28  O   UNL A   1      33.082  30.435  26.447  1.00  0.00    -0.458 OA
BRANCH  28  29
ATOM     29  C   UNL A   1      33.597  31.347  27.304  1.00  0.00     0.338 C 
ATOM     30  O   UNL A   1      33.039  32.349  27.718  1.00  0.00    -0.246 OA
BRANCH  29  31
ATOM     31  C   UNL A   1      34.968  30.977  27.720  1.00  0.00     0.060 A 
ATOM     32  C   UNL A   1      35.286  29.657  28.036  1.00  0.00     0.016 A 
ATOM     33  C   UNL A   1      35.904  31.980  27.965  1.00  0.00     0.016 A 
ATOM     34  C   UNL A   1      36.480  29.337  28.671  1.00  0.00     0.010 A 
ATOM     35  C   UNL A   1      37.144  31.650  28.524  1.00  0.00     0.010 A 
ATOM     36  C   UNL A   1      37.428  30.330  28.920  1.00  0.00    -0.014 A 
BRANCH  36  37
ATOM     37  C   UNL A   1      38.674  30.001  29.656  1.00  0.00     0.031 A 
ATOM     38  C   UNL A   1      39.669  29.057  29.039  1.00  0.00     0.074 A 
ATOM     39  C   UNL A   1      38.924  30.550  30.861  1.00  0.00     0.049 A 
ATOM     40  N   UNL A   1      40.698  28.469  29.589  1.00  0.00    -0.248 NA
ATOM     41  C   UNL A   1      39.470  28.719  27.620  1.00  0.00     0.031 C 
ATOM     42  C   UNL A   1      38.070  31.524  31.544  1.00  0.00     0.029 A 
ATOM     43  N   UNL A   1      39.970  30.361  31.730  1.00  0.00    -0.354 N 
ATOM     44  C   UNL A   1      41.213  27.623  28.615  1.00  0.00     0.074 A 
ATOM     45  C   UNL A   1      40.402  27.796  27.428  1.00  0.00     0.031 C 
ATOM     46  C   UNL A   1      38.631  31.858  32.715  1.00  0.00     0.029 A 
ATOM     47  C   UNL A   1      39.838  31.061  32.907  1.00  0.00     0.049 A 
ATOM     48  H   UNL A   1      40.740  29.780  31.531  1.00  0.00     0.167 HD
ATOM     49  C   UNL A   1      42.266  26.779  28.705  1.00  0.00     0.034 A 
ATOM     50  C   UNL A   1      40.576  31.030  34.034  1.00  0.00     0.034 A 
ATOM     51  C   UNL A   1      43.120  26.683  29.857  1.00  0.00     0.049 A 
ATOM     52  C   UNL A   1      41.756  30.101  34.100  1.00  0.00     0.074 A 
ATOM     53  C   UNL A   1      44.225  25.872  30.045  1.00  0.00     0.029 A 
ATOM     54  N   UNL A   1      42.978  27.440  31.009  1.00  0.00    -0.354 N 
ATOM     55  N   UNL A   1      42.230  29.302  33.174  1.00  0.00    -0.248 NA
ATOM     56  C   UNL A   1      42.505  30.067  35.364  1.00  0.00     0.031 C 
ATOM     57  C   UNL A   1      44.756  26.147  31.310  1.00  0.00     0.029 A 
ATOM     58  C   UNL A   1      43.980  27.127  31.909  1.00  0.00     0.049 A 
ATOM     59  H   UNL A   1      42.268  28.105  31.163  1.00  0.00     0.167 HD
ATOM     60  C   UNL A   1      43.334  28.675  33.739  1.00  0.00     0.074 A 
ATOM     61  C   UNL A   1      43.480  29.214  35.076  1.00  0.00     0.031 C 
ATOM     62  C   UNL A   1      44.135  27.718  33.213  1.00  0.00     0.034 A 
BRANCH  49  63
ATOM     63  C   UNL A   1      42.564  25.905  27.518  1.00  0.00     0.023 A 
ATOM     64  C   UNL A   1      43.322  26.413  26.446  1.00  0.00     0.012 A 
ATOM     65  C   UNL A   1      42.129  24.565  27.487  1.00  0.00     0.148 A 
ATOM     66  C   UNL A   1      43.626  25.606  25.349  1.00  0.00     0.002 A 
ATOM     67  C   UNL A   1      42.466  23.757  26.407  1.00  0.00     0.091 A 
ATOM     68  F   UNL A   1      41.380  24.109  28.501  1.00  0.00    -0.205 F 
ATOM     69  C   UNL A   1      43.208  24.278  25.335  1.00  0.00     0.022 A 
BRANCH  67  70
ATOM     70  S   UNL A   1      42.024  22.017  26.339  1.00  0.00     0.127 S 
ATOM     71  O   UNL A   1      40.568  22.084  26.222  1.00  0.00    -0.237 OA
ATOM     72  O   UNL A   1      42.711  21.565  25.128  1.00  0.00    -0.237 OA
ATOM     73  O   UNL A   1      42.534  21.432  27.571  1.00  0.00    -0.744 OA
ENDBRANCH  67  70
ENDBRANCH  49  63
BRANCH  50  74
ATOM     74  C   UNL A   1      40.217  31.915  35.179  1.00  0.00     0.023 A 
ATOM     75  C   UNL A   1      40.743  33.218  35.235  1.00  0.00     0.012 A 
ATOM     76  C   UNL A   1      39.308  31.500  36.171  1.00  0.00     0.148 A 
ATOM     77  C   UNL A   1      40.379  34.089  36.264  1.00  0.00     0.002 A 
ATOM     78  C   UNL A   1      38.899  32.393  37.156  1.00  0.00     0.091 A 
ATOM     79  F   UNL A   1      38.839  30.245  36.125  1.00  0.00    -0.205 F 
ATOM     80  C   UNL A   1      39.444  33.683  37.213  1.00  0.00     0.022 A 
BRANCH  78  81
ATOM     81  S   UNL A   1      37.575  31.986  38.302  1.00  0.00     0.127 S 
ATOM     82  O   UNL A   1      36.572  32.995  37.976  1.00  0.00    -0.237 OA
ATOM     83  O   UNL A   1      37.228  30.620  37.907  1.00  0.00    -0.237 OA
ATOM     84  O   UNL A   1      38.179  32.081  39.625  1.00  0.00    -0.744 OA
ENDBRANCH  78  81
ENDBRANCH  50  74
BRANCH  62  85
ATOM     85  C   UNL A   1      45.246  27.196  34.080  1.00  0.00     0.023 A 
ATOM     86  C   UNL A   1      46.500  27.836  34.052  1.00  0.00     0.012 A 
ATOM     87  C   UNL A   1      45.030  26.128  34.971  1.00  0.00     0.148 A 
ATOM     88  C   UNL A   1      47.531  27.406  34.885  1.00  0.00     0.002 A 
ATOM     89  C   UNL A   1      46.052  25.728  35.824  1.00  0.00     0.091 A 
ATOM     90  F   UNL A   1      43.836  25.516  34.963  1.00  0.00    -0.205 F 
ATOM     91  C   UNL A   1      47.305  26.361  35.778  1.00  0.00     0.022 A 
BRANCH  89  92
ATOM     92  S   UNL A   1      45.811  24.444  37.056  1.00  0.00     0.127 S 
ATOM     93  O   UNL A   1      45.278  23.350  36.247  1.00  0.00    -0.237 OA
ATOM     94  O   UNL A   1      47.167  24.226  37.558  1.00  0.00    -0.237 OA
ATOM     95  O   UNL A   1      44.893  25.009  38.038  1.00  0.00    -0.744 OA
ENDBRANCH  89  92
ENDBRANCH  62  85
ENDBRANCH  36  37
ENDBRANCH  29  31
ENDBRANCH  28  29
ENDBRANCH  27  28
ENDBRANCH   1  27
TORSDOF 19
ENDMDL
MODEL 2
REMARK VINA RESULT:     -11.2      5.199     10.173
REMARK SMILES C[NH2+][C@]1(C(=O)OCCOC(=O)c2ccc(-c3c4nc(c(-c5cccc(S(=O)(=O)[O-])c5F)c5ccc([nH]5)c(-c5cccc(S(=O)(=O)[O-])c5F)c5nc(c(-c6cccc(S(=O)(=O)[O-])c6F)c6ccc3[nH]6)C=C5)C=C4)cc2)CCC[C@@H]1CC[N@H+]1CCC[C@H]([NH+](C)C)C1
REMARK SMILES IDX 7 1 6 2 4 3 5 4 3 5 75 6 78 7 76 8 77 9 2 10 1 11 79 14
REMARK SMILES IDX 80 15 81 16 82 17 89 18 83 20 85 21 84 22 86 23 87 24 88 25
REMARK SMILES IDX 8 27 9 28 10 29 11 30 12 31 13 32 74 33 14 34 73 35 15 36
REMARK SMILES IDX 16 37 17 38 67 39 18 40 72 41 66 42 68 43 19 44 71 45 65 46
REMARK SMILES IDX 64 47 20 49 52 50 32 51 51 52 33 53 36 54 50 55 69 56 34 57
REMARK SMILES IDX 35 58 49 60 70 61 37 62 21 63 22 64 30 65 23 66 25 67 31 68
REMARK SMILES IDX 24 69 26 70 27 71 28 72 29 73 53 74 54 75 62 76 55 77 57 78
REMARK SMILES IDX 63 79 56 80 58 81 59 82 60 83 61 84 38 85 39 86 47 87 40 88
REMARK SMILES IDX 42 89 48 90 41 91 43 92 44 93 45 94 46 95
REMARK H PARENT 2 12 2 13 81 19 86 26 68 48 36 59
REMARK Flexibility Score: inf
ROOT
ATOM      1  C   UNL A   1      36.377  22.927  23.461  1.00  0.00     0.274 C 
ENDROOT
BRANCH   1   2
ATOM      2  O   UNL A   1      35.306  23.497  24.244  1.00  0.00    -0.457 OA
BRANCH   2   3
ATOM      3  C   UNL A   1      34.074  23.042  23.896  1.00  0.00     0.368 C 
ATOM      4  O   UNL A   1      33.704  22.958  22.729  1.00  0.00    -0.245 OA
BRANCH   3   5
ATOM      5  C   UNL A   1      33.143  22.687  25.072  1.00  0.00     0.197 C 
ATOM      6  C   UNL A   1      33.850  22.404  26.406  1.00  0.00     0.081 C 
ATOM      7  C   UNL A   1      32.353  23.985  25.459  1.00  0.00     0.068 C 
ATOM      8  C   UNL A   1      32.766  22.621  27.458  1.00  0.00     0.008 C 
ATOM      9  C   UNL A   1      31.834  23.691  26.879  1.00  0.00     0.011 C 
BRANCH   5  10
ATOM     10  N   UNL A   1      32.180  21.614  24.695  1.00  0.00    -0.334 N 
ATOM     11  C   UNL A   1      32.735  20.268  24.686  1.00  0.00     0.331 C 
ATOM     12  H   UNL A   1      31.407  21.633  25.361  1.00  0.00     0.347 HD
ATOM     13  H   UNL A   1      31.893  21.812  23.737  1.00  0.00     0.347 HD
ENDBRANCH   5  10
BRANCH   7  14
ATOM     14  C   UNL A   1      31.233  24.409  24.481  1.00  0.00     0.072 C 
BRANCH  14  15
ATOM     15  C   UNL A   1      30.187  25.392  25.045  1.00  0.00     0.262 C 
BRANCH  15  16
ATOM     16  N   UNL A   1      30.275  26.811  24.634  1.00  0.00    -0.330 N 
ATOM     17  C   UNL A   1      31.412  27.525  25.222  1.00  0.00     0.262 C 
ATOM     18  C   UNL A   1      30.378  26.895  23.162  1.00  0.00     0.327 C 
ATOM     19  H   UNL A   1      29.425  27.261  24.976  1.00  0.00     0.348 HD
ATOM     20  C   UNL A   1      31.465  29.001  24.835  1.00  0.00     0.068 C 
ATOM     21  C   UNL A   1      30.347  28.351  22.612  1.00  0.00     0.239 C 
ATOM     22  C   UNL A   1      31.402  29.216  23.331  1.00  0.00     0.077 C 
BRANCH  21  23
ATOM     23  N   UNL A   1      29.016  29.009  22.506  1.00  0.00    -0.333 N 
ATOM     24  C   UNL A   1      27.975  28.199  23.143  1.00  0.00     0.332 C 
ATOM     25  C   UNL A   1      28.958  30.371  23.031  1.00  0.00     0.332 C 
ATOM     26  H   UNL A   1      28.851  29.083  21.502  1.00  0.00     0.348 HD
ENDBRANCH  21  23
ENDBRANCH  15  16
ENDBRANCH  14  15
ENDBRANCH   7  14
ENDBRANCH   3   5
ENDBRANCH   2   3
ENDBRANCH   1   2
BRANCH   1  27
ATOM     27  C   UNL A   1      36.849  21.563  23.977  1.00  0.00     0.275 C 
BRANCH  27  28
ATOM     28  O   UNL A   1      37.118  21.594  25.391  1.00  0.00    -0.458 OA
BRANCH  28  29
ATOM     29  C   UNL A   1      38.395  21.335  25.761  1.00  0.00     0.338 C 
ATOM     30  O   UNL A   1      39.008  20.298  25.575  1.00  0.00    -0.246 OA
BRANCH  29  31
ATOM     31  C   UNL A   1      39.005  22.505  26.432  1.00  0.00     0.060 A 
ATOM     32  C   UNL A   1      38.540  23.794  26.181  1.00  0.00     0.016 A 
ATOM     33  C   UNL A   1      40.164  22.333  27.187  1.00  0.00     0.016 A 
ATOM     34  C   UNL A   1      39.259  24.911  26.592  1.00  0.00     0.010 A 
ATOM     35  C   UNL A   1      40.843  23.454  27.679  1.00  0.00     0.010 A 
ATOM     36  C   UNL A   1      40.419  24.755  27.351  1.00  0.00    -0.014 A 
BRANCH  36  37
ATOM     37  C   UNL A   1      41.221  25.943  27.735  1.00  0.00     0.031 A 
ATOM     38  C   UNL A   1      40.600  27.008  28.596  1.00  0.00     0.074 A 
ATOM     39  C   UNL A   1      42.502  26.066  27.331  1.00  0.00     0.049 A 
ATOM     40  N   UNL A   1      41.035  28.210  28.863  1.00  0.00    -0.248 NA
ATOM     41  C   UNL A   1      39.310  26.681  29.227  1.00  0.00     0.031 C 
ATOM     42  C   UNL A   1      43.241  25.079  26.542  1.00  0.00     0.029 A 
ATOM     43  N   UNL A   1      43.406  27.081  27.523  1.00  0.00    -0.354 N 
ATOM     44  C   UNL A   1      40.033  28.815  29.613  1.00  0.00     0.074 A 
ATOM     45  C   UNL A   1      38.981  27.837  29.786  1.00  0.00     0.031 C 
ATOM     46  C   UNL A   1      44.487  25.527  26.331  1.00  0.00     0.029 A 
ATOM     47  C   UNL A   1      44.610  26.868  26.893  1.00  0.00     0.049 A 
ATOM     48  H   UNL A   1      43.212  27.884  28.059  1.00  0.00     0.167 HD
ATOM     49  C   UNL A   1      39.998  30.072  30.110  1.00  0.00     0.034 A 
ATOM     50  C   UNL A   1      45.676  27.678  26.741  1.00  0.00     0.034 A 
ATOM     51  C   UNL A   1      41.088  31.004  30.011  1.00  0.00     0.049 A 
ATOM     52  C   UNL A   1      45.622  29.062  27.324  1.00  0.00     0.074 A 
ATOM     53  C   UNL A   1      41.162  32.298  30.496  1.00  0.00     0.029 A 
ATOM     54  N   UNL A   1      42.305  30.733  29.405  1.00  0.00    -0.354 N 
ATOM     55  N   UNL A   1      44.668  29.624  28.027  1.00  0.00    -0.248 NA
ATOM     56  C   UNL A   1      46.788  29.925  27.095  1.00  0.00     0.031 C 
ATOM     57  C   UNL A   1      42.429  32.806  30.189  1.00  0.00     0.029 A 
ATOM     58  C   UNL A   1      43.142  31.829  29.512  1.00  0.00     0.049 A 
ATOM     59  H   UNL A   1      42.538  29.885  28.963  1.00  0.00     0.167 HD
ATOM     60  C   UNL A   1      45.119  30.902  28.330  1.00  0.00     0.074 A 
ATOM     61  C   UNL A   1      46.448  31.020  27.764  1.00  0.00     0.031 C 
ATOM     62  C   UNL A   1      44.481  31.900  28.987  1.00  0.00     0.034 A 
BRANCH  49  63
ATOM     63  C   UNL A   1      38.747  30.507  30.822  1.00  0.00     0.023 A 
ATOM     64  C   UNL A   1      38.617  30.288  32.207  1.00  0.00     0.012 A 
ATOM     65  C   UNL A   1      37.720  31.171  30.125  1.00  0.00     0.148 A 
ATOM     66  C   UNL A   1      37.472  30.707  32.885  1.00  0.00     0.002 A 
ATOM     67  C   UNL A   1      36.597  31.617  30.813  1.00  0.00     0.091 A 
ATOM     68  F   UNL A   1      37.846  31.340  28.801  1.00  0.00    -0.205 F 
ATOM     69  C   UNL A   1      36.469  31.380  32.191  1.00  0.00     0.022 A 
BRANCH  67  70
ATOM     70  S   UNL A   1      35.289  32.550  30.010  1.00  0.00     0.127 S 
ATOM     71  O   UNL A   1      34.886  31.637  28.941  1.00  0.00    -0.237 OA
ATOM     72  O   UNL A   1      34.306  32.702  31.083  1.00  0.00    -0.237 OA
ATOM     73  O   UNL A   1      35.903  33.798  29.578  1.00  0.00    -0.744 OA
ENDBRANCH  67  70
ENDBRANCH  49  63
BRANCH  50  74
ATOM     74  C   UNL A   1      46.881  27.187  26.012  1.00  0.00     0.023 A 
ATOM     75  C   UNL A   1      46.992  27.418  24.629  1.00  0.00     0.012 A 
ATOM     76  C   UNL A   1      47.944  26.557  26.689  1.00  0.00     0.148 A 
ATOM     77  C   UNL A   1      48.135  27.021  23.931  1.00  0.00     0.002 A 
ATOM     78  C   UNL A   1      49.105  26.224  26.001  1.00  0.00     0.091 A 
ATOM     79  F   UNL A   1      47.811  26.313  28.001  1.00  0.00    -0.205 F 
ATOM     80  C   UNL A   1      49.198  26.441  24.619  1.00  0.00     0.022 A 
BRANCH  78  81
ATOM     81  S   UNL A   1      50.569  25.631  26.860  1.00  0.00     0.127 S 
ATOM     82  O   UNL A   1      50.056  24.452  27.553  1.00  0.00    -0.237 OA
ATOM     83  O   UNL A   1      51.487  25.347  25.757  1.00  0.00    -0.237 OA
ATOM     84  O   UNL A   1      50.986  26.744  27.704  1.00  0.00    -0.744 OA
ENDBRANCH  78  81
ENDBRANCH  50  74
BRANCH  62  85
ATOM     85  C   UNL A   1      45.213  33.204  29.138  1.00  0.00     0.023 A 
ATOM     86  C   UNL A   1      46.021  33.413  30.272  1.00  0.00     0.012 A 
ATOM     87  C   UNL A   1      45.162  34.185  28.130  1.00  0.00     0.148 A 
ATOM     88  C   UNL A   1      46.753  34.590  30.411  1.00  0.00     0.002 A 
ATOM     89  C   UNL A   1      45.923  35.342  28.260  1.00  0.00     0.091 A 
ATOM     90  F   UNL A   1      44.366  33.978  27.070  1.00  0.00    -0.205 F 
ATOM     91  C   UNL A   1      46.713  35.549  29.402  1.00  0.00     0.022 A 
BRANCH  89  92
ATOM     92  S   UNL A   1      45.985  36.585  26.964  1.00  0.00     0.127 S 
ATOM     93  O   UNL A   1      46.997  37.504  27.480  1.00  0.00    -0.237 OA
ATOM     94  O   UNL A   1      46.404  35.808  25.798  1.00  0.00    -0.237 OA
ATOM     95  O   UNL A   1      44.633  37.121  26.870  1.00  0.00    -0.744 OA
ENDBRANCH  89  92
ENDBRANCH  62  85
ENDBRANCH  36  37
ENDBRANCH  29  31
ENDBRANCH  28  29
ENDBRANCH  27  28
ENDBRANCH   1  27
TORSDOF 19
ENDMDL
MODEL 3
REMARK VINA RESULT:     -11.1      2.118      4.359
REMARK SMILES C[NH2+][C@]1(C(=O)OCCOC(=O)c2ccc(-c3c4nc(c(-c5cccc(S(=O)(=O)[O-])c5F)c5ccc([nH]5)c(-c5cccc(S(=O)(=O)[O-])c5F)c5nc(c(-c6cccc(S(=O)(=O)[O-])c6F)c6ccc3[nH]6)C=C5)C=C4)cc2)CCC[C@@H]1CC[N@H+]1CCC[C@H]([NH+](C)C)C1
REMARK SMILES IDX 7 1 6 2 4 3 5 4 3 5 75 6 78 7 76 8 77 9 2 10 1 11 79 14
REMARK SMILES IDX 80 15 81 16 82 17 89 18 83 20 85 21 84 22 86 23 87 24 88 25
REMARK SMILES IDX 8 27 9 28 10 29 11 30 12 31 13 32 74 33 14 34 73 35 15 36
REMARK SMILES IDX 16 37 17 38 67 39 18 40 72 41 66 42 68 43 19 44 71 45 65 46
REMARK SMILES IDX 64 47 20 49 52 50 32 51 51 52 33 53 36 54 50 55 69 56 34 57
REMARK SMILES IDX 35 58 49 60 70 61 37 62 21 63 22 64 30 65 23 66 25 67 31 68
REMARK SMILES IDX 24 69 26 70 27 71 28 72 29 73 53 74 54 75 62 76 55 77 57 78
REMARK SMILES IDX 63 79 56 80 58 81 59 82 60 83 61 84 38 85 39 86 47 87 40 88
REMARK SMILES IDX 42 89 48 90 41 91 43 92 44 93 45 94 46 95
REMARK H PARENT 2 12 2 13 81 19 86 26 68 48 36 59
REMARK Flexibility Score: inf
ROOT
ATOM      1  C   UNL A   1      31.587  28.396  27.417  1.00  0.00     0.274 C 
ENDROOT
BRANCH   1   2
ATOM      2  O   UNL A   1      32.311  27.307  26.804  1.00  0.00    -0.457 OA
BRANCH   2   3
ATOM      3  C   UNL A   1      31.516  26.430  26.139  1.00  0.00     0.368 C 
ATOM      4  O   UNL A   1      30.457  26.015  26.599  1.00  0.00    -0.245 OA
BRANCH   3   5
ATOM      5  C   UNL A   1      32.058  25.943  24.780  1.00  0.00     0.197 C 
ATOM      6  C   UNL A   1      31.697  24.497  24.411  1.00  0.00     0.081 C 
ATOM      7  C   UNL A   1      31.277  26.709  23.657  1.00  0.00     0.068 C 
ATOM      8  C   UNL A   1      31.854  24.448  22.894  1.00  0.00     0.008 C 
ATOM      9  C   UNL A   1      31.517  25.858  22.395  1.00  0.00     0.011 C 
BRANCH   5  10
ATOM     10  N   UNL A   1      33.516  26.222  24.648  1.00  0.00    -0.334 N 
ATOM     11  C   UNL A   1      34.388  25.173  25.158  1.00  0.00     0.331 C 
ATOM     12  H   UNL A   1      33.726  26.355  23.659  1.00  0.00     0.347 HD
ATOM     13  H   UNL A   1      33.702  27.049  25.215  1.00  0.00     0.347 HD
ENDBRANCH   5  10
BRANCH   7  14
ATOM     14  C   UNL A   1      31.656  28.196  23.466  1.00  0.00     0.072 C 
BRANCH  14  15
ATOM     15  C   UNL A   1      31.039  28.892  22.235  1.00  0.00     0.262 C 
BRANCH  15  16
ATOM     16  N   UNL A   1      29.701  29.505  22.383  1.00  0.00    -0.330 N 
ATOM     17  C   UNL A   1      28.633  28.533  22.636  1.00  0.00     0.262 C 
ATOM     18  C   UNL A   1      29.721  30.480  23.492  1.00  0.00     0.327 C 
ATOM     19  H   UNL A   1      29.494  29.957  21.491  1.00  0.00     0.348 HD
ATOM     20  C   UNL A   1      27.248  29.168  22.734  1.00  0.00     0.068 C 
ATOM     21  C   UNL A   1      28.395  31.279  23.653  1.00  0.00     0.239 C 
ATOM     22  C   UNL A   1      27.196  30.312  23.734  1.00  0.00     0.077 C 
BRANCH  21  23
ATOM     23  N   UNL A   1      28.172  32.419  22.722  1.00  0.00    -0.333 N 
ATOM     24  C   UNL A   1      28.988  33.576  23.099  1.00  0.00     0.332 C 
ATOM     25  C   UNL A   1      28.389  32.114  21.309  1.00  0.00     0.332 C 
ATOM     26  H   UNL A   1      27.179  32.632  22.818  1.00  0.00     0.348 HD
ENDBRANCH  21  23
ENDBRANCH  15  16
ENDBRANCH  14  15
ENDBRANCH   7  14
ENDBRANCH   3   5
ENDBRANCH   2   3
ENDBRANCH   1   2
BRANCH   1  27
ATOM     27  C   UNL A   1      31.587  29.678  26.576  1.00  0.00     0.275 C 
BRANCH  27  28
ATOM     28  O   UNL A   1      32.925  30.133  26.302  1.00  0.00    -0.458 OA
BRANCH  28  29
ATOM     29  C   UNL A   1      33.348  31.202  27.017  1.00  0.00     0.338 C 
ATOM     30  O   UNL A   1      32.715  32.218  27.246  1.00  0.00    -0.246 OA
BRANCH  29  31
ATOM     31  C   UNL A   1      34.721  30.993  27.530  1.00  0.00     0.060 A 
ATOM     32  C   UNL A   1      35.279  29.717  27.574  1.00  0.00     0.016 A 
ATOM     33  C   UNL A   1      35.395  32.053  28.134  1.00  0.00     0.016 A 
ATOM     34  C   UNL A   1      36.448  29.467  28.285  1.00  0.00     0.010 A 
ATOM     35  C   UNL A   1      36.618  31.821  28.775  1.00  0.00     0.010 A 
ATOM     36  C   UNL A   1      37.135  30.519  28.891  1.00  0.00    -0.014 A 
BRANCH  36  37
ATOM     37  C   UNL A   1      38.347  30.244  29.704  1.00  0.00     0.031 A 
ATOM     38  C   UNL A   1      39.433  29.371  29.139  1.00  0.00     0.074 A 
ATOM     39  C   UNL A   1      38.485  30.781  30.933  1.00  0.00     0.049 A 
ATOM     40  N   UNL A   1      40.455  28.830  29.747  1.00  0.00    -0.248 NA
ATOM     41  C   UNL A   1      39.349  29.052  27.704  1.00  0.00     0.031 C 
ATOM     42  C   UNL A   1      37.533  31.690  31.573  1.00  0.00     0.029 A 
ATOM     43  N   UNL A   1      39.480  30.632  31.867  1.00  0.00    -0.354 N 
ATOM     44  C   UNL A   1      41.081  28.034  28.794  1.00  0.00     0.074 A 
ATOM     45  C   UNL A   1      40.342  28.187  27.559  1.00  0.00     0.031 C 
ATOM     46  C   UNL A   1      37.995  32.030  32.785  1.00  0.00     0.029 A 
ATOM     47  C   UNL A   1      39.230  31.298  33.044  1.00  0.00     0.049 A 
ATOM     48  H   UNL A   1      40.293  30.100  31.710  1.00  0.00     0.167 HD
ATOM     49  C   UNL A   1      42.172  27.249  28.940  1.00  0.00     0.034 A 
ATOM     50  C   UNL A   1      39.893  31.284  34.217  1.00  0.00     0.034 A 
ATOM     51  C   UNL A   1      42.952  27.176  30.146  1.00  0.00     0.049 A 
ATOM     52  C   UNL A   1      41.117  30.422  34.347  1.00  0.00     0.074 A 
ATOM     53  C   UNL A   1      44.087  26.425  30.394  1.00  0.00     0.029 A 
ATOM     54  N   UNL A   1      42.691  27.900  31.299  1.00  0.00    -0.354 N 
ATOM     55  N   UNL A   1      41.696  29.671  33.441  1.00  0.00    -0.248 NA
ATOM     56  C   UNL A   1      41.780  30.403  35.657  1.00  0.00     0.031 C 
ATOM     57  C   UNL A   1      44.516  26.702  31.696  1.00  0.00     0.029 A 
ATOM     58  C   UNL A   1      43.648  27.624  32.258  1.00  0.00     0.049 A 
ATOM     59  H   UNL A   1      41.935  28.520  31.416  1.00  0.00     0.167 HD
ATOM     60  C   UNL A   1      42.794  29.095  34.067  1.00  0.00     0.074 A 
ATOM     61  C   UNL A   1      42.820  29.612  35.421  1.00  0.00     0.031 C 
ATOM     62  C   UNL A   1      43.681  28.195  33.580  1.00  0.00     0.034 A 
BRANCH  49  63
ATOM     63  C   UNL A   1      42.598  26.419  27.761  1.00  0.00     0.023 A 
ATOM     64  C   UNL A   1      43.512  26.943  26.828  1.00  0.00     0.012 A 
ATOM     65  C   UNL A   1      42.125  25.101  27.604  1.00  0.00     0.148 A 
ATOM     66  C   UNL A   1      43.934  26.175  25.742  1.00  0.00     0.002 A 
ATOM     67  C   UNL A   1      42.576  24.330  26.539  1.00  0.00     0.091 A 
ATOM     68  F   UNL A   1      41.229  24.631  28.484  1.00  0.00    -0.205 F 
ATOM     69  C   UNL A   1      43.475  24.868  25.604  1.00  0.00     0.022 A 
BRANCH  67  70
ATOM     70  S   UNL A   1      42.087  22.615  26.323  1.00  0.00     0.127 S 
ATOM     71  O   UNL A   1      40.628  22.721  26.312  1.00  0.00    -0.237 OA
ATOM     72  O   UNL A   1      42.683  22.278  25.030  1.00  0.00    -0.237 OA
ATOM     73  O   UNL A   1      42.659  21.897  27.454  1.00  0.00    -0.744 OA
ENDBRANCH  67  70
ENDBRANCH  49  63
BRANCH  50  74
ATOM     74  C   UNL A   1      39.408  32.123  35.351  1.00  0.00     0.023 A 
ATOM     75  C   UNL A   1      38.565  31.552  36.321  1.00  0.00     0.012 A 
ATOM     76  C   UNL A   1      39.831  33.457  35.511  1.00  0.00     0.148 A 
ATOM     77  C   UNL A   1      38.143  32.296  37.425  1.00  0.00     0.002 A 
ATOM     78  C   UNL A   1      39.460  34.172  36.645  1.00  0.00     0.091 A 
ATOM     79  F   UNL A   1      40.608  34.001  34.563  1.00  0.00    -0.205 F 
ATOM     80  C   UNL A   1      38.604  33.599  37.596  1.00  0.00     0.022 A 
BRANCH  78  81
ATOM     81  S   UNL A   1      40.157  35.790  37.005  1.00  0.00     0.127 S 
ATOM     82  O   UNL A   1      41.582  35.489  37.109  1.00  0.00    -0.237 OA
ATOM     83  O   UNL A   1      39.775  36.565  35.824  1.00  0.00    -0.237 OA
ATOM     84  O   UNL A   1      39.498  36.219  38.231  1.00  0.00    -0.744 OA
ENDBRANCH  78  81
ENDBRANCH  50  74
BRANCH  62  85
ATOM     85  C   UNL A   1      44.761  27.718  34.511  1.00  0.00     0.023 A 
ATOM     86  C   UNL A   1      45.953  28.458  34.620  1.00  0.00     0.012 A 
ATOM     87  C   UNL A   1      44.566  26.588  35.327  1.00  0.00     0.148 A 
ATOM     88  C   UNL A   1      46.948  28.068  35.514  1.00  0.00     0.002 A 
ATOM     89  C   UNL A   1      45.548  26.226  36.243  1.00  0.00     0.091 A 
ATOM     90  F   UNL A   1      43.434  25.882  35.190  1.00  0.00    -0.205 F 
ATOM     91  C   UNL A   1      46.742  26.960  36.333  1.00  0.00     0.022 A 
BRANCH  89  92
ATOM     92  S   UNL A   1      45.320  24.859  37.386  1.00  0.00     0.127 S 
ATOM     93  O   UNL A   1      44.106  25.261  38.093  1.00  0.00    -0.237 OA
ATOM     94  O   UNL A   1      45.153  23.717  36.487  1.00  0.00    -0.237 OA
ATOM     95  O   UNL A   1      46.535  24.814  38.190  1.00  0.00    -0.744 OA
ENDBRANCH  89  92
ENDBRANCH  62  85
ENDBRANCH  36  37
ENDBRANCH  29  31
ENDBRANCH  28  29
ENDBRANCH  27  28
ENDBRANCH   1  27
TORSDOF 19
ENDMDL
