MODEL 1
REMARK VINA RESULT:     -11.3      0.000      0.000
REMARK SMILES CC[C@@H]1C=CC[C@@H]2C(=O)N(CCCC(=O)OCCOC(=O)c3ccc(-c4c5nc(c(-c6cccc(S(=O)(=O)[O-])c6F)c6ccc([nH]6)c(-c6cccc(S(=O)(=O)[O-])c6F)c6nc(c(-c7cccc(S(=O)(=O)[O-])c7F)c7ccc4[nH]7)C=C6)C=C5)cc3)C(=O)[C@@H]21
REMARK SMILES IDX 17 1 16 2 14 3 15 4 13 5 12 6 11 7 10 8 3 9 4 10 87 11 5 12
REMARK SMILES IDX 7 13 85 14 6 15 8 16 86 17 9 18 2 19 1 20 18 21 19 22 20 23
REMARK SMILES IDX 21 24 22 25 23 26 84 27 24 28 83 29 25 30 26 31 27 32 77 33
REMARK SMILES IDX 28 34 82 35 76 36 78 37 29 38 81 39 75 40 74 41 30 43 62 44
REMARK SMILES IDX 42 45 61 46 43 47 46 48 60 49 79 50 44 51 45 52 59 54 80 55
REMARK SMILES IDX 47 56 31 57 32 58 40 59 33 60 35 61 41 62 34 63 36 64 37 65
REMARK SMILES IDX 38 66 39 67 63 68 64 69 72 70 65 71 67 72 73 73 66 74 68 75
REMARK SMILES IDX 69 76 70 77 71 78 48 79 49 80 57 81 50 82 52 83 58 84 51 85
REMARK SMILES IDX 53 86 54 87 55 88 56 89
REMARK H PARENT 78 42 46 53
REMARK Flexibility Score: inf
ROOT
ATOM      1  C   UNL A   1      31.027  29.683  24.587  1.00  0.00     0.274 C 
ENDROOT
BRANCH   1   2
ATOM      2  O   UNL A   1      31.593  28.776  23.628  1.00  0.00    -0.462 OA
BRANCH   2   3
ATOM      3  C   UNL A   1      30.770  28.273  22.680  1.00  0.00     0.305 C 
ATOM      4  O   UNL A   1      30.101  28.939  21.899  1.00  0.00    -0.252 OA
BRANCH   3   5
ATOM      5  C   UNL A   1      30.772  26.759  22.648  1.00  0.00     0.124 C 
BRANCH   5   6
ATOM      6  C   UNL A   1      31.785  26.075  21.726  1.00  0.00     0.034 C 
BRANCH   6   7
ATOM      7  C   UNL A   1      33.263  26.196  22.130  1.00  0.00     0.129 C 
BRANCH   7   8
ATOM      8  N   UNL A   1      33.585  25.293  23.217  1.00  0.00    -0.282 N 
ATOM      9  C   UNL A   1      32.591  22.367  24.551  1.00  0.00     0.024 C 
ATOM     10  C   UNL A   1      31.341  23.162  24.841  1.00  0.00    -0.027 C 
ATOM     11  C   UNL A   1      33.828  23.289  24.400  1.00  0.00     0.099 C 
ATOM     12  C   UNL A   1      31.380  24.166  25.726  1.00  0.00    -0.030 C 
ATOM     13  C   UNL A   1      33.861  24.477  25.388  1.00  0.00     0.096 C 
ATOM     14  C   UNL A   1      33.856  23.974  23.051  1.00  0.00     0.233 C 
ATOM     15  C   UNL A   1      32.678  24.575  26.362  1.00  0.00     0.041 C 
ATOM     16  C   UNL A   1      33.830  25.690  24.494  1.00  0.00     0.233 C 
ATOM     17  O   UNL A   1      34.140  23.422  21.997  1.00  0.00    -0.274 OA
ATOM     18  O   UNL A   1      33.998  26.837  24.883  1.00  0.00    -0.274 OA
BRANCH   9  19
ATOM     19  C   UNL A   1      32.366  21.364  23.402  1.00  0.00     0.005 C 
ATOM     20  C   UNL A   1      32.587  19.925  23.847  1.00  0.00     0.004 C 
ENDBRANCH   9  19
ENDBRANCH   7   8
ENDBRANCH   6   7
ENDBRANCH   5   6
ENDBRANCH   3   5
ENDBRANCH   2   3
ENDBRANCH   1   2
BRANCH   1  21
ATOM     21  C   UNL A   1      31.724  29.504  25.935  1.00  0.00     0.275 C 
BRANCH  21  22
ATOM     22  O   UNL A   1      33.022  30.122  25.919  1.00  0.00    -0.458 OA
BRANCH  22  23
ATOM     23  C   UNL A   1      33.222  31.071  26.863  1.00  0.00     0.338 C 
ATOM     24  O   UNL A   1      32.436  31.915  27.252  1.00  0.00    -0.246 OA
BRANCH  23  25
ATOM     25  C   UNL A   1      34.536  30.853  27.476  1.00  0.00     0.060 A 
ATOM     26  C   UNL A   1      34.885  29.558  27.870  1.00  0.00     0.016 A 
ATOM     27  C   UNL A   1      35.392  31.925  27.714  1.00  0.00     0.016 A 
ATOM     28  C   UNL A   1      36.086  29.325  28.526  1.00  0.00     0.010 A 
ATOM     29  C   UNL A   1      36.610  31.687  28.351  1.00  0.00     0.010 A 
ATOM     30  C   UNL A   1      36.956  30.390  28.773  1.00  0.00    -0.014 A 
BRANCH  30  31
ATOM     31  C   UNL A   1      38.226  30.168  29.496  1.00  0.00     0.031 A 
ATOM     32  C   UNL A   1      39.237  29.218  28.924  1.00  0.00     0.074 A 
ATOM     33  C   UNL A   1      38.428  30.761  30.687  1.00  0.00     0.049 A 
ATOM     34  N   UNL A   1      40.304  28.716  29.483  1.00  0.00    -0.248 NA
ATOM     35  C   UNL A   1      39.005  28.759  27.544  1.00  0.00     0.031 C 
ATOM     36  C   UNL A   1      37.515  31.711  31.324  1.00  0.00     0.029 A 
ATOM     37  N   UNL A   1      39.443  30.611  31.598  1.00  0.00    -0.354 N 
ATOM     38  C   UNL A   1      40.832  27.828  28.555  1.00  0.00     0.074 A 
ATOM     39  C   UNL A   1      39.984  27.878  27.385  1.00  0.00     0.031 C 
ATOM     40  C   UNL A   1      37.988  32.026  32.540  1.00  0.00     0.029 A 
ATOM     41  C   UNL A   1      39.205  31.259  32.787  1.00  0.00     0.049 A 
ATOM     42  H   UNL A   1      40.261  30.093  31.418  1.00  0.00     0.167 HD
ATOM     43  C   UNL A   1      41.926  27.043  28.677  1.00  0.00     0.034 A 
ATOM     44  C   UNL A   1      39.863  31.197  33.961  1.00  0.00     0.034 A 
ATOM     45  C   UNL A   1      42.789  27.049  29.826  1.00  0.00     0.049 A 
ATOM     46  C   UNL A   1      41.085  30.327  34.059  1.00  0.00     0.074 A 
ATOM     47  C   UNL A   1      43.964  26.346  30.022  1.00  0.00     0.029 A 
ATOM     48  N   UNL A   1      42.567  27.790  30.976  1.00  0.00    -0.354 N 
ATOM     49  N   UNL A   1      41.635  29.571  33.139  1.00  0.00    -0.248 NA
ATOM     50  C   UNL A   1      41.794  30.315  35.347  1.00  0.00     0.031 C 
ATOM     51  C   UNL A   1      44.443  26.649  31.300  1.00  0.00     0.029 A 
ATOM     52  C   UNL A   1      43.578  27.557  31.890  1.00  0.00     0.049 A 
ATOM     53  H   UNL A   1      41.804  28.395  31.121  1.00  0.00     0.167 HD
ATOM     54  C   UNL A   1      42.769  29.020  33.724  1.00  0.00     0.074 A 
ATOM     55  C   UNL A   1      42.839  29.545  35.073  1.00  0.00     0.031 C 
ATOM     56  C   UNL A   1      43.662  28.146  33.201  1.00  0.00     0.034 A 
BRANCH  43  57
ATOM     57  C   UNL A   1      42.269  26.120  27.541  1.00  0.00     0.023 A 
ATOM     58  C   UNL A   1      43.130  26.557  26.516  1.00  0.00     0.012 A 
ATOM     59  C   UNL A   1      41.803  24.791  27.536  1.00  0.00     0.148 A 
ATOM     60  C   UNL A   1      43.511  25.690  25.493  1.00  0.00     0.002 A 
ATOM     61  C   UNL A   1      42.217  23.920  26.536  1.00  0.00     0.091 A 
ATOM     62  F   UNL A   1      40.965  24.404  28.508  1.00  0.00    -0.205 F 
ATOM     63  C   UNL A   1      43.065  24.370  25.510  1.00  0.00     0.022 A 
BRANCH  61  64
ATOM     64  S   UNL A   1      41.758  22.184  26.508  1.00  0.00     0.127 S 
ATOM     65  O   UNL A   1      42.215  21.736  27.823  1.00  0.00    -0.237 OA
ATOM     66  O   UNL A   1      40.305  22.252  26.357  1.00  0.00    -0.237 OA
ATOM     67  O   UNL A   1      42.461  21.600  25.373  1.00  0.00    -0.744 OA
ENDBRANCH  61  64
ENDBRANCH  43  57
BRANCH  44  68
ATOM     68  C   UNL A   1      39.378  31.982  35.131  1.00  0.00     0.023 A 
ATOM     69  C   UNL A   1      38.469  31.395  36.032  1.00  0.00     0.012 A 
ATOM     70  C   UNL A   1      39.828  33.296  35.371  1.00  0.00     0.148 A 
ATOM     71  C   UNL A   1      37.992  32.112  37.131  1.00  0.00     0.002 A 
ATOM     72  C   UNL A   1      39.394  33.984  36.498  1.00  0.00     0.091 A 
ATOM     73  F   UNL A   1      40.677  33.849  34.492  1.00  0.00    -0.205 F 
ATOM     74  C   UNL A   1      38.463  33.402  37.370  1.00  0.00     0.022 A 
BRANCH  72  75
ATOM     75  S   UNL A   1      40.057  35.593  36.944  1.00  0.00     0.127 S 
ATOM     76  O   UNL A   1      41.495  35.340  36.923  1.00  0.00    -0.237 OA
ATOM     77  O   UNL A   1      39.567  36.442  35.857  1.00  0.00    -0.237 OA
ATOM     78  O   UNL A   1      39.479  35.900  38.245  1.00  0.00    -0.744 OA
ENDBRANCH  72  75
ENDBRANCH  44  68
BRANCH  56  79
ATOM     79  C   UNL A   1      44.822  27.731  34.065  1.00  0.00     0.023 A 
ATOM     80  C   UNL A   1      45.983  28.526  34.104  1.00  0.00     0.012 A 
ATOM     81  C   UNL A   1      44.716  26.610  34.911  1.00  0.00     0.148 A 
ATOM     82  C   UNL A   1      47.033  28.199  34.961  1.00  0.00     0.002 A 
ATOM     83  C   UNL A   1      45.746  26.318  35.796  1.00  0.00     0.091 A 
ATOM     84  F   UNL A   1      43.608  25.858  34.842  1.00  0.00    -0.205 F 
ATOM     85  C   UNL A   1      46.910  27.105  35.815  1.00  0.00     0.022 A 
BRANCH  83  86
ATOM     86  S   UNL A   1      45.631  24.990  37.000  1.00  0.00     0.127 S 
ATOM     87  O   UNL A   1      45.667  23.807  36.143  1.00  0.00    -0.237 OA
ATOM     88  O   UNL A   1      46.833  25.197  37.807  1.00  0.00    -0.237 OA
ATOM     89  O   UNL A   1      44.380  25.206  37.715  1.00  0.00    -0.744 OA
ENDBRANCH  83  86
ENDBRANCH  56  79
ENDBRANCH  30  31
ENDBRANCH  23  25
ENDBRANCH  22  23
ENDBRANCH  21  22
ENDBRANCH   1  21
TORSDOF 18
ENDMDL
MODEL 2
REMARK VINA RESULT:     -11.2      1.082      1.897
REMARK SMILES CC[C@@H]1C=CC[C@@H]2C(=O)N(CCCC(=O)OCCOC(=O)c3ccc(-c4c5nc(c(-c6cccc(S(=O)(=O)[O-])c6F)c6ccc([nH]6)c(-c6cccc(S(=O)(=O)[O-])c6F)c6nc(c(-c7cccc(S(=O)(=O)[O-])c7F)c7ccc4[nH]7)C=C6)C=C5)cc3)C(=O)[C@@H]21
REMARK SMILES IDX 17 1 16 2 14 3 15 4 13 5 12 6 11 7 10 8 3 9 4 10 87 11 5 12
REMARK SMILES IDX 7 13 85 14 6 15 8 16 86 17 9 18 2 19 1 20 18 21 19 22 20 23
REMARK SMILES IDX 21 24 22 25 23 26 84 27 24 28 83 29 25 30 26 31 27 32 77 33
REMARK SMILES IDX 28 34 82 35 76 36 78 37 29 38 81 39 75 40 74 41 30 43 62 44
REMARK SMILES IDX 42 45 61 46 43 47 46 48 60 49 79 50 44 51 45 52 59 54 80 55
REMARK SMILES IDX 47 56 31 57 32 58 40 59 33 60 35 61 41 62 34 63 36 64 37 65
REMARK SMILES IDX 38 66 39 67 63 68 64 69 72 70 65 71 67 72 73 73 66 74 68 75
REMARK SMILES IDX 69 76 70 77 71 78 48 79 49 80 57 81 50 82 52 83 58 84 51 85
REMARK SMILES IDX 53 86 54 87 55 88 56 89
REMARK H PARENT 78 42 46 53
REMARK Flexibility Score: inf
ROOT
ATOM      1  C   UNL A   1      31.185  28.918  24.965  1.00  0.00     0.274 C 
ENDROOT
BRANCH   1   2
ATOM      2  O   UNL A   1      31.482  27.534  24.716  1.00  0.00    -0.462 OA
BRANCH   2   3
ATOM      3  C   UNL A   1      31.271  26.657  25.724  1.00  0.00     0.305 C 
ATOM      4  O   UNL A   1      30.959  26.959  26.870  1.00  0.00    -0.252 OA
BRANCH   3   5
ATOM      5  C   UNL A   1      31.431  25.216  25.289  1.00  0.00     0.124 C 
BRANCH   5   6
ATOM      6  C   UNL A   1      31.378  24.923  23.787  1.00  0.00     0.034 C 
BRANCH   6   7
ATOM      7  C   UNL A   1      31.272  23.442  23.386  1.00  0.00     0.129 C 
BRANCH   7   8
ATOM      8  N   UNL A   1      32.519  22.744  23.627  1.00  0.00    -0.282 N 
ATOM      9  C   UNL A   1      34.629  21.975  26.134  1.00  0.00     0.024 C 
ATOM     10  C   UNL A   1      34.818  23.472  26.157  1.00  0.00    -0.027 C 
ATOM     11  C   UNL A   1      34.142  21.485  24.747  1.00  0.00     0.099 C 
ATOM     12  C   UNL A   1      35.415  24.084  25.126  1.00  0.00    -0.030 C 
ATOM     13  C   UNL A   1      34.793  22.215  23.549  1.00  0.00     0.096 C 
ATOM     14  C   UNL A   1      32.668  21.753  24.543  1.00  0.00     0.233 C 
ATOM     15  C   UNL A   1      35.811  23.310  23.902  1.00  0.00     0.041 C 
ATOM     16  C   UNL A   1      33.628  22.869  22.852  1.00  0.00     0.233 C 
ATOM     17  O   UNL A   1      31.766  21.124  25.079  1.00  0.00    -0.274 OA
ATOM     18  O   UNL A   1      33.699  23.420  21.763  1.00  0.00    -0.274 OA
BRANCH   9  19
ATOM     19  C   UNL A   1      33.794  21.496  27.339  1.00  0.00     0.005 C 
ATOM     20  C   UNL A   1      32.999  22.630  27.971  1.00  0.00     0.004 C 
ENDBRANCH   9  19
ENDBRANCH   7   8
ENDBRANCH   6   7
ENDBRANCH   5   6
ENDBRANCH   3   5
ENDBRANCH   2   3
ENDBRANCH   1   2
BRANCH   1  21
ATOM     21  C   UNL A   1      32.471  29.660  25.327  1.00  0.00     0.275 C 
BRANCH  21  22
ATOM     22  O   UNL A   1      32.515  29.938  26.737  1.00  0.00    -0.458 OA
BRANCH  22  23
ATOM     23  C   UNL A   1      33.044  31.137  27.073  1.00  0.00     0.338 C 
ATOM     24  O   UNL A   1      32.512  32.230  27.018  1.00  0.00    -0.246 OA
BRANCH  23  25
ATOM     25  C   UNL A   1      34.368  30.916  27.664  1.00  0.00     0.060 A 
ATOM     26  C   UNL A   1      34.716  29.622  28.062  1.00  0.00     0.016 A 
ATOM     27  C   UNL A   1      35.234  31.985  27.877  1.00  0.00     0.016 A 
ATOM     28  C   UNL A   1      35.928  29.387  28.698  1.00  0.00     0.010 A 
ATOM     29  C   UNL A   1      36.462  31.745  28.494  1.00  0.00     0.010 A 
ATOM     30  C   UNL A   1      36.808  30.449  28.919  1.00  0.00    -0.014 A 
BRANCH  30  31
ATOM     31  C   UNL A   1      38.091  30.226  29.622  1.00  0.00     0.031 A 
ATOM     32  C   UNL A   1      39.094  29.282  29.027  1.00  0.00     0.074 A 
ATOM     33  C   UNL A   1      38.309  30.811  30.813  1.00  0.00     0.049 A 
ATOM     34  N   UNL A   1      40.171  28.780  29.566  1.00  0.00    -0.248 NA
ATOM     35  C   UNL A   1      38.843  28.833  27.647  1.00  0.00     0.031 C 
ATOM     36  C   UNL A   1      37.404  31.754  31.471  1.00  0.00     0.029 A 
ATOM     37  N   UNL A   1      39.339  30.658  31.707  1.00  0.00    -0.354 N 
ATOM     38  C   UNL A   1      40.687  27.900  28.623  1.00  0.00     0.074 A 
ATOM     39  C   UNL A   1      39.821  27.955  27.467  1.00  0.00     0.031 C 
ATOM     40  C   UNL A   1      37.895  32.062  32.682  1.00  0.00     0.029 A 
ATOM     41  C   UNL A   1      39.118  31.297  32.904  1.00  0.00     0.049 A 
ATOM     42  H   UNL A   1      40.155  30.143  31.510  1.00  0.00     0.167 HD
ATOM     43  C   UNL A   1      41.785  27.117  28.723  1.00  0.00     0.034 A 
ATOM     44  C   UNL A   1      39.794  31.228  34.067  1.00  0.00     0.034 A 
ATOM     45  C   UNL A   1      42.665  27.116  29.859  1.00  0.00     0.049 A 
ATOM     46  C   UNL A   1      41.020  30.360  34.140  1.00  0.00     0.074 A 
ATOM     47  C   UNL A   1      43.845  26.415  30.031  1.00  0.00     0.029 A 
ATOM     48  N   UNL A   1      42.460  27.849  31.017  1.00  0.00    -0.354 N 
ATOM     49  N   UNL A   1      41.557  29.613  33.206  1.00  0.00    -0.248 NA
ATOM     50  C   UNL A   1      41.749  30.342  35.416  1.00  0.00     0.031 C 
ATOM     51  C   UNL A   1      44.344  26.710  31.303  1.00  0.00     0.029 A 
ATOM     52  C   UNL A   1      43.486  27.613  31.913  1.00  0.00     0.049 A 
ATOM     53  H   UNL A   1      41.697  28.451  31.178  1.00  0.00     0.167 HD
ATOM     54  C   UNL A   1      42.702  29.061  33.770  1.00  0.00     0.074 A 
ATOM     55  C   UNL A   1      42.791  29.576  35.121  1.00  0.00     0.031 C 
ATOM     56  C   UNL A   1      43.589  28.192  33.227  1.00  0.00     0.034 A 
BRANCH  43  57
ATOM     57  C   UNL A   1      42.112  26.202  27.575  1.00  0.00     0.023 A 
ATOM     58  C   UNL A   1      42.953  26.650  26.538  1.00  0.00     0.012 A 
ATOM     59  C   UNL A   1      41.653  24.871  27.570  1.00  0.00     0.148 A 
ATOM     60  C   UNL A   1      43.320  25.791  25.503  1.00  0.00     0.002 A 
ATOM     61  C   UNL A   1      42.054  24.008  26.557  1.00  0.00     0.091 A 
ATOM     62  F   UNL A   1      40.835  24.473  28.555  1.00  0.00    -0.205 F 
ATOM     63  C   UNL A   1      42.881  24.469  25.520  1.00  0.00     0.022 A 
BRANCH  61  64
ATOM     64  S   UNL A   1      41.604  22.270  26.527  1.00  0.00     0.127 S 
ATOM     65  O   UNL A   1      42.305  21.804  25.330  1.00  0.00    -0.237 OA
ATOM     66  O   UNL A   1      42.163  21.785  27.789  1.00  0.00    -0.237 OA
ATOM     67  O   UNL A   1      40.150  22.230  26.450  1.00  0.00    -0.744 OA
ENDBRANCH  61  64
ENDBRANCH  43  57
BRANCH  44  68
ATOM     68  C   UNL A   1      39.326  32.003  35.250  1.00  0.00     0.023 A 
ATOM     69  C   UNL A   1      38.453  31.399  36.175  1.00  0.00     0.012 A 
ATOM     70  C   UNL A   1      39.757  33.326  35.479  1.00  0.00     0.148 A 
ATOM     71  C   UNL A   1      37.992  32.108  37.286  1.00  0.00     0.002 A 
ATOM     72  C   UNL A   1      39.339  34.006  36.617  1.00  0.00     0.091 A 
ATOM     73  F   UNL A   1      40.572  33.895  34.578  1.00  0.00    -0.205 F 
ATOM     74  C   UNL A   1      38.444  33.405  37.513  1.00  0.00     0.022 A 
BRANCH  72  75
ATOM     75  S   UNL A   1      39.984  35.627  37.046  1.00  0.00     0.127 S 
ATOM     76  O   UNL A   1      39.297  35.899  38.305  1.00  0.00    -0.237 OA
ATOM     77  O   UNL A   1      41.419  35.365  37.173  1.00  0.00    -0.237 OA
ATOM     78  O   UNL A   1      39.634  36.489  35.925  1.00  0.00    -0.744 OA
ENDBRANCH  72  75
ENDBRANCH  44  68
BRANCH  56  79
ATOM     79  C   UNL A   1      44.763  27.775  34.069  1.00  0.00     0.023 A 
ATOM     80  C   UNL A   1      45.925  28.570  34.093  1.00  0.00     0.012 A 
ATOM     81  C   UNL A   1      44.672  26.649  34.912  1.00  0.00     0.148 A 
ATOM     82  C   UNL A   1      46.989  28.241  34.931  1.00  0.00     0.002 A 
ATOM     83  C   UNL A   1      45.717  26.354  35.779  1.00  0.00     0.091 A 
ATOM     84  F   UNL A   1      43.564  25.897  34.858  1.00  0.00    -0.205 F 
ATOM     85  C   UNL A   1      46.880  27.142  35.782  1.00  0.00     0.022 A 
BRANCH  83  86
ATOM     86  S   UNL A   1      45.623  25.021  36.978  1.00  0.00     0.127 S 
ATOM     87  O   UNL A   1      44.432  25.391  37.742  1.00  0.00    -0.237 OA
ATOM     88  O   UNL A   1      45.460  23.845  36.124  1.00  0.00    -0.237 OA
ATOM     89  O   UNL A   1      46.877  25.060  37.719  1.00  0.00    -0.744 OA
ENDBRANCH  83  86
ENDBRANCH  56  79
ENDBRANCH  30  31
ENDBRANCH  23  25
ENDBRANCH  22  23
ENDBRANCH  21  22
ENDBRANCH   1  21
TORSDOF 18
ENDMDL
MODEL 3
REMARK VINA RESULT:     -11.1      1.676      2.077
REMARK SMILES CC[C@@H]1C=CC[C@@H]2C(=O)N(CCCC(=O)OCCOC(=O)c3ccc(-c4c5nc(c(-c6cccc(S(=O)(=O)[O-])c6F)c6ccc([nH]6)c(-c6cccc(S(=O)(=O)[O-])c6F)c6nc(c(-c7cccc(S(=O)(=O)[O-])c7F)c7ccc4[nH]7)C=C6)C=C5)cc3)C(=O)[C@@H]21
REMARK SMILES IDX 17 1 16 2 14 3 15 4 13 5 12 6 11 7 10 8 3 9 4 10 87 11 5 12
REMARK SMILES IDX 7 13 85 14 6 15 8 16 86 17 9 18 2 19 1 20 18 21 19 22 20 23
REMARK SMILES IDX 21 24 22 25 23 26 84 27 24 28 83 29 25 30 26 31 27 32 77 33
REMARK SMILES IDX 28 34 82 35 76 36 78 37 29 38 81 39 75 40 74 41 30 43 62 44
REMARK SMILES IDX 42 45 61 46 43 47 46 48 60 49 79 50 44 51 45 52 59 54 80 55
REMARK SMILES IDX 47 56 31 57 32 58 40 59 33 60 35 61 41 62 34 63 36 64 37 65
REMARK SMILES IDX 38 66 39 67 63 68 64 69 72 70 65 71 67 72 73 73 66 74 68 75
REMARK SMILES IDX 69 76 70 77 71 78 48 79 49 80 57 81 50 82 52 83 58 84 51 85
REMARK SMILES IDX 53 86 54 87 55 88 56 89
REMARK H PARENT 78 42 46 53
REMARK Flexibility Score: inf
ROOT
ATOM      1  C   UNL A   1      31.046  29.617  24.372  1.00  0.00     0.274 C 
ENDROOT
BRANCH   1   2
ATOM      2  O   UNL A   1      31.918  28.964  23.435  1.00  0.00    -0.462 OA
BRANCH   2   3
ATOM      3  C   UNL A   1      31.462  27.842  22.832  1.00  0.00     0.305 C 
ATOM      4  O   UNL A   1      30.538  27.797  22.028  1.00  0.00    -0.252 OA
BRANCH   3   5
ATOM      5  C   UNL A   1      32.242  26.607  23.229  1.00  0.00     0.124 C 
BRANCH   5   6
ATOM      6  C   UNL A   1      33.626  26.816  23.849  1.00  0.00     0.034 C 
BRANCH   6   7
ATOM      7  C   UNL A   1      33.707  26.722  25.382  1.00  0.00     0.129 C 
BRANCH   7   8
ATOM      8  N   UNL A   1      33.277  25.419  25.850  1.00  0.00    -0.282 N 
ATOM      9  C   UNL A   1      33.161  22.205  24.857  1.00  0.00     0.024 C 
ATOM     10  C   UNL A   1      32.205  22.771  23.836  1.00  0.00    -0.027 C 
ATOM     11  C   UNL A   1      33.233  23.096  26.123  1.00  0.00     0.099 C 
ATOM     12  C   UNL A   1      31.018  23.252  24.228  1.00  0.00    -0.030 C 
ATOM     13  C   UNL A   1      31.874  23.692  26.561  1.00  0.00     0.096 C 
ATOM     14  C   UNL A   1      34.082  24.327  25.896  1.00  0.00     0.233 C 
ATOM     15  C   UNL A   1      30.667  23.324  25.686  1.00  0.00     0.041 C 
ATOM     16  C   UNL A   1      32.086  25.180  26.460  1.00  0.00     0.233 C 
ATOM     17  O   UNL A   1      35.303  24.327  25.829  1.00  0.00    -0.274 OA
ATOM     18  O   UNL A   1      31.294  26.017  26.868  1.00  0.00    -0.274 OA
BRANCH   9  19
ATOM     19  C   UNL A   1      34.518  21.847  24.219  1.00  0.00     0.005 C 
ATOM     20  C   UNL A   1      35.268  20.794  25.022  1.00  0.00     0.004 C 
ENDBRANCH   9  19
ENDBRANCH   7   8
ENDBRANCH   6   7
ENDBRANCH   5   6
ENDBRANCH   3   5
ENDBRANCH   2   3
ENDBRANCH   1   2
BRANCH   1  21
ATOM     21  C   UNL A   1      31.646  29.532  25.774  1.00  0.00     0.275 C 
BRANCH  21  22
ATOM     22  O   UNL A   1      32.905  30.225  25.828  1.00  0.00    -0.458 OA
BRANCH  22  23
ATOM     23  C   UNL A   1      32.981  31.212  26.750  1.00  0.00     0.338 C 
ATOM     24  O   UNL A   1      32.168  32.090  26.974  1.00  0.00    -0.246 OA
BRANCH  23  25
ATOM     25  C   UNL A   1      34.178  30.996  27.571  1.00  0.00     0.060 A 
ATOM     26  C   UNL A   1      34.998  32.089  27.860  1.00  0.00     0.016 A 
ATOM     27  C   UNL A   1      34.517  29.716  28.002  1.00  0.00     0.016 A 
ATOM     28  C   UNL A   1      36.181  31.911  28.565  1.00  0.00     0.010 A 
ATOM     29  C   UNL A   1      35.692  29.540  28.731  1.00  0.00     0.010 A 
ATOM     30  C   UNL A   1      36.536  30.633  29.004  1.00  0.00    -0.014 A 
BRANCH  30  31
ATOM     31  C   UNL A   1      37.806  30.416  29.731  1.00  0.00     0.031 A 
ATOM     32  C   UNL A   1      38.836  29.498  29.142  1.00  0.00     0.074 A 
ATOM     33  C   UNL A   1      37.989  30.982  30.938  1.00  0.00     0.049 A 
ATOM     34  N   UNL A   1      39.909  29.001  29.696  1.00  0.00    -0.248 NA
ATOM     35  C   UNL A   1      38.623  29.070  27.749  1.00  0.00     0.031 C 
ATOM     36  C   UNL A   1      37.054  31.899  31.592  1.00  0.00     0.029 A 
ATOM     37  N   UNL A   1      39.001  30.827  31.851  1.00  0.00    -0.354 N 
ATOM     38  C   UNL A   1      40.459  28.147  28.749  1.00  0.00     0.074 A 
ATOM     39  C   UNL A   1      39.618  28.211  27.575  1.00  0.00     0.031 C 
ATOM     40  C   UNL A   1      37.514  32.192  32.819  1.00  0.00     0.029 A 
ATOM     41  C   UNL A   1      38.743  31.441  33.054  1.00  0.00     0.049 A 
ATOM     42  H   UNL A   1      39.829  30.328  31.664  1.00  0.00     0.167 HD
ATOM     43  C   UNL A   1      41.566  27.378  28.860  1.00  0.00     0.034 A 
ATOM     44  C   UNL A   1      39.394  31.361  34.231  1.00  0.00     0.034 A 
ATOM     45  C   UNL A   1      42.421  27.370  30.015  1.00  0.00     0.049 A 
ATOM     46  C   UNL A   1      40.631  30.510  34.316  1.00  0.00     0.074 A 
ATOM     47  C   UNL A   1      43.607  26.683  30.201  1.00  0.00     0.029 A 
ATOM     48  N   UNL A   1      42.179  28.079  31.181  1.00  0.00    -0.354 N 
ATOM     49  N   UNL A   1      41.200  29.788  33.381  1.00  0.00    -0.248 NA
ATOM     50  C   UNL A   1      41.331  30.479  35.608  1.00  0.00     0.031 C 
ATOM     51  C   UNL A   1      44.073  26.963  31.489  1.00  0.00     0.029 A 
ATOM     52  C   UNL A   1      43.188  27.841  32.096  1.00  0.00     0.049 A 
ATOM     53  H   UNL A   1      41.403  28.666  31.335  1.00  0.00     0.167 HD
ATOM     54  C   UNL A   1      42.340  29.243  33.960  1.00  0.00     0.074 A 
ATOM     55  C   UNL A   1      42.392  29.734  35.322  1.00  0.00     0.031 C 
ATOM     56  C   UNL A   1      43.253  28.397  33.422  1.00  0.00     0.034 A 
BRANCH  43  57
ATOM     57  C   UNL A   1      41.932  26.490  27.703  1.00  0.00     0.023 A 
ATOM     58  C   UNL A   1      42.771  26.977  26.682  1.00  0.00     0.012 A 
ATOM     59  C   UNL A   1      41.513  25.146  27.675  1.00  0.00     0.148 A 
ATOM     60  C   UNL A   1      43.175  26.144  25.639  1.00  0.00     0.002 A 
ATOM     61  C   UNL A   1      41.950  24.310  26.655  1.00  0.00     0.091 A 
ATOM     62  F   UNL A   1      40.696  24.711  28.644  1.00  0.00    -0.205 F 
ATOM     63  C   UNL A   1      42.775  24.809  25.633  1.00  0.00     0.022 A 
BRANCH  61  64
ATOM     64  S   UNL A   1      41.552  22.560  26.595  1.00  0.00     0.127 S 
ATOM     65  O   UNL A   1      42.141  22.079  27.844  1.00  0.00    -0.237 OA
ATOM     66  O   UNL A   1      40.090  22.578  26.577  1.00  0.00    -0.237 OA
ATOM     67  O   UNL A   1      42.169  22.047  25.379  1.00  0.00    -0.744 OA
ENDBRANCH  61  64
ENDBRANCH  43  57
BRANCH  44  68
ATOM     68  C   UNL A   1      38.888  32.107  35.417  1.00  0.00     0.023 A 
ATOM     69  C   UNL A   1      38.985  33.511  35.447  1.00  0.00     0.012 A 
ATOM     70  C   UNL A   1      38.292  31.438  36.506  1.00  0.00     0.148 A 
ATOM     71  C   UNL A   1      38.527  34.233  36.551  1.00  0.00     0.002 A 
ATOM     72  C   UNL A   1      37.787  32.167  37.576  1.00  0.00     0.091 A 
ATOM     73  F   UNL A   1      38.227  30.099  36.472  1.00  0.00    -0.205 F 
ATOM     74  C   UNL A   1      37.919  33.562  37.610  1.00  0.00     0.022 A 
BRANCH  72  75
ATOM     75  S   UNL A   1      36.871  31.386  38.910  1.00  0.00     0.127 S 
ATOM     76  O   UNL A   1      35.670  32.213  38.973  1.00  0.00    -0.237 OA
ATOM     77  O   UNL A   1      36.661  30.034  38.390  1.00  0.00    -0.237 OA
ATOM     78  O   UNL A   1      37.752  31.447  40.069  1.00  0.00    -0.744 OA
ENDBRANCH  72  75
ENDBRANCH  44  68
BRANCH  56  79
ATOM     79  C   UNL A   1      44.414  27.982  34.283  1.00  0.00     0.023 A 
ATOM     80  C   UNL A   1      45.589  28.757  34.293  1.00  0.00     0.012 A 
ATOM     81  C   UNL A   1      44.298  26.881  35.155  1.00  0.00     0.148 A 
ATOM     82  C   UNL A   1      46.642  28.431  35.146  1.00  0.00     0.002 A 
ATOM     83  C   UNL A   1      45.331  26.591  36.036  1.00  0.00     0.091 A 
ATOM     84  F   UNL A   1      43.176  26.148  35.113  1.00  0.00    -0.205 F 
ATOM     85  C   UNL A   1      46.508  27.358  36.025  1.00  0.00     0.022 A 
BRANCH  83  86
ATOM     86  S   UNL A   1      45.206  25.293  37.270  1.00  0.00     0.127 S 
ATOM     87  O   UNL A   1      46.564  25.262  37.810  1.00  0.00    -0.237 OA
ATOM     88  O   UNL A   1      44.197  25.829  38.184  1.00  0.00    -0.237 OA
ATOM     89  O   UNL A   1      44.793  24.095  36.551  1.00  0.00    -0.744 OA
ENDBRANCH  83  86
ENDBRANCH  56  79
ENDBRANCH  30  31
ENDBRANCH  23  25
ENDBRANCH  22  23
ENDBRANCH  21  22
ENDBRANCH   1  21
TORSDOF 18
ENDMDL
