MODEL 1
REMARK VINA RESULT:     -11.1      0.000      0.000
REMARK SMILES CCc1nc(=O)n([C@@H](CC)C(C)C)c(CC)c1CC(=O)OCCOC(=O)c1ccc(-c2c3nc(c(-c4cccc(S(=O)(=O)[O-])c4F)c4ccc([nH]4)c(-c4cccc(S(=O)(=O)[O-])c4F)c4nc(c(-c5cccc(S(=O)(=O)[O-])c5F)c5ccc2[nH]5)C=C4)C=C3)cc1
REMARK SMILES IDX 22 1 21 2 19 3 20 4 18 5 17 6 3 7 4 8 5 9 14 10 6 11 7 12
REMARK SMILES IDX 2 13 1 14 15 15 16 16 8 17 9 18 10 19 11 20 12 21 13 22
REMARK SMILES IDX 23 23 24 24 25 25 26 26 27 27 28 28 89 29 29 30 88 31 30 32
REMARK SMILES IDX 31 33 32 34 82 35 33 36 87 37 81 38 83 39 34 40 86 41 80 42
REMARK SMILES IDX 79 43 35 45 67 46 47 47 66 48 48 49 51 50 65 51 84 52 49 53
REMARK SMILES IDX 50 54 64 56 85 57 52 58 36 59 37 60 45 61 38 62 40 63 46 64
REMARK SMILES IDX 39 65 41 66 42 67 43 68 44 69 68 70 69 71 77 72 70 73 72 74
REMARK SMILES IDX 78 75 71 76 73 77 74 78 75 79 76 80 53 81 54 82 62 83 55 84
REMARK SMILES IDX 57 85 63 86 56 87 58 88 59 89 60 90 61 91
REMARK H PARENT 83 44 51 55
REMARK Flexibility Score: inf
ROOT
ATOM      1  C   UNL A   1      35.772  20.876  24.989  1.00  0.00     0.274 C 
ENDROOT
BRANCH   1   2
ATOM      2  O   UNL A   1      35.313  21.992  24.191  1.00  0.00    -0.462 OA
BRANCH   2   3
ATOM      3  C   UNL A   1      34.678  22.977  24.876  1.00  0.00     0.310 C 
ATOM      4  O   UNL A   1      35.179  23.623  25.791  1.00  0.00    -0.252 OA
BRANCH   3   5
ATOM      5  C   UNL A   1      33.309  23.323  24.316  1.00  0.00     0.162 C 
BRANCH   5   6
ATOM      6  C   UNL A   1      32.538  24.474  24.897  1.00  0.00     0.005 A 
ATOM      7  C   UNL A   1      31.516  24.158  25.938  1.00  0.00     0.051 A 
ATOM      8  N   UNL A   1      30.947  25.038  26.685  1.00  0.00    -0.198 NA
ATOM      9  C   UNL A   1      31.241  26.362  26.534  1.00  0.00     0.348 A 
ATOM     10  C   UNL A   1      32.779  25.796  24.700  1.00  0.00     0.028 A 
ATOM     11  O   UNL A   1      30.729  27.171  27.301  1.00  0.00    -0.246 OA
ATOM     12  N   UNL A   1      32.102  26.752  25.493  1.00  0.00    -0.293 N 
BRANCH   7  13
ATOM     13  C   UNL A   1      31.066  22.716  26.186  1.00  0.00     0.053 C 
ATOM     14  C   UNL A   1      29.813  22.612  27.041  1.00  0.00     0.011 C 
ENDBRANCH   7  13
BRANCH  10  15
ATOM     15  C   UNL A   1      33.879  26.293  23.745  1.00  0.00     0.051 C 
ATOM     16  C   UNL A   1      33.528  26.355  22.256  1.00  0.00     0.010 C 
ENDBRANCH  10  15
BRANCH  12  17
ATOM     17  C   UNL A   1      32.247  28.213  25.237  1.00  0.00     0.094 C 
BRANCH  17  18
ATOM     18  C   UNL A   1      31.035  28.763  24.439  1.00  0.00     0.022 C 
ATOM     19  C   UNL A   1      31.263  29.099  22.976  1.00  0.00     0.006 C 
ENDBRANCH  17  18
BRANCH  17  20
ATOM     20  C   UNL A   1      32.756  29.083  26.426  1.00  0.00     0.006 C 
ATOM     21  C   UNL A   1      34.285  29.223  26.381  1.00  0.00     0.009 C 
ATOM     22  C   UNL A   1      32.143  30.492  26.365  1.00  0.00     0.009 C 
ENDBRANCH  17  20
ENDBRANCH  12  17
ENDBRANCH   5   6
ENDBRANCH   3   5
ENDBRANCH   2   3
ENDBRANCH   1   2
BRANCH   1  23
ATOM     23  C   UNL A   1      37.300  20.828  25.011  1.00  0.00     0.275 C 
BRANCH  23  24
ATOM     24  O   UNL A   1      37.812  21.636  26.093  1.00  0.00    -0.458 OA
BRANCH  24  25
ATOM     25  C   UNL A   1      39.156  21.554  26.217  1.00  0.00     0.338 C 
ATOM     26  O   UNL A   1      39.835  20.567  25.990  1.00  0.00    -0.246 OA
BRANCH  25  27
ATOM     27  C   UNL A   1      39.773  22.804  26.679  1.00  0.00     0.060 A 
ATOM     28  C   UNL A   1      39.173  24.005  26.297  1.00  0.00     0.016 A 
ATOM     29  C   UNL A   1      40.791  22.796  27.633  1.00  0.00     0.016 A 
ATOM     30  C   UNL A   1      39.622  25.208  26.842  1.00  0.00     0.010 A 
ATOM     31  C   UNL A   1      41.161  23.989  28.257  1.00  0.00     0.010 A 
ATOM     32  C   UNL A   1      40.620  25.213  27.831  1.00  0.00    -0.014 A 
BRANCH  32  33
ATOM     33  C   UNL A   1      41.197  26.498  28.306  1.00  0.00     0.031 A 
ATOM     34  C   UNL A   1      42.630  26.821  27.968  1.00  0.00     0.074 A 
ATOM     35  C   UNL A   1      40.456  27.383  29.005  1.00  0.00     0.049 A 
ATOM     36  N   UNL A   1      43.307  27.914  28.205  1.00  0.00    -0.248 NA
ATOM     37  C   UNL A   1      43.415  25.774  27.288  1.00  0.00     0.031 C 
ATOM     38  C   UNL A   1      39.078  27.177  29.456  1.00  0.00     0.029 A 
ATOM     39  N   UNL A   1      40.764  28.646  29.452  1.00  0.00    -0.354 N 
ATOM     40  C   UNL A   1      44.590  27.675  27.727  1.00  0.00     0.074 A 
ATOM     41  C   UNL A   1      44.620  26.319  27.234  1.00  0.00     0.031 C 
ATOM     42  C   UNL A   1      38.649  28.288  30.082  1.00  0.00     0.029 A 
ATOM     43  C   UNL A   1      39.716  29.286  30.075  1.00  0.00     0.049 A 
ATOM     44  H   UNL A   1      41.652  29.056  29.336  1.00  0.00     0.167 HD
ATOM     45  C   UNL A   1      45.638  28.523  27.644  1.00  0.00     0.034 A 
ATOM     46  C   UNL A   1      39.619  30.546  30.549  1.00  0.00     0.034 A 
ATOM     47  C   UNL A   1      45.596  29.898  28.040  1.00  0.00     0.049 A 
ATOM     48  C   UNL A   1      40.783  31.489  30.393  1.00  0.00     0.074 A 
ATOM     49  C   UNL A   1      46.585  30.856  27.920  1.00  0.00     0.029 A 
ATOM     50  N   UNL A   1      44.498  30.514  28.613  1.00  0.00    -0.354 N 
ATOM     51  N   UNL A   1      41.940  31.280  29.813  1.00  0.00    -0.248 NA
ATOM     52  C   UNL A   1      40.615  32.854  30.917  1.00  0.00     0.031 C 
ATOM     53  C   UNL A   1      46.077  32.063  28.405  1.00  0.00     0.029 A 
ATOM     54  C   UNL A   1      44.777  31.848  28.838  1.00  0.00     0.049 A 
ATOM     55  H   UNL A   1      43.646  30.070  28.828  1.00  0.00     0.167 HD
ATOM     56  C   UNL A   1      42.621  32.491  29.872  1.00  0.00     0.074 A 
ATOM     57  C   UNL A   1      41.746  33.434  30.536  1.00  0.00     0.031 C 
ATOM     58  C   UNL A   1      43.866  32.789  29.431  1.00  0.00     0.034 A 
BRANCH  45  59
ATOM     59  C   UNL A   1      46.889  28.013  26.988  1.00  0.00     0.023 A 
ATOM     60  C   UNL A   1      47.925  27.518  27.804  1.00  0.00     0.012 A 
ATOM     61  C   UNL A   1      47.020  27.970  25.588  1.00  0.00     0.148 A 
ATOM     62  C   UNL A   1      49.086  26.998  27.237  1.00  0.00     0.002 A 
ATOM     63  C   UNL A   1      48.169  27.426  25.028  1.00  0.00     0.091 A 
ATOM     64  F   UNL A   1      46.021  28.458  24.839  1.00  0.00    -0.205 F 
ATOM     65  C   UNL A   1      49.205  26.947  25.851  1.00  0.00     0.022 A 
BRANCH  63  66
ATOM     66  S   UNL A   1      48.416  27.276  23.257  1.00  0.00     0.127 S 
ATOM     67  O   UNL A   1      47.356  28.138  22.735  1.00  0.00    -0.237 OA
ATOM     68  O   UNL A   1      49.769  27.806  23.095  1.00  0.00    -0.237 OA
ATOM     69  O   UNL A   1      48.263  25.862  22.945  1.00  0.00    -0.744 OA
ENDBRANCH  63  66
ENDBRANCH  45  59
BRANCH  46  70
ATOM     70  C   UNL A   1      38.324  31.040  31.095  1.00  0.00     0.023 A 
ATOM     71  C   UNL A   1      38.062  30.874  32.470  1.00  0.00     0.012 A 
ATOM     72  C   UNL A   1      37.363  31.672  30.284  1.00  0.00     0.148 A 
ATOM     73  C   UNL A   1      36.860  31.310  33.025  1.00  0.00     0.002 A 
ATOM     74  C   UNL A   1      36.179  32.133  30.849  1.00  0.00     0.091 A 
ATOM     75  F   UNL A   1      37.623  31.802  28.976  1.00  0.00    -0.205 F 
ATOM     76  C   UNL A   1      35.920  31.945  32.218  1.00  0.00     0.022 A 
BRANCH  74  77
ATOM     77  S   UNL A   1      34.945  33.037  29.906  1.00  0.00     0.127 S 
ATOM     78  O   UNL A   1      34.415  31.995  29.031  1.00  0.00    -0.237 OA
ATOM     79  O   UNL A   1      34.029  33.487  30.955  1.00  0.00    -0.237 OA
ATOM     80  O   UNL A   1      35.673  34.112  29.244  1.00  0.00    -0.744 OA
ENDBRANCH  74  77
ENDBRANCH  46  70
BRANCH  58  81
ATOM     81  C   UNL A   1      44.377  34.189  29.617  1.00  0.00     0.023 A 
ATOM     82  C   UNL A   1      45.040  34.518  30.815  1.00  0.00     0.012 A 
ATOM     83  C   UNL A   1      44.348  35.113  28.556  1.00  0.00     0.148 A 
ATOM     84  C   UNL A   1      45.670  35.754  30.953  1.00  0.00     0.002 A 
ATOM     85  C   UNL A   1      45.005  36.330  28.689  1.00  0.00     0.091 A 
ATOM     86  F   UNL A   1      43.702  34.773  27.431  1.00  0.00    -0.205 F 
ATOM     87  C   UNL A   1      45.665  36.652  29.887  1.00  0.00     0.022 A 
BRANCH  85  88
ATOM     88  S   UNL A   1      45.125  37.515  27.344  1.00  0.00     0.127 S 
ATOM     89  O   UNL A   1      45.818  38.628  27.991  1.00  0.00    -0.237 OA
ATOM     90  O   UNL A   1      45.925  36.787  26.359  1.00  0.00    -0.237 OA
ATOM     91  O   UNL A   1      43.757  37.792  26.928  1.00  0.00    -0.744 OA
ENDBRANCH  85  88
ENDBRANCH  58  81
ENDBRANCH  32  33
ENDBRANCH  25  27
ENDBRANCH  24  25
ENDBRANCH  23  24
ENDBRANCH   1  23
TORSDOF 20
ENDMDL
MODEL 2
REMARK VINA RESULT:     -11.0      1.669      2.495
REMARK SMILES CCc1nc(=O)n([C@@H](CC)C(C)C)c(CC)c1CC(=O)OCCOC(=O)c1ccc(-c2c3nc(c(-c4cccc(S(=O)(=O)[O-])c4F)c4ccc([nH]4)c(-c4cccc(S(=O)(=O)[O-])c4F)c4nc(c(-c5cccc(S(=O)(=O)[O-])c5F)c5ccc2[nH]5)C=C4)C=C3)cc1
REMARK SMILES IDX 22 1 21 2 19 3 20 4 18 5 17 6 3 7 4 8 5 9 14 10 6 11 7 12
REMARK SMILES IDX 2 13 1 14 15 15 16 16 8 17 9 18 10 19 11 20 12 21 13 22
REMARK SMILES IDX 23 23 24 24 25 25 26 26 27 27 28 28 89 29 29 30 88 31 30 32
REMARK SMILES IDX 31 33 32 34 82 35 33 36 87 37 81 38 83 39 34 40 86 41 80 42
REMARK SMILES IDX 79 43 35 45 67 46 47 47 66 48 48 49 51 50 65 51 84 52 49 53
REMARK SMILES IDX 50 54 64 56 85 57 52 58 36 59 37 60 45 61 38 62 40 63 46 64
REMARK SMILES IDX 39 65 41 66 42 67 43 68 44 69 68 70 69 71 77 72 70 73 72 74
REMARK SMILES IDX 78 75 71 76 73 77 74 78 75 79 76 80 53 81 54 82 62 83 55 84
REMARK SMILES IDX 57 85 63 86 56 87 58 88 59 89 60 90 61 91
REMARK H PARENT 83 44 51 55
REMARK Flexibility Score: inf
ROOT
ATOM      1  C   UNL A   1      35.168  20.302  24.989  1.00  0.00     0.274 C 
ENDROOT
BRANCH   1   2
ATOM      2  O   UNL A   1      34.673  21.079  26.105  1.00  0.00    -0.462 OA
BRANCH   2   3
ATOM      3  C   UNL A   1      33.611  21.878  25.834  1.00  0.00     0.310 C 
ATOM      4  O   UNL A   1      32.590  21.509  25.260  1.00  0.00    -0.252 OA
BRANCH   3   5
ATOM      5  C   UNL A   1      33.724  23.269  26.435  1.00  0.00     0.162 C 
BRANCH   5   6
ATOM      6  C   UNL A   1      33.434  24.472  25.585  1.00  0.00     0.005 A 
ATOM      7  C   UNL A   1      34.357  24.746  24.446  1.00  0.00     0.051 A 
ATOM      8  N   UNL A   1      34.116  25.589  23.503  1.00  0.00    -0.198 NA
ATOM      9  C   UNL A   1      32.968  26.325  23.517  1.00  0.00     0.348 A 
ATOM     10  C   UNL A   1      32.324  25.254  25.636  1.00  0.00     0.028 A 
ATOM     11  O   UNL A   1      32.736  27.075  22.574  1.00  0.00    -0.246 OA
ATOM     12  N   UNL A   1      32.103  26.214  24.621  1.00  0.00    -0.293 N 
BRANCH   7  13
ATOM     13  C   UNL A   1      35.698  24.016  24.327  1.00  0.00     0.053 C 
ATOM     14  C   UNL A   1      35.829  23.193  23.055  1.00  0.00     0.011 C 
ENDBRANCH   7  13
BRANCH  10  15
ATOM     15  C   UNL A   1      31.215  25.032  26.680  1.00  0.00     0.051 C 
ATOM     16  C   UNL A   1      30.295  23.827  26.469  1.00  0.00     0.010 C 
ENDBRANCH  10  15
BRANCH  12  17
ATOM     17  C   UNL A   1      30.963  27.171  24.694  1.00  0.00     0.094 C 
BRANCH  17  18
ATOM     18  C   UNL A   1      31.449  28.589  25.095  1.00  0.00     0.022 C 
ATOM     19  C   UNL A   1      31.748  28.830  26.565  1.00  0.00     0.006 C 
ENDBRANCH  17  18
BRANCH  17  20
ATOM     20  C   UNL A   1      29.908  27.090  23.551  1.00  0.00     0.006 C 
ATOM     21  C   UNL A   1      28.643  26.362  24.029  1.00  0.00     0.009 C 
ATOM     22  C   UNL A   1      29.504  28.499  23.087  1.00  0.00     0.009 C 
ENDBRANCH  17  20
ENDBRANCH  12  17
ENDBRANCH   5   6
ENDBRANCH   3   5
ENDBRANCH   2   3
ENDBRANCH   1   2
BRANCH   1  23
ATOM     23  C   UNL A   1      36.695  20.231  25.023  1.00  0.00     0.275 C 
BRANCH  23  24
ATOM     24  O   UNL A   1      37.231  21.322  25.802  1.00  0.00    -0.458 OA
BRANCH  24  25
ATOM     25  C   UNL A   1      38.576  21.266  25.926  1.00  0.00     0.338 C 
ATOM     26  O   UNL A   1      39.280  20.311  25.642  1.00  0.00    -0.246 OA
BRANCH  25  27
ATOM     27  C   UNL A   1      39.161  22.500  26.465  1.00  0.00     0.060 A 
ATOM     28  C   UNL A   1      40.243  22.379  27.340  1.00  0.00     0.016 A 
ATOM     29  C   UNL A   1      38.796  23.750  25.966  1.00  0.00     0.016 A 
ATOM     30  C   UNL A   1      40.935  23.520  27.749  1.00  0.00     0.010 A 
ATOM     31  C   UNL A   1      39.559  24.873  26.289  1.00  0.00     0.010 A 
ATOM     32  C   UNL A   1      40.602  24.779  27.225  1.00  0.00    -0.014 A 
BRANCH  32  33
ATOM     33  C   UNL A   1      41.242  26.007  27.766  1.00  0.00     0.031 A 
ATOM     34  C   UNL A   1      42.676  26.301  27.403  1.00  0.00     0.074 A 
ATOM     35  C   UNL A   1      40.558  26.869  28.547  1.00  0.00     0.049 A 
ATOM     36  N   UNL A   1      43.401  27.350  27.691  1.00  0.00    -0.248 NA
ATOM     37  C   UNL A   1      43.399  25.275  26.629  1.00  0.00     0.031 C 
ATOM     38  C   UNL A   1      39.187  26.682  29.027  1.00  0.00     0.029 A 
ATOM     39  N   UNL A   1      40.926  28.086  29.066  1.00  0.00    -0.354 N 
ATOM     40  C   UNL A   1      44.658  27.098  27.156  1.00  0.00     0.074 A 
ATOM     41  C   UNL A   1      44.622  25.779  26.572  1.00  0.00     0.031 C 
ATOM     42  C   UNL A   1      38.820  27.763  29.741  1.00  0.00     0.029 A 
ATOM     43  C   UNL A   1      39.924  28.720  29.766  1.00  0.00     0.049 A 
ATOM     44  H   UNL A   1      41.825  28.471  28.949  1.00  0.00     0.167 HD
ATOM     45  C   UNL A   1      45.736  27.911  27.095  1.00  0.00     0.034 A 
ATOM     46  C   UNL A   1      39.888  29.947  30.326  1.00  0.00     0.034 A 
ATOM     47  C   UNL A   1      45.758  29.257  27.584  1.00  0.00     0.049 A 
ATOM     48  C   UNL A   1      41.083  30.856  30.195  1.00  0.00     0.074 A 
ATOM     49  C   UNL A   1      46.779  30.185  27.496  1.00  0.00     0.029 A 
ATOM     50  N   UNL A   1      44.702  29.872  28.233  1.00  0.00    -0.354 N 
ATOM     51  N   UNL A   1      42.213  30.645  29.565  1.00  0.00    -0.248 NA
ATOM     52  C   UNL A   1      40.983  32.188  30.815  1.00  0.00     0.031 C 
ATOM     53  C   UNL A   1      46.332  31.373  28.078  1.00  0.00     0.029 A 
ATOM     54  C   UNL A   1      45.039  31.176  28.538  1.00  0.00     0.049 A 
ATOM     55  H   UNL A   1      43.841  29.445  28.445  1.00  0.00     0.167 HD
ATOM     56  C   UNL A   1      42.941  31.824  29.683  1.00  0.00     0.074 A 
ATOM     57  C   UNL A   1      42.123  32.751  30.437  1.00  0.00     0.031 C 
ATOM     58  C   UNL A   1      44.183  32.106  29.222  1.00  0.00     0.034 A 
BRANCH  45  59
ATOM     59  C   UNL A   1      46.946  27.403  26.366  1.00  0.00     0.023 A 
ATOM     60  C   UNL A   1      47.062  27.665  24.987  1.00  0.00     0.012 A 
ATOM     61  C   UNL A   1      47.979  26.727  27.040  1.00  0.00     0.148 A 
ATOM     62  C   UNL A   1      48.186  27.247  24.280  1.00  0.00     0.002 A 
ATOM     63  C   UNL A   1      49.110  26.336  26.334  1.00  0.00     0.091 A 
ATOM     64  F   UNL A   1      47.834  26.484  28.351  1.00  0.00    -0.205 F 
ATOM     65  C   UNL A   1      49.212  26.589  24.954  1.00  0.00     0.022 A 
BRANCH  63  66
ATOM     66  S   UNL A   1      50.507  25.514  27.104  1.00  0.00     0.127 S 
ATOM     67  O   UNL A   1      49.887  24.293  27.617  1.00  0.00    -0.237 OA
ATOM     68  O   UNL A   1      51.404  25.312  25.967  1.00  0.00    -0.237 OA
ATOM     69  O   UNL A   1      50.999  26.425  28.127  1.00  0.00    -0.744 OA
ENDBRANCH  63  66
ENDBRANCH  45  59
BRANCH  46  70
ATOM     70  C   UNL A   1      38.631  30.449  30.946  1.00  0.00     0.023 A 
ATOM     71  C   UNL A   1      38.428  30.244  32.325  1.00  0.00     0.012 A 
ATOM     72  C   UNL A   1      37.649  31.126  30.200  1.00  0.00     0.148 A 
ATOM     73  C   UNL A   1      37.261  30.685  32.949  1.00  0.00     0.002 A 
ATOM     74  C   UNL A   1      36.501  31.593  30.834  1.00  0.00     0.091 A 
ATOM     75  F   UNL A   1      37.852  31.295  28.886  1.00  0.00    -0.205 F 
ATOM     76  C   UNL A   1      36.301  31.365  32.206  1.00  0.00     0.022 A 
BRANCH  74  77
ATOM     77  S   UNL A   1      35.246  32.552  29.978  1.00  0.00     0.127 S 
ATOM     78  O   UNL A   1      34.792  31.609  28.958  1.00  0.00    -0.237 OA
ATOM     79  O   UNL A   1      34.282  32.816  31.047  1.00  0.00    -0.237 OA
ATOM     80  O   UNL A   1      35.933  33.738  29.483  1.00  0.00    -0.744 OA
ENDBRANCH  74  77
ENDBRANCH  46  70
BRANCH  58  81
ATOM     81  C   UNL A   1      44.752  33.471  29.485  1.00  0.00     0.023 A 
ATOM     82  C   UNL A   1      45.519  33.677  30.647  1.00  0.00     0.012 A 
ATOM     83  C   UNL A   1      44.668  34.486  28.513  1.00  0.00     0.148 A 
ATOM     84  C   UNL A   1      46.198  34.879  30.839  1.00  0.00     0.002 A 
ATOM     85  C   UNL A   1      45.374  35.669  28.694  1.00  0.00     0.091 A 
ATOM     86  F   UNL A   1      43.924  34.262  27.419  1.00  0.00    -0.205 F 
ATOM     87  C   UNL A   1      46.137  35.867  29.858  1.00  0.00     0.022 A 
BRANCH  85  88
ATOM     88  S   UNL A   1      45.425  36.965  27.451  1.00  0.00     0.127 S 
ATOM     89  O   UNL A   1      46.264  37.969  28.103  1.00  0.00    -0.237 OA
ATOM     90  O   UNL A   1      46.054  36.284  26.319  1.00  0.00    -0.237 OA
ATOM     91  O   UNL A   1      44.041  37.361  27.226  1.00  0.00    -0.744 OA
ENDBRANCH  85  88
ENDBRANCH  58  81
ENDBRANCH  32  33
ENDBRANCH  25  27
ENDBRANCH  24  25
ENDBRANCH  23  24
ENDBRANCH   1  23
TORSDOF 20
ENDMDL
MODEL 3
REMARK VINA RESULT:     -10.4      2.079      2.481
REMARK SMILES CCc1nc(=O)n([C@@H](CC)C(C)C)c(CC)c1CC(=O)OCCOC(=O)c1ccc(-c2c3nc(c(-c4cccc(S(=O)(=O)[O-])c4F)c4ccc([nH]4)c(-c4cccc(S(=O)(=O)[O-])c4F)c4nc(c(-c5cccc(S(=O)(=O)[O-])c5F)c5ccc2[nH]5)C=C4)C=C3)cc1
REMARK SMILES IDX 22 1 21 2 19 3 20 4 18 5 17 6 3 7 4 8 5 9 14 10 6 11 7 12
REMARK SMILES IDX 2 13 1 14 15 15 16 16 8 17 9 18 10 19 11 20 12 21 13 22
REMARK SMILES IDX 23 23 24 24 25 25 26 26 27 27 28 28 89 29 29 30 88 31 30 32
REMARK SMILES IDX 31 33 32 34 82 35 33 36 87 37 81 38 83 39 34 40 86 41 80 42
REMARK SMILES IDX 79 43 35 45 67 46 47 47 66 48 48 49 51 50 65 51 84 52 49 53
REMARK SMILES IDX 50 54 64 56 85 57 52 58 36 59 37 60 45 61 38 62 40 63 46 64
REMARK SMILES IDX 39 65 41 66 42 67 43 68 44 69 68 70 69 71 77 72 70 73 72 74
REMARK SMILES IDX 78 75 71 76 73 77 74 78 75 79 76 80 53 81 54 82 62 83 55 84
REMARK SMILES IDX 57 85 63 86 56 87 58 88 59 89 60 90 61 91
REMARK H PARENT 83 44 51 55
REMARK Flexibility Score: inf
ROOT
ATOM      1  C   UNL A   1      35.595  20.090  24.942  1.00  0.00     0.274 C 
ENDROOT
BRANCH   1   2
ATOM      2  O   UNL A   1      34.830  20.718  25.997  1.00  0.00    -0.462 OA
BRANCH   2   3
ATOM      3  C   UNL A   1      33.711  21.373  25.596  1.00  0.00     0.310 C 
ATOM      4  O   UNL A   1      33.106  21.143  24.553  1.00  0.00    -0.252 OA
BRANCH   3   5
ATOM      5  C   UNL A   1      33.167  22.342  26.632  1.00  0.00     0.162 C 
BRANCH   5   6
ATOM      6  C   UNL A   1      32.564  23.643  26.187  1.00  0.00     0.005 A 
ATOM      7  C   UNL A   1      31.079  23.770  26.257  1.00  0.00     0.051 A 
ATOM      8  N   UNL A   1      30.440  24.881  26.134  1.00  0.00    -0.198 NA
ATOM      9  C   UNL A   1      31.117  26.040  25.894  1.00  0.00     0.348 A 
ATOM     10  C   UNL A   1      33.233  24.786  25.880  1.00  0.00     0.028 A 
ATOM     11  O   UNL A   1      30.486  27.092  25.842  1.00  0.00    -0.246 OA
ATOM     12  N   UNL A   1      32.507  25.986  25.693  1.00  0.00    -0.293 N 
BRANCH   7  13
ATOM     13  C   UNL A   1      30.194  22.541  26.484  1.00  0.00     0.053 C 
ATOM     14  C   UNL A   1      29.153  22.739  27.575  1.00  0.00     0.011 C 
ENDBRANCH   7  13
BRANCH  10  15
ATOM     15  C   UNL A   1      34.770  24.857  25.875  1.00  0.00     0.051 C 
ATOM     16  C   UNL A   1      35.487  24.276  24.654  1.00  0.00     0.010 C 
ENDBRANCH  10  15
BRANCH  12  17
ATOM     17  C   UNL A   1      33.182  27.236  25.244  1.00  0.00     0.094 C 
BRANCH  17  18
ATOM     18  C   UNL A   1      32.850  27.548  23.761  1.00  0.00     0.022 C 
ATOM     19  C   UNL A   1      33.378  26.584  22.713  1.00  0.00     0.006 C 
ENDBRANCH  17  18
BRANCH  17  20
ATOM     20  C   UNL A   1      33.158  28.438  26.235  1.00  0.00     0.006 C 
ATOM     21  C   UNL A   1      34.538  28.641  26.878  1.00  0.00     0.009 C 
ATOM     22  C   UNL A   1      32.776  29.735  25.501  1.00  0.00     0.009 C 
ENDBRANCH  17  20
ENDBRANCH  12  17
ENDBRANCH   5   6
ENDBRANCH   3   5
ENDBRANCH   2   3
ENDBRANCH   1   2
BRANCH   1  23
ATOM     23  C   UNL A   1      36.857  20.899  24.642  1.00  0.00     0.275 C 
BRANCH  23  24
ATOM     24  O   UNL A   1      37.308  21.585  25.830  1.00  0.00    -0.458 OA
BRANCH  24  25
ATOM     25  C   UNL A   1      38.648  21.519  25.996  1.00  0.00     0.338 C 
ATOM     26  O   UNL A   1      39.356  20.566  25.717  1.00  0.00    -0.246 OA
BRANCH  25  27
ATOM     27  C   UNL A   1      39.221  22.740  26.577  1.00  0.00     0.060 A 
ATOM     28  C   UNL A   1      40.323  22.601  27.423  1.00  0.00     0.016 A 
ATOM     29  C   UNL A   1      38.822  24.003  26.141  1.00  0.00     0.016 A 
ATOM     30  C   UNL A   1      41.003  23.737  27.867  1.00  0.00     0.010 A 
ATOM     31  C   UNL A   1      39.571  25.126  26.498  1.00  0.00     0.010 A 
ATOM     32  C   UNL A   1      40.635  25.011  27.407  1.00  0.00    -0.014 A 
BRANCH  32  33
ATOM     33  C   UNL A   1      41.263  26.227  27.989  1.00  0.00     0.031 A 
ATOM     34  C   UNL A   1      42.715  26.509  27.692  1.00  0.00     0.074 A 
ATOM     35  C   UNL A   1      40.554  27.088  28.747  1.00  0.00     0.049 A 
ATOM     36  N   UNL A   1      43.437  27.547  28.023  1.00  0.00    -0.248 NA
ATOM     37  C   UNL A   1      43.461  25.482  26.940  1.00  0.00     0.031 C 
ATOM     38  C   UNL A   1      39.161  26.911  29.166  1.00  0.00     0.029 A 
ATOM     39  N   UNL A   1      40.912  28.296  29.296  1.00  0.00    -0.354 N 
ATOM     40  C   UNL A   1      44.714  27.287  27.541  1.00  0.00     0.074 A 
ATOM     41  C   UNL A   1      44.689  25.974  26.942  1.00  0.00     0.031 C 
ATOM     42  C   UNL A   1      38.775  27.988  29.874  1.00  0.00     0.029 A 
ATOM     43  C   UNL A   1      39.886  28.933  29.957  1.00  0.00     0.049 A 
ATOM     44  H   UNL A   1      41.819  28.672  29.222  1.00  0.00     0.167 HD
ATOM     45  C   UNL A   1      45.802  28.089  27.536  1.00  0.00     0.034 A 
ATOM     46  C   UNL A   1      39.839  30.155  30.528  1.00  0.00     0.034 A 
ATOM     47  C   UNL A   1      45.817  29.429  28.040  1.00  0.00     0.049 A 
ATOM     48  C   UNL A   1      41.048  31.052  30.460  1.00  0.00     0.074 A 
ATOM     49  C   UNL A   1      46.849  30.346  28.006  1.00  0.00     0.029 A 
ATOM     50  N   UNL A   1      44.739  30.048  28.648  1.00  0.00    -0.354 N 
ATOM     51  N   UNL A   1      42.202  30.835  29.878  1.00  0.00    -0.248 NA
ATOM     52  C   UNL A   1      40.935  32.378  31.088  1.00  0.00     0.031 C 
ATOM     53  C   UNL A   1      46.390  31.534  28.580  1.00  0.00     0.029 A 
ATOM     54  C   UNL A   1      45.076  31.346  28.981  1.00  0.00     0.049 A 
ATOM     55  H   UNL A   1      43.865  29.628  28.817  1.00  0.00     0.167 HD
ATOM     56  C   UNL A   1      42.937  32.005  30.040  1.00  0.00     0.074 A 
ATOM     57  C   UNL A   1      42.096  32.933  30.767  1.00  0.00     0.031 C 
ATOM     58  C   UNL A   1      44.200  32.279  29.637  1.00  0.00     0.034 A 
BRANCH  45  59
ATOM     59  C   UNL A   1      47.037  27.574  26.855  1.00  0.00     0.023 A 
ATOM     60  C   UNL A   1      47.242  27.892  25.498  1.00  0.00     0.012 A 
ATOM     61  C   UNL A   1      48.009  26.838  27.556  1.00  0.00     0.148 A 
ATOM     62  C   UNL A   1      48.393  27.470  24.839  1.00  0.00     0.002 A 
ATOM     63  C   UNL A   1      49.168  26.443  26.899  1.00  0.00     0.091 A 
ATOM     64  F   UNL A   1      47.781  26.543  28.844  1.00  0.00    -0.205 F 
ATOM     65  C   UNL A   1      49.358  26.752  25.540  1.00  0.00     0.022 A 
BRANCH  63  66
ATOM     66  S   UNL A   1      50.493  25.545  27.710  1.00  0.00     0.127 S 
ATOM     67  O   UNL A   1      49.958  24.184  27.736  1.00  0.00    -0.237 OA
ATOM     68  O   UNL A   1      51.606  25.746  26.783  1.00  0.00    -0.237 OA
ATOM     69  O   UNL A   1      50.658  26.161  29.019  1.00  0.00    -0.744 OA
ENDBRANCH  63  66
ENDBRANCH  45  59
BRANCH  46  70
ATOM     70  C   UNL A   1      38.561  30.664  31.098  1.00  0.00     0.023 A 
ATOM     71  C   UNL A   1      38.316  30.487  32.475  1.00  0.00     0.012 A 
ATOM     72  C   UNL A   1      37.600  31.321  30.308  1.00  0.00     0.148 A 
ATOM     73  C   UNL A   1      37.128  30.936  33.051  1.00  0.00     0.002 A 
ATOM     74  C   UNL A   1      36.431  31.796  30.895  1.00  0.00     0.091 A 
ATOM     75  F   UNL A   1      37.844  31.462  28.997  1.00  0.00    -0.205 F 
ATOM     76  C   UNL A   1      36.189  31.596  32.265  1.00  0.00     0.022 A 
BRANCH  74  77
ATOM     77  S   UNL A   1      35.200  32.730  29.979  1.00  0.00     0.127 S 
ATOM     78  O   UNL A   1      34.758  31.753  28.987  1.00  0.00    -0.237 OA
ATOM     79  O   UNL A   1      34.218  33.040  31.019  1.00  0.00    -0.237 OA
ATOM     80  O   UNL A   1      35.905  33.893  29.455  1.00  0.00    -0.744 OA
ENDBRANCH  74  77
ENDBRANCH  46  70
BRANCH  58  81
ATOM     81  C   UNL A   1      44.771  33.634  29.939  1.00  0.00     0.023 A 
ATOM     82  C   UNL A   1      44.576  34.677  29.014  1.00  0.00     0.012 A 
ATOM     83  C   UNL A   1      45.346  33.910  31.194  1.00  0.00     0.148 A 
ATOM     84  C   UNL A   1      44.945  35.982  29.336  1.00  0.00     0.002 A 
ATOM     85  C   UNL A   1      45.683  35.218  31.521  1.00  0.00     0.091 A 
ATOM     86  F   UNL A   1      45.527  32.894  32.051  1.00  0.00    -0.205 F 
ATOM     87  C   UNL A   1      45.485  36.254  30.592  1.00  0.00     0.022 A 
BRANCH  85  88
ATOM     88  S   UNL A   1      46.305  35.680  33.141  1.00  0.00     0.127 S 
ATOM     89  O   UNL A   1      46.487  37.122  32.989  1.00  0.00    -0.237 OA
ATOM     90  O   UNL A   1      45.200  35.293  34.020  1.00  0.00    -0.237 OA
ATOM     91  O   UNL A   1      47.529  34.915  33.336  1.00  0.00    -0.744 OA
ENDBRANCH  85  88
ENDBRANCH  58  81
ENDBRANCH  32  33
ENDBRANCH  25  27
ENDBRANCH  24  25
ENDBRANCH  23  24
ENDBRANCH   1  23
TORSDOF 20
ENDMDL
