MODEL 1
REMARK VINA RESULT:      -9.8      0.000      0.000
REMARK SMILES Cc1ccc2oc(CCCC(=O)OCCOC(=O)c3ccc(-c4c5nc(c(-c6cccc(S(=O)(=O)[O-])c6F)c6ccc([nH]6)c(-c6cccc(S(=O)(=O)[O-])c6F)c6nc(c(-c7cccc(S(=O)(=O)[O-])c7F)c7ccc4[nH]7)C=C6)C=C5)cc3)cc(=O)c2c1
REMARK SMILES IDX 14 1 13 2 11 3 12 4 10 5 9 6 8 7 7 8 1 9 2 10 3 11 86 12
REMARK SMILES IDX 4 13 85 14 5 15 83 16 6 17 82 18 84 19 15 20 16 21 17 22
REMARK SMILES IDX 18 23 19 24 20 25 81 26 21 27 80 28 22 29 23 30 24 31 74 32
REMARK SMILES IDX 25 33 79 34 73 35 75 36 26 37 78 38 72 39 71 40 27 42 59 43
REMARK SMILES IDX 39 44 58 45 40 46 43 47 57 48 76 49 41 50 42 51 56 53 77 54
REMARK SMILES IDX 44 55 28 56 29 57 37 58 30 59 32 60 38 61 31 62 33 63 34 64
REMARK SMILES IDX 35 65 36 66 60 67 61 68 69 69 62 70 64 71 70 72 63 73 65 74
REMARK SMILES IDX 66 75 67 76 68 77 45 78 46 79 54 80 47 81 49 82 55 83 48 84
REMARK SMILES IDX 50 85 51 86 52 87 53 88
REMARK H PARENT 75 41 43 52
REMARK Flexibility Score: inf
ROOT
ATOM      1  C   UNL A   1      34.026  34.882  29.354  1.00  0.00     0.274 C 
ENDROOT
BRANCH   1   2
ATOM      2  O   UNL A   1      33.508  34.199  30.512  1.00  0.00    -0.462 OA
BRANCH   2   3
ATOM      3  C   UNL A   1      34.393  33.546  31.301  1.00  0.00     0.305 C 
ATOM      4  O   UNL A   1      34.249  32.401  31.712  1.00  0.00    -0.252 OA
BRANCH   3   5
ATOM      5  C   UNL A   1      35.609  34.378  31.659  1.00  0.00     0.123 C 
BRANCH   5   6
ATOM      6  C   UNL A   1      36.975  33.683  31.679  1.00  0.00     0.020 C 
BRANCH   6   7
ATOM      7  C   UNL A   1      38.151  34.438  32.324  1.00  0.00     0.076 C 
BRANCH   7   8
ATOM      8  C   UNL A   1      38.334  34.158  33.791  1.00  0.00     0.108 A 
ATOM      9  C   UNL A   1      39.345  35.482  40.031  1.00  0.00     0.044 C 
ATOM     10  C   UNL A   1      39.322  35.338  38.538  1.00  0.00    -0.050 A 
ATOM     11  C   UNL A   1      39.974  36.271  37.719  1.00  0.00     0.007 A 
ATOM     12  C   UNL A   1      38.649  34.257  37.950  1.00  0.00     0.019 A 
ATOM     13  C   UNL A   1      39.963  36.124  36.332  1.00  0.00     0.048 A 
ATOM     14  C   UNL A   1      38.621  34.130  36.561  1.00  0.00     0.065 A 
ATOM     15  C   UNL A   1      39.284  35.051  35.758  1.00  0.00     0.138 A 
ATOM     16  C   UNL A   1      37.851  33.061  35.902  1.00  0.00     0.192 A 
ATOM     17  O   UNL A   1      39.293  34.959  34.393  1.00  0.00    -0.461 OA
ATOM     18  C   UNL A   1      37.650  33.210  34.447  1.00  0.00     0.095 A 
ATOM     19  O   UNL A   1      37.356  32.127  36.520  1.00  0.00    -0.289 OA
ENDBRANCH   7   8
ENDBRANCH   6   7
ENDBRANCH   5   6
ENDBRANCH   3   5
ENDBRANCH   2   3
ENDBRANCH   1   2
BRANCH   1  20
ATOM     20  C   UNL A   1      33.807  34.034  28.101  1.00  0.00     0.275 C 
BRANCH  20  21
ATOM     21  O   UNL A   1      34.934  33.172  27.868  1.00  0.00    -0.458 OA
BRANCH  21  22
ATOM     22  C   UNL A   1      34.712  31.860  28.117  1.00  0.00     0.338 C 
ATOM     23  O   UNL A   1      33.673  31.241  27.965  1.00  0.00    -0.246 OA
BRANCH  22  24
ATOM     24  C   UNL A   1      35.984  31.217  28.471  1.00  0.00     0.060 A 
ATOM     25  C   UNL A   1      35.945  29.898  28.923  1.00  0.00     0.016 A 
ATOM     26  C   UNL A   1      37.186  31.921  28.434  1.00  0.00     0.016 A 
ATOM     27  C   UNL A   1      37.106  29.273  29.363  1.00  0.00     0.010 A 
ATOM     28  C   UNL A   1      38.356  31.289  28.864  1.00  0.00     0.010 A 
ATOM     29  C   UNL A   1      38.320  29.968  29.348  1.00  0.00    -0.014 A 
BRANCH  29  30
ATOM     30  C   UNL A   1      39.539  29.322  29.888  1.00  0.00     0.031 A 
ATOM     31  C   UNL A   1      40.151  29.832  31.161  1.00  0.00     0.074 A 
ATOM     32  C   UNL A   1      40.085  28.278  29.237  1.00  0.00     0.049 A 
ATOM     33  N   UNL A   1      41.247  29.447  31.760  1.00  0.00    -0.248 NA
ATOM     34  C   UNL A   1      39.441  30.923  31.848  1.00  0.00     0.031 C 
ATOM     35  C   UNL A   1      39.569  27.692  28.000  1.00  0.00     0.029 A 
ATOM     36  N   UNL A   1      41.205  27.536  29.518  1.00  0.00    -0.354 N 
ATOM     37  C   UNL A   1      41.385  30.274  32.866  1.00  0.00     0.074 A 
ATOM     38  C   UNL A   1      40.259  31.184  32.858  1.00  0.00     0.031 C 
ATOM     39  C   UNL A   1      40.377  26.688  27.621  1.00  0.00     0.029 A 
ATOM     40  C   UNL A   1      41.485  26.585  28.567  1.00  0.00     0.049 A 
ATOM     41  H   UNL A   1      41.754  27.672  30.324  1.00  0.00     0.167 HD
ATOM     42  C   UNL A   1      42.355  30.268  33.812  1.00  0.00     0.034 A 
ATOM     43  C   UNL A   1      42.529  25.739  28.459  1.00  0.00     0.034 A 
ATOM     44  C   UNL A   1      43.445  29.331  33.840  1.00  0.00     0.049 A 
ATOM     45  C   UNL A   1      43.586  25.747  29.529  1.00  0.00     0.074 A 
ATOM     46  C   UNL A   1      44.457  29.217  34.776  1.00  0.00     0.029 A 
ATOM     47  N   UNL A   1      43.664  28.344  32.891  1.00  0.00    -0.354 N 
ATOM     48  N   UNL A   1      43.653  26.476  30.617  1.00  0.00    -0.248 NA
ATOM     49  C   UNL A   1      44.697  24.797  29.374  1.00  0.00     0.031 C 
ATOM     50  C   UNL A   1      45.295  28.165  34.388  1.00  0.00     0.029 A 
ATOM     51  C   UNL A   1      44.795  27.616  33.217  1.00  0.00     0.049 A 
ATOM     52  H   UNL A   1      43.097  28.184  32.102  1.00  0.00     0.167 HD
ATOM     53  C   UNL A   1      44.794  26.055  31.290  1.00  0.00     0.074 A 
ATOM     54  C   UNL A   1      45.376  24.990  30.497  1.00  0.00     0.031 C 
ATOM     55  C   UNL A   1      45.324  26.519  32.448  1.00  0.00     0.034 A 
BRANCH  42  56
ATOM     56  C   UNL A   1      42.262  31.288  34.914  1.00  0.00     0.023 A 
ATOM     57  C   UNL A   1      41.602  30.956  36.114  1.00  0.00     0.012 A 
ATOM     58  C   UNL A   1      42.867  32.552  34.784  1.00  0.00     0.148 A 
ATOM     59  C   UNL A   1      41.524  31.877  37.159  1.00  0.00     0.002 A 
ATOM     60  C   UNL A   1      42.818  33.451  35.843  1.00  0.00     0.091 A 
ATOM     61  F   UNL A   1      43.466  32.859  33.624  1.00  0.00    -0.205 F 
ATOM     62  C   UNL A   1      42.141  33.119  37.027  1.00  0.00     0.022 A 
BRANCH  60  63
ATOM     63  S   UNL A   1      43.641  35.047  35.791  1.00  0.00     0.127 S 
ATOM     64  O   UNL A   1      43.371  35.563  37.132  1.00  0.00    -0.237 OA
ATOM     65  O   UNL A   1      45.035  34.671  35.552  1.00  0.00    -0.237 OA
ATOM     66  O   UNL A   1      43.019  35.781  34.697  1.00  0.00    -0.744 OA
ENDBRANCH  60  63
ENDBRANCH  42  56
BRANCH  43  67
ATOM     67  C   UNL A   1      42.595  24.787  27.316  1.00  0.00     0.023 A 
ATOM     68  C   UNL A   1      43.265  25.166  26.136  1.00  0.00     0.012 A 
ATOM     69  C   UNL A   1      42.038  23.495  27.403  1.00  0.00     0.148 A 
ATOM     70  C   UNL A   1      43.359  24.286  25.058  1.00  0.00     0.002 A 
ATOM     71  C   UNL A   1      42.184  22.605  26.346  1.00  0.00     0.091 A 
ATOM     72  F   UNL A   1      41.384  23.160  28.524  1.00  0.00    -0.205 F 
ATOM     73  C   UNL A   1      42.832  23.003  25.166  1.00  0.00     0.022 A 
BRANCH  71  74
ATOM     74  S   UNL A   1      41.652  20.892  26.460  1.00  0.00     0.127 S 
ATOM     75  O   UNL A   1      40.218  21.007  26.210  1.00  0.00    -0.237 OA
ATOM     76  O   UNL A   1      42.416  20.261  25.384  1.00  0.00    -0.237 OA
ATOM     77  O   UNL A   1      42.035  20.456  27.797  1.00  0.00    -0.744 OA
ENDBRANCH  71  74
ENDBRANCH  43  67
BRANCH  55  78
ATOM     78  C   UNL A   1      46.581  25.862  32.950  1.00  0.00     0.023 A 
ATOM     79  C   UNL A   1      47.835  26.398  32.597  1.00  0.00     0.012 A 
ATOM     80  C   UNL A   1      46.520  24.768  33.834  1.00  0.00     0.148 A 
ATOM     81  C   UNL A   1      49.010  25.838  33.096  1.00  0.00     0.002 A 
ATOM     82  C   UNL A   1      47.693  24.241  34.360  1.00  0.00     0.091 A 
ATOM     83  F   UNL A   1      45.317  24.258  34.141  1.00  0.00    -0.205 F 
ATOM     84  C   UNL A   1      48.940  24.768  33.986  1.00  0.00     0.022 A 
BRANCH  82  85
ATOM     85  S   UNL A   1      47.685  22.924  35.582  1.00  0.00     0.127 S 
ATOM     86  O   UNL A   1      46.583  23.330  36.452  1.00  0.00    -0.237 OA
ATOM     87  O   UNL A   1      47.412  21.739  34.767  1.00  0.00    -0.237 OA
ATOM     88  O   UNL A   1      49.008  22.940  36.191  1.00  0.00    -0.744 OA
ENDBRANCH  82  85
ENDBRANCH  55  78
ENDBRANCH  29  30
ENDBRANCH  22  24
ENDBRANCH  21  22
ENDBRANCH  20  21
ENDBRANCH   1  20
TORSDOF 17
ENDMDL
MODEL 2
REMARK VINA RESULT:      -9.8      4.729     12.193
REMARK SMILES Cc1ccc2oc(CCCC(=O)OCCOC(=O)c3ccc(-c4c5nc(c(-c6cccc(S(=O)(=O)[O-])c6F)c6ccc([nH]6)c(-c6cccc(S(=O)(=O)[O-])c6F)c6nc(c(-c7cccc(S(=O)(=O)[O-])c7F)c7ccc4[nH]7)C=C6)C=C5)cc3)cc(=O)c2c1
REMARK SMILES IDX 14 1 13 2 11 3 12 4 10 5 9 6 8 7 7 8 1 9 2 10 3 11 86 12
REMARK SMILES IDX 4 13 85 14 5 15 83 16 6 17 82 18 84 19 15 20 16 21 17 22
REMARK SMILES IDX 18 23 19 24 20 25 81 26 21 27 80 28 22 29 23 30 24 31 74 32
REMARK SMILES IDX 25 33 79 34 73 35 75 36 26 37 78 38 72 39 71 40 27 42 59 43
REMARK SMILES IDX 39 44 58 45 40 46 43 47 57 48 76 49 41 50 42 51 56 53 77 54
REMARK SMILES IDX 44 55 28 56 29 57 37 58 30 59 32 60 38 61 31 62 33 63 34 64
REMARK SMILES IDX 35 65 36 66 60 67 61 68 69 69 62 70 64 71 70 72 63 73 65 74
REMARK SMILES IDX 66 75 67 76 68 77 45 78 46 79 54 80 47 81 49 82 55 83 48 84
REMARK SMILES IDX 50 85 51 86 52 87 53 88
REMARK H PARENT 75 41 43 52
REMARK Flexibility Score: inf
ROOT
ATOM      1  C   UNL A   1      42.022  19.502  26.366  1.00  0.00     0.274 C 
ENDROOT
BRANCH   1   2
ATOM      2  O   UNL A   1      42.655  19.269  25.093  1.00  0.00    -0.462 OA
BRANCH   2   3
ATOM      3  C   UNL A   1      43.958  18.902  25.101  1.00  0.00     0.305 C 
ATOM      4  O   UNL A   1      44.444  18.070  25.857  1.00  0.00    -0.252 OA
BRANCH   3   5
ATOM      5  C   UNL A   1      44.797  19.637  24.074  1.00  0.00     0.123 C 
BRANCH   5   6
ATOM      6  C   UNL A   1      45.529  20.907  24.520  1.00  0.00     0.020 C 
BRANCH   6   7
ATOM      7  C   UNL A   1      44.672  22.126  24.907  1.00  0.00     0.076 C 
BRANCH   7   8
ATOM      8  C   UNL A   1      44.930  22.646  26.295  1.00  0.00     0.108 A 
ATOM      9  C   UNL A   1      47.262  26.594  30.844  1.00  0.00     0.044 C 
ATOM     10  C   UNL A   1      46.972  25.685  29.687  1.00  0.00    -0.050 A 
ATOM     11  C   UNL A   1      47.824  25.650  28.573  1.00  0.00     0.007 A 
ATOM     12  C   UNL A   1      45.842  24.855  29.716  1.00  0.00     0.019 A 
ATOM     13  C   UNL A   1      47.558  24.791  27.506  1.00  0.00     0.048 A 
ATOM     14  C   UNL A   1      45.569  24.015  28.634  1.00  0.00     0.065 A 
ATOM     15  C   UNL A   1      46.428  23.976  27.542  1.00  0.00     0.138 A 
ATOM     16  C   UNL A   1      44.347  23.195  28.587  1.00  0.00     0.192 A 
ATOM     17  O   UNL A   1      46.206  23.162  26.465  1.00  0.00    -0.461 OA
ATOM     18  C   UNL A   1      44.021  22.594  27.279  1.00  0.00     0.095 A 
ATOM     19  O   UNL A   1      43.609  23.055  29.554  1.00  0.00    -0.289 OA
ENDBRANCH   7   8
ENDBRANCH   6   7
ENDBRANCH   5   6
ENDBRANCH   3   5
ENDBRANCH   2   3
ENDBRANCH   1   2
BRANCH   1  20
ATOM     20  C   UNL A   1      40.587  19.987  26.158  1.00  0.00     0.275 C 
BRANCH  20  21
ATOM     21  O   UNL A   1      40.282  21.070  27.054  1.00  0.00    -0.458 OA
BRANCH  21  22
ATOM     22  C   UNL A   1      39.455  22.014  26.548  1.00  0.00     0.338 C 
ATOM     23  O   UNL A   1      38.357  21.849  26.046  1.00  0.00    -0.246 OA
BRANCH  22  24
ATOM     24  C   UNL A   1      40.015  23.343  26.831  1.00  0.00     0.060 A 
ATOM     25  C   UNL A   1      40.544  23.571  28.101  1.00  0.00     0.016 A 
ATOM     26  C   UNL A   1      39.949  24.371  25.892  1.00  0.00     0.016 A 
ATOM     27  C   UNL A   1      40.998  24.836  28.455  1.00  0.00     0.010 A 
ATOM     28  C   UNL A   1      40.418  25.640  26.242  1.00  0.00     0.010 A 
ATOM     29  C   UNL A   1      40.927  25.885  27.531  1.00  0.00    -0.014 A 
BRANCH  29  30
ATOM     30  C   UNL A   1      41.342  27.247  27.939  1.00  0.00     0.031 A 
ATOM     31  C   UNL A   1      42.771  27.675  27.761  1.00  0.00     0.074 A 
ATOM     32  C   UNL A   1      40.436  28.094  28.461  1.00  0.00     0.049 A 
ATOM     33  N   UNL A   1      43.345  28.796  28.111  1.00  0.00    -0.248 NA
ATOM     34  C   UNL A   1      43.674  26.714  27.106  1.00  0.00     0.031 C 
ATOM     35  C   UNL A   1      39.020  27.790  28.669  1.00  0.00     0.029 A 
ATOM     36  N   UNL A   1      40.575  29.377  28.926  1.00  0.00    -0.354 N 
ATOM     37  C   UNL A   1      44.683  28.661  27.765  1.00  0.00     0.074 A 
ATOM     38  C   UNL A   1      44.838  27.348  27.174  1.00  0.00     0.031 C 
ATOM     39  C   UNL A   1      38.422  28.852  29.233  1.00  0.00     0.029 A 
ATOM     40  C   UNL A   1      39.418  29.896  29.457  1.00  0.00     0.049 A 
ATOM     41  H   UNL A   1      41.422  29.878  28.884  1.00  0.00     0.167 HD
ATOM     42  C   UNL A   1      45.690  29.554  27.913  1.00  0.00     0.034 A 
ATOM     43  C   UNL A   1      39.192  31.072  30.075  1.00  0.00     0.034 A 
ATOM     44  C   UNL A   1      45.520  30.874  28.458  1.00  0.00     0.049 A 
ATOM     45  C   UNL A   1      40.327  32.050  30.217  1.00  0.00     0.074 A 
ATOM     46  C   UNL A   1      46.470  31.868  28.614  1.00  0.00     0.029 A 
ATOM     47  N   UNL A   1      44.322  31.386  28.931  1.00  0.00    -0.354 N 
ATOM     48  N   UNL A   1      41.566  31.941  29.802  1.00  0.00    -0.248 NA
ATOM     49  C   UNL A   1      40.027  33.325  30.885  1.00  0.00     0.031 C 
ATOM     50  C   UNL A   1      45.846  32.981  29.192  1.00  0.00     0.029 A 
ATOM     51  C   UNL A   1      44.506  32.682  29.382  1.00  0.00     0.049 A 
ATOM     52  H   UNL A   1      43.466  30.900  28.945  1.00  0.00     0.167 HD
ATOM     53  C   UNL A   1      42.186  33.141  30.132  1.00  0.00     0.074 A 
ATOM     54  C   UNL A   1      41.179  33.972  30.761  1.00  0.00     0.031 C 
ATOM     55  C   UNL A   1      43.477  33.515  29.949  1.00  0.00     0.034 A 
BRANCH  42  56
ATOM     56  C   UNL A   1      47.061  29.145  27.449  1.00  0.00     0.023 A 
ATOM     57  C   UNL A   1      48.134  29.150  28.362  1.00  0.00     0.012 A 
ATOM     58  C   UNL A   1      47.278  28.709  26.127  1.00  0.00     0.148 A 
ATOM     59  C   UNL A   1      49.410  28.751  27.960  1.00  0.00     0.002 A 
ATOM     60  C   UNL A   1      48.543  28.278  25.744  1.00  0.00     0.091 A 
ATOM     61  F   UNL A   1      46.250  28.739  25.266  1.00  0.00    -0.205 F 
ATOM     62  C   UNL A   1      49.610  28.306  26.655  1.00  0.00     0.022 A 
BRANCH  60  63
ATOM     63  S   UNL A   1      48.882  27.624  24.105  1.00  0.00     0.127 S 
ATOM     64  O   UNL A   1      50.277  28.015  23.914  1.00  0.00    -0.237 OA
ATOM     65  O   UNL A   1      48.672  26.188  24.294  1.00  0.00    -0.237 OA
ATOM     66  O   UNL A   1      47.921  28.262  23.215  1.00  0.00    -0.744 OA
ENDBRANCH  60  63
ENDBRANCH  42  56
BRANCH  43  67
ATOM     67  C   UNL A   1      37.824  31.402  30.562  1.00  0.00     0.023 A 
ATOM     68  C   UNL A   1      37.442  31.021  31.863  1.00  0.00     0.012 A 
ATOM     69  C   UNL A   1      36.915  32.125  29.764  1.00  0.00     0.148 A 
ATOM     70  C   UNL A   1      36.174  31.335  32.352  1.00  0.00     0.002 A 
ATOM     71  C   UNL A   1      35.674  32.482  30.278  1.00  0.00     0.091 A 
ATOM     72  F   UNL A   1      37.287  32.459  28.520  1.00  0.00    -0.205 F 
ATOM     73  C   UNL A   1      35.295  32.076  31.567  1.00  0.00     0.022 A 
BRANCH  71  74
ATOM     74  S   UNL A   1      34.540  33.549  29.380  1.00  0.00     0.127 S 
ATOM     75  O   UNL A   1      35.447  34.548  28.823  1.00  0.00    -0.237 OA
ATOM     76  O   UNL A   1      33.962  32.628  28.401  1.00  0.00    -0.237 OA
ATOM     77  O   UNL A   1      33.592  34.031  30.376  1.00  0.00    -0.744 OA
ENDBRANCH  71  74
ENDBRANCH  43  67
BRANCH  55  78
ATOM     78  C   UNL A   1      43.873  34.893  30.406  1.00  0.00     0.023 A 
ATOM     79  C   UNL A   1      44.471  35.062  31.670  1.00  0.00     0.012 A 
ATOM     80  C   UNL A   1      43.728  36.005  29.554  1.00  0.00     0.148 A 
ATOM     81  C   UNL A   1      44.895  36.321  32.090  1.00  0.00     0.002 A 
ATOM     82  C   UNL A   1      44.191  37.250  29.962  1.00  0.00     0.091 A 
ATOM     83  F   UNL A   1      43.136  35.827  28.363  1.00  0.00    -0.205 F 
ATOM     84  C   UNL A   1      44.766  37.412  31.233  1.00  0.00     0.022 A 
BRANCH  82  85
ATOM     85  S   UNL A   1      44.146  38.686  28.883  1.00  0.00     0.127 S 
ATOM     86  O   UNL A   1      42.710  38.858  28.674  1.00  0.00    -0.237 OA
ATOM     87  O   UNL A   1      44.770  39.721  29.710  1.00  0.00    -0.237 OA
ATOM     88  O   UNL A   1      44.915  38.317  27.702  1.00  0.00    -0.744 OA
ENDBRANCH  82  85
ENDBRANCH  55  78
ENDBRANCH  29  30
ENDBRANCH  22  24
ENDBRANCH  21  22
ENDBRANCH  20  21
ENDBRANCH   1  20
TORSDOF 17
ENDMDL
MODEL 3
REMARK VINA RESULT:      -9.7      5.688     10.527
REMARK SMILES Cc1ccc2oc(CCCC(=O)OCCOC(=O)c3ccc(-c4c5nc(c(-c6cccc(S(=O)(=O)[O-])c6F)c6ccc([nH]6)c(-c6cccc(S(=O)(=O)[O-])c6F)c6nc(c(-c7cccc(S(=O)(=O)[O-])c7F)c7ccc4[nH]7)C=C6)C=C5)cc3)cc(=O)c2c1
REMARK SMILES IDX 14 1 13 2 11 3 12 4 10 5 9 6 8 7 7 8 1 9 2 10 3 11 86 12
REMARK SMILES IDX 4 13 85 14 5 15 83 16 6 17 82 18 84 19 15 20 16 21 17 22
REMARK SMILES IDX 18 23 19 24 20 25 81 26 21 27 80 28 22 29 23 30 24 31 74 32
REMARK SMILES IDX 25 33 79 34 73 35 75 36 26 37 78 38 72 39 71 40 27 42 59 43
REMARK SMILES IDX 39 44 58 45 40 46 43 47 57 48 76 49 41 50 42 51 56 53 77 54
REMARK SMILES IDX 44 55 28 56 29 57 37 58 30 59 32 60 38 61 31 62 33 63 34 64
REMARK SMILES IDX 35 65 36 66 60 67 61 68 69 69 62 70 64 71 70 72 63 73 65 74
REMARK SMILES IDX 66 75 67 76 68 77 45 78 46 79 54 80 47 81 49 82 55 83 48 84
REMARK SMILES IDX 50 85 51 86 52 87 53 88
REMARK H PARENT 75 41 43 52
REMARK Flexibility Score: inf
ROOT
ATOM      1  C   UNL A   1      34.950  20.951  24.861  1.00  0.00     0.274 C 
ENDROOT
BRANCH   1   2
ATOM      2  O   UNL A   1      33.783  20.489  25.568  1.00  0.00    -0.462 OA
BRANCH   2   3
ATOM      3  C   UNL A   1      32.883  19.752  24.876  1.00  0.00     0.305 C 
ATOM      4  O   UNL A   1      32.158  18.895  25.367  1.00  0.00    -0.252 OA
BRANCH   3   5
ATOM      5  C   UNL A   1      32.852  20.073  23.394  1.00  0.00     0.123 C 
BRANCH   5   6
ATOM      6  C   UNL A   1      31.914  21.188  22.920  1.00  0.00     0.020 C 
BRANCH   6   7
ATOM      7  C   UNL A   1      32.508  22.600  22.760  1.00  0.00     0.076 C 
BRANCH   7   8
ATOM      8  C   UNL A   1      32.271  23.505  23.939  1.00  0.00     0.108 A 
ATOM      9  C   UNL A   1      32.040  29.048  27.246  1.00  0.00     0.044 C 
ATOM     10  C   UNL A   1      32.341  27.844  26.403  1.00  0.00    -0.050 A 
ATOM     11  C   UNL A   1      33.356  27.882  25.437  1.00  0.00     0.007 A 
ATOM     12  C   UNL A   1      31.605  26.664  26.583  1.00  0.00     0.019 A 
ATOM     13  C   UNL A   1      33.642  26.755  24.666  1.00  0.00     0.048 A 
ATOM     14  C   UNL A   1      31.881  25.547  25.792  1.00  0.00     0.065 A 
ATOM     15  C   UNL A   1      32.900  25.590  24.848  1.00  0.00     0.138 A 
ATOM     16  C   UNL A   1      31.074  24.319  25.888  1.00  0.00     0.192 A 
ATOM     17  O   UNL A   1      33.212  24.517  24.058  1.00  0.00    -0.461 OA
ATOM     18  C   UNL A   1      31.261  23.335  24.804  1.00  0.00     0.095 A 
ATOM     19  O   UNL A   1      30.254  24.136  26.778  1.00  0.00    -0.289 OA
ENDBRANCH   7   8
ENDBRANCH   6   7
ENDBRANCH   5   6
ENDBRANCH   3   5
ENDBRANCH   2   3
ENDBRANCH   1   2
BRANCH   1  20
ATOM     20  C   UNL A   1      36.063  21.293  25.851  1.00  0.00     0.275 C 
BRANCH  20  21
ATOM     21  O   UNL A   1      37.267  21.658  25.154  1.00  0.00    -0.458 OA
BRANCH  21  22
ATOM     22  C   UNL A   1      38.415  21.259  25.750  1.00  0.00     0.338 C 
ATOM     23  O   UNL A   1      38.912  20.146  25.738  1.00  0.00    -0.246 OA
BRANCH  22  24
ATOM     24  C   UNL A   1      39.094  22.432  26.316  1.00  0.00     0.060 A 
ATOM     25  C   UNL A   1      38.620  23.695  25.962  1.00  0.00     0.016 A 
ATOM     26  C   UNL A   1      40.227  22.296  27.118  1.00  0.00     0.016 A 
ATOM     27  C   UNL A   1      39.283  24.839  26.390  1.00  0.00     0.010 A 
ATOM     28  C   UNL A   1      40.887  23.446  27.559  1.00  0.00     0.010 A 
ATOM     29  C   UNL A   1      40.431  24.723  27.183  1.00  0.00    -0.014 A 
BRANCH  29  30
ATOM     30  C   UNL A   1      41.176  25.943  27.573  1.00  0.00     0.031 A 
ATOM     31  C   UNL A   1      40.492  27.007  28.383  1.00  0.00     0.074 A 
ATOM     32  C   UNL A   1      42.461  26.087  27.203  1.00  0.00     0.049 A 
ATOM     33  N   UNL A   1      40.947  28.169  28.768  1.00  0.00    -0.248 NA
ATOM     34  C   UNL A   1      39.111  26.728  28.813  1.00  0.00     0.031 C 
ATOM     35  C   UNL A   1      43.229  25.115  26.426  1.00  0.00     0.029 A 
ATOM     36  N   UNL A   1      43.343  27.116  27.418  1.00  0.00    -0.354 N 
ATOM     37  C   UNL A   1      39.900  28.782  29.444  1.00  0.00     0.074 A 
ATOM     38  C   UNL A   1      38.782  27.861  29.418  1.00  0.00     0.031 C 
ATOM     39  C   UNL A   1      44.465  25.598  26.217  1.00  0.00     0.029 A 
ATOM     40  C   UNL A   1      44.564  26.926  26.815  1.00  0.00     0.049 A 
ATOM     41  H   UNL A   1      43.124  27.912  27.953  1.00  0.00     0.167 HD
ATOM     42  C   UNL A   1      39.875  29.996  30.044  1.00  0.00     0.034 A 
ATOM     43  C   UNL A   1      45.634  27.742  26.735  1.00  0.00     0.034 A 
ATOM     44  C   UNL A   1      41.002  30.885  30.106  1.00  0.00     0.049 A 
ATOM     45  C   UNL A   1      45.582  29.081  27.419  1.00  0.00     0.074 A 
ATOM     46  C   UNL A   1      41.090  32.121  30.724  1.00  0.00     0.029 A 
ATOM     47  N   UNL A   1      42.240  30.634  29.534  1.00  0.00    -0.354 N 
ATOM     48  N   UNL A   1      44.614  29.606  28.131  1.00  0.00    -0.248 NA
ATOM     49  C   UNL A   1      46.779  29.928  27.315  1.00  0.00     0.031 C 
ATOM     50  C   UNL A   1      42.381  32.621  30.517  1.00  0.00     0.029 A 
ATOM     51  C   UNL A   1      43.100  31.691  29.782  1.00  0.00     0.049 A 
ATOM     52  H   UNL A   1      42.474  29.824  29.027  1.00  0.00     0.167 HD
ATOM     53  C   UNL A   1      45.093  30.829  28.583  1.00  0.00     0.074 A 
ATOM     54  C   UNL A   1      46.448  30.958  28.083  1.00  0.00     0.031 C 
ATOM     55  C   UNL A   1      44.464  31.773  29.328  1.00  0.00     0.034 A 
BRANCH  42  56
ATOM     56  C   UNL A   1      38.594  30.419  30.710  1.00  0.00     0.023 A 
ATOM     57  C   UNL A   1      38.396  30.138  32.077  1.00  0.00     0.012 A 
ATOM     58  C   UNL A   1      37.612  31.136  30.001  1.00  0.00     0.148 A 
ATOM     59  C   UNL A   1      37.226  30.542  32.722  1.00  0.00     0.002 A 
ATOM     60  C   UNL A   1      36.466  31.568  30.659  1.00  0.00     0.091 A 
ATOM     61  F   UNL A   1      37.807  31.369  28.695  1.00  0.00    -0.205 F 
ATOM     62  C   UNL A   1      36.268  31.265  32.016  1.00  0.00     0.022 A 
BRANCH  60  63
ATOM     63  S   UNL A   1      35.208  32.563  29.850  1.00  0.00     0.127 S 
ATOM     64  O   UNL A   1      34.260  32.786  30.941  1.00  0.00    -0.237 OA
ATOM     65  O   UNL A   1      35.962  33.751  29.447  1.00  0.00    -0.237 OA
ATOM     66  O   UNL A   1      34.715  31.758  28.741  1.00  0.00    -0.744 OA
ENDBRANCH  60  63
ENDBRANCH  42  56
BRANCH  43  67
ATOM     67  C   UNL A   1      46.857  27.290  26.016  1.00  0.00     0.023 A 
ATOM     68  C   UNL A   1      46.984  27.547  24.637  1.00  0.00     0.012 A 
ATOM     69  C   UNL A   1      47.912  26.647  26.694  1.00  0.00     0.148 A 
ATOM     70  C   UNL A   1      48.128  27.152  23.943  1.00  0.00     0.002 A 
ATOM     71  C   UNL A   1      49.072  26.306  26.008  1.00  0.00     0.091 A 
ATOM     72  F   UNL A   1      47.764  26.389  28.002  1.00  0.00    -0.205 F 
ATOM     73  C   UNL A   1      49.177  26.545  24.629  1.00  0.00     0.022 A 
BRANCH  71  74
ATOM     74  S   UNL A   1      50.518  25.645  26.845  1.00  0.00     0.127 S 
ATOM     75  O   UNL A   1      51.432  25.419  25.730  1.00  0.00    -0.237 OA
ATOM     76  O   UNL A   1      50.889  26.747  27.733  1.00  0.00    -0.237 OA
ATOM     77  O   UNL A   1      50.050  24.452  27.540  1.00  0.00    -0.744 OA
ENDBRANCH  71  74
ENDBRANCH  43  67
BRANCH  55  78
ATOM     78  C   UNL A   1      45.239  33.014  29.677  1.00  0.00     0.023 A 
ATOM     79  C   UNL A   1      46.087  33.012  30.801  1.00  0.00     0.012 A 
ATOM     80  C   UNL A   1      45.189  34.152  28.849  1.00  0.00     0.148 A 
ATOM     81  C   UNL A   1      46.855  34.133  31.111  1.00  0.00     0.002 A 
ATOM     82  C   UNL A   1      45.989  35.251  29.140  1.00  0.00     0.091 A 
ATOM     83  F   UNL A   1      44.359  34.143  27.796  1.00  0.00    -0.205 F 
ATOM     84  C   UNL A   1      46.816  35.247  30.275  1.00  0.00     0.022 A 
BRANCH  82  85
ATOM     85  S   UNL A   1      46.065  36.688  28.064  1.00  0.00     0.127 S 
ATOM     86  O   UNL A   1      46.470  37.738  28.996  1.00  0.00    -0.237 OA
ATOM     87  O   UNL A   1      47.094  36.302  27.095  1.00  0.00    -0.237 OA
ATOM     88  O   UNL A   1      44.731  36.829  27.496  1.00  0.00    -0.744 OA
ENDBRANCH  82  85
ENDBRANCH  55  78
ENDBRANCH  29  30
ENDBRANCH  22  24
ENDBRANCH  21  22
ENDBRANCH  20  21
ENDBRANCH   1  20
TORSDOF 17
ENDMDL
