MODEL 1
REMARK VINA RESULT:     -12.4      0.000      0.000
REMARK SMILES Cc1ccc2c(c1)C=C(C(=O)OCCOC(=O)c1ccc(-c3c4nc(c(-c5cccc(S(=O)(=O)[O-])c5F)c5ccc([nH]5)c(-c5cccc(S(=O)(=O)[O-])c5F)c5nc(c(-c6cccc(S(=O)(=O)[O-])c6F)c6ccc3[nH]6)C=C5)C=C4)cc1)[C@@H](C(F)(F)F)O2
REMARK SMILES IDX 14 1 13 2 12 3 10 4 11 5 9 6 1 7 2 8 3 9 7 10 4 11 6 12 5 13
REMARK SMILES IDX 8 14 86 15 81 16 82 17 83 18 84 19 85 20 15 21 16 22 17 23
REMARK SMILES IDX 18 24 19 25 80 26 20 27 79 28 21 29 22 30 23 31 73 32 24 33
REMARK SMILES IDX 78 34 72 35 74 36 25 37 77 38 71 39 70 40 26 42 58 43 38 44
REMARK SMILES IDX 57 45 39 46 42 47 56 48 75 49 40 50 41 51 55 53 76 54 43 55
REMARK SMILES IDX 27 56 28 57 36 58 29 59 31 60 37 61 30 62 32 63 33 64 34 65
REMARK SMILES IDX 35 66 59 67 60 68 68 69 61 70 63 71 69 72 62 73 64 74 65 75
REMARK SMILES IDX 66 76 67 77 44 78 45 79 53 80 46 81 48 82 54 83 47 84 49 85
REMARK SMILES IDX 50 86 51 87 52 88
REMARK H PARENT 74 41 42 52
REMARK Flexibility Score: inf
ROOT
ATOM      1  C   UNL A   1      31.457  30.065  25.386  1.00  0.00     0.275 C 
ENDROOT
BRANCH   1   2
ATOM      2  C   UNL A   1      31.329  28.998  24.297  1.00  0.00     0.275 C 
BRANCH   2   3
ATOM      3  O   UNL A   1      32.062  27.797  24.630  1.00  0.00    -0.459 OA
BRANCH   3   4
ATOM      4  C   UNL A   1      31.516  26.639  24.187  1.00  0.00     0.338 C 
ATOM      5  O   UNL A   1      30.326  26.423  24.005  1.00  0.00    -0.246 OA
BRANCH   4   6
ATOM      6  C   UNL A   1      32.566  25.641  23.902  1.00  0.00     0.087 C 
ATOM      7  C   UNL A   1      37.865  23.482  26.173  1.00  0.00     0.044 C 
ATOM      8  C   UNL A   1      36.739  23.587  25.186  1.00  0.00    -0.050 A 
ATOM      9  C   UNL A   1      36.773  22.910  23.961  1.00  0.00     0.007 A 
ATOM     10  C   UNL A   1      35.660  24.433  25.455  1.00  0.00     0.015 A 
ATOM     11  C   UNL A   1      35.723  23.045  23.043  1.00  0.00     0.047 A 
ATOM     12  C   UNL A   1      34.628  24.589  24.522  1.00  0.00     0.017 A 
ATOM     13  C   UNL A   1      34.644  23.882  23.325  1.00  0.00     0.128 A 
ATOM     14  C   UNL A   1      33.553  25.513  24.795  1.00  0.00     0.027 C 
ATOM     15  O   UNL A   1      33.647  23.954  22.393  1.00  0.00    -0.475 OA
ATOM     16  C   UNL A   1      32.568  24.918  22.585  1.00  0.00     0.316 C 
BRANCH  16  17
ATOM     17  C   UNL A   1      32.600  25.918  21.417  1.00  0.00     0.430 C 
ATOM     18  F   UNL A   1      31.377  26.457  21.192  1.00  0.00    -0.167 F 
ATOM     19  F   UNL A   1      33.432  26.958  21.671  1.00  0.00    -0.167 F 
ATOM     20  F   UNL A   1      33.010  25.349  20.261  1.00  0.00    -0.167 F 
ENDBRANCH  16  17
ENDBRANCH   4   6
ENDBRANCH   3   4
ENDBRANCH   2   3
ENDBRANCH   1   2
BRANCH   1  21
ATOM     21  O   UNL A   1      32.827  30.204  25.800  1.00  0.00    -0.458 OA
BRANCH  21  22
ATOM     22  C   UNL A   1      33.039  31.079  26.812  1.00  0.00     0.338 C 
ATOM     23  O   UNL A   1      32.236  31.854  27.299  1.00  0.00    -0.246 OA
BRANCH  22  24
ATOM     24  C   UNL A   1      34.392  30.881  27.349  1.00  0.00     0.060 A 
ATOM     25  C   UNL A   1      35.212  31.944  27.701  1.00  0.00     0.016 A 
ATOM     26  C   UNL A   1      34.783  29.579  27.636  1.00  0.00     0.016 A 
ATOM     27  C   UNL A   1      36.437  31.675  28.328  1.00  0.00     0.010 A 
ATOM     28  C   UNL A   1      35.923  29.324  28.389  1.00  0.00     0.010 A 
ATOM     29  C   UNL A   1      36.796  30.363  28.713  1.00  0.00    -0.014 A 
BRANCH  29  30
ATOM     30  C   UNL A   1      38.067  30.088  29.447  1.00  0.00     0.031 A 
ATOM     31  C   UNL A   1      38.291  30.584  30.860  1.00  0.00     0.074 A 
ATOM     32  C   UNL A   1      39.056  29.409  28.827  1.00  0.00     0.049 A 
ATOM     33  N   UNL A   1      39.304  30.353  31.657  1.00  0.00    -0.248 NA
ATOM     34  C   UNL A   1      37.283  31.486  31.447  1.00  0.00     0.031 C 
ATOM     35  C   UNL A   1      39.048  29.003  27.418  1.00  0.00     0.029 A 
ATOM     36  N   UNL A   1      40.251  28.924  29.300  1.00  0.00    -0.354 N 
ATOM     37  C   UNL A   1      39.075  31.105  32.804  1.00  0.00     0.074 A 
ATOM     38  C   UNL A   1      37.855  31.846  32.586  1.00  0.00     0.031 C 
ATOM     39  C   UNL A   1      40.138  28.260  27.166  1.00  0.00     0.029 A 
ATOM     40  C   UNL A   1      40.935  28.157  28.385  1.00  0.00     0.049 A 
ATOM     41  H   UNL A   1      40.585  29.107  30.208  1.00  0.00     0.167 HD
ATOM     42  C   UNL A   1      39.774  31.134  33.962  1.00  0.00     0.034 A 
ATOM     43  C   UNL A   1      42.056  27.421  28.514  1.00  0.00     0.034 A 
ATOM     44  C   UNL A   1      40.919  30.311  34.227  1.00  0.00     0.049 A 
ATOM     45  C   UNL A   1      42.747  27.360  29.847  1.00  0.00     0.074 A 
ATOM     46  C   UNL A   1      41.609  30.160  35.417  1.00  0.00     0.029 A 
ATOM     47  N   UNL A   1      41.528  29.486  33.297  1.00  0.00    -0.354 N 
ATOM     48  N   UNL A   1      42.408  27.942  30.971  1.00  0.00    -0.248 NA
ATOM     49  C   UNL A   1      43.954  26.524  29.942  1.00  0.00     0.031 C 
ATOM     50  C   UNL A   1      42.639  29.240  35.205  1.00  0.00     0.029 A 
ATOM     51  C   UNL A   1      42.587  28.821  33.885  1.00  0.00     0.049 A 
ATOM     52  H   UNL A   1      41.249  29.388  32.359  1.00  0.00     0.167 HD
ATOM     53  C   UNL A   1      43.350  27.537  31.908  1.00  0.00     0.074 A 
ATOM     54  C   UNL A   1      44.263  26.643  31.227  1.00  0.00     0.031 C 
ATOM     55  C   UNL A   1      43.458  27.896  33.209  1.00  0.00     0.034 A 
BRANCH  42  56
ATOM     56  C   UNL A   1      39.258  31.993  35.086  1.00  0.00     0.023 A 
ATOM     57  C   UNL A   1      38.312  31.451  35.979  1.00  0.00     0.012 A 
ATOM     58  C   UNL A   1      39.778  33.281  35.323  1.00  0.00     0.148 A 
ATOM     59  C   UNL A   1      37.872  32.184  37.080  1.00  0.00     0.002 A 
ATOM     60  C   UNL A   1      39.360  33.993  36.443  1.00  0.00     0.091 A 
ATOM     61  F   UNL A   1      40.673  33.778  34.459  1.00  0.00    -0.205 F 
ATOM     62  C   UNL A   1      38.403  33.449  37.317  1.00  0.00     0.022 A 
BRANCH  60  63
ATOM     63  S   UNL A   1      40.020  35.605  36.881  1.00  0.00     0.127 S 
ATOM     64  O   UNL A   1      39.604  36.415  35.736  1.00  0.00    -0.237 OA
ATOM     65  O   UNL A   1      39.309  35.898  38.125  1.00  0.00    -0.237 OA
ATOM     66  O   UNL A   1      41.459  35.428  37.022  1.00  0.00    -0.744 OA
ENDBRANCH  60  63
ENDBRANCH  42  56
BRANCH  43  67
ATOM     67  C   UNL A   1      42.513  26.587  27.369  1.00  0.00     0.023 A 
ATOM     68  C   UNL A   1      43.361  27.161  26.401  1.00  0.00     0.012 A 
ATOM     69  C   UNL A   1      42.193  25.220  27.280  1.00  0.00     0.148 A 
ATOM     70  C   UNL A   1      43.879  26.388  25.362  1.00  0.00     0.002 A 
ATOM     71  C   UNL A   1      42.743  24.446  26.266  1.00  0.00     0.091 A 
ATOM     72  F   UNL A   1      41.383  24.699  28.213  1.00  0.00    -0.205 F 
ATOM     73  C   UNL A   1      43.580  25.030  25.300  1.00  0.00     0.022 A 
BRANCH  71  74
ATOM     74  S   UNL A   1      42.505  22.668  26.162  1.00  0.00     0.127 S 
ATOM     75  O   UNL A   1      41.049  22.563  26.133  1.00  0.00    -0.237 OA
ATOM     76  O   UNL A   1      43.171  22.352  24.897  1.00  0.00    -0.237 OA
ATOM     77  O   UNL A   1      43.151  22.112  27.343  1.00  0.00    -0.744 OA
ENDBRANCH  71  74
ENDBRANCH  43  67
BRANCH  55  78
ATOM     78  C   UNL A   1      44.599  27.343  34.014  1.00  0.00     0.023 A 
ATOM     79  C   UNL A   1      45.787  28.090  34.110  1.00  0.00     0.012 A 
ATOM     80  C   UNL A   1      44.428  26.191  34.806  1.00  0.00     0.148 A 
ATOM     81  C   UNL A   1      46.793  27.701  34.992  1.00  0.00     0.002 A 
ATOM     82  C   UNL A   1      45.422  25.828  35.706  1.00  0.00     0.091 A 
ATOM     83  F   UNL A   1      43.283  25.502  34.691  1.00  0.00    -0.205 F 
ATOM     84  C   UNL A   1      46.605  26.580  35.799  1.00  0.00     0.022 A 
BRANCH  82  85
ATOM     85  S   UNL A   1      45.243  24.452  36.846  1.00  0.00     0.127 S 
ATOM     86  O   UNL A   1      44.873  23.363  35.943  1.00  0.00    -0.237 OA
ATOM     87  O   UNL A   1      46.587  24.345  37.412  1.00  0.00    -0.237 OA
ATOM     88  O   UNL A   1      44.208  24.842  37.794  1.00  0.00    -0.744 OA
ENDBRANCH  82  85
ENDBRANCH  55  78
ENDBRANCH  29  30
ENDBRANCH  22  24
ENDBRANCH  21  22
ENDBRANCH   1  21
TORSDOF 15
ENDMDL
MODEL 2
REMARK VINA RESULT:     -12.3      4.860      9.996
REMARK SMILES Cc1ccc2c(c1)C=C(C(=O)OCCOC(=O)c1ccc(-c3c4nc(c(-c5cccc(S(=O)(=O)[O-])c5F)c5ccc([nH]5)c(-c5cccc(S(=O)(=O)[O-])c5F)c5nc(c(-c6cccc(S(=O)(=O)[O-])c6F)c6ccc3[nH]6)C=C5)C=C4)cc1)[C@@H](C(F)(F)F)O2
REMARK SMILES IDX 14 1 13 2 12 3 10 4 11 5 9 6 1 7 2 8 3 9 7 10 4 11 6 12 5 13
REMARK SMILES IDX 8 14 86 15 81 16 82 17 83 18 84 19 85 20 15 21 16 22 17 23
REMARK SMILES IDX 18 24 19 25 80 26 20 27 79 28 21 29 22 30 23 31 73 32 24 33
REMARK SMILES IDX 78 34 72 35 74 36 25 37 77 38 71 39 70 40 26 42 58 43 38 44
REMARK SMILES IDX 57 45 39 46 42 47 56 48 75 49 40 50 41 51 55 53 76 54 43 55
REMARK SMILES IDX 27 56 28 57 36 58 29 59 31 60 37 61 30 62 32 63 33 64 34 65
REMARK SMILES IDX 35 66 59 67 60 68 68 69 61 70 63 71 69 72 62 73 64 74 65 75
REMARK SMILES IDX 66 76 67 77 44 78 45 79 53 80 46 81 48 82 54 83 47 84 49 85
REMARK SMILES IDX 50 86 51 87 52 88
REMARK H PARENT 74 41 42 52
REMARK Flexibility Score: inf
ROOT
ATOM      1  C   UNL A   1      36.135  20.564  24.991  1.00  0.00     0.275 C 
ENDROOT
BRANCH   1   2
ATOM      2  C   UNL A   1      34.656  20.788  25.313  1.00  0.00     0.275 C 
BRANCH   2   3
ATOM      3  O   UNL A   1      34.347  22.190  25.483  1.00  0.00    -0.459 OA
BRANCH   3   4
ATOM      4  C   UNL A   1      33.511  22.720  24.558  1.00  0.00     0.338 C 
ATOM      5  O   UNL A   1      33.245  22.240  23.465  1.00  0.00    -0.246 OA
BRANCH   4   6
ATOM      6  C   UNL A   1      32.906  23.971  25.056  1.00  0.00     0.087 C 
ATOM      7  C   UNL A   1      34.465  29.588  27.035  1.00  0.00     0.044 C 
ATOM      8  C   UNL A   1      33.528  28.463  26.704  1.00  0.00    -0.050 A 
ATOM      9  C   UNL A   1      32.166  28.526  27.023  1.00  0.00     0.007 A 
ATOM     10  C   UNL A   1      34.028  27.294  26.126  1.00  0.00     0.015 A 
ATOM     11  C   UNL A   1      31.315  27.452  26.728  1.00  0.00     0.047 A 
ATOM     12  C   UNL A   1      33.181  26.212  25.860  1.00  0.00     0.017 A 
ATOM     13  C   UNL A   1      31.822  26.293  26.140  1.00  0.00     0.128 A 
ATOM     14  C   UNL A   1      33.730  24.992  25.317  1.00  0.00     0.027 C 
ATOM     15  O   UNL A   1      30.933  25.291  25.864  1.00  0.00    -0.475 OA
ATOM     16  C   UNL A   1      31.439  24.013  25.375  1.00  0.00     0.316 C 
BRANCH  16  17
ATOM     17  C   UNL A   1      31.076  22.926  26.400  1.00  0.00     0.430 C 
ATOM     18  F   UNL A   1      31.064  21.694  25.835  1.00  0.00    -0.167 F 
ATOM     19  F   UNL A   1      31.978  22.870  27.411  1.00  0.00    -0.167 F 
ATOM     20  F   UNL A   1      29.860  23.126  26.958  1.00  0.00    -0.167 F 
ENDBRANCH  16  17
ENDBRANCH   4   6
ENDBRANCH   3   4
ENDBRANCH   2   3
ENDBRANCH   1   2
BRANCH   1  21
ATOM     21  O   UNL A   1      36.941  21.609  25.562  1.00  0.00    -0.458 OA
BRANCH  21  22
ATOM     22  C   UNL A   1      38.244  21.294  25.754  1.00  0.00     0.338 C 
ATOM     23  O   UNL A   1      38.826  20.292  25.377  1.00  0.00    -0.246 OA
BRANCH  22  24
ATOM     24  C   UNL A   1      38.925  22.421  26.407  1.00  0.00     0.060 A 
ATOM     25  C   UNL A   1      40.088  22.256  27.145  1.00  0.00     0.016 A 
ATOM     26  C   UNL A   1      38.447  23.697  26.141  1.00  0.00     0.016 A 
ATOM     27  C   UNL A   1      40.750  23.394  27.627  1.00  0.00     0.010 A 
ATOM     28  C   UNL A   1      39.183  24.824  26.489  1.00  0.00     0.010 A 
ATOM     29  C   UNL A   1      40.328  24.697  27.277  1.00  0.00    -0.014 A 
BRANCH  29  30
ATOM     30  C   UNL A   1      41.078  25.906  27.729  1.00  0.00     0.031 A 
ATOM     31  C   UNL A   1      42.484  26.193  27.248  1.00  0.00     0.074 A 
ATOM     32  C   UNL A   1      40.504  26.749  28.615  1.00  0.00     0.049 A 
ATOM     33  N   UNL A   1      43.231  27.244  27.484  1.00  0.00    -0.248 NA
ATOM     34  C   UNL A   1      43.165  25.166  26.439  1.00  0.00     0.031 C 
ATOM     35  C   UNL A   1      39.220  26.524  29.286  1.00  0.00     0.029 A 
ATOM     36  N   UNL A   1      40.911  27.971  29.092  1.00  0.00    -0.354 N 
ATOM     37  C   UNL A   1      44.464  26.984  26.894  1.00  0.00     0.074 A 
ATOM     38  C   UNL A   1      44.392  25.656  26.334  1.00  0.00     0.031 C 
ATOM     39  C   UNL A   1      38.907  27.606  30.016  1.00  0.00     0.029 A 
ATOM     40  C   UNL A   1      39.976  28.591  29.888  1.00  0.00     0.049 A 
ATOM     41  H   UNL A   1      41.789  28.365  28.884  1.00  0.00     0.167 HD
ATOM     42  C   UNL A   1      45.540  27.794  26.769  1.00  0.00     0.034 A 
ATOM     43  C   UNL A   1      39.957  29.826  30.427  1.00  0.00     0.034 A 
ATOM     44  C   UNL A   1      45.573  29.156  27.220  1.00  0.00     0.049 A 
ATOM     45  C   UNL A   1      41.104  30.761  30.166  1.00  0.00     0.074 A 
ATOM     46  C   UNL A   1      46.561  30.102  27.013  1.00  0.00     0.029 A 
ATOM     47  N   UNL A   1      44.569  29.769  27.949  1.00  0.00    -0.354 N 
ATOM     48  N   UNL A   1      42.183  30.552  29.453  1.00  0.00    -0.248 NA
ATOM     49  C   UNL A   1      41.024  32.105  30.757  1.00  0.00     0.031 C 
ATOM     50  C   UNL A   1      46.152  31.293  27.618  1.00  0.00     0.029 A 
ATOM     51  C   UNL A   1      44.912  31.084  28.201  1.00  0.00     0.049 A 
ATOM     52  H   UNL A   1      43.738  29.335  28.244  1.00  0.00     0.167 HD
ATOM     53  C   UNL A   1      42.905  31.738  29.499  1.00  0.00     0.074 A 
ATOM     54  C   UNL A   1      42.132  32.670  30.293  1.00  0.00     0.031 C 
ATOM     55  C   UNL A   1      44.111  32.016  28.950  1.00  0.00     0.034 A 
BRANCH  42  56
ATOM     56  C   UNL A   1      46.735  27.281  26.010  1.00  0.00     0.023 A 
ATOM     57  C   UNL A   1      46.788  27.469  24.614  1.00  0.00     0.012 A 
ATOM     58  C   UNL A   1      47.841  26.717  26.677  1.00  0.00     0.148 A 
ATOM     59  C   UNL A   1      47.912  27.083  23.887  1.00  0.00     0.002 A 
ATOM     60  C   UNL A   1      48.973  26.366  25.949  1.00  0.00     0.091 A 
ATOM     61  F   UNL A   1      47.767  26.545  28.004  1.00  0.00    -0.205 F 
ATOM     62  C   UNL A   1      49.007  26.542  24.555  1.00  0.00     0.022 A 
BRANCH  60  63
ATOM     63  S   UNL A   1      50.465  25.718  26.712  1.00  0.00     0.127 S 
ATOM     64  O   UNL A   1      49.986  24.453  27.270  1.00  0.00    -0.237 OA
ATOM     65  O   UNL A   1      51.359  25.578  25.563  1.00  0.00    -0.237 OA
ATOM     66  O   UNL A   1      50.880  26.709  27.696  1.00  0.00    -0.744 OA
ENDBRANCH  60  63
ENDBRANCH  42  56
BRANCH  43  67
ATOM     67  C   UNL A   1      38.744  30.279  31.161  1.00  0.00     0.023 A 
ATOM     68  C   UNL A   1      38.651  30.032  32.545  1.00  0.00     0.012 A 
ATOM     69  C   UNL A   1      37.734  31.025  30.525  1.00  0.00     0.148 A 
ATOM     70  C   UNL A   1      37.571  30.516  33.283  1.00  0.00     0.002 A 
ATOM     71  C   UNL A   1      36.681  31.538  31.272  1.00  0.00     0.091 A 
ATOM     72  F   UNL A   1      37.846  31.245  29.208  1.00  0.00    -0.205 F 
ATOM     73  C   UNL A   1      36.593  31.278  32.650  1.00  0.00     0.022 A 
BRANCH  71  74
ATOM     74  S   UNL A   1      35.429  32.620  30.571  1.00  0.00     0.127 S 
ATOM     75  O   UNL A   1      36.198  33.833  30.304  1.00  0.00    -0.237 OA
ATOM     76  O   UNL A   1      35.023  31.873  29.381  1.00  0.00    -0.237 OA
ATOM     77  O   UNL A   1      34.397  32.744  31.591  1.00  0.00    -0.744 OA
ENDBRANCH  71  74
ENDBRANCH  43  67
BRANCH  55  78
ATOM     78  C   UNL A   1      44.705  33.377  29.175  1.00  0.00     0.023 A 
ATOM     79  C   UNL A   1      45.489  33.595  30.322  1.00  0.00     0.012 A 
ATOM     80  C   UNL A   1      44.634  34.366  28.175  1.00  0.00     0.148 A 
ATOM     81  C   UNL A   1      46.205  34.781  30.471  1.00  0.00     0.002 A 
ATOM     82  C   UNL A   1      45.376  35.533  28.316  1.00  0.00     0.091 A 
ATOM     83  F   UNL A   1      43.878  34.127  27.094  1.00  0.00    -0.205 F 
ATOM     84  C   UNL A   1      46.160  35.742  29.463  1.00  0.00     0.022 A 
BRANCH  82  85
ATOM     85  S   UNL A   1      45.450  36.795  27.040  1.00  0.00     0.127 S 
ATOM     86  O   UNL A   1      46.021  36.050  25.918  1.00  0.00    -0.237 OA
ATOM     87  O   UNL A   1      44.042  37.154  26.881  1.00  0.00    -0.237 OA
ATOM     88  O   UNL A   1      46.298  37.856  27.567  1.00  0.00    -0.744 OA
ENDBRANCH  82  85
ENDBRANCH  55  78
ENDBRANCH  29  30
ENDBRANCH  22  24
ENDBRANCH  21  22
ENDBRANCH   1  21
TORSDOF 15
ENDMDL
MODEL 3
REMARK VINA RESULT:     -12.2      1.150      1.627
REMARK SMILES Cc1ccc2c(c1)C=C(C(=O)OCCOC(=O)c1ccc(-c3c4nc(c(-c5cccc(S(=O)(=O)[O-])c5F)c5ccc([nH]5)c(-c5cccc(S(=O)(=O)[O-])c5F)c5nc(c(-c6cccc(S(=O)(=O)[O-])c6F)c6ccc3[nH]6)C=C5)C=C4)cc1)[C@@H](C(F)(F)F)O2
REMARK SMILES IDX 14 1 13 2 12 3 10 4 11 5 9 6 1 7 2 8 3 9 7 10 4 11 6 12 5 13
REMARK SMILES IDX 8 14 86 15 81 16 82 17 83 18 84 19 85 20 15 21 16 22 17 23
REMARK SMILES IDX 18 24 19 25 80 26 20 27 79 28 21 29 22 30 23 31 73 32 24 33
REMARK SMILES IDX 78 34 72 35 74 36 25 37 77 38 71 39 70 40 26 42 58 43 38 44
REMARK SMILES IDX 57 45 39 46 42 47 56 48 75 49 40 50 41 51 55 53 76 54 43 55
REMARK SMILES IDX 27 56 28 57 36 58 29 59 31 60 37 61 30 62 32 63 33 64 34 65
REMARK SMILES IDX 35 66 59 67 60 68 68 69 61 70 63 71 69 72 62 73 64 74 65 75
REMARK SMILES IDX 66 76 67 77 44 78 45 79 53 80 46 81 48 82 54 83 47 84 49 85
REMARK SMILES IDX 50 86 51 87 52 88
REMARK H PARENT 74 41 42 52
REMARK Flexibility Score: inf
ROOT
ATOM      1  C   UNL A   1      31.550  29.511  25.859  1.00  0.00     0.275 C 
ENDROOT
BRANCH   1   2
ATOM      2  C   UNL A   1      30.847  29.571  24.502  1.00  0.00     0.275 C 
BRANCH   2   3
ATOM      3  O   UNL A   1      30.360  28.274  24.089  1.00  0.00    -0.459 OA
BRANCH   3   4
ATOM      4  C   UNL A   1      30.616  27.937  22.802  1.00  0.00     0.338 C 
ATOM      5  O   UNL A   1      30.206  28.518  21.808  1.00  0.00    -0.246 OA
BRANCH   4   6
ATOM      6  C   UNL A   1      31.512  26.766  22.737  1.00  0.00     0.087 C 
ATOM      7  C   UNL A   1      32.100  21.056  24.960  1.00  0.00     0.044 C 
ATOM      8  C   UNL A   1      32.502  22.266  24.169  1.00  0.00    -0.050 A 
ATOM      9  C   UNL A   1      33.754  22.352  23.547  1.00  0.00     0.007 A 
ATOM     10  C   UNL A   1      31.643  23.364  24.101  1.00  0.00     0.015 A 
ATOM     11  C   UNL A   1      34.118  23.503  22.836  1.00  0.00     0.047 A 
ATOM     12  C   UNL A   1      32.022  24.524  23.415  1.00  0.00     0.017 A 
ATOM     13  C   UNL A   1      33.249  24.591  22.764  1.00  0.00     0.128 A 
ATOM     14  C   UNL A   1      31.143  25.670  23.408  1.00  0.00     0.027 C 
ATOM     15  O   UNL A   1      33.660  25.675  22.040  1.00  0.00    -0.475 OA
ATOM     16  C   UNL A   1      32.842  26.884  22.050  1.00  0.00     0.316 C 
BRANCH  16  17
ATOM     17  C   UNL A   1      33.672  28.023  22.666  1.00  0.00     0.430 C 
ATOM     18  F   UNL A   1      34.891  28.121  22.084  1.00  0.00    -0.167 F 
ATOM     19  F   UNL A   1      33.072  29.227  22.495  1.00  0.00    -0.167 F 
ATOM     20  F   UNL A   1      33.870  27.858  23.994  1.00  0.00    -0.167 F 
ENDBRANCH  16  17
ENDBRANCH   4   6
ENDBRANCH   3   4
ENDBRANCH   2   3
ENDBRANCH   1   2
BRANCH   1  21
ATOM     21  O   UNL A   1      32.814  30.194  25.805  1.00  0.00    -0.458 OA
BRANCH  21  22
ATOM     22  C   UNL A   1      33.031  31.085  26.801  1.00  0.00     0.338 C 
ATOM     23  O   UNL A   1      32.235  31.878  27.271  1.00  0.00    -0.246 OA
BRANCH  22  24
ATOM     24  C   UNL A   1      34.381  30.882  27.347  1.00  0.00     0.060 A 
ATOM     25  C   UNL A   1      35.201  31.942  27.708  1.00  0.00     0.016 A 
ATOM     26  C   UNL A   1      34.766  29.579  27.634  1.00  0.00     0.016 A 
ATOM     27  C   UNL A   1      36.421  31.669  28.343  1.00  0.00     0.010 A 
ATOM     28  C   UNL A   1      35.900  29.319  28.394  1.00  0.00     0.010 A 
ATOM     29  C   UNL A   1      36.774  30.355  28.727  1.00  0.00    -0.014 A 
BRANCH  29  30
ATOM     30  C   UNL A   1      38.039  30.074  29.470  1.00  0.00     0.031 A 
ATOM     31  C   UNL A   1      38.261  30.581  30.879  1.00  0.00     0.074 A 
ATOM     32  C   UNL A   1      39.024  29.381  28.860  1.00  0.00     0.049 A 
ATOM     33  N   UNL A   1      39.268  30.348  31.683  1.00  0.00    -0.248 NA
ATOM     34  C   UNL A   1      37.258  31.498  31.453  1.00  0.00     0.031 C 
ATOM     35  C   UNL A   1      39.019  28.962  27.455  1.00  0.00     0.029 A 
ATOM     36  N   UNL A   1      40.212  28.889  29.343  1.00  0.00    -0.354 N 
ATOM     37  C   UNL A   1      39.041  31.113  32.822  1.00  0.00     0.074 A 
ATOM     38  C   UNL A   1      37.829  31.862  32.592  1.00  0.00     0.031 C 
ATOM     39  C   UNL A   1      40.102  28.207  27.215  1.00  0.00     0.029 A 
ATOM     40  C   UNL A   1      40.893  28.108  28.438  1.00  0.00     0.049 A 
ATOM     41  H   UNL A   1      40.544  29.077  30.251  1.00  0.00     0.167 HD
ATOM     42  C   UNL A   1      39.735  31.145  33.983  1.00  0.00     0.034 A 
ATOM     43  C   UNL A   1      42.007  27.363  28.579  1.00  0.00     0.034 A 
ATOM     44  C   UNL A   1      40.870  30.313  34.260  1.00  0.00     0.049 A 
ATOM     45  C   UNL A   1      42.691  27.307  29.915  1.00  0.00     0.074 A 
ATOM     46  C   UNL A   1      41.554  30.168  35.454  1.00  0.00     0.029 A 
ATOM     47  N   UNL A   1      41.477  29.475  33.340  1.00  0.00    -0.354 N 
ATOM     48  N   UNL A   1      42.353  27.902  31.032  1.00  0.00    -0.248 NA
ATOM     49  C   UNL A   1      43.890  26.461  30.023  1.00  0.00     0.031 C 
ATOM     50  C   UNL A   1      42.577  29.236  35.256  1.00  0.00     0.029 A 
ATOM     51  C   UNL A   1      42.527  28.806  33.939  1.00  0.00     0.049 A 
ATOM     52  H   UNL A   1      41.201  29.371  32.402  1.00  0.00     0.167 HD
ATOM     53  C   UNL A   1      43.287  27.497  31.977  1.00  0.00     0.074 A 
ATOM     54  C   UNL A   1      44.195  26.588  31.309  1.00  0.00     0.031 C 
ATOM     55  C   UNL A   1      43.392  27.866  33.276  1.00  0.00     0.034 A 
BRANCH  42  56
ATOM     56  C   UNL A   1      39.222  32.019  35.097  1.00  0.00     0.023 A 
ATOM     57  C   UNL A   1      38.255  31.499  35.981  1.00  0.00     0.012 A 
ATOM     58  C   UNL A   1      39.763  33.298  35.335  1.00  0.00     0.148 A 
ATOM     59  C   UNL A   1      37.816  32.245  37.073  1.00  0.00     0.002 A 
ATOM     60  C   UNL A   1      39.345  34.023  36.446  1.00  0.00     0.091 A 
ATOM     61  F   UNL A   1      40.678  33.774  34.479  1.00  0.00    -0.205 F 
ATOM     62  C   UNL A   1      38.368  33.501  37.311  1.00  0.00     0.022 A 
BRANCH  60  63
ATOM     63  S   UNL A   1      40.030  35.624  36.885  1.00  0.00     0.127 S 
ATOM     64  O   UNL A   1      39.622  36.443  35.744  1.00  0.00    -0.237 OA
ATOM     65  O   UNL A   1      39.330  35.924  38.133  1.00  0.00    -0.237 OA
ATOM     66  O   UNL A   1      41.467  35.426  37.020  1.00  0.00    -0.744 OA
ENDBRANCH  60  63
ENDBRANCH  42  56
BRANCH  43  67
ATOM     67  C   UNL A   1      42.461  26.514  27.443  1.00  0.00     0.023 A 
ATOM     68  C   UNL A   1      43.360  27.055  26.503  1.00  0.00     0.012 A 
ATOM     69  C   UNL A   1      42.087  25.162  27.339  1.00  0.00     0.148 A 
ATOM     70  C   UNL A   1      43.875  26.265  25.475  1.00  0.00     0.002 A 
ATOM     71  C   UNL A   1      42.633  24.370  26.337  1.00  0.00     0.091 A 
ATOM     72  F   UNL A   1      41.230  24.672  28.246  1.00  0.00    -0.205 F 
ATOM     73  C   UNL A   1      43.521  24.921  25.398  1.00  0.00     0.022 A 
BRANCH  71  74
ATOM     74  S   UNL A   1      42.324  22.603  26.217  1.00  0.00     0.127 S 
ATOM     75  O   UNL A   1      42.899  22.115  27.468  1.00  0.00    -0.237 OA
ATOM     76  O   UNL A   1      40.863  22.561  26.152  1.00  0.00    -0.237 OA
ATOM     77  O   UNL A   1      42.999  22.165  25.004  1.00  0.00    -0.744 OA
ENDBRANCH  71  74
ENDBRANCH  43  67
BRANCH  55  78
ATOM     78  C   UNL A   1      44.524  27.310  34.090  1.00  0.00     0.023 A 
ATOM     79  C   UNL A   1      45.707  28.061  34.211  1.00  0.00     0.012 A 
ATOM     80  C   UNL A   1      44.347  26.149  34.868  1.00  0.00     0.148 A 
ATOM     81  C   UNL A   1      46.702  27.667  35.104  1.00  0.00     0.002 A 
ATOM     82  C   UNL A   1      45.330  25.781  35.778  1.00  0.00     0.091 A 
ATOM     83  F   UNL A   1      43.208  25.457  34.729  1.00  0.00    -0.205 F 
ATOM     84  C   UNL A   1      46.509  26.538  35.896  1.00  0.00     0.022 A 
BRANCH  82  85
ATOM     85  S   UNL A   1      45.142  24.392  36.901  1.00  0.00     0.127 S 
ATOM     86  O   UNL A   1      44.137  24.899  37.835  1.00  0.00    -0.237 OA
ATOM     87  O   UNL A   1      44.667  23.337  36.007  1.00  0.00    -0.237 OA
ATOM     88  O   UNL A   1      46.457  24.158  37.482  1.00  0.00    -0.744 OA
ENDBRANCH  82  85
ENDBRANCH  55  78
ENDBRANCH  29  30
ENDBRANCH  22  24
ENDBRANCH  21  22
ENDBRANCH   1  21
TORSDOF 15
ENDMDL
