MODEL 1
REMARK VINA RESULT:     -12.3      0.000      0.000
REMARK SMILES CCN(C(=O)Cc1c(C(=O)OCCOC(=O)c2ccc(-c3c4nc(c(-c5cccc(S(=O)(=O)[O-])c5F)c5ccc([nH]5)c(-c5cccc(S(=O)(=O)[O-])c5F)c5nc(c(-c6cccc(S(=O)(=O)[O-])c6F)c6ccc3[nH]6)C=C5)C=C4)cc2)[nH]c2ccc(Cl)cc12)c1ccc(C)c(C)c1
REMARK SMILES IDX 12 1 11 2 9 3 10 4 8 5 7 6 87 7 80 8 81 9 86 10 82 12 84 13
REMARK SMILES IDX 83 14 85 15 6 16 4 17 5 18 3 19 2 20 1 21 88 22 89 23 95 24
REMARK SMILES IDX 90 25 93 26 91 27 94 28 92 29 13 30 14 31 15 32 16 33 17 34
REMARK SMILES IDX 18 35 79 36 19 37 78 38 20 39 21 40 22 41 72 42 23 43 77 44
REMARK SMILES IDX 71 45 73 46 24 47 76 48 70 49 69 50 25 52 57 53 37 54 56 55
REMARK SMILES IDX 38 56 41 57 55 58 74 59 39 60 40 61 54 63 75 64 42 65 26 66
REMARK SMILES IDX 27 67 35 68 28 69 30 70 36 71 29 72 31 73 32 74 33 75 34 76
REMARK SMILES IDX 58 77 59 78 67 79 60 80 62 81 68 82 61 83 63 84 64 85 65 86
REMARK SMILES IDX 66 87 43 88 44 89 52 90 45 91 47 92 53 93 46 94 48 95 49 96
REMARK SMILES IDX 50 97 51 98
REMARK H PARENT 80 11 73 51 41 62
REMARK Flexibility Score: inf
ROOT
ATOM      1  C   UNL A   1      36.906  22.226  23.640  1.00  0.00     0.275 C 
ENDROOT
BRANCH   1   2
ATOM      2  O   UNL A   1      36.157  23.377  24.081  1.00  0.00    -0.457 OA
BRANCH   2   3
ATOM      3  C   UNL A   1      34.995  23.605  23.416  1.00  0.00     0.355 C 
ATOM      4  O   UNL A   1      34.690  23.102  22.343  1.00  0.00    -0.244 OA
BRANCH   3   5
ATOM      5  C   UNL A   1      34.179  24.580  24.095  1.00  0.00     0.129 A 
ATOM      6  C   UNL A   1      33.823  24.692  25.440  1.00  0.00     0.002 A 
ATOM      7  C   UNL A   1      33.155  25.960  25.592  1.00  0.00     0.005 A 
ATOM      8  N   UNL A   1      33.737  25.715  23.465  1.00  0.00    -0.349 N 
ATOM      9  C   UNL A   1      33.135  26.575  24.343  1.00  0.00     0.046 A 
ATOM     10  C   UNL A   1      32.596  26.660  26.683  1.00  0.00     0.031 A 
ATOM     11  H   UNL A   1      33.841  25.890  22.501  1.00  0.00     0.167 HD
ATOM     12  C   UNL A   1      32.598  27.847  24.115  1.00  0.00     0.028 A 
ATOM     13  C   UNL A   1      32.057  27.936  26.471  1.00  0.00     0.041 A 
ATOM     14  C   UNL A   1      32.058  28.525  25.210  1.00  0.00     0.022 A 
ATOM     15  Cl  UNL A   1      31.384  28.803  27.802  1.00  0.00    -0.084 Cl
BRANCH   6  16
ATOM     16  C   UNL A   1      34.124  23.703  26.525  1.00  0.00     0.139 C 
BRANCH  16  17
ATOM     17  C   UNL A   1      32.952  22.815  26.941  1.00  0.00     0.231 C 
ATOM     18  O   UNL A   1      32.837  22.530  28.140  1.00  0.00    -0.274 OA
BRANCH  17  19
ATOM     19  N   UNL A   1      32.013  22.428  25.969  1.00  0.00    -0.312 N 
BRANCH  19  20
ATOM     20  C   UNL A   1      30.688  23.056  25.823  1.00  0.00     0.122 C 
ATOM     21  C   UNL A   1      29.830  22.988  27.079  1.00  0.00     0.028 C 
ENDBRANCH  19  20
BRANCH  19  22
ATOM     22  C   UNL A   1      32.298  21.323  25.088  1.00  0.00     0.044 A 
ATOM     23  C   UNL A   1      32.831  20.132  25.590  1.00  0.00     0.026 A 
ATOM     24  C   UNL A   1      31.961  21.361  23.727  1.00  0.00     0.030 A 
ATOM     25  C   UNL A   1      32.959  19.003  24.775  1.00  0.00     0.006 A 
ATOM     26  C   UNL A   1      32.138  20.252  22.879  1.00  0.00    -0.046 A 
ATOM     27  C   UNL A   1      32.585  19.039  23.424  1.00  0.00    -0.048 A 
ATOM     28  C   UNL A   1      31.799  20.402  21.420  1.00  0.00     0.044 C 
ATOM     29  C   UNL A   1      32.721  17.785  22.609  1.00  0.00     0.044 C 
ENDBRANCH  19  22
ENDBRANCH  17  19
ENDBRANCH  16  17
ENDBRANCH   6  16
ENDBRANCH   3   5
ENDBRANCH   2   3
ENDBRANCH   1   2
BRANCH   1  30
ATOM     30  C   UNL A   1      37.031  21.118  24.696  1.00  0.00     0.275 C 
BRANCH  30  31
ATOM     31  O   UNL A   1      37.589  21.602  25.934  1.00  0.00    -0.458 OA
BRANCH  31  32
ATOM     32  C   UNL A   1      38.935  21.499  26.029  1.00  0.00     0.338 C 
ATOM     33  O   UNL A   1      39.640  20.695  25.431  1.00  0.00    -0.246 OA
BRANCH  32  34
ATOM     34  C   UNL A   1      39.506  22.617  26.808  1.00  0.00     0.060 A 
ATOM     35  C   UNL A   1      38.949  23.876  26.572  1.00  0.00     0.016 A 
ATOM     36  C   UNL A   1      40.587  22.484  27.683  1.00  0.00     0.016 A 
ATOM     37  C   UNL A   1      39.469  25.009  27.177  1.00  0.00     0.010 A 
ATOM     38  C   UNL A   1      41.134  23.634  28.277  1.00  0.00     0.010 A 
ATOM     39  C   UNL A   1      40.592  24.901  28.004  1.00  0.00    -0.014 A 
BRANCH  39  40
ATOM     40  C   UNL A   1      41.239  26.166  28.420  1.00  0.00     0.031 A 
ATOM     41  C   UNL A   1      42.596  26.497  27.868  1.00  0.00     0.074 A 
ATOM     42  C   UNL A   1      40.544  27.090  29.108  1.00  0.00     0.049 A 
ATOM     43  N   UNL A   1      43.269  27.614  27.947  1.00  0.00    -0.248 NA
ATOM     44  C   UNL A   1      43.268  25.439  27.095  1.00  0.00     0.031 C 
ATOM     45  C   UNL A   1      39.186  26.914  29.618  1.00  0.00     0.029 A 
ATOM     46  N   UNL A   1      40.870  28.379  29.447  1.00  0.00    -0.354 N 
ATOM     47  C   UNL A   1      44.446  27.394  27.244  1.00  0.00     0.074 A 
ATOM     48  C   UNL A   1      44.392  26.041  26.734  1.00  0.00     0.031 C 
ATOM     49  C   UNL A   1      38.775  28.071  30.167  1.00  0.00     0.029 A 
ATOM     50  C   UNL A   1      39.845  29.061  30.058  1.00  0.00     0.049 A 
ATOM     51  H   UNL A   1      41.753  28.778  29.270  1.00  0.00     0.167 HD
ATOM     52  C   UNL A   1      45.473  28.245  27.025  1.00  0.00     0.034 A 
ATOM     53  C   UNL A   1      39.769  30.346  30.459  1.00  0.00     0.034 A 
ATOM     54  C   UNL A   1      45.526  29.597  27.505  1.00  0.00     0.049 A 
ATOM     55  C   UNL A   1      40.943  31.261  30.238  1.00  0.00     0.074 A 
ATOM     56  C   UNL A   1      46.561  30.509  27.401  1.00  0.00     0.029 A 
ATOM     57  N   UNL A   1      44.491  30.234  28.169  1.00  0.00    -0.354 N 
ATOM     58  N   UNL A   1      42.049  31.038  29.571  1.00  0.00    -0.248 NA
ATOM     59  C   UNL A   1      40.852  32.609  30.821  1.00  0.00     0.031 C 
ATOM     60  C   UNL A   1      46.142  31.711  27.986  1.00  0.00     0.029 A 
ATOM     61  C   UNL A   1      44.856  31.534  28.472  1.00  0.00     0.049 A 
ATOM     62  H   UNL A   1      43.625  29.824  28.393  1.00  0.00     0.167 HD
ATOM     63  C   UNL A   1      42.786  32.214  29.652  1.00  0.00     0.074 A 
ATOM     64  C   UNL A   1      41.987  33.159  30.406  1.00  0.00     0.031 C 
ATOM     65  C   UNL A   1      44.027  32.476  29.176  1.00  0.00     0.034 A 
BRANCH  52  66
ATOM     66  C   UNL A   1      46.607  27.739  26.187  1.00  0.00     0.023 A 
ATOM     67  C   UNL A   1      46.546  27.906  24.791  1.00  0.00     0.012 A 
ATOM     68  C   UNL A   1      47.719  27.103  26.762  1.00  0.00     0.148 A 
ATOM     69  C   UNL A   1      47.579  27.440  23.978  1.00  0.00     0.002 A 
ATOM     70  C   UNL A   1      48.745  26.639  25.944  1.00  0.00     0.091 A 
ATOM     71  F   UNL A   1      47.752  26.923  28.091  1.00  0.00    -0.205 F 
ATOM     72  C   UNL A   1      48.680  26.807  24.553  1.00  0.00     0.022 A 
BRANCH  70  73
ATOM     73  S   UNL A   1      50.153  25.803  26.676  1.00  0.00     0.127 S 
ATOM     74  O   UNL A   1      51.040  25.624  25.531  1.00  0.00    -0.237 OA
ATOM     75  O   UNL A   1      50.639  26.767  27.667  1.00  0.00    -0.237 OA
ATOM     76  O   UNL A   1      49.576  24.593  27.251  1.00  0.00    -0.744 OA
ENDBRANCH  70  73
ENDBRANCH  52  66
BRANCH  53  77
ATOM     77  C   UNL A   1      38.503  30.863  31.045  1.00  0.00     0.023 A 
ATOM     78  C   UNL A   1      38.307  30.781  32.436  1.00  0.00     0.012 A 
ATOM     79  C   UNL A   1      37.516  31.469  30.250  1.00  0.00     0.148 A 
ATOM     80  C   UNL A   1      37.145  31.289  33.021  1.00  0.00     0.002 A 
ATOM     81  C   UNL A   1      36.379  32.007  30.845  1.00  0.00     0.091 A 
ATOM     82  F   UNL A   1      37.704  31.538  28.923  1.00  0.00    -0.205 F 
ATOM     83  C   UNL A   1      36.183  31.910  32.228  1.00  0.00     0.022 A 
BRANCH  81  84
ATOM     84  S   UNL A   1      35.196  32.901  29.833  1.00  0.00     0.127 S 
ATOM     85  O   UNL A   1      34.239  33.395  30.818  1.00  0.00    -0.237 OA
ATOM     86  O   UNL A   1      36.010  33.940  29.202  1.00  0.00    -0.237 OA
ATOM     87  O   UNL A   1      34.718  31.875  28.911  1.00  0.00    -0.744 OA
ENDBRANCH  81  84
ENDBRANCH  53  77
BRANCH  65  88
ATOM     88  C   UNL A   1      44.618  33.822  29.479  1.00  0.00     0.023 A 
ATOM     89  C   UNL A   1      45.322  33.991  30.687  1.00  0.00     0.012 A 
ATOM     90  C   UNL A   1      44.556  34.881  28.558  1.00  0.00     0.148 A 
ATOM     91  C   UNL A   1      45.954  35.200  30.974  1.00  0.00     0.002 A 
ATOM     92  C   UNL A   1      45.202  36.081  28.847  1.00  0.00     0.091 A 
ATOM     93  F   UNL A   1      43.879  34.711  27.412  1.00  0.00    -0.205 F 
ATOM     94  C   UNL A   1      45.899  36.244  30.052  1.00  0.00     0.022 A 
BRANCH  92  95
ATOM     95  S   UNL A   1      45.166  37.419  27.651  1.00  0.00     0.127 S 
ATOM     96  O   UNL A   1      43.735  37.642  27.465  1.00  0.00    -0.237 OA
ATOM     97  O   UNL A   1      45.859  38.509  28.341  1.00  0.00    -0.237 OA
ATOM     98  O   UNL A   1      45.894  36.877  26.510  1.00  0.00    -0.744 OA
ENDBRANCH  92  95
ENDBRANCH  65  88
ENDBRANCH  39  40
ENDBRANCH  32  34
ENDBRANCH  31  32
ENDBRANCH  30  31
ENDBRANCH   1  30
TORSDOF 19
ENDMDL
MODEL 2
REMARK VINA RESULT:     -12.0      4.911     10.095
REMARK SMILES CCN(C(=O)Cc1c(C(=O)OCCOC(=O)c2ccc(-c3c4nc(c(-c5cccc(S(=O)(=O)[O-])c5F)c5ccc([nH]5)c(-c5cccc(S(=O)(=O)[O-])c5F)c5nc(c(-c6cccc(S(=O)(=O)[O-])c6F)c6ccc3[nH]6)C=C5)C=C4)cc2)[nH]c2ccc(Cl)cc12)c1ccc(C)c(C)c1
REMARK SMILES IDX 12 1 11 2 9 3 10 4 8 5 7 6 87 7 80 8 81 9 86 10 82 12 84 13
REMARK SMILES IDX 83 14 85 15 6 16 4 17 5 18 3 19 2 20 1 21 88 22 89 23 95 24
REMARK SMILES IDX 90 25 93 26 91 27 94 28 92 29 13 30 14 31 15 32 16 33 17 34
REMARK SMILES IDX 18 35 79 36 19 37 78 38 20 39 21 40 22 41 72 42 23 43 77 44
REMARK SMILES IDX 71 45 73 46 24 47 76 48 70 49 69 50 25 52 57 53 37 54 56 55
REMARK SMILES IDX 38 56 41 57 55 58 74 59 39 60 40 61 54 63 75 64 42 65 26 66
REMARK SMILES IDX 27 67 35 68 28 69 30 70 36 71 29 72 31 73 32 74 33 75 34 76
REMARK SMILES IDX 58 77 59 78 67 79 60 80 62 81 68 82 61 83 63 84 64 85 65 86
REMARK SMILES IDX 66 87 43 88 44 89 52 90 45 91 47 92 53 93 46 94 48 95 49 96
REMARK SMILES IDX 50 97 51 98
REMARK H PARENT 80 11 73 51 41 62
REMARK Flexibility Score: inf
ROOT
ATOM      1  C   UNL A   1      31.800  30.482  26.684  1.00  0.00     0.275 C 
ENDROOT
BRANCH   1   2
ATOM      2  O   UNL A   1      32.250  29.206  26.181  1.00  0.00    -0.457 OA
BRANCH   2   3
ATOM      3  C   UNL A   1      31.870  28.126  26.911  1.00  0.00     0.355 C 
ATOM      4  O   UNL A   1      31.188  28.170  27.926  1.00  0.00    -0.244 OA
BRANCH   3   5
ATOM      5  C   UNL A   1      32.431  26.907  26.385  1.00  0.00     0.129 A 
ATOM      6  C   UNL A   1      33.487  26.700  25.497  1.00  0.00     0.002 A 
ATOM      7  C   UNL A   1      33.742  25.282  25.472  1.00  0.00     0.005 A 
ATOM      8  N   UNL A   1      32.057  25.677  26.861  1.00  0.00    -0.349 N 
ATOM      9  C   UNL A   1      32.841  24.679  26.346  1.00  0.00     0.046 A 
ATOM     10  C   UNL A   1      34.677  24.455  24.814  1.00  0.00     0.031 A 
ATOM     11  H   UNL A   1      31.318  25.529  27.495  1.00  0.00     0.167 HD
ATOM     12  C   UNL A   1      32.819  23.305  26.610  1.00  0.00     0.028 A 
ATOM     13  C   UNL A   1      34.670  23.077  25.070  1.00  0.00     0.041 A 
ATOM     14  C   UNL A   1      33.759  22.508  25.955  1.00  0.00     0.022 A 
ATOM     15  Cl  UNL A   1      35.819  22.062  24.279  1.00  0.00    -0.084 Cl
BRANCH   6  16
ATOM     16  C   UNL A   1      34.244  27.758  24.752  1.00  0.00     0.139 C 
BRANCH  16  17
ATOM     17  C   UNL A   1      33.848  27.932  23.286  1.00  0.00     0.231 C 
ATOM     18  O   UNL A   1      34.560  28.654  22.575  1.00  0.00    -0.274 OA
BRANCH  17  19
ATOM     19  N   UNL A   1      32.751  27.209  22.787  1.00  0.00    -0.312 N 
BRANCH  19  20
ATOM     20  C   UNL A   1      32.881  25.941  22.048  1.00  0.00     0.122 C 
ATOM     21  C   UNL A   1      32.288  25.979  20.646  1.00  0.00     0.028 C 
ENDBRANCH  19  20
BRANCH  19  22
ATOM     22  C   UNL A   1      31.415  27.731  22.931  1.00  0.00     0.044 A 
ATOM     23  C   UNL A   1      31.107  29.025  22.503  1.00  0.00     0.026 A 
ATOM     24  C   UNL A   1      30.362  26.936  23.408  1.00  0.00     0.030 A 
ATOM     25  C   UNL A   1      29.785  29.481  22.489  1.00  0.00     0.006 A 
ATOM     26  C   UNL A   1      29.034  27.400  23.456  1.00  0.00    -0.046 A 
ATOM     27  C   UNL A   1      28.734  28.667  22.933  1.00  0.00    -0.048 A 
ATOM     28  C   UNL A   1      27.978  26.496  24.034  1.00  0.00     0.044 C 
ATOM     29  C   UNL A   1      27.333  29.205  22.867  1.00  0.00     0.044 C 
ENDBRANCH  19  22
ENDBRANCH  17  19
ENDBRANCH  16  17
ENDBRANCH   6  16
ENDBRANCH   3   5
ENDBRANCH   2   3
ENDBRANCH   1   2
BRANCH   1  30
ATOM     30  C   UNL A   1      32.936  31.420  27.116  1.00  0.00     0.275 C 
BRANCH  30  31
ATOM     31  O   UNL A   1      32.499  32.787  27.245  1.00  0.00    -0.458 OA
BRANCH  31  32
ATOM     32  C   UNL A   1      33.220  33.534  28.114  1.00  0.00     0.338 C 
ATOM     33  O   UNL A   1      32.808  34.492  28.755  1.00  0.00    -0.246 OA
BRANCH  32  34
ATOM     34  C   UNL A   1      34.549  32.937  28.360  1.00  0.00     0.060 A 
ATOM     35  C   UNL A   1      34.572  31.807  29.181  1.00  0.00     0.016 A 
ATOM     36  C   UNL A   1      35.746  33.477  27.882  1.00  0.00     0.016 A 
ATOM     37  C   UNL A   1      35.772  31.222  29.554  1.00  0.00     0.010 A 
ATOM     38  C   UNL A   1      36.965  32.902  28.279  1.00  0.00     0.010 A 
ATOM     39  C   UNL A   1      36.980  31.790  29.138  1.00  0.00    -0.014 A 
BRANCH  39  40
ATOM     40  C   UNL A   1      38.215  31.266  29.764  1.00  0.00     0.031 A 
ATOM     41  C   UNL A   1      38.506  31.624  31.194  1.00  0.00     0.074 A 
ATOM     42  C   UNL A   1      38.949  30.329  29.138  1.00  0.00     0.049 A 
ATOM     43  N   UNL A   1      39.419  31.143  31.995  1.00  0.00    -0.248 NA
ATOM     44  C   UNL A   1      37.628  32.632  31.811  1.00  0.00     0.031 C 
ATOM     45  C   UNL A   1      38.708  29.838  27.783  1.00  0.00     0.029 A 
ATOM     46  N   UNL A   1      40.013  29.586  29.585  1.00  0.00    -0.354 N 
ATOM     47  C   UNL A   1      39.234  31.794  33.207  1.00  0.00     0.074 A 
ATOM     48  C   UNL A   1      38.114  32.696  33.042  1.00  0.00     0.031 C 
ATOM     49  C   UNL A   1      39.572  28.841  27.522  1.00  0.00     0.029 A 
ATOM     50  C   UNL A   1      40.432  28.634  28.686  1.00  0.00     0.049 A 
ATOM     51  H   UNL A   1      40.435  29.722  30.463  1.00  0.00     0.167 HD
ATOM     52  C   UNL A   1      39.921  31.644  34.362  1.00  0.00     0.034 A 
ATOM     53  C   UNL A   1      41.382  27.685  28.801  1.00  0.00     0.034 A 
ATOM     54  C   UNL A   1      41.017  30.735  34.544  1.00  0.00     0.049 A 
ATOM     55  C   UNL A   1      42.160  27.566  30.083  1.00  0.00     0.074 A 
ATOM     56  C   UNL A   1      41.826  30.572  35.655  1.00  0.00     0.029 A 
ATOM     57  N   UNL A   1      41.449  29.826  33.592  1.00  0.00    -0.354 N 
ATOM     58  N   UNL A   1      41.973  28.189  31.222  1.00  0.00    -0.248 NA
ATOM     59  C   UNL A   1      43.275  26.607  30.098  1.00  0.00     0.031 C 
ATOM     60  C   UNL A   1      42.737  29.544  35.381  1.00  0.00     0.029 A 
ATOM     61  C   UNL A   1      42.506  29.088  34.093  1.00  0.00     0.049 A 
ATOM     62  H   UNL A   1      41.061  29.721  32.694  1.00  0.00     0.167 HD
ATOM     63  C   UNL A   1      42.943  27.699  32.088  1.00  0.00     0.074 A 
ATOM     64  C   UNL A   1      43.698  26.704  31.353  1.00  0.00     0.031 C 
ATOM     65  C   UNL A   1      43.209  28.065  33.365  1.00  0.00     0.034 A 
BRANCH  52  66
ATOM     66  C   UNL A   1      39.466  32.461  35.534  1.00  0.00     0.023 A 
ATOM     67  C   UNL A   1      38.527  31.907  36.423  1.00  0.00     0.012 A 
ATOM     68  C   UNL A   1      39.953  33.759  35.758  1.00  0.00     0.148 A 
ATOM     69  C   UNL A   1      38.074  32.640  37.519  1.00  0.00     0.002 A 
ATOM     70  C   UNL A   1      39.495  34.484  36.853  1.00  0.00     0.091 A 
ATOM     71  F   UNL A   1      40.826  34.287  34.887  1.00  0.00    -0.205 F 
ATOM     72  C   UNL A   1      38.558  33.929  37.737  1.00  0.00     0.022 A 
BRANCH  70  73
ATOM     73  S   UNL A   1      40.097  36.152  37.125  1.00  0.00     0.127 S 
ATOM     74  O   UNL A   1      41.517  35.934  37.385  1.00  0.00    -0.237 OA
ATOM     75  O   UNL A   1      39.816  36.824  35.854  1.00  0.00    -0.237 OA
ATOM     76  O   UNL A   1      39.294  36.631  38.245  1.00  0.00    -0.744 OA
ENDBRANCH  70  73
ENDBRANCH  52  66
BRANCH  53  77
ATOM     77  C   UNL A   1      41.601  26.721  27.689  1.00  0.00     0.023 A 
ATOM     78  C   UNL A   1      42.408  27.100  26.600  1.00  0.00     0.012 A 
ATOM     79  C   UNL A   1      41.057  25.426  27.718  1.00  0.00     0.148 A 
ATOM     80  C   UNL A   1      42.661  26.206  25.557  1.00  0.00     0.002 A 
ATOM     81  C   UNL A   1      41.346  24.528  26.695  1.00  0.00     0.091 A 
ATOM     82  F   UNL A   1      40.282  25.071  28.754  1.00  0.00    -0.205 F 
ATOM     83  C   UNL A   1      42.138  24.916  25.608  1.00  0.00     0.022 A 
BRANCH  81  84
ATOM     84  S   UNL A   1      40.759  22.837  26.817  1.00  0.00     0.127 S 
ATOM     85  O   UNL A   1      41.456  22.173  25.721  1.00  0.00    -0.237 OA
ATOM     86  O   UNL A   1      41.193  22.425  28.152  1.00  0.00    -0.237 OA
ATOM     87  O   UNL A   1      39.312  22.984  26.681  1.00  0.00    -0.744 OA
ENDBRANCH  81  84
ENDBRANCH  53  77
BRANCH  65  88
ATOM     88  C   UNL A   1      44.379  27.417  34.044  1.00  0.00     0.023 A 
ATOM     89  C   UNL A   1      45.645  28.026  33.933  1.00  0.00     0.012 A 
ATOM     90  C   UNL A   1      44.229  26.276  34.849  1.00  0.00     0.148 A 
ATOM     91  C   UNL A   1      46.744  27.503  34.610  1.00  0.00     0.002 A 
ATOM     92  C   UNL A   1      45.330  25.768  35.534  1.00  0.00     0.091 A 
ATOM     93  F   UNL A   1      43.021  25.700  34.946  1.00  0.00    -0.205 F 
ATOM     94  C   UNL A   1      46.587  26.377  35.417  1.00  0.00     0.022 A 
BRANCH  92  95
ATOM     95  S   UNL A   1      45.130  24.338  36.602  1.00  0.00     0.127 S 
ATOM     96  O   UNL A   1      44.610  23.327  35.686  1.00  0.00    -0.237 OA
ATOM     97  O   UNL A   1      46.490  24.077  37.077  1.00  0.00    -0.237 OA
ATOM     98  O   UNL A   1      44.218  24.810  37.637  1.00  0.00    -0.744 OA
ENDBRANCH  92  95
ENDBRANCH  65  88
ENDBRANCH  39  40
ENDBRANCH  32  34
ENDBRANCH  31  32
ENDBRANCH  30  31
ENDBRANCH   1  30
TORSDOF 19
ENDMDL
MODEL 3
REMARK VINA RESULT:     -11.3      1.814      2.098
REMARK SMILES CCN(C(=O)Cc1c(C(=O)OCCOC(=O)c2ccc(-c3c4nc(c(-c5cccc(S(=O)(=O)[O-])c5F)c5ccc([nH]5)c(-c5cccc(S(=O)(=O)[O-])c5F)c5nc(c(-c6cccc(S(=O)(=O)[O-])c6F)c6ccc3[nH]6)C=C5)C=C4)cc2)[nH]c2ccc(Cl)cc12)c1ccc(C)c(C)c1
REMARK SMILES IDX 12 1 11 2 9 3 10 4 8 5 7 6 87 7 80 8 81 9 86 10 82 12 84 13
REMARK SMILES IDX 83 14 85 15 6 16 4 17 5 18 3 19 2 20 1 21 88 22 89 23 95 24
REMARK SMILES IDX 90 25 93 26 91 27 94 28 92 29 13 30 14 31 15 32 16 33 17 34
REMARK SMILES IDX 18 35 79 36 19 37 78 38 20 39 21 40 22 41 72 42 23 43 77 44
REMARK SMILES IDX 71 45 73 46 24 47 76 48 70 49 69 50 25 52 57 53 37 54 56 55
REMARK SMILES IDX 38 56 41 57 55 58 74 59 39 60 40 61 54 63 75 64 42 65 26 66
REMARK SMILES IDX 27 67 35 68 28 69 30 70 36 71 29 72 31 73 32 74 33 75 34 76
REMARK SMILES IDX 58 77 59 78 67 79 60 80 62 81 68 82 61 83 63 84 64 85 65 86
REMARK SMILES IDX 66 87 43 88 44 89 52 90 45 91 47 92 53 93 46 94 48 95 49 96
REMARK SMILES IDX 50 97 51 98
REMARK H PARENT 80 11 73 51 41 62
REMARK Flexibility Score: inf
ROOT
ATOM      1  C   UNL A   1      37.029  22.250  23.815  1.00  0.00     0.275 C 
ENDROOT
BRANCH   1   2
ATOM      2  O   UNL A   1      36.139  23.241  24.371  1.00  0.00    -0.457 OA
BRANCH   2   3
ATOM      3  C   UNL A   1      35.081  23.576  23.588  1.00  0.00     0.355 C 
ATOM      4  O   UNL A   1      34.835  23.089  22.494  1.00  0.00    -0.244 OA
BRANCH   3   5
ATOM      5  C   UNL A   1      34.308  24.644  24.173  1.00  0.00     0.129 A 
ATOM      6  C   UNL A   1      33.932  24.877  25.496  1.00  0.00     0.002 A 
ATOM      7  C   UNL A   1      33.335  26.188  25.537  1.00  0.00     0.005 A 
ATOM      8  N   UNL A   1      33.945  25.750  23.449  1.00  0.00    -0.349 N 
ATOM      9  C   UNL A   1      33.375  26.707  24.246  1.00  0.00     0.046 A 
ATOM     10  C   UNL A   1      32.795  26.999  26.558  1.00  0.00     0.031 A 
ATOM     11  H   UNL A   1      34.077  25.846  22.478  1.00  0.00     0.167 HD
ATOM     12  C   UNL A   1      32.916  27.986  23.910  1.00  0.00     0.028 A 
ATOM     13  C   UNL A   1      32.333  28.283  26.239  1.00  0.00     0.041 A 
ATOM     14  C   UNL A   1      32.394  28.773  24.938  1.00  0.00     0.022 A 
ATOM     15  Cl  UNL A   1      31.684  29.284  27.485  1.00  0.00    -0.084 Cl
BRANCH   6  16
ATOM     16  C   UNL A   1      34.155  23.959  26.660  1.00  0.00     0.139 C 
BRANCH  16  17
ATOM     17  C   UNL A   1      32.975  23.051  27.008  1.00  0.00     0.231 C 
ATOM     18  O   UNL A   1      32.818  22.734  28.195  1.00  0.00    -0.274 OA
BRANCH  17  19
ATOM     19  N   UNL A   1      32.076  22.683  25.992  1.00  0.00    -0.312 N 
BRANCH  19  20
ATOM     20  C   UNL A   1      30.800  23.376  25.745  1.00  0.00     0.122 C 
ATOM     21  C   UNL A   1      29.812  23.281  26.900  1.00  0.00     0.028 C 
ENDBRANCH  19  20
BRANCH  19  22
ATOM     22  C   UNL A   1      32.352  21.535  25.165  1.00  0.00     0.044 A 
ATOM     23  C   UNL A   1      32.902  20.375  25.717  1.00  0.00     0.026 A 
ATOM     24  C   UNL A   1      31.989  21.501  23.810  1.00  0.00     0.030 A 
ATOM     25  C   UNL A   1      33.022  19.206  24.959  1.00  0.00     0.006 A 
ATOM     26  C   UNL A   1      32.157  20.351  23.017  1.00  0.00    -0.046 A 
ATOM     27  C   UNL A   1      32.623  19.170  23.616  1.00  0.00    -0.048 A 
ATOM     28  C   UNL A   1      31.790  20.422  21.559  1.00  0.00     0.044 C 
ATOM     29  C   UNL A   1      32.751  17.876  22.865  1.00  0.00     0.044 C 
ENDBRANCH  19  22
ENDBRANCH  17  19
ENDBRANCH  16  17
ENDBRANCH   6  16
ENDBRANCH   3   5
ENDBRANCH   2   3
ENDBRANCH   1   2
BRANCH   1  30
ATOM     30  C   UNL A   1      37.589  21.262  24.849  1.00  0.00     0.275 C 
BRANCH  30  31
ATOM     31  O   UNL A   1      38.034  21.921  26.052  1.00  0.00    -0.458 OA
BRANCH  31  32
ATOM     32  C   UNL A   1      39.371  21.883  26.258  1.00  0.00     0.338 C 
ATOM     33  O   UNL A   1      40.162  21.121  25.717  1.00  0.00    -0.246 OA
BRANCH  32  34
ATOM     34  C   UNL A   1      39.819  23.021  27.088  1.00  0.00     0.060 A 
ATOM     35  C   UNL A   1      39.138  24.226  26.896  1.00  0.00     0.016 A 
ATOM     36  C   UNL A   1      40.900  22.963  27.970  1.00  0.00     0.016 A 
ATOM     37  C   UNL A   1      39.536  25.380  27.551  1.00  0.00     0.010 A 
ATOM     38  C   UNL A   1      41.322  24.136  28.618  1.00  0.00     0.010 A 
ATOM     39  C   UNL A   1      40.657  25.353  28.388  1.00  0.00    -0.014 A 
BRANCH  39  40
ATOM     40  C   UNL A   1      41.168  26.658  28.862  1.00  0.00     0.031 A 
ATOM     41  C   UNL A   1      42.579  27.046  28.523  1.00  0.00     0.074 A 
ATOM     42  C   UNL A   1      40.329  27.561  29.402  1.00  0.00     0.049 A 
ATOM     43  N   UNL A   1      43.177  28.198  28.673  1.00  0.00    -0.248 NA
ATOM     44  C   UNL A   1      43.415  26.007  27.899  1.00  0.00     0.031 C 
ATOM     45  C   UNL A   1      38.917  27.327  29.695  1.00  0.00     0.029 A 
ATOM     46  N   UNL A   1      40.536  28.872  29.748  1.00  0.00    -0.354 N 
ATOM     47  C   UNL A   1      44.460  28.022  28.172  1.00  0.00     0.074 A 
ATOM     48  C   UNL A   1      44.553  26.657  27.703  1.00  0.00     0.031 C 
ATOM     49  C   UNL A   1      38.369  28.473  30.136  1.00  0.00     0.029 A 
ATOM     50  C   UNL A   1      39.395  29.514  30.168  1.00  0.00     0.049 A 
ATOM     51  H   UNL A   1      41.416  29.312  29.701  1.00  0.00     0.167 HD
ATOM     52  C   UNL A   1      45.468  28.920  28.093  1.00  0.00     0.034 A 
ATOM     53  C   UNL A   1      39.195  30.802  30.511  1.00  0.00     0.034 A 
ATOM     54  C   UNL A   1      45.379  30.284  28.534  1.00  0.00     0.049 A 
ATOM     55  C   UNL A   1      40.344  31.772  30.452  1.00  0.00     0.074 A 
ATOM     56  C   UNL A   1      46.374  31.245  28.567  1.00  0.00     0.029 A 
ATOM     57  N   UNL A   1      44.222  30.882  29.005  1.00  0.00    -0.354 N 
ATOM     58  N   UNL A   1      41.552  31.590  29.976  1.00  0.00    -0.248 NA
ATOM     59  C   UNL A   1      40.098  33.126  30.971  1.00  0.00     0.031 C 
ATOM     60  C   UNL A   1      45.810  32.437  29.040  1.00  0.00     0.029 A 
ATOM     61  C   UNL A   1      44.472  32.205  29.321  1.00  0.00     0.049 A 
ATOM     62  H   UNL A   1      43.352  30.433  29.101  1.00  0.00     0.167 HD
ATOM     63  C   UNL A   1      42.210  32.804  30.137  1.00  0.00     0.074 A 
ATOM     64  C   UNL A   1      41.258  33.724  30.725  1.00  0.00     0.031 C 
ATOM     65  C   UNL A   1      43.498  33.119  29.856  1.00  0.00     0.034 A 
BRANCH  52  66
ATOM     66  C   UNL A   1      46.744  28.454  27.462  1.00  0.00     0.023 A 
ATOM     67  C   UNL A   1      47.858  28.207  28.286  1.00  0.00     0.012 A 
ATOM     68  C   UNL A   1      46.852  28.263  26.075  1.00  0.00     0.148 A 
ATOM     69  C   UNL A   1      49.065  27.781  27.733  1.00  0.00     0.002 A 
ATOM     70  C   UNL A   1      48.060  27.839  25.531  1.00  0.00     0.091 A 
ATOM     71  F   UNL A   1      45.792  28.530  25.296  1.00  0.00    -0.205 F 
ATOM     72  C   UNL A   1      49.168  27.595  26.355  1.00  0.00     0.022 A 
BRANCH  70  73
ATOM     73  S   UNL A   1      48.205  27.621  23.756  1.00  0.00     0.127 S 
ATOM     74  O   UNL A   1      47.825  26.222  23.581  1.00  0.00    -0.237 OA
ATOM     75  O   UNL A   1      47.235  28.578  23.218  1.00  0.00    -0.237 OA
ATOM     76  O   UNL A   1      49.596  27.960  23.479  1.00  0.00    -0.744 OA
ENDBRANCH  70  73
ENDBRANCH  52  66
BRANCH  53  77
ATOM     77  C   UNL A   1      37.829  31.266  30.873  1.00  0.00     0.023 A 
ATOM     78  C   UNL A   1      37.422  31.221  32.219  1.00  0.00     0.012 A 
ATOM     79  C   UNL A   1      36.948  31.789  29.910  1.00  0.00     0.148 A 
ATOM     80  C   UNL A   1      36.158  31.682  32.597  1.00  0.00     0.002 A 
ATOM     81  C   UNL A   1      35.706  32.282  30.300  1.00  0.00     0.091 A 
ATOM     82  F   UNL A   1      37.337  31.823  28.627  1.00  0.00    -0.205 F 
ATOM     83  C   UNL A   1      35.303  32.221  31.639  1.00  0.00     0.022 A 
BRANCH  81  84
ATOM     84  S   UNL A   1      34.653  33.072  29.081  1.00  0.00     0.127 S 
ATOM     85  O   UNL A   1      33.726  33.840  29.906  1.00  0.00    -0.237 OA
ATOM     86  O   UNL A   1      35.588  33.884  28.302  1.00  0.00    -0.237 OA
ATOM     87  O   UNL A   1      34.095  31.938  28.350  1.00  0.00    -0.744 OA
ENDBRANCH  81  84
ENDBRANCH  53  77
BRANCH  65  88
ATOM     88  C   UNL A   1      43.968  34.500  30.207  1.00  0.00     0.023 A 
ATOM     89  C   UNL A   1      43.795  35.531  29.262  1.00  0.00     0.012 A 
ATOM     90  C   UNL A   1      44.496  34.802  31.473  1.00  0.00     0.148 A 
ATOM     91  C   UNL A   1      44.146  36.843  29.574  1.00  0.00     0.002 A 
ATOM     92  C   UNL A   1      44.830  36.119  31.782  1.00  0.00     0.091 A 
ATOM     93  F   UNL A   1      44.660  33.813  32.365  1.00  0.00    -0.205 F 
ATOM     94  C   UNL A   1      44.659  37.140  30.836  1.00  0.00     0.022 A 
BRANCH  92  95
ATOM     95  S   UNL A   1      45.459  36.516  33.415  1.00  0.00     0.127 S 
ATOM     96  O   UNL A   1      46.905  36.487  33.217  1.00  0.00    -0.237 OA
ATOM     97  O   UNL A   1      44.914  37.851  33.673  1.00  0.00    -0.237 OA
ATOM     98  O   UNL A   1      44.897  35.470  34.261  1.00  0.00    -0.744 OA
ENDBRANCH  92  95
ENDBRANCH  65  88
ENDBRANCH  39  40
ENDBRANCH  32  34
ENDBRANCH  31  32
ENDBRANCH  30  31
ENDBRANCH   1  30
TORSDOF 19
ENDMDL
