MODEL 1
REMARK VINA RESULT:     -10.9      0.000      0.000
REMARK SMILES COc1ccc(S(=O)(=O)N[C@H]2C=C[C@@H](C(=O)OCCOC(=O)c3ccc(-c4c5nc(c(-c6cccc(S(=O)(=O)[O-])c6F)c6ccc([nH]6)c(-c6cccc(S(=O)(=O)[O-])c6F)c6nc(c(-c7cccc(S(=O)(=O)[O-])c7F)c7ccc4[nH]7)C=C6)C=C5)cc3)C2)cc1
REMARK SMILES IDX 18 1 17 2 15 3 16 4 14 5 11 6 12 7 86 8 13 9 10 10 7 12 8 13
REMARK SMILES IDX 9 14 6 15 3 16 4 17 88 18 5 19 87 20 2 21 1 22 19 23 20 24
REMARK SMILES IDX 21 25 22 26 23 27 24 28 85 29 25 30 84 31 26 32 27 33 28 34
REMARK SMILES IDX 78 35 29 36 83 37 77 38 79 39 30 40 82 41 76 42 75 43 31 45
REMARK SMILES IDX 63 46 43 47 62 48 44 49 47 50 61 51 80 52 45 53 46 54 60 56
REMARK SMILES IDX 81 57 48 58 32 59 33 60 41 61 34 62 36 63 42 64 35 65 37 66
REMARK SMILES IDX 38 67 39 68 40 69 64 70 65 71 73 72 66 73 68 74 74 75 67 76
REMARK SMILES IDX 69 77 70 78 71 79 72 80 49 81 50 82 58 83 51 84 53 85 59 86
REMARK SMILES IDX 52 87 54 88 55 89 56 90 57 91
REMARK H PARENT 10 11 79 44 47 55
REMARK Flexibility Score: inf
ROOT
ATOM      1  C   UNL A   1      33.685  34.434  28.336  1.00  0.00     0.274 C 
ENDROOT
BRANCH   1   2
ATOM      2  O   UNL A   1      32.796  34.892  29.374  1.00  0.00    -0.462 OA
BRANCH   2   3
ATOM      3  C   UNL A   1      32.890  36.206  29.706  1.00  0.00     0.312 C 
ATOM      4  O   UNL A   1      33.146  37.103  28.910  1.00  0.00    -0.252 OA
BRANCH   3   5
ATOM      5  C   UNL A   1      32.681  36.481  31.189  1.00  0.00     0.123 C 
ATOM      6  C   UNL A   1      33.574  36.163  33.439  1.00  0.00     0.093 C 
ATOM      7  C   UNL A   1      33.981  37.476  32.862  1.00  0.00    -0.011 C 
ATOM      8  C   UNL A   1      33.098  35.398  32.191  1.00  0.00     0.043 C 
ATOM      9  C   UNL A   1      33.484  37.664  31.635  1.00  0.00    -0.015 C 
BRANCH   6  10
ATOM     10  N   UNL A   1      34.699  35.468  34.038  1.00  0.00    -0.204 NA
ATOM     11  H   UNL A   1      35.534  35.979  33.752  1.00  0.00     0.142 HD
BRANCH  10  12
ATOM     12  S   UNL A   1      35.009  33.856  33.731  1.00  0.00     0.241 S 
ATOM     13  O   UNL A   1      33.800  33.249  33.213  1.00  0.00    -0.207 OA
ATOM     14  O   UNL A   1      35.655  33.346  34.917  1.00  0.00    -0.207 OA
BRANCH  12  15
ATOM     15  C   UNL A   1      36.219  33.820  32.435  1.00  0.00     0.082 A 
ATOM     16  C   UNL A   1      38.227  33.780  30.487  1.00  0.00     0.118 A 
ATOM     17  C   UNL A   1      38.401  34.510  31.666  1.00  0.00     0.048 A 
ATOM     18  C   UNL A   1      37.044  33.059  30.294  1.00  0.00     0.048 A 
ATOM     19  C   UNL A   1      37.404  34.533  32.640  1.00  0.00     0.025 A 
ATOM     20  C   UNL A   1      36.033  33.083  31.265  1.00  0.00     0.025 A 
BRANCH  16  21
ATOM     21  O   UNL A   1      39.284  33.842  29.623  1.00  0.00    -0.497 OA
ATOM     22  C   UNL A   1      40.574  34.002  30.197  1.00  0.00     0.278 C 
ENDBRANCH  16  21
ENDBRANCH  12  15
ENDBRANCH  10  12
ENDBRANCH   6  10
ENDBRANCH   3   5
ENDBRANCH   2   3
ENDBRANCH   1   2
BRANCH   1  23
ATOM     23  C   UNL A   1      33.356  32.997  27.919  1.00  0.00     0.275 C 
BRANCH  23  24
ATOM     24  O   UNL A   1      34.267  32.043  28.497  1.00  0.00    -0.458 OA
BRANCH  24  25
ATOM     25  C   UNL A   1      34.449  30.915  27.772  1.00  0.00     0.338 C 
ATOM     26  O   UNL A   1      33.761  30.515  26.846  1.00  0.00    -0.246 OA
BRANCH  25  27
ATOM     27  C   UNL A   1      35.712  30.266  28.153  1.00  0.00     0.060 A 
ATOM     28  C   UNL A   1      35.788  29.697  29.427  1.00  0.00     0.016 A 
ATOM     29  C   UNL A   1      36.831  30.294  27.321  1.00  0.00     0.016 A 
ATOM     30  C   UNL A   1      36.987  29.163  29.883  1.00  0.00     0.010 A 
ATOM     31  C   UNL A   1      38.036  29.752  27.780  1.00  0.00     0.010 A 
ATOM     32  C   UNL A   1      38.125  29.197  29.069  1.00  0.00    -0.014 A 
BRANCH  32  33
ATOM     33  C   UNL A   1      39.414  28.684  29.593  1.00  0.00     0.031 A 
ATOM     34  C   UNL A   1      40.039  29.318  30.801  1.00  0.00     0.074 A 
ATOM     35  C   UNL A   1      40.012  27.641  28.986  1.00  0.00     0.049 A 
ATOM     36  N   UNL A   1      41.181  29.048  31.377  1.00  0.00    -0.248 NA
ATOM     37  C   UNL A   1      39.280  30.400  31.450  1.00  0.00     0.031 C 
ATOM     38  C   UNL A   1      39.489  26.935  27.816  1.00  0.00     0.029 A 
ATOM     39  N   UNL A   1      41.194  27.004  29.262  1.00  0.00    -0.354 N 
ATOM     40  C   UNL A   1      41.300  29.948  32.429  1.00  0.00     0.074 A 
ATOM     41  C   UNL A   1      40.112  30.775  32.412  1.00  0.00     0.031 C 
ATOM     42  C   UNL A   1      40.354  25.969  27.465  1.00  0.00     0.029 A 
ATOM     43  C   UNL A   1      41.507  26.014  28.360  1.00  0.00     0.049 A 
ATOM     44  H   UNL A   1      41.764  27.232  30.031  1.00  0.00     0.167 HD
ATOM     45  C   UNL A   1      42.301  30.065  33.334  1.00  0.00     0.034 A 
ATOM     46  C   UNL A   1      42.609  25.247  28.252  1.00  0.00     0.034 A 
ATOM     47  C   UNL A   1      43.463  29.218  33.365  1.00  0.00     0.049 A 
ATOM     48  C   UNL A   1      43.714  25.410  29.259  1.00  0.00     0.074 A 
ATOM     49  C   UNL A   1      44.516  29.235  34.263  1.00  0.00     0.029 A 
ATOM     50  N   UNL A   1      43.729  28.203  32.458  1.00  0.00    -0.354 N 
ATOM     51  N   UNL A   1      43.770  26.207  30.300  1.00  0.00    -0.248 NA
ATOM     52  C   UNL A   1      44.896  24.554  29.094  1.00  0.00     0.031 C 
ATOM     53  C   UNL A   1      45.426  28.240  33.888  1.00  0.00     0.029 A 
ATOM     54  C   UNL A   1      44.931  27.591  32.768  1.00  0.00     0.049 A 
ATOM     55  H   UNL A   1      43.146  27.955  31.703  1.00  0.00     0.167 HD
ATOM     56  C   UNL A   1      44.978  25.928  30.929  1.00  0.00     0.074 A 
ATOM     57  C   UNL A   1      45.611  24.873  30.165  1.00  0.00     0.031 C 
ATOM     58  C   UNL A   1      45.521  26.506  32.029  1.00  0.00     0.034 A 
BRANCH  45  59
ATOM     59  C   UNL A   1      42.171  31.135  34.385  1.00  0.00     0.023 A 
ATOM     60  C   UNL A   1      41.662  30.802  35.657  1.00  0.00     0.012 A 
ATOM     61  C   UNL A   1      42.599  32.453  34.135  1.00  0.00     0.148 A 
ATOM     62  C   UNL A   1      41.557  31.771  36.655  1.00  0.00     0.002 A 
ATOM     63  C   UNL A   1      42.528  33.403  35.146  1.00  0.00     0.091 A 
ATOM     64  F   UNL A   1      43.058  32.755  32.912  1.00  0.00    -0.205 F 
ATOM     65  C   UNL A   1      41.998  33.067  36.403  1.00  0.00     0.022 A 
BRANCH  63  66
ATOM     66  S   UNL A   1      43.135  35.082  34.940  1.00  0.00     0.127 S 
ATOM     67  O   UNL A   1      42.861  35.658  36.256  1.00  0.00    -0.237 OA
ATOM     68  O   UNL A   1      44.553  34.865  34.652  1.00  0.00    -0.237 OA
ATOM     69  O   UNL A   1      42.373  35.649  33.837  1.00  0.00    -0.744 OA
ENDBRANCH  63  66
ENDBRANCH  45  59
BRANCH  46  70
ATOM     70  C   UNL A   1      42.705  24.233  27.163  1.00  0.00     0.023 A 
ATOM     71  C   UNL A   1      43.442  24.533  26.002  1.00  0.00     0.012 A 
ATOM     72  C   UNL A   1      42.102  22.966  27.288  1.00  0.00     0.148 A 
ATOM     73  C   UNL A   1      43.558  23.597  24.974  1.00  0.00     0.002 A 
ATOM     74  C   UNL A   1      42.268  22.019  26.284  1.00  0.00     0.091 A 
ATOM     75  F   UNL A   1      41.386  22.708  28.392  1.00  0.00    -0.205 F 
ATOM     76  C   UNL A   1      42.983  22.337  25.119  1.00  0.00     0.022 A 
BRANCH  74  77
ATOM     77  S   UNL A   1      41.674  20.332  26.451  1.00  0.00     0.127 S 
ATOM     78  O   UNL A   1      42.283  19.685  25.292  1.00  0.00    -0.237 OA
ATOM     79  O   UNL A   1      42.236  19.937  27.744  1.00  0.00    -0.237 OA
ATOM     80  O   UNL A   1      40.221  20.426  26.435  1.00  0.00    -0.744 OA
ENDBRANCH  74  77
ENDBRANCH  46  70
BRANCH  58  81
ATOM     81  C   UNL A   1      46.859  25.993  32.495  1.00  0.00     0.023 A 
ATOM     82  C   UNL A   1      48.040  26.603  32.031  1.00  0.00     0.012 A 
ATOM     83  C   UNL A   1      46.942  24.959  33.449  1.00  0.00     0.148 A 
ATOM     84  C   UNL A   1      49.286  26.173  32.487  1.00  0.00     0.002 A 
ATOM     85  C   UNL A   1      48.183  24.567  33.933  1.00  0.00     0.091 A 
ATOM     86  F   UNL A   1      45.806  24.377  33.862  1.00  0.00    -0.205 F 
ATOM     87  C   UNL A   1      49.356  25.165  33.447  1.00  0.00     0.022 A 
BRANCH  85  88
ATOM     88  S   UNL A   1      48.362  23.342  35.235  1.00  0.00     0.127 S 
ATOM     89  O   UNL A   1      49.815  23.264  35.374  1.00  0.00    -0.237 OA
ATOM     90  O   UNL A   1      47.675  23.979  36.359  1.00  0.00    -0.237 OA
ATOM     91  O   UNL A   1      47.714  22.135  34.740  1.00  0.00    -0.744 OA
ENDBRANCH  85  88
ENDBRANCH  58  81
ENDBRANCH  32  33
ENDBRANCH  25  27
ENDBRANCH  24  25
ENDBRANCH  23  24
ENDBRANCH   1  23
TORSDOF 18
ENDMDL
MODEL 2
REMARK VINA RESULT:     -10.8      4.188     10.027
REMARK SMILES COc1ccc(S(=O)(=O)N[C@H]2C=C[C@@H](C(=O)OCCOC(=O)c3ccc(-c4c5nc(c(-c6cccc(S(=O)(=O)[O-])c6F)c6ccc([nH]6)c(-c6cccc(S(=O)(=O)[O-])c6F)c6nc(c(-c7cccc(S(=O)(=O)[O-])c7F)c7ccc4[nH]7)C=C6)C=C5)cc3)C2)cc1
REMARK SMILES IDX 18 1 17 2 15 3 16 4 14 5 11 6 12 7 86 8 13 9 10 10 7 12 8 13
REMARK SMILES IDX 9 14 6 15 3 16 4 17 88 18 5 19 87 20 2 21 1 22 19 23 20 24
REMARK SMILES IDX 21 25 22 26 23 27 24 28 85 29 25 30 84 31 26 32 27 33 28 34
REMARK SMILES IDX 78 35 29 36 83 37 77 38 79 39 30 40 82 41 76 42 75 43 31 45
REMARK SMILES IDX 63 46 43 47 62 48 44 49 47 50 61 51 80 52 45 53 46 54 60 56
REMARK SMILES IDX 81 57 48 58 32 59 33 60 41 61 34 62 36 63 42 64 35 65 37 66
REMARK SMILES IDX 38 67 39 68 40 69 64 70 65 71 73 72 66 73 68 74 74 75 67 76
REMARK SMILES IDX 69 77 70 78 71 79 72 80 49 81 50 82 58 83 51 84 53 85 59 86
REMARK SMILES IDX 52 87 54 88 55 89 56 90 57 91
REMARK H PARENT 10 11 79 44 47 55
REMARK Flexibility Score: inf
ROOT
ATOM      1  C   UNL A   1      31.330  29.664  24.584  1.00  0.00     0.274 C 
ENDROOT
BRANCH   1   2
ATOM      2  O   UNL A   1      31.670  29.177  23.271  1.00  0.00    -0.462 OA
BRANCH   2   3
ATOM      3  C   UNL A   1      30.640  28.707  22.521  1.00  0.00     0.312 C 
ATOM      4  O   UNL A   1      29.988  29.390  21.738  1.00  0.00    -0.252 OA
BRANCH   3   5
ATOM      5  C   UNL A   1      30.326  27.236  22.759  1.00  0.00     0.123 C 
ATOM      6  C   UNL A   1      30.485  25.375  24.331  1.00  0.00     0.093 C 
ATOM      7  C   UNL A   1      29.165  26.065  24.421  1.00  0.00    -0.011 C 
ATOM      8  C   UNL A   1      31.333  26.403  23.562  1.00  0.00     0.043 C 
ATOM      9  C   UNL A   1      29.066  27.076  23.552  1.00  0.00    -0.015 C 
BRANCH   6  10
ATOM     10  N   UNL A   1      31.062  25.151  25.644  1.00  0.00    -0.204 NA
ATOM     11  H   UNL A   1      31.919  25.703  25.677  1.00  0.00     0.142 HD
BRANCH  10  12
ATOM     12  S   UNL A   1      31.469  23.623  26.183  1.00  0.00     0.241 S 
ATOM     13  O   UNL A   1      30.606  22.662  25.526  1.00  0.00    -0.207 OA
ATOM     14  O   UNL A   1      31.528  23.717  27.623  1.00  0.00    -0.207 OA
BRANCH  12  15
ATOM     15  C   UNL A   1      33.124  23.323  25.624  1.00  0.00     0.082 A 
ATOM     16  C   UNL A   1      35.686  22.760  24.649  1.00  0.00     0.118 A 
ATOM     17  C   UNL A   1      34.680  21.791  24.594  1.00  0.00     0.048 A 
ATOM     18  C   UNL A   1      35.398  24.019  25.185  1.00  0.00     0.048 A 
ATOM     19  C   UNL A   1      33.403  22.066  25.078  1.00  0.00     0.025 A 
ATOM     20  C   UNL A   1      34.117  24.302  25.681  1.00  0.00     0.025 A 
BRANCH  16  21
ATOM     21  O   UNL A   1      36.887  22.357  24.136  1.00  0.00    -0.497 OA
ATOM     22  C   UNL A   1      37.740  21.620  25.002  1.00  0.00     0.278 C 
ENDBRANCH  16  21
ENDBRANCH  12  15
ENDBRANCH  10  12
ENDBRANCH   6  10
ENDBRANCH   3   5
ENDBRANCH   2   3
ENDBRANCH   1   2
BRANCH   1  23
ATOM     23  C   UNL A   1      32.586  29.951  25.412  1.00  0.00     0.275 C 
BRANCH  23  24
ATOM     24  O   UNL A   1      32.268  30.389  26.746  1.00  0.00    -0.458 OA
BRANCH  24  25
ATOM     25  C   UNL A   1      32.866  31.542  27.127  1.00  0.00     0.338 C 
ATOM     26  O   UNL A   1      32.381  32.663  27.116  1.00  0.00    -0.246 OA
BRANCH  25  27
ATOM     27  C   UNL A   1      34.181  31.259  27.719  1.00  0.00     0.060 A 
ATOM     28  C   UNL A   1      34.453  29.939  28.089  1.00  0.00     0.016 A 
ATOM     29  C   UNL A   1      35.096  32.275  27.993  1.00  0.00     0.016 A 
ATOM     30  C   UNL A   1      35.636  29.627  28.749  1.00  0.00     0.010 A 
ATOM     31  C   UNL A   1      36.289  31.959  28.653  1.00  0.00     0.010 A 
ATOM     32  C   UNL A   1      36.559  30.637  29.047  1.00  0.00    -0.014 A 
BRANCH  32  33
ATOM     33  C   UNL A   1      37.786  30.301  29.810  1.00  0.00     0.031 A 
ATOM     34  C   UNL A   1      38.829  29.411  29.199  1.00  0.00     0.074 A 
ATOM     35  C   UNL A   1      37.963  30.809  31.044  1.00  0.00     0.049 A 
ATOM     36  N   UNL A   1      39.940  28.963  29.723  1.00  0.00    -0.248 NA
ATOM     37  C   UNL A   1      38.594  28.964  27.816  1.00  0.00     0.031 C 
ATOM     38  C   UNL A   1      37.025  31.698  31.731  1.00  0.00     0.029 A 
ATOM     39  N   UNL A   1      38.984  30.639  31.943  1.00  0.00    -0.354 N 
ATOM     40  C   UNL A   1      40.517  28.151  28.755  1.00  0.00     0.074 A 
ATOM     41  C   UNL A   1      39.633  28.167  27.609  1.00  0.00     0.031 C 
ATOM     42  C   UNL A   1      37.509  31.986  32.951  1.00  0.00     0.029 A 
ATOM     43  C   UNL A   1      38.767  31.272  33.145  1.00  0.00     0.049 A 
ATOM     44  H   UNL A   1      39.794  30.115  31.748  1.00  0.00     0.167 HD
ATOM     45  C   UNL A   1      41.685  27.466  28.810  1.00  0.00     0.034 A 
ATOM     46  C   UNL A   1      39.489  31.257  34.282  1.00  0.00     0.034 A 
ATOM     47  C   UNL A   1      42.576  27.481  29.940  1.00  0.00     0.049 A 
ATOM     48  C   UNL A   1      40.773  30.473  34.323  1.00  0.00     0.074 A 
ATOM     49  C   UNL A   1      43.798  26.847  30.079  1.00  0.00     0.029 A 
ATOM     50  N   UNL A   1      42.341  28.161  31.125  1.00  0.00    -0.354 N 
ATOM     51  N   UNL A   1      41.348  29.783  33.368  1.00  0.00    -0.248 NA
ATOM     52  C   UNL A   1      41.519  30.486  35.588  1.00  0.00     0.031 C 
ATOM     53  C   UNL A   1      44.295  27.133  31.356  1.00  0.00     0.029 A 
ATOM     54  C   UNL A   1      43.391  27.959  32.005  1.00  0.00     0.049 A 
ATOM     55  H   UNL A   1      41.544  28.709  31.313  1.00  0.00     0.167 HD
ATOM     56  C   UNL A   1      42.536  29.303  33.906  1.00  0.00     0.074 A 
ATOM     57  C   UNL A   1      42.609  29.801  35.264  1.00  0.00     0.031 C 
ATOM     58  C   UNL A   1      43.473  28.507  33.334  1.00  0.00     0.034 A 
BRANCH  45  59
ATOM     59  C   UNL A   1      42.081  26.661  27.601  1.00  0.00     0.023 A 
ATOM     60  C   UNL A   1      42.723  27.299  26.521  1.00  0.00     0.012 A 
ATOM     61  C   UNL A   1      41.868  25.270  27.555  1.00  0.00     0.148 A 
ATOM     62  C   UNL A   1      43.122  26.569  25.401  1.00  0.00     0.002 A 
ATOM     63  C   UNL A   1      42.303  24.543  26.454  1.00  0.00     0.091 A 
ATOM     64  F   UNL A   1      41.234  24.685  28.582  1.00  0.00    -0.205 F 
ATOM     65  C   UNL A   1      42.921  25.191  25.373  1.00  0.00     0.022 A 
BRANCH  63  66
ATOM     66  S   UNL A   1      42.152  22.755  26.354  1.00  0.00     0.127 S 
ATOM     67  O   UNL A   1      42.658  22.491  25.009  1.00  0.00    -0.237 OA
ATOM     68  O   UNL A   1      43.032  22.309  27.435  1.00  0.00    -0.237 OA
ATOM     69  O   UNL A   1      40.741  22.462  26.563  1.00  0.00    -0.744 OA
ENDBRANCH  63  66
ENDBRANCH  45  59
BRANCH  46  70
ATOM     70  C   UNL A   1      39.027  32.037  35.466  1.00  0.00     0.023 A 
ATOM     71  C   UNL A   1      39.213  33.432  35.491  1.00  0.00     0.012 A 
ATOM     72  C   UNL A   1      38.374  31.410  36.545  1.00  0.00     0.148 A 
ATOM     73  C   UNL A   1      38.777  34.186  36.581  1.00  0.00     0.002 A 
ATOM     74  C   UNL A   1      37.893  32.174  37.601  1.00  0.00     0.091 A 
ATOM     75  F   UNL A   1      38.225  30.078  36.511  1.00  0.00    -0.205 F 
ATOM     76  C   UNL A   1      38.107  33.561  37.629  1.00  0.00     0.022 A 
BRANCH  74  77
ATOM     77  S   UNL A   1      36.905  31.468  38.924  1.00  0.00     0.127 S 
ATOM     78  O   UNL A   1      35.736  32.343  38.924  1.00  0.00    -0.237 OA
ATOM     79  O   UNL A   1      36.659  30.111  38.430  1.00  0.00    -0.237 OA
ATOM     80  O   UNL A   1      37.743  31.528  40.113  1.00  0.00    -0.744 OA
ENDBRANCH  74  77
ENDBRANCH  46  70
BRANCH  58  81
ATOM     81  C   UNL A   1      44.677  28.144  34.163  1.00  0.00     0.023 A 
ATOM     82  C   UNL A   1      45.798  28.996  34.175  1.00  0.00     0.012 A 
ATOM     83  C   UNL A   1      44.666  27.001  34.987  1.00  0.00     0.148 A 
ATOM     84  C   UNL A   1      46.903  28.701  34.973  1.00  0.00     0.002 A 
ATOM     85  C   UNL A   1      45.751  26.738  35.813  1.00  0.00     0.091 A 
ATOM     86  F   UNL A   1      43.597  26.192  34.944  1.00  0.00    -0.205 F 
ATOM     87  C   UNL A   1      46.874  27.580  35.801  1.00  0.00     0.022 A 
BRANCH  85  88
ATOM     88  S   UNL A   1      45.761  25.369  36.978  1.00  0.00     0.127 S 
ATOM     89  O   UNL A   1      47.064  25.533  37.619  1.00  0.00    -0.237 OA
ATOM     90  O   UNL A   1      44.615  25.681  37.834  1.00  0.00    -0.237 OA
ATOM     91  O   UNL A   1      45.603  24.163  36.178  1.00  0.00    -0.744 OA
ENDBRANCH  85  88
ENDBRANCH  58  81
ENDBRANCH  32  33
ENDBRANCH  25  27
ENDBRANCH  24  25
ENDBRANCH  23  24
ENDBRANCH   1  23
TORSDOF 18
ENDMDL
MODEL 3
REMARK VINA RESULT:     -10.7      4.260      7.520
REMARK SMILES COc1ccc(S(=O)(=O)N[C@H]2C=C[C@@H](C(=O)OCCOC(=O)c3ccc(-c4c5nc(c(-c6cccc(S(=O)(=O)[O-])c6F)c6ccc([nH]6)c(-c6cccc(S(=O)(=O)[O-])c6F)c6nc(c(-c7cccc(S(=O)(=O)[O-])c7F)c7ccc4[nH]7)C=C6)C=C5)cc3)C2)cc1
REMARK SMILES IDX 18 1 17 2 15 3 16 4 14 5 11 6 12 7 86 8 13 9 10 10 7 12 8 13
REMARK SMILES IDX 9 14 6 15 3 16 4 17 88 18 5 19 87 20 2 21 1 22 19 23 20 24
REMARK SMILES IDX 21 25 22 26 23 27 24 28 85 29 25 30 84 31 26 32 27 33 28 34
REMARK SMILES IDX 78 35 29 36 83 37 77 38 79 39 30 40 82 41 76 42 75 43 31 45
REMARK SMILES IDX 63 46 43 47 62 48 44 49 47 50 61 51 80 52 45 53 46 54 60 56
REMARK SMILES IDX 81 57 48 58 32 59 33 60 41 61 34 62 36 63 42 64 35 65 37 66
REMARK SMILES IDX 38 67 39 68 40 69 64 70 65 71 73 72 66 73 68 74 74 75 67 76
REMARK SMILES IDX 69 77 70 78 71 79 72 80 49 81 50 82 58 83 51 84 53 85 59 86
REMARK SMILES IDX 52 87 54 88 55 89 56 90 57 91
REMARK H PARENT 10 11 79 44 47 55
REMARK Flexibility Score: inf
ROOT
ATOM      1  C   UNL A   1      31.154  29.749  24.859  1.00  0.00     0.274 C 
ENDROOT
BRANCH   1   2
ATOM      2  O   UNL A   1      31.081  28.441  24.260  1.00  0.00    -0.462 OA
BRANCH   2   3
ATOM      3  C   UNL A   1      31.186  28.394  22.907  1.00  0.00     0.312 C 
ATOM      4  O   UNL A   1      30.455  29.006  22.135  1.00  0.00    -0.252 OA
BRANCH   3   5
ATOM      5  C   UNL A   1      32.289  27.470  22.407  1.00  0.00     0.123 C 
ATOM      6  C   UNL A   1      33.677  25.530  22.928  1.00  0.00     0.093 C 
ATOM      7  C   UNL A   1      32.475  25.153  22.129  1.00  0.00    -0.011 C 
ATOM      8  C   UNL A   1      33.302  26.936  23.428  1.00  0.00     0.043 C 
ATOM      9  C   UNL A   1      31.718  26.214  21.828  1.00  0.00    -0.015 C 
BRANCH   6  10
ATOM     10  N   UNL A   1      33.866  24.643  24.061  1.00  0.00    -0.204 NA
ATOM     11  H   UNL A   1      34.019  25.244  24.871  1.00  0.00     0.142 HD
BRANCH  10  12
ATOM     12  S   UNL A   1      35.079  23.496  24.095  1.00  0.00     0.241 S 
ATOM     13  O   UNL A   1      35.927  23.760  25.239  1.00  0.00    -0.207 OA
ATOM     14  O   UNL A   1      35.618  23.453  22.756  1.00  0.00    -0.207 OA
BRANCH  12  15
ATOM     15  C   UNL A   1      34.281  21.936  24.373  1.00  0.00     0.082 A 
ATOM     16  C   UNL A   1      32.928  19.512  24.717  1.00  0.00     0.118 A 
ATOM     17  C   UNL A   1      32.233  20.659  24.328  1.00  0.00     0.048 A 
ATOM     18  C   UNL A   1      34.310  19.583  24.924  1.00  0.00     0.048 A 
ATOM     19  C   UNL A   1      32.902  21.870  24.154  1.00  0.00     0.025 A 
ATOM     20  C   UNL A   1      34.990  20.798  24.759  1.00  0.00     0.025 A 
BRANCH  16  21
ATOM     21  O   UNL A   1      32.150  18.395  24.845  1.00  0.00    -0.497 OA
ATOM     22  C   UNL A   1      32.612  17.391  25.739  1.00  0.00     0.278 C 
ENDBRANCH  16  21
ENDBRANCH  12  15
ENDBRANCH  10  12
ENDBRANCH   6  10
ENDBRANCH   3   5
ENDBRANCH   2   3
ENDBRANCH   1   2
BRANCH   1  23
ATOM     23  C   UNL A   1      32.549  30.023  25.427  1.00  0.00     0.275 C 
BRANCH  23  24
ATOM     24  O   UNL A   1      32.514  30.313  26.837  1.00  0.00    -0.458 OA
BRANCH  24  25
ATOM     25  C   UNL A   1      33.196  31.421  27.210  1.00  0.00     0.338 C 
ATOM     26  O   UNL A   1      32.783  32.569  27.231  1.00  0.00    -0.246 OA
BRANCH  25  27
ATOM     27  C   UNL A   1      34.512  31.047  27.747  1.00  0.00     0.060 A 
ATOM     28  C   UNL A   1      34.709  29.710  28.103  1.00  0.00     0.016 A 
ATOM     29  C   UNL A   1      35.504  31.998  27.986  1.00  0.00     0.016 A 
ATOM     30  C   UNL A   1      35.895  29.317  28.713  1.00  0.00     0.010 A 
ATOM     31  C   UNL A   1      36.699  31.600  28.596  1.00  0.00     0.010 A 
ATOM     32  C   UNL A   1      36.895  30.261  28.977  1.00  0.00    -0.014 A 
BRANCH  32  33
ATOM     33  C   UNL A   1      38.126  29.840  29.688  1.00  0.00     0.031 A 
ATOM     34  C   UNL A   1      38.428  30.385  31.054  1.00  0.00     0.074 A 
ATOM     35  C   UNL A   1      38.963  28.960  29.107  1.00  0.00     0.049 A 
ATOM     36  N   UNL A   1      39.473  30.180  31.812  1.00  0.00    -0.248 NA
ATOM     37  C   UNL A   1      37.420  31.279  31.649  1.00  0.00     0.031 C 
ATOM     38  C   UNL A   1      38.765  28.352  27.791  1.00  0.00     0.029 A 
ATOM     39  N   UNL A   1      40.154  28.437  29.542  1.00  0.00    -0.354 N 
ATOM     40  C   UNL A   1      39.273  30.948  32.953  1.00  0.00     0.074 A 
ATOM     41  C   UNL A   1      38.005  31.624  32.788  1.00  0.00     0.031 C 
ATOM     42  C   UNL A   1      39.805  27.547  27.519  1.00  0.00     0.029 A 
ATOM     43  C   UNL A   1      40.760  27.613  28.622  1.00  0.00     0.049 A 
ATOM     44  H   UNL A   1      40.538  28.632  30.427  1.00  0.00     0.167 HD
ATOM     45  C   UNL A   1      40.068  31.066  34.043  1.00  0.00     0.034 A 
ATOM     46  C   UNL A   1      41.959  27.001  28.654  1.00  0.00     0.034 A 
ATOM     47  C   UNL A   1      41.312  30.364  34.214  1.00  0.00     0.049 A 
ATOM     48  C   UNL A   1      42.830  27.165  29.870  1.00  0.00     0.074 A 
ATOM     49  C   UNL A   1      42.172  30.391  35.298  1.00  0.00     0.029 A 
ATOM     50  N   UNL A   1      41.876  29.511  33.278  1.00  0.00    -0.354 N 
ATOM     51  N   UNL A   1      42.585  27.823  30.978  1.00  0.00    -0.248 NA
ATOM     52  C   UNL A   1      44.130  26.482  29.853  1.00  0.00     0.031 C 
ATOM     53  C   UNL A   1      43.265  29.566  35.009  1.00  0.00     0.029 A 
ATOM     54  C   UNL A   1      43.076  29.010  33.754  1.00  0.00     0.049 A 
ATOM     55  H   UNL A   1      41.480  29.294  32.402  1.00  0.00     0.167 HD
ATOM     56  C   UNL A   1      43.686  27.611  31.799  1.00  0.00     0.074 A 
ATOM     57  C   UNL A   1      44.588  26.744  31.070  1.00  0.00     0.031 C 
ATOM     58  C   UNL A   1      43.936  28.105  33.037  1.00  0.00     0.034 A 
BRANCH  45  59
ATOM     59  C   UNL A   1      39.602  31.970  35.152  1.00  0.00     0.023 A 
ATOM     60  C   UNL A   1      39.870  33.353  35.082  1.00  0.00     0.012 A 
ATOM     61  C   UNL A   1      38.855  31.465  36.235  1.00  0.00     0.148 A 
ATOM     62  C   UNL A   1      39.425  34.214  36.085  1.00  0.00     0.002 A 
ATOM     63  C   UNL A   1      38.382  32.334  37.210  1.00  0.00     0.091 A 
ATOM     64  F   UNL A   1      38.632  30.144  36.296  1.00  0.00    -0.205 F 
ATOM     65  C   UNL A   1      38.674  33.706  37.143  1.00  0.00     0.022 A 
BRANCH  63  66
ATOM     66  S   UNL A   1      37.349  31.787  38.574  1.00  0.00     0.127 S 
ATOM     67  O   UNL A   1      38.228  32.013  39.720  1.00  0.00    -0.237 OA
ATOM     68  O   UNL A   1      36.211  32.704  38.489  1.00  0.00    -0.237 OA
ATOM     69  O   UNL A   1      37.025  30.395  38.296  1.00  0.00    -0.744 OA
ENDBRANCH  63  66
ENDBRANCH  45  59
BRANCH  46  70
ATOM     70  C   UNL A   1      42.391  26.153  27.507  1.00  0.00     0.023 A 
ATOM     71  C   UNL A   1      43.222  26.703  26.514  1.00  0.00     0.012 A 
ATOM     72  C   UNL A   1      42.013  24.799  27.416  1.00  0.00     0.148 A 
ATOM     73  C   UNL A   1      43.651  25.926  25.437  1.00  0.00     0.002 A 
ATOM     74  C   UNL A   1      42.489  24.016  26.371  1.00  0.00     0.091 A 
ATOM     75  F   UNL A   1      41.204  24.299  28.361  1.00  0.00    -0.205 F 
ATOM     76  C   UNL A   1      43.296  24.581  25.372  1.00  0.00     0.022 A 
BRANCH  74  77
ATOM     77  S   UNL A   1      42.189  22.247  26.284  1.00  0.00     0.127 S 
ATOM     78  O   UNL A   1      42.939  21.876  25.088  1.00  0.00    -0.237 OA
ATOM     79  O   UNL A   1      42.766  21.778  27.545  1.00  0.00    -0.237 OA
ATOM     80  O   UNL A   1      40.743  22.100  26.198  1.00  0.00    -0.744 OA
ENDBRANCH  74  77
ENDBRANCH  46  70
BRANCH  58  81
ATOM     81  C   UNL A   1      45.225  27.698  33.701  1.00  0.00     0.023 A 
ATOM     82  C   UNL A   1      46.315  28.590  33.714  1.00  0.00     0.012 A 
ATOM     83  C   UNL A   1      45.330  26.465  34.377  1.00  0.00     0.148 A 
ATOM     84  C   UNL A   1      47.501  28.250  34.364  1.00  0.00     0.002 A 
ATOM     85  C   UNL A   1      46.498  26.153  35.061  1.00  0.00     0.091 A 
ATOM     86  F   UNL A   1      44.288  25.622  34.334  1.00  0.00    -0.205 F 
ATOM     87  C   UNL A   1      47.588  27.038  35.048  1.00  0.00     0.022 A 
BRANCH  85  88
ATOM     88  S   UNL A   1      46.664  24.658  36.043  1.00  0.00     0.127 S 
ATOM     89  O   UNL A   1      46.877  23.645  35.011  1.00  0.00    -0.237 OA
ATOM     90  O   UNL A   1      47.841  24.951  36.862  1.00  0.00    -0.237 OA
ATOM     91  O   UNL A   1      45.423  24.535  36.796  1.00  0.00    -0.744 OA
ENDBRANCH  85  88
ENDBRANCH  58  81
ENDBRANCH  32  33
ENDBRANCH  25  27
ENDBRANCH  24  25
ENDBRANCH  23  24
ENDBRANCH   1  23
TORSDOF 18
ENDMDL
