MODEL 1
REMARK VINA RESULT:     -10.7      0.000      0.000
REMARK SMILES CC[NH2+][C@]1(C(=O)OCCOC(=O)c2ccc(-c3c4nc(c(-c5cccc(S(=O)(=O)[O-])c5F)c5ccc([nH]5)c(-c5cccc(S(=O)(=O)[O-])c5F)c5nc(c(-c6cccc(S(=O)(=O)[O-])c6F)c6ccc3[nH]6)C=C5)C=C4)cc2)CCC[C@H]1CC[N@H+]1CCC[C@@H](CC)C1
REMARK SMILES IDX 8 1 7 2 5 3 6 4 4 5 76 6 79 7 77 8 78 9 3 10 2 13 1 14 80 15
REMARK SMILES IDX 81 16 82 17 83 18 89 19 84 21 86 22 85 23 87 24 88 25 9 26
REMARK SMILES IDX 10 27 11 28 12 29 13 30 14 31 75 32 15 33 74 34 16 35 17 36
REMARK SMILES IDX 18 37 68 38 19 39 73 40 67 41 69 42 20 43 72 44 66 45 65 46
REMARK SMILES IDX 21 48 53 49 33 50 52 51 34 52 37 53 51 54 70 55 35 56 36 57
REMARK SMILES IDX 50 59 71 60 38 61 22 62 23 63 31 64 24 65 26 66 32 67 25 68
REMARK SMILES IDX 27 69 28 70 29 71 30 72 54 73 55 74 63 75 56 76 58 77 64 78
REMARK SMILES IDX 57 79 59 80 60 81 61 82 62 83 39 84 40 85 48 86 41 87 43 88
REMARK SMILES IDX 49 89 42 90 44 91 45 92 46 93 47 94
REMARK H PARENT 3 11 3 12 82 20 69 47 37 58
REMARK Flexibility Score: inf
ROOT
ATOM      1  C   UNL A   1      32.515  29.701  24.948  1.00  0.00     0.274 C 
ENDROOT
BRANCH   1   2
ATOM      2  O   UNL A   1      32.691  28.312  25.326  1.00  0.00    -0.457 OA
BRANCH   2   3
ATOM      3  C   UNL A   1      31.654  27.484  24.965  1.00  0.00     0.368 C 
ATOM      4  O   UNL A   1      30.836  27.076  25.765  1.00  0.00    -0.245 OA
BRANCH   3   5
ATOM      5  C   UNL A   1      31.777  26.940  23.499  1.00  0.00     0.197 C 
ATOM      6  C   UNL A   1      33.297  26.786  23.219  1.00  0.00     0.081 C 
ATOM      7  C   UNL A   1      31.222  25.522  23.131  1.00  0.00     0.068 C 
ATOM      8  C   UNL A   1      33.460  25.745  22.123  1.00  0.00     0.008 C 
ATOM      9  C   UNL A   1      32.062  25.192  21.861  1.00  0.00     0.011 C 
BRANCH   5  10
ATOM     10  N   UNL A   1      31.040  27.867  22.577  1.00  0.00    -0.332 N 
ATOM     11  H   UNL A   1      31.493  28.778  22.652  1.00  0.00     0.347 HD
ATOM     12  H   UNL A   1      31.090  27.392  21.676  1.00  0.00     0.347 HD
BRANCH  10  13
ATOM     13  C   UNL A   1      29.620  28.089  22.761  1.00  0.00     0.257 C 
ATOM     14  C   UNL A   1      29.373  29.587  22.875  1.00  0.00     0.071 C 
ENDBRANCH  10  13
ENDBRANCH   5  10
BRANCH   7  15
ATOM     15  C   UNL A   1      31.370  24.320  24.085  1.00  0.00     0.072 C 
BRANCH  15  16
ATOM     16  C   UNL A   1      31.519  22.891  23.515  1.00  0.00     0.262 C 
BRANCH  16  17
ATOM     17  N   UNL A   1      32.668  22.003  23.706  1.00  0.00    -0.335 N 
ATOM     18  C   UNL A   1      33.773  22.693  24.364  1.00  0.00     0.262 C 
ATOM     19  C   UNL A   1      32.433  20.633  24.126  1.00  0.00     0.265 C 
ATOM     20  H   UNL A   1      32.966  21.790  22.754  1.00  0.00     0.348 HD
ATOM     21  C   UNL A   1      35.061  21.896  24.452  1.00  0.00     0.062 C 
ATOM     22  C   UNL A   1      33.739  19.798  24.191  1.00  0.00     0.044 C 
ATOM     23  C   UNL A   1      34.809  20.517  25.023  1.00  0.00     0.015 C 
BRANCH  22  24
ATOM     24  C   UNL A   1      33.441  18.393  24.743  1.00  0.00     0.006 C 
ATOM     25  C   UNL A   1      33.492  17.294  23.690  1.00  0.00     0.004 C 
ENDBRANCH  22  24
ENDBRANCH  16  17
ENDBRANCH  15  16
ENDBRANCH   7  15
ENDBRANCH   3   5
ENDBRANCH   2   3
ENDBRANCH   1   2
BRANCH   1  26
ATOM     26  C   UNL A   1      31.543  30.485  25.830  1.00  0.00     0.275 C 
BRANCH  26  27
ATOM     27  O   UNL A   1      32.062  30.622  27.171  1.00  0.00    -0.458 OA
BRANCH  27  28
ATOM     28  C   UNL A   1      32.939  31.629  27.291  1.00  0.00     0.338 C 
ATOM     29  O   UNL A   1      32.638  32.826  27.218  1.00  0.00    -0.246 OA
BRANCH  28  30
ATOM     30  C   UNL A   1      34.327  31.234  27.576  1.00  0.00     0.060 A 
ATOM     31  C   UNL A   1      34.627  29.910  27.890  1.00  0.00     0.016 A 
ATOM     32  C   UNL A   1      35.255  32.240  27.885  1.00  0.00     0.016 A 
ATOM     33  C   UNL A   1      35.767  29.625  28.644  1.00  0.00     0.010 A 
ATOM     34  C   UNL A   1      36.461  31.924  28.524  1.00  0.00     0.010 A 
ATOM     35  C   UNL A   1      36.720  30.616  28.950  1.00  0.00    -0.014 A 
BRANCH  35  36
ATOM     36  C   UNL A   1      37.989  30.240  29.649  1.00  0.00     0.031 A 
ATOM     37  C   UNL A   1      39.043  29.356  29.023  1.00  0.00     0.074 A 
ATOM     38  C   UNL A   1      38.208  30.729  30.887  1.00  0.00     0.049 A 
ATOM     39  N   UNL A   1      40.132  28.871  29.570  1.00  0.00    -0.248 NA
ATOM     40  C   UNL A   1      38.863  28.966  27.615  1.00  0.00     0.031 C 
ATOM     41  C   UNL A   1      37.284  31.595  31.619  1.00  0.00     0.029 A 
ATOM     42  N   UNL A   1      39.273  30.588  31.744  1.00  0.00    -0.354 N 
ATOM     43  C   UNL A   1      40.736  28.076  28.600  1.00  0.00     0.074 A 
ATOM     44  C   UNL A   1      39.903  28.160  27.419  1.00  0.00     0.031 C 
ATOM     45  C   UNL A   1      37.848  31.976  32.769  1.00  0.00     0.029 A 
ATOM     46  C   UNL A   1      39.113  31.270  32.928  1.00  0.00     0.049 A 
ATOM     47  H   UNL A   1      40.072  30.053  31.533  1.00  0.00     0.167 HD
ATOM     48  C   UNL A   1      41.881  27.352  28.687  1.00  0.00     0.034 A 
ATOM     49  C   UNL A   1      39.851  31.293  34.054  1.00  0.00     0.034 A 
ATOM     50  C   UNL A   1      42.748  27.317  29.841  1.00  0.00     0.049 A 
ATOM     51  C   UNL A   1      41.088  30.459  34.136  1.00  0.00     0.074 A 
ATOM     52  C   UNL A   1      43.946  26.635  29.995  1.00  0.00     0.029 A 
ATOM     53  N   UNL A   1      42.524  27.991  31.031  1.00  0.00    -0.354 N 
ATOM     54  N   UNL A   1      41.642  29.723  33.205  1.00  0.00    -0.248 NA
ATOM     55  C   UNL A   1      41.794  30.444  35.424  1.00  0.00     0.031 C 
ATOM     56  C   UNL A   1      44.440  26.890  31.279  1.00  0.00     0.029 A 
ATOM     57  C   UNL A   1      43.554  27.735  31.926  1.00  0.00     0.049 A 
ATOM     58  H   UNL A   1      41.748  28.568  31.216  1.00  0.00     0.167 HD
ATOM     59  C   UNL A   1      42.757  29.146  33.796  1.00  0.00     0.074 A 
ATOM     60  C   UNL A   1      42.822  29.650  35.153  1.00  0.00     0.031 C 
ATOM     61  C   UNL A   1      43.627  28.252  33.267  1.00  0.00     0.034 A 
BRANCH  48  62
ATOM     62  C   UNL A   1      42.310  26.544  27.488  1.00  0.00     0.023 A 
ATOM     63  C   UNL A   1      43.133  27.137  26.511  1.00  0.00     0.012 A 
ATOM     64  C   UNL A   1      42.014  25.168  27.399  1.00  0.00     0.148 A 
ATOM     65  C   UNL A   1      43.649  26.374  25.461  1.00  0.00     0.002 A 
ATOM     66  C   UNL A   1      42.559  24.409  26.367  1.00  0.00     0.091 A 
ATOM     67  F   UNL A   1      41.210  24.623  28.324  1.00  0.00    -0.205 F 
ATOM     68  C   UNL A   1      43.374  25.010  25.397  1.00  0.00     0.022 A 
BRANCH  66  69
ATOM     69  S   UNL A   1      42.314  22.629  26.272  1.00  0.00     0.127 S 
ATOM     70  O   UNL A   1      42.868  22.183  27.549  1.00  0.00    -0.237 OA
ATOM     71  O   UNL A   1      40.860  22.510  26.166  1.00  0.00    -0.237 OA
ATOM     72  O   UNL A   1      43.036  22.204  25.081  1.00  0.00    -0.744 OA
ENDBRANCH  66  69
ENDBRANCH  48  62
BRANCH  49  73
ATOM     73  C   UNL A   1      39.393  32.141  35.189  1.00  0.00     0.023 A 
ATOM     74  C   UNL A   1      38.671  31.556  36.244  1.00  0.00     0.012 A 
ATOM     75  C   UNL A   1      39.812  33.482  35.299  1.00  0.00     0.148 A 
ATOM     76  C   UNL A   1      38.394  32.288  37.400  1.00  0.00     0.002 A 
ATOM     77  C   UNL A   1      39.610  34.174  36.485  1.00  0.00     0.091 A 
ATOM     78  F   UNL A   1      40.465  34.035  34.266  1.00  0.00    -0.205 F 
ATOM     79  C   UNL A   1      38.890  33.585  37.533  1.00  0.00     0.022 A 
BRANCH  77  80
ATOM     80  S   UNL A   1      40.433  35.743  36.793  1.00  0.00     0.127 S 
ATOM     81  O   UNL A   1      39.779  36.622  35.829  1.00  0.00    -0.237 OA
ATOM     82  O   UNL A   1      40.098  36.004  38.194  1.00  0.00    -0.237 OA
ATOM     83  O   UNL A   1      41.847  35.476  36.567  1.00  0.00    -0.744 OA
ENDBRANCH  77  80
ENDBRANCH  49  73
BRANCH  61  84
ATOM     84  C   UNL A   1      44.714  27.747  34.173  1.00  0.00     0.023 A 
ATOM     85  C   UNL A   1      45.925  28.463  34.255  1.00  0.00     0.012 A 
ATOM     86  C   UNL A   1      44.544  26.585  34.948  1.00  0.00     0.148 A 
ATOM     87  C   UNL A   1      46.962  28.014  35.070  1.00  0.00     0.002 A 
ATOM     88  C   UNL A   1      45.572  26.158  35.783  1.00  0.00     0.091 A 
ATOM     89  F   UNL A   1      43.397  25.899  34.837  1.00  0.00    -0.205 F 
ATOM     90  C   UNL A   1      46.783  26.867  35.840  1.00  0.00     0.022 A 
BRANCH  88  91
ATOM     91  S   UNL A   1      45.397  24.721  36.846  1.00  0.00     0.127 S 
ATOM     92  O   UNL A   1      45.448  23.626  35.880  1.00  0.00    -0.237 OA
ATOM     93  O   UNL A   1      46.572  24.822  37.714  1.00  0.00    -0.237 OA
ATOM     94  O   UNL A   1      44.127  24.898  37.537  1.00  0.00    -0.744 OA
ENDBRANCH  88  91
ENDBRANCH  61  84
ENDBRANCH  35  36
ENDBRANCH  28  30
ENDBRANCH  27  28
ENDBRANCH  26  27
ENDBRANCH   1  26
TORSDOF 20
ENDMDL
MODEL 2
REMARK VINA RESULT:     -10.5      4.987     10.172
REMARK SMILES CC[NH2+][C@]1(C(=O)OCCOC(=O)c2ccc(-c3c4nc(c(-c5cccc(S(=O)(=O)[O-])c5F)c5ccc([nH]5)c(-c5cccc(S(=O)(=O)[O-])c5F)c5nc(c(-c6cccc(S(=O)(=O)[O-])c6F)c6ccc3[nH]6)C=C5)C=C4)cc2)CCC[C@H]1CC[N@H+]1CCC[C@@H](CC)C1
REMARK SMILES IDX 8 1 7 2 5 3 6 4 4 5 76 6 79 7 77 8 78 9 3 10 2 13 1 14 80 15
REMARK SMILES IDX 81 16 82 17 83 18 89 19 84 21 86 22 85 23 87 24 88 25 9 26
REMARK SMILES IDX 10 27 11 28 12 29 13 30 14 31 75 32 15 33 74 34 16 35 17 36
REMARK SMILES IDX 18 37 68 38 19 39 73 40 67 41 69 42 20 43 72 44 66 45 65 46
REMARK SMILES IDX 21 48 53 49 33 50 52 51 34 52 37 53 51 54 70 55 35 56 36 57
REMARK SMILES IDX 50 59 71 60 38 61 22 62 23 63 31 64 24 65 26 66 32 67 25 68
REMARK SMILES IDX 27 69 28 70 29 71 30 72 54 73 55 74 63 75 56 76 58 77 64 78
REMARK SMILES IDX 57 79 59 80 60 81 61 82 62 83 39 84 40 85 48 86 41 87 43 88
REMARK SMILES IDX 49 89 42 90 44 91 45 92 46 93 47 94
REMARK H PARENT 3 11 3 12 82 20 69 47 37 58
REMARK Flexibility Score: inf
ROOT
ATOM      1  C   UNL A   1      36.470  22.695  24.464  1.00  0.00     0.274 C 
ENDROOT
BRANCH   1   2
ATOM      2  O   UNL A   1      35.309  22.217  23.739  1.00  0.00    -0.457 OA
BRANCH   2   3
ATOM      3  C   UNL A   1      34.384  21.552  24.510  1.00  0.00     0.368 C 
ATOM      4  O   UNL A   1      34.694  20.664  25.278  1.00  0.00    -0.245 OA
BRANCH   3   5
ATOM      5  C   UNL A   1      32.901  21.885  24.124  1.00  0.00     0.197 C 
ATOM      6  C   UNL A   1      32.153  22.144  25.461  1.00  0.00     0.081 C 
ATOM      7  C   UNL A   1      32.567  23.173  23.297  1.00  0.00     0.068 C 
ATOM      8  C   UNL A   1      30.952  23.024  25.153  1.00  0.00     0.008 C 
ATOM      9  C   UNL A   1      31.072  23.394  23.677  1.00  0.00     0.011 C 
BRANCH   5  10
ATOM     10  N   UNL A   1      32.358  20.766  23.285  1.00  0.00    -0.332 N 
ATOM     11  H   UNL A   1      31.438  21.062  22.959  1.00  0.00     0.347 HD
ATOM     12  H   UNL A   1      33.082  20.627  22.580  1.00  0.00     0.347 HD
BRANCH  10  13
ATOM     13  C   UNL A   1      32.193  19.446  23.861  1.00  0.00     0.257 C 
ATOM     14  C   UNL A   1      32.502  18.407  22.792  1.00  0.00     0.071 C 
ENDBRANCH  10  13
ENDBRANCH   5  10
BRANCH   7  15
ATOM     15  C   UNL A   1      33.291  24.510  23.551  1.00  0.00     0.072 C 
BRANCH  15  16
ATOM     16  C   UNL A   1      32.789  25.805  22.872  1.00  0.00     0.262 C 
BRANCH  16  17
ATOM     17  N   UNL A   1      31.905  26.806  23.475  1.00  0.00    -0.335 N 
ATOM     18  C   UNL A   1      32.644  27.718  24.341  1.00  0.00     0.262 C 
ATOM     19  C   UNL A   1      30.864  27.405  22.659  1.00  0.00     0.265 C 
ATOM     20  H   UNL A   1      31.290  26.252  24.072  1.00  0.00     0.348 HD
ATOM     21  C   UNL A   1      31.783  28.683  25.135  1.00  0.00     0.062 C 
ATOM     22  C   UNL A   1      29.956  28.370  23.467  1.00  0.00     0.044 C 
ATOM     23  C   UNL A   1      30.797  29.398  24.237  1.00  0.00     0.015 C 
BRANCH  22  24
ATOM     24  C   UNL A   1      28.946  29.053  22.529  1.00  0.00     0.006 C 
ATOM     25  C   UNL A   1      27.500  28.939  22.995  1.00  0.00     0.004 C 
ENDBRANCH  22  24
ENDBRANCH  16  17
ENDBRANCH  15  16
ENDBRANCH   7  15
ENDBRANCH   3   5
ENDBRANCH   2   3
ENDBRANCH   1   2
BRANCH   1  26
ATOM     26  C   UNL A   1      37.628  21.701  24.540  1.00  0.00     0.275 C 
BRANCH  26  27
ATOM     27  O   UNL A   1      37.933  21.371  25.913  1.00  0.00    -0.458 OA
BRANCH  27  28
ATOM     28  C   UNL A   1      39.225  21.555  26.220  1.00  0.00     0.338 C 
ATOM     29  O   UNL A   1      40.134  20.784  25.892  1.00  0.00    -0.246 OA
BRANCH  28  30
ATOM     30  C   UNL A   1      39.535  22.791  26.954  1.00  0.00     0.060 A 
ATOM     31  C   UNL A   1      38.972  24.002  26.555  1.00  0.00     0.016 A 
ATOM     32  C   UNL A   1      40.656  22.800  27.798  1.00  0.00     0.016 A 
ATOM     33  C   UNL A   1      39.623  25.197  26.867  1.00  0.00     0.010 A 
ATOM     34  C   UNL A   1      41.221  24.012  28.218  1.00  0.00     0.010 A 
ATOM     35  C   UNL A   1      40.739  25.231  27.727  1.00  0.00    -0.014 A 
BRANCH  35  36
ATOM     36  C   UNL A   1      41.324  26.546  28.138  1.00  0.00     0.031 A 
ATOM     37  C   UNL A   1      40.544  27.591  28.902  1.00  0.00     0.074 A 
ATOM     38  C   UNL A   1      42.612  26.799  27.827  1.00  0.00     0.049 A 
ATOM     39  N   UNL A   1      40.907  28.811  29.218  1.00  0.00    -0.248 NA
ATOM     40  C   UNL A   1      39.196  27.234  29.372  1.00  0.00     0.031 C 
ATOM     41  C   UNL A   1      43.490  25.887  27.095  1.00  0.00     0.029 A 
ATOM     42  N   UNL A   1      43.415  27.881  28.096  1.00  0.00    -0.354 N 
ATOM     43  C   UNL A   1      39.820  29.386  29.870  1.00  0.00     0.074 A 
ATOM     44  C   UNL A   1      38.788  28.372  29.925  1.00  0.00     0.031 C 
ATOM     45  C   UNL A   1      44.722  26.400  27.045  1.00  0.00     0.029 A 
ATOM     46  C   UNL A   1      44.695  27.743  27.612  1.00  0.00     0.049 A 
ATOM     47  H   UNL A   1      43.107  28.676  28.587  1.00  0.00     0.167 HD
ATOM     48  C   UNL A   1      39.701  30.638  30.380  1.00  0.00     0.034 A 
ATOM     49  C   UNL A   1      45.730  28.603  27.559  1.00  0.00     0.034 A 
ATOM     50  C   UNL A   1      40.750  31.630  30.384  1.00  0.00     0.049 A 
ATOM     51  C   UNL A   1      45.559  29.987  28.096  1.00  0.00     0.074 A 
ATOM     52  C   UNL A   1      40.718  32.911  30.915  1.00  0.00     0.029 A 
ATOM     53  N   UNL A   1      42.015  31.458  29.847  1.00  0.00    -0.354 N 
ATOM     54  N   UNL A   1      44.527  30.504  28.714  1.00  0.00    -0.248 NA
ATOM     55  C   UNL A   1      46.687  30.911  27.917  1.00  0.00     0.031 C 
ATOM     56  C   UNL A   1      41.960  33.516  30.689  1.00  0.00     0.029 A 
ATOM     57  C   UNL A   1      42.769  32.611  30.023  1.00  0.00     0.049 A 
ATOM     58  H   UNL A   1      42.334  30.639  29.403  1.00  0.00     0.167 HD
ATOM     59  C   UNL A   1      44.873  31.819  28.989  1.00  0.00     0.074 A 
ATOM     60  C   UNL A   1      46.226  32.007  28.506  1.00  0.00     0.031 C 
ATOM     61  C   UNL A   1      44.121  32.790  29.560  1.00  0.00     0.034 A 
BRANCH  48  62
ATOM     62  C   UNL A   1      38.392  31.029  31.021  1.00  0.00     0.023 A 
ATOM     63  C   UNL A   1      38.233  30.886  32.413  1.00  0.00     0.012 A 
ATOM     64  C   UNL A   1      37.378  31.658  30.271  1.00  0.00     0.148 A 
ATOM     65  C   UNL A   1      37.082  31.360  33.048  1.00  0.00     0.002 A 
ATOM     66  C   UNL A   1      36.249  32.156  30.915  1.00  0.00     0.091 A 
ATOM     67  F   UNL A   1      37.533  31.765  28.943  1.00  0.00    -0.205 F 
ATOM     68  C   UNL A   1      36.098  32.006  32.302  1.00  0.00     0.022 A 
BRANCH  66  69
ATOM     69  S   UNL A   1      34.982  33.075  30.029  1.00  0.00     0.127 S 
ATOM     70  O   UNL A   1      34.085  33.470  31.113  1.00  0.00    -0.237 OA
ATOM     71  O   UNL A   1      35.740  34.177  29.436  1.00  0.00    -0.237 OA
ATOM     72  O   UNL A   1      34.434  32.137  29.057  1.00  0.00    -0.744 OA
ENDBRANCH  66  69
ENDBRANCH  48  62
BRANCH  49  73
ATOM     73  C   UNL A   1      47.008  28.144  26.947  1.00  0.00     0.023 A 
ATOM     74  C   UNL A   1      47.938  27.440  27.731  1.00  0.00     0.012 A 
ATOM     75  C   UNL A   1      47.225  28.265  25.560  1.00  0.00     0.148 A 
ATOM     76  C   UNL A   1      49.050  26.843  27.137  1.00  0.00     0.002 A 
ATOM     77  C   UNL A   1      48.284  27.595  24.965  1.00  0.00     0.091 A 
ATOM     78  F   UNL A   1      46.347  28.975  24.834  1.00  0.00    -0.205 F 
ATOM     79  C   UNL A   1      49.208  26.893  25.752  1.00  0.00     0.022 A 
BRANCH  77  80
ATOM     80  S   UNL A   1      48.389  27.429  23.177  1.00  0.00     0.127 S 
ATOM     81  O   UNL A   1      47.239  28.209  22.733  1.00  0.00    -0.237 OA
ATOM     82  O   UNL A   1      49.692  28.027  22.882  1.00  0.00    -0.237 OA
ATOM     83  O   UNL A   1      48.331  25.994  22.930  1.00  0.00    -0.744 OA
ENDBRANCH  77  80
ENDBRANCH  49  73
BRANCH  61  84
ATOM     84  C   UNL A   1      44.743  34.152  29.672  1.00  0.00     0.023 A 
ATOM     85  C   UNL A   1      45.428  34.496  30.856  1.00  0.00     0.012 A 
ATOM     86  C   UNL A   1      44.669  35.084  28.620  1.00  0.00     0.148 A 
ATOM     87  C   UNL A   1      46.002  35.757  31.002  1.00  0.00     0.002 A 
ATOM     88  C   UNL A   1      45.270  36.331  28.762  1.00  0.00     0.091 A 
ATOM     89  F   UNL A   1      43.989  34.751  27.514  1.00  0.00    -0.205 F 
ATOM     90  C   UNL A   1      45.930  36.671  29.954  1.00  0.00     0.022 A 
BRANCH  88  91
ATOM     91  S   UNL A   1      45.267  37.542  27.436  1.00  0.00     0.127 S 
ATOM     92  O   UNL A   1      46.054  36.864  26.409  1.00  0.00    -0.237 OA
ATOM     93  O   UNL A   1      43.842  37.671  27.125  1.00  0.00    -0.237 OA
ATOM     94  O   UNL A   1      45.865  38.744  28.003  1.00  0.00    -0.744 OA
ENDBRANCH  88  91
ENDBRANCH  61  84
ENDBRANCH  35  36
ENDBRANCH  28  30
ENDBRANCH  27  28
ENDBRANCH  26  27
ENDBRANCH   1  26
TORSDOF 20
ENDMDL
MODEL 3
REMARK VINA RESULT:     -10.5      4.799     10.085
REMARK SMILES CC[NH2+][C@]1(C(=O)OCCOC(=O)c2ccc(-c3c4nc(c(-c5cccc(S(=O)(=O)[O-])c5F)c5ccc([nH]5)c(-c5cccc(S(=O)(=O)[O-])c5F)c5nc(c(-c6cccc(S(=O)(=O)[O-])c6F)c6ccc3[nH]6)C=C5)C=C4)cc2)CCC[C@H]1CC[N@H+]1CCC[C@@H](CC)C1
REMARK SMILES IDX 8 1 7 2 5 3 6 4 4 5 76 6 79 7 77 8 78 9 3 10 2 13 1 14 80 15
REMARK SMILES IDX 81 16 82 17 83 18 89 19 84 21 86 22 85 23 87 24 88 25 9 26
REMARK SMILES IDX 10 27 11 28 12 29 13 30 14 31 75 32 15 33 74 34 16 35 17 36
REMARK SMILES IDX 18 37 68 38 19 39 73 40 67 41 69 42 20 43 72 44 66 45 65 46
REMARK SMILES IDX 21 48 53 49 33 50 52 51 34 52 37 53 51 54 70 55 35 56 36 57
REMARK SMILES IDX 50 59 71 60 38 61 22 62 23 63 31 64 24 65 26 66 32 67 25 68
REMARK SMILES IDX 27 69 28 70 29 71 30 72 54 73 55 74 63 75 56 76 58 77 64 78
REMARK SMILES IDX 57 79 59 80 60 81 61 82 62 83 39 84 40 85 48 86 41 87 43 88
REMARK SMILES IDX 49 89 42 90 44 91 45 92 46 93 47 94
REMARK H PARENT 3 11 3 12 82 20 69 47 37 58
REMARK Flexibility Score: inf
ROOT
ATOM      1  C   UNL A   1      36.684  22.939  23.322  1.00  0.00     0.274 C 
ENDROOT
BRANCH   1   2
ATOM      2  O   UNL A   1      35.274  23.116  23.033  1.00  0.00    -0.457 OA
BRANCH   2   3
ATOM      3  C   UNL A   1      34.577  23.821  23.985  1.00  0.00     0.368 C 
ATOM      4  O   UNL A   1      35.129  24.459  24.859  1.00  0.00    -0.245 OA
BRANCH   3   5
ATOM      5  C   UNL A   1      33.037  23.525  23.972  1.00  0.00     0.197 C 
ATOM      6  C   UNL A   1      32.416  24.403  25.093  1.00  0.00     0.081 C 
ATOM      7  C   UNL A   1      32.168  23.906  22.725  1.00  0.00     0.068 C 
ATOM      8  C   UNL A   1      30.952  24.626  24.745  1.00  0.00     0.008 C 
ATOM      9  C   UNL A   1      30.750  24.003  23.367  1.00  0.00     0.011 C 
BRANCH   5  10
ATOM     10  N   UNL A   1      32.828  22.046  24.119  1.00  0.00    -0.332 N 
ATOM     11  H   UNL A   1      32.062  21.793  23.494  1.00  0.00     0.347 HD
ATOM     12  H   UNL A   1      33.748  21.657  23.913  1.00  0.00     0.347 HD
BRANCH  10  13
ATOM     13  C   UNL A   1      32.511  21.488  25.418  1.00  0.00     0.257 C 
ATOM     14  C   UNL A   1      33.797  20.982  26.057  1.00  0.00     0.071 C 
ENDBRANCH  10  13
ENDBRANCH   5  10
BRANCH   7  15
ATOM     15  C   UNL A   1      32.394  25.219  21.950  1.00  0.00     0.072 C 
BRANCH  15  16
ATOM     16  C   UNL A   1      33.093  26.414  22.638  1.00  0.00     0.262 C 
BRANCH  16  17
ATOM     17  N   UNL A   1      32.445  27.654  23.077  1.00  0.00    -0.335 N 
ATOM     18  C   UNL A   1      31.163  27.851  22.409  1.00  0.00     0.262 C 
ATOM     19  C   UNL A   1      32.493  28.009  24.484  1.00  0.00     0.265 C 
ATOM     20  H   UNL A   1      33.077  28.383  22.744  1.00  0.00     0.348 HD
ATOM     21  C   UNL A   1      30.502  29.190  22.681  1.00  0.00     0.062 C 
ATOM     22  C   UNL A   1      31.848  29.391  24.770  1.00  0.00     0.044 C 
ATOM     23  C   UNL A   1      30.439  29.475  24.166  1.00  0.00     0.015 C 
BRANCH  22  24
ATOM     24  C   UNL A   1      31.832  29.662  26.284  1.00  0.00     0.006 C 
ATOM     25  C   UNL A   1      31.708  28.403  27.133  1.00  0.00     0.004 C 
ENDBRANCH  22  24
ENDBRANCH  16  17
ENDBRANCH  15  16
ENDBRANCH   7  15
ENDBRANCH   3   5
ENDBRANCH   2   3
ENDBRANCH   1   2
BRANCH   1  26
ATOM     26  C   UNL A   1      37.036  21.615  24.000  1.00  0.00     0.275 C 
BRANCH  26  27
ATOM     27  O   UNL A   1      37.158  21.786  25.429  1.00  0.00    -0.458 OA
BRANCH  27  28
ATOM     28  C   UNL A   1      38.420  21.660  25.864  1.00  0.00     0.338 C 
ATOM     29  O   UNL A   1      39.138  20.678  25.643  1.00  0.00    -0.246 OA
BRANCH  28  30
ATOM     30  C   UNL A   1      38.956  22.813  26.606  1.00  0.00     0.060 A 
ATOM     31  C   UNL A   1      38.490  24.098  26.333  1.00  0.00     0.016 A 
ATOM     32  C   UNL A   1      40.164  22.653  27.300  1.00  0.00     0.016 A 
ATOM     33  C   UNL A   1      39.305  25.196  26.612  1.00  0.00     0.010 A 
ATOM     34  C   UNL A   1      40.910  23.771  27.696  1.00  0.00     0.010 A 
ATOM     35  C   UNL A   1      40.513  25.061  27.324  1.00  0.00    -0.014 A 
BRANCH  35  36
ATOM     36  C   UNL A   1      41.289  26.280  27.713  1.00  0.00     0.031 A 
ATOM     37  C   UNL A   1      40.707  27.393  28.553  1.00  0.00     0.074 A 
ATOM     38  C   UNL A   1      42.574  26.378  27.311  1.00  0.00     0.049 A 
ATOM     39  N   UNL A   1      41.245  28.548  28.864  1.00  0.00    -0.248 NA
ATOM     40  C   UNL A   1      39.362  27.195  29.118  1.00  0.00     0.031 C 
ATOM     41  C   UNL A   1      43.273  25.383  26.498  1.00  0.00     0.029 A 
ATOM     42  N   UNL A   1      43.526  27.342  27.539  1.00  0.00    -0.354 N 
ATOM     43  C   UNL A   1      40.290  29.237  29.607  1.00  0.00     0.074 A 
ATOM     44  C   UNL A   1      39.144  28.360  29.721  1.00  0.00     0.031 C 
ATOM     45  C   UNL A   1      44.554  25.739  26.364  1.00  0.00     0.029 A 
ATOM     46  C   UNL A   1      44.739  27.058  26.956  1.00  0.00     0.049 A 
ATOM     47  H   UNL A   1      43.358  28.156  28.066  1.00  0.00     0.167 HD
ATOM     48  C   UNL A   1      40.369  30.480  30.147  1.00  0.00     0.034 A 
ATOM     49  C   UNL A   1      45.868  27.782  26.842  1.00  0.00     0.034 A 
ATOM     50  C   UNL A   1      41.533  31.331  30.090  1.00  0.00     0.049 A 
ATOM     51  C   UNL A   1      45.915  29.161  27.415  1.00  0.00     0.074 A 
ATOM     52  C   UNL A   1      41.704  32.591  30.646  1.00  0.00     0.029 A 
ATOM     53  N   UNL A   1      42.723  31.017  29.456  1.00  0.00    -0.354 N 
ATOM     54  N   UNL A   1      45.005  29.786  28.119  1.00  0.00    -0.248 NA
ATOM     55  C   UNL A   1      47.135  29.940  27.169  1.00  0.00     0.031 C 
ATOM     56  C   UNL A   1      42.993  33.040  30.338  1.00  0.00     0.029 A 
ATOM     57  C   UNL A   1      43.629  32.060  29.596  1.00  0.00     0.049 A 
ATOM     58  H   UNL A   1      42.902  30.177  28.974  1.00  0.00     0.167 HD
ATOM     59  C   UNL A   1      45.534  31.039  28.391  1.00  0.00     0.074 A 
ATOM     60  C   UNL A   1      46.862  31.069  27.811  1.00  0.00     0.031 C 
ATOM     61  C   UNL A   1      44.955  32.080  29.035  1.00  0.00     0.034 A 
BRANCH  48  62
ATOM     62  C   UNL A   1      39.171  31.013  30.893  1.00  0.00     0.023 A 
ATOM     63  C   UNL A   1      39.141  30.942  32.299  1.00  0.00     0.012 A 
ATOM     64  C   UNL A   1      38.144  31.703  30.215  1.00  0.00     0.148 A 
ATOM     65  C   UNL A   1      38.105  31.544  33.018  1.00  0.00     0.002 A 
ATOM     66  C   UNL A   1      37.134  32.327  30.941  1.00  0.00     0.091 A 
ATOM     67  F   UNL A   1      38.173  31.742  28.874  1.00  0.00    -0.205 F 
ATOM     68  C   UNL A   1      37.111  32.247  32.341  1.00  0.00     0.022 A 
BRANCH  66  69
ATOM     69  S   UNL A   1      35.868  33.321  30.137  1.00  0.00     0.127 S 
ATOM     70  O   UNL A   1      35.271  34.020  31.273  1.00  0.00    -0.237 OA
ATOM     71  O   UNL A   1      36.651  34.176  29.243  1.00  0.00    -0.237 OA
ATOM     72  O   UNL A   1      35.007  32.368  29.450  1.00  0.00    -0.744 OA
ENDBRANCH  66  69
ENDBRANCH  48  62
BRANCH  49  73
ATOM     73  C   UNL A   1      47.029  27.184  26.126  1.00  0.00     0.023 A 
ATOM     74  C   UNL A   1      47.262  27.519  24.781  1.00  0.00     0.012 A 
ATOM     75  C   UNL A   1      47.985  26.417  26.822  1.00  0.00     0.148 A 
ATOM     76  C   UNL A   1      48.441  27.119  24.150  1.00  0.00     0.002 A 
ATOM     77  C   UNL A   1      49.192  26.100  26.216  1.00  0.00     0.091 A 
ATOM     78  F   UNL A   1      47.727  26.073  28.093  1.00  0.00    -0.205 F 
ATOM     79  C   UNL A   1      49.418  26.437  24.874  1.00  0.00     0.022 A 
BRANCH  77  80
ATOM     80  S   UNL A   1      50.566  25.443  27.172  1.00  0.00     0.127 S 
ATOM     81  O   UNL A   1      50.017  24.183  27.663  1.00  0.00    -0.237 OA
ATOM     82  O   UNL A   1      51.616  25.308  26.162  1.00  0.00    -0.237 OA
ATOM     83  O   UNL A   1      50.844  26.462  28.176  1.00  0.00    -0.744 OA
ENDBRANCH  77  80
ENDBRANCH  49  73
BRANCH  61  84
ATOM     84  C   UNL A   1      45.753  33.350  29.125  1.00  0.00     0.023 A 
ATOM     85  C   UNL A   1      46.578  33.562  30.249  1.00  0.00     0.012 A 
ATOM     86  C   UNL A   1      45.704  34.323  28.110  1.00  0.00     0.148 A 
ATOM     87  C   UNL A   1      47.317  34.736  30.375  1.00  0.00     0.002 A 
ATOM     88  C   UNL A   1      46.469  35.480  28.228  1.00  0.00     0.091 A 
ATOM     89  F   UNL A   1      44.893  34.119  27.062  1.00  0.00    -0.205 F 
ATOM     90  C   UNL A   1      47.270  35.691  29.363  1.00  0.00     0.022 A 
BRANCH  88  91
ATOM     91  S   UNL A   1      46.502  36.731  26.941  1.00  0.00     0.127 S 
ATOM     92  O   UNL A   1      47.783  37.388  27.194  1.00  0.00    -0.237 OA
ATOM     93  O   UNL A   1      46.461  35.930  25.716  1.00  0.00    -0.237 OA
ATOM     94  O   UNL A   1      45.316  37.549  27.159  1.00  0.00    -0.744 OA
ENDBRANCH  88  91
ENDBRANCH  61  84
ENDBRANCH  35  36
ENDBRANCH  28  30
ENDBRANCH  27  28
ENDBRANCH  26  27
ENDBRANCH   1  26
TORSDOF 20
ENDMDL
