MODEL 1
REMARK VINA RESULT:     -10.3      0.000      0.000
REMARK SMILES N#CCNC(=O)Cn1ccc(C(=O)OCCOC(=O)c2ccc(-c3c4nc(c(-c5cccc(S(=O)(=O)[O-])c5F)c5ccc([nH]5)c(-c5cccc(S(=O)(=O)[O-])c5F)c5nc(c(-c6cccc(S(=O)(=O)[O-])c6F)c6ccc3[nH]6)C=C5)C=C4)cc2)c1
REMARK SMILES IDX 15 1 14 2 12 3 13 4 11 5 8 6 9 7 83 8 10 9 7 10 5 11 4 12
REMARK SMILES IDX 6 14 3 15 2 16 1 17 16 18 17 19 18 20 19 21 20 22 21 23
REMARK SMILES IDX 82 24 22 25 81 26 23 27 24 28 25 29 75 30 26 31 80 32 74 33
REMARK SMILES IDX 76 34 27 35 79 36 73 37 72 38 28 40 60 41 40 42 59 43 41 44
REMARK SMILES IDX 44 45 58 46 77 47 42 48 43 49 57 51 78 52 45 53 29 54 30 55
REMARK SMILES IDX 38 56 31 57 33 58 39 59 32 60 34 61 35 62 36 63 37 64 61 65
REMARK SMILES IDX 62 66 70 67 63 68 65 69 71 70 64 71 66 72 67 73 68 74 69 75
REMARK SMILES IDX 46 76 47 77 55 78 48 79 50 80 56 81 49 82 51 83 52 84 53 85
REMARK SMILES IDX 54 86
REMARK H PARENT 4 13 76 39 44 50
REMARK Flexibility Score: inf
ROOT
ATOM      1  C   UNL A   1      38.834  21.697  25.377  1.00  0.00     0.275 C 
ENDROOT
BRANCH   1   2
ATOM      2  O   UNL A   1      37.466  21.416  25.711  1.00  0.00    -0.458 OA
BRANCH   2   3
ATOM      3  C   UNL A   1      36.553  21.940  24.835  1.00  0.00     0.339 C 
ATOM      4  O   UNL A   1      36.789  22.215  23.673  1.00  0.00    -0.246 OA
BRANCH   3   5
ATOM      5  C   UNL A   1      35.215  22.018  25.407  1.00  0.00     0.077 A 
ATOM      6  N   UNL A   1      33.072  22.513  25.814  1.00  0.00    -0.344 N 
ATOM      7  C   UNL A   1      33.584  21.994  26.970  1.00  0.00     0.087 A 
ATOM      8  C   UNL A   1      34.084  22.627  24.888  1.00  0.00     0.101 A 
ATOM      9  C   UNL A   1      34.851  21.535  26.695  1.00  0.00     0.035 A 
BRANCH   6  10
ATOM     10  C   UNL A   1      31.681  22.856  25.551  1.00  0.00     0.221 C 
BRANCH  10  11
ATOM     11  C   UNL A   1      30.971  23.652  26.631  1.00  0.00     0.240 C 
ATOM     12  N   UNL A   1      31.124  25.003  26.756  1.00  0.00    -0.341 N 
ATOM     13  H   UNL A   1      30.645  25.409  27.513  1.00  0.00     0.164 HD
ATOM     14  O   UNL A   1      30.308  23.080  27.502  1.00  0.00    -0.273 OA
BRANCH  12  15
ATOM     15  C   UNL A   1      31.889  25.932  25.939  1.00  0.00     0.236 C 
BRANCH  15  16
ATOM     16  C   UNL A   1      31.073  26.528  24.804  1.00  0.00     0.084 C 
ATOM     17  N   UNL A   1      30.395  27.024  23.863  1.00  0.00    -0.196 NA
ENDBRANCH  15  16
ENDBRANCH  12  15
ENDBRANCH  10  11
ENDBRANCH   6  10
ENDBRANCH   3   5
ENDBRANCH   2   3
ENDBRANCH   1   2
BRANCH   1  18
ATOM     18  C   UNL A   1      39.634  22.187  26.589  1.00  0.00     0.275 C 
BRANCH  18  19
ATOM     19  O   UNL A   1      39.877  23.599  26.601  1.00  0.00    -0.458 OA
BRANCH  19  20
ATOM     20  C   UNL A   1      38.838  24.333  27.070  1.00  0.00     0.338 C 
ATOM     21  O   UNL A   1      37.651  24.120  26.877  1.00  0.00    -0.246 OA
BRANCH  20  22
ATOM     22  C   UNL A   1      39.309  25.547  27.743  1.00  0.00     0.060 A 
ATOM     23  C   UNL A   1      38.903  25.795  29.059  1.00  0.00     0.016 A 
ATOM     24  C   UNL A   1      39.940  26.535  26.983  1.00  0.00     0.016 A 
ATOM     25  C   UNL A   1      39.105  27.053  29.611  1.00  0.00     0.010 A 
ATOM     26  C   UNL A   1      40.093  27.805  27.519  1.00  0.00     0.010 A 
ATOM     27  C   UNL A   1      39.672  28.066  28.829  1.00  0.00    -0.014 A 
BRANCH  27  28
ATOM     28  C   UNL A   1      39.909  29.394  29.434  1.00  0.00     0.031 A 
ATOM     29  C   UNL A   1      38.727  30.346  29.219  1.00  0.00     0.074 A 
ATOM     30  C   UNL A   1      41.119  29.590  30.041  1.00  0.00     0.049 A 
ATOM     31  N   UNL A   1      38.725  31.641  29.107  1.00  0.00    -0.248 NA
ATOM     32  C   UNL A   1      37.373  29.785  28.965  1.00  0.00     0.031 C 
ATOM     33  C   UNL A   1      42.170  28.554  30.147  1.00  0.00     0.029 A 
ATOM     34  N   UNL A   1      41.725  30.658  30.682  1.00  0.00    -0.354 N 
ATOM     35  C   UNL A   1      37.373  32.042  29.016  1.00  0.00     0.074 A 
ATOM     36  C   UNL A   1      36.609  30.860  28.766  1.00  0.00     0.031 C 
ATOM     37  C   UNL A   1      43.281  29.051  30.730  1.00  0.00     0.029 A 
ATOM     38  C   UNL A   1      43.059  30.436  31.109  1.00  0.00     0.049 A 
ATOM     39  H   UNL A   1      41.262  31.513  30.830  1.00  0.00     0.167 HD
ATOM     40  C   UNL A   1      36.950  33.301  29.326  1.00  0.00     0.034 A 
ATOM     41  C   UNL A   1      43.944  31.295  31.710  1.00  0.00     0.034 A 
ATOM     42  C   UNL A   1      38.059  34.072  29.778  1.00  0.00     0.049 A 
ATOM     43  C   UNL A   1      43.184  32.506  32.053  1.00  0.00     0.074 A 
ATOM     44  C   UNL A   1      39.118  34.661  29.141  1.00  0.00     0.029 A 
ATOM     45  N   UNL A   1      38.307  34.003  31.129  1.00  0.00    -0.354 N 
ATOM     46  N   UNL A   1      42.309  32.583  33.014  1.00  0.00    -0.248 NA
ATOM     47  C   UNL A   1      43.344  33.710  31.227  1.00  0.00     0.031 C 
ATOM     48  C   UNL A   1      40.154  34.605  30.092  1.00  0.00     0.029 A 
ATOM     49  C   UNL A   1      39.658  34.120  31.310  1.00  0.00     0.049 A 
ATOM     50  H   UNL A   1      37.633  33.890  31.837  1.00  0.00     0.167 HD
ATOM     51  C   UNL A   1      41.580  33.687  32.644  1.00  0.00     0.074 A 
ATOM     52  C   UNL A   1      42.448  34.493  31.817  1.00  0.00     0.031 C 
ATOM     53  C   UNL A   1      40.232  33.568  32.517  1.00  0.00     0.034 A 
BRANCH  40  54
ATOM     54  C   UNL A   1      35.592  33.924  29.534  1.00  0.00     0.023 A 
ATOM     55  C   UNL A   1      35.009  34.506  28.371  1.00  0.00     0.012 A 
ATOM     56  C   UNL A   1      35.006  34.237  30.772  1.00  0.00     0.148 A 
ATOM     57  C   UNL A   1      33.984  35.445  28.436  1.00  0.00     0.002 A 
ATOM     58  C   UNL A   1      33.937  35.138  30.827  1.00  0.00     0.091 A 
ATOM     59  F   UNL A   1      35.534  33.745  31.897  1.00  0.00    -0.205 F 
ATOM     60  C   UNL A   1      33.454  35.771  29.670  1.00  0.00     0.022 A 
BRANCH  58  61
ATOM     61  S   UNL A   1      33.109  35.559  32.365  1.00  0.00     0.127 S 
ATOM     62  O   UNL A   1      32.762  34.244  32.896  1.00  0.00    -0.237 OA
ATOM     63  O   UNL A   1      34.170  36.249  33.105  1.00  0.00    -0.237 OA
ATOM     64  O   UNL A   1      32.002  36.425  31.984  1.00  0.00    -0.744 OA
ENDBRANCH  58  61
ENDBRANCH  40  54
BRANCH  41  65
ATOM     65  C   UNL A   1      45.429  31.308  32.020  1.00  0.00     0.023 A 
ATOM     66  C   UNL A   1      45.972  31.023  33.281  1.00  0.00     0.012 A 
ATOM     67  C   UNL A   1      46.384  31.544  30.983  1.00  0.00     0.148 A 
ATOM     68  C   UNL A   1      47.362  30.881  33.472  1.00  0.00     0.002 A 
ATOM     69  C   UNL A   1      47.744  31.294  31.141  1.00  0.00     0.091 A 
ATOM     70  F   UNL A   1      45.988  32.059  29.815  1.00  0.00    -0.205 F 
ATOM     71  C   UNL A   1      48.244  30.972  32.398  1.00  0.00     0.022 A 
BRANCH  69  72
ATOM     72  S   UNL A   1      48.873  31.240  29.735  1.00  0.00     0.127 S 
ATOM     73  O   UNL A   1      48.960  32.647  29.348  1.00  0.00    -0.237 OA
ATOM     74  O   UNL A   1      50.082  30.697  30.355  1.00  0.00    -0.237 OA
ATOM     75  O   UNL A   1      48.257  30.369  28.742  1.00  0.00    -0.744 OA
ENDBRANCH  69  72
ENDBRANCH  41  65
BRANCH  53  76
ATOM     76  C   UNL A   1      39.597  32.561  33.469  1.00  0.00     0.023 A 
ATOM     77  C   UNL A   1      39.163  31.339  32.911  1.00  0.00     0.012 A 
ATOM     78  C   UNL A   1      39.305  32.789  34.835  1.00  0.00     0.148 A 
ATOM     79  C   UNL A   1      38.456  30.396  33.662  1.00  0.00     0.002 A 
ATOM     80  C   UNL A   1      38.590  31.848  35.585  1.00  0.00     0.091 A 
ATOM     81  F   UNL A   1      39.711  33.928  35.391  1.00  0.00    -0.205 F 
ATOM     82  C   UNL A   1      38.169  30.649  34.997  1.00  0.00     0.022 A 
BRANCH  80  83
ATOM     83  S   UNL A   1      38.114  32.085  37.310  1.00  0.00     0.127 S 
ATOM     84  O   UNL A   1      39.403  32.310  37.965  1.00  0.00    -0.237 OA
ATOM     85  O   UNL A   1      37.268  33.275  37.235  1.00  0.00    -0.237 OA
ATOM     86  O   UNL A   1      37.434  30.865  37.724  1.00  0.00    -0.744 OA
ENDBRANCH  80  83
ENDBRANCH  53  76
ENDBRANCH  27  28
ENDBRANCH  20  22
ENDBRANCH  19  20
ENDBRANCH  18  19
ENDBRANCH   1  18
TORSDOF 18
ENDMDL
MODEL 2
REMARK VINA RESULT:     -10.2      4.716     10.536
REMARK SMILES N#CCNC(=O)Cn1ccc(C(=O)OCCOC(=O)c2ccc(-c3c4nc(c(-c5cccc(S(=O)(=O)[O-])c5F)c5ccc([nH]5)c(-c5cccc(S(=O)(=O)[O-])c5F)c5nc(c(-c6cccc(S(=O)(=O)[O-])c6F)c6ccc3[nH]6)C=C5)C=C4)cc2)c1
REMARK SMILES IDX 15 1 14 2 12 3 13 4 11 5 8 6 9 7 83 8 10 9 7 10 5 11 4 12
REMARK SMILES IDX 6 14 3 15 2 16 1 17 16 18 17 19 18 20 19 21 20 22 21 23
REMARK SMILES IDX 82 24 22 25 81 26 23 27 24 28 25 29 75 30 26 31 80 32 74 33
REMARK SMILES IDX 76 34 27 35 79 36 73 37 72 38 28 40 60 41 40 42 59 43 41 44
REMARK SMILES IDX 44 45 58 46 77 47 42 48 43 49 57 51 78 52 45 53 29 54 30 55
REMARK SMILES IDX 38 56 31 57 33 58 39 59 32 60 34 61 35 62 36 63 37 64 61 65
REMARK SMILES IDX 62 66 70 67 63 68 65 69 71 70 64 71 66 72 67 73 68 74 69 75
REMARK SMILES IDX 46 76 47 77 55 78 48 79 50 80 56 81 49 82 51 83 52 84 53 85
REMARK SMILES IDX 54 86
REMARK H PARENT 4 13 76 39 44 50
REMARK Flexibility Score: inf
ROOT
ATOM      1  C   UNL A   1      34.212  30.744  27.164  1.00  0.00     0.275 C 
ENDROOT
BRANCH   1   2
ATOM      2  O   UNL A   1      32.883  31.033  27.624  1.00  0.00    -0.458 OA
BRANCH   2   3
ATOM      3  C   UNL A   1      31.900  30.776  26.705  1.00  0.00     0.339 C 
ATOM      4  O   UNL A   1      31.257  31.630  26.124  1.00  0.00    -0.246 OA
BRANCH   3   5
ATOM      5  C   UNL A   1      31.786  29.357  26.394  1.00  0.00     0.077 A 
ATOM      6  N   UNL A   1      31.530  27.393  25.354  1.00  0.00    -0.344 N 
ATOM      7  C   UNL A   1      31.333  27.163  26.686  1.00  0.00     0.087 A 
ATOM      8  C   UNL A   1      31.704  28.744  25.154  1.00  0.00     0.101 A 
ATOM      9  C   UNL A   1      31.644  28.321  27.360  1.00  0.00     0.035 A 
BRANCH   6  10
ATOM     10  C   UNL A   1      31.599  26.396  24.295  1.00  0.00     0.221 C 
BRANCH  10  11
ATOM     11  C   UNL A   1      32.812  25.483  24.311  1.00  0.00     0.240 C 
ATOM     12  N   UNL A   1      32.821  24.302  24.995  1.00  0.00    -0.341 N 
ATOM     13  H   UNL A   1      33.672  23.809  24.966  1.00  0.00     0.164 HD
ATOM     14  O   UNL A   1      33.873  25.836  23.787  1.00  0.00    -0.273 OA
BRANCH  12  15
ATOM     15  C   UNL A   1      31.763  23.662  25.761  1.00  0.00     0.236 C 
BRANCH  15  16
ATOM     16  C   UNL A   1      32.261  23.056  27.063  1.00  0.00     0.084 C 
ATOM     17  N   UNL A   1      32.674  22.554  28.143  1.00  0.00    -0.196 NA
ENDBRANCH  15  16
ENDBRANCH  12  15
ENDBRANCH  10  11
ENDBRANCH   6  10
ENDBRANCH   3   5
ENDBRANCH   2   3
ENDBRANCH   1   2
BRANCH   1  18
ATOM     18  C   UNL A   1      35.230  31.776  27.662  1.00  0.00     0.275 C 
BRANCH  18  19
ATOM     19  O   UNL A   1      36.522  31.231  27.956  1.00  0.00    -0.458 OA
BRANCH  19  20
ATOM     20  C   UNL A   1      36.544  30.421  29.042  1.00  0.00     0.338 C 
ATOM     21  O   UNL A   1      35.788  30.467  30.001  1.00  0.00    -0.246 OA
BRANCH  20  22
ATOM     22  C   UNL A   1      37.712  29.535  29.018  1.00  0.00     0.060 A 
ATOM     23  C   UNL A   1      37.980  28.735  30.136  1.00  0.00     0.016 A 
ATOM     24  C   UNL A   1      38.652  29.689  27.997  1.00  0.00     0.016 A 
ATOM     25  C   UNL A   1      39.213  28.106  30.245  1.00  0.00     0.010 A 
ATOM     26  C   UNL A   1      39.901  29.103  28.135  1.00  0.00     0.010 A 
ATOM     27  C   UNL A   1      40.184  28.317  29.259  1.00  0.00    -0.014 A 
BRANCH  27  28
ATOM     28  C   UNL A   1      41.484  27.620  29.371  1.00  0.00     0.031 A 
ATOM     29  C   UNL A   1      41.418  26.185  28.839  1.00  0.00     0.074 A 
ATOM     30  C   UNL A   1      42.510  28.317  29.949  1.00  0.00     0.049 A 
ATOM     31  N   UNL A   1      42.097  25.140  29.208  1.00  0.00    -0.248 NA
ATOM     32  C   UNL A   1      40.368  25.820  27.849  1.00  0.00     0.031 C 
ATOM     33  C   UNL A   1      42.398  29.710  30.432  1.00  0.00     0.029 A 
ATOM     34  N   UNL A   1      43.830  28.029  30.256  1.00  0.00    -0.354 N 
ATOM     35  C   UNL A   1      41.727  24.085  28.342  1.00  0.00     0.074 A 
ATOM     36  C   UNL A   1      40.554  24.514  27.649  1.00  0.00     0.031 C 
ATOM     37  C   UNL A   1      43.544  30.111  31.020  1.00  0.00     0.029 A 
ATOM     38  C   UNL A   1      44.534  29.052  30.941  1.00  0.00     0.049 A 
ATOM     39  H   UNL A   1      44.251  27.172  30.015  1.00  0.00     0.167 HD
ATOM     40  C   UNL A   1      42.515  22.993  28.125  1.00  0.00     0.034 A 
ATOM     41  C   UNL A   1      45.815  29.059  31.432  1.00  0.00     0.034 A 
ATOM     42  C   UNL A   1      43.729  23.135  28.857  1.00  0.00     0.049 A 
ATOM     43  C   UNL A   1      46.463  27.838  30.931  1.00  0.00     0.074 A 
ATOM     44  C   UNL A   1      44.048  23.014  30.182  1.00  0.00     0.029 A 
ATOM     45  N   UNL A   1      44.739  23.788  28.191  1.00  0.00    -0.354 N 
ATOM     46  N   UNL A   1      46.835  27.650  29.698  1.00  0.00    -0.248 NA
ATOM     47  C   UNL A   1      46.650  26.701  31.842  1.00  0.00     0.031 C 
ATOM     48  C   UNL A   1      45.100  23.933  30.359  1.00  0.00     0.029 A 
ATOM     49  C   UNL A   1      45.476  24.471  29.120  1.00  0.00     0.049 A 
ATOM     50  H   UNL A   1      44.903  23.766  27.221  1.00  0.00     0.167 HD
ATOM     51  C   UNL A   1      46.930  26.282  29.636  1.00  0.00     0.074 A 
ATOM     52  C   UNL A   1      47.167  25.826  30.986  1.00  0.00     0.031 C 
ATOM     53  C   UNL A   1      46.232  25.621  28.676  1.00  0.00     0.034 A 
BRANCH  40  54
ATOM     54  C   UNL A   1      42.484  21.866  27.122  1.00  0.00     0.023 A 
ATOM     55  C   UNL A   1      41.458  20.900  27.330  1.00  0.00     0.012 A 
ATOM     56  C   UNL A   1      43.509  21.532  26.222  1.00  0.00     0.148 A 
ATOM     57  C   UNL A   1      41.506  19.624  26.776  1.00  0.00     0.002 A 
ATOM     58  C   UNL A   1      43.523  20.268  25.623  1.00  0.00     0.091 A 
ATOM     59  F   UNL A   1      44.514  22.389  26.016  1.00  0.00    -0.205 F 
ATOM     60  C   UNL A   1      42.550  19.303  25.929  1.00  0.00     0.022 A 
BRANCH  58  61
ATOM     61  S   UNL A   1      44.776  19.779  24.432  1.00  0.00     0.127 S 
ATOM     62  O   UNL A   1      44.612  20.783  23.385  1.00  0.00    -0.237 OA
ATOM     63  O   UNL A   1      46.009  19.915  25.212  1.00  0.00    -0.237 OA
ATOM     64  O   UNL A   1      44.455  18.404  24.075  1.00  0.00    -0.744 OA
ENDBRANCH  58  61
ENDBRANCH  40  54
BRANCH  41  65
ATOM     65  C   UNL A   1      46.635  29.939  32.358  1.00  0.00     0.023 A 
ATOM     66  C   UNL A   1      47.552  30.903  31.919  1.00  0.00     0.012 A 
ATOM     67  C   UNL A   1      46.446  29.875  33.773  1.00  0.00     0.148 A 
ATOM     68  C   UNL A   1      48.158  31.809  32.814  1.00  0.00     0.002 A 
ATOM     69  C   UNL A   1      46.952  30.836  34.643  1.00  0.00     0.091 A 
ATOM     70  F   UNL A   1      45.790  28.845  34.314  1.00  0.00    -0.205 F 
ATOM     71  C   UNL A   1      47.827  31.806  34.166  1.00  0.00     0.022 A 
BRANCH  69  72
ATOM     72  S   UNL A   1      46.404  30.952  36.358  1.00  0.00     0.127 S 
ATOM     73  O   UNL A   1      47.036  29.785  36.971  1.00  0.00    -0.237 OA
ATOM     74  O   UNL A   1      46.973  32.240  36.757  1.00  0.00    -0.237 OA
ATOM     75  O   UNL A   1      44.947  30.915  36.331  1.00  0.00    -0.744 OA
ENDBRANCH  69  72
ENDBRANCH  41  65
BRANCH  53  76
ATOM     76  C   UNL A   1      46.059  26.398  27.376  1.00  0.00     0.023 A 
ATOM     77  C   UNL A   1      44.777  26.926  27.112  1.00  0.00     0.012 A 
ATOM     78  C   UNL A   1      47.038  26.539  26.364  1.00  0.00     0.148 A 
ATOM     79  C   UNL A   1      44.471  27.547  25.898  1.00  0.00     0.002 A 
ATOM     80  C   UNL A   1      46.729  27.155  25.145  1.00  0.00     0.091 A 
ATOM     81  F   UNL A   1      48.259  26.061  26.588  1.00  0.00    -0.205 F 
ATOM     82  C   UNL A   1      45.444  27.661  24.915  1.00  0.00     0.022 A 
BRANCH  80  83
ATOM     83  S   UNL A   1      47.892  27.316  23.774  1.00  0.00     0.127 S 
ATOM     84  O   UNL A   1      47.151  28.153  22.829  1.00  0.00    -0.237 OA
ATOM     85  O   UNL A   1      49.024  27.991  24.407  1.00  0.00    -0.237 OA
ATOM     86  O   UNL A   1      48.162  25.966  23.297  1.00  0.00    -0.744 OA
ENDBRANCH  80  83
ENDBRANCH  53  76
ENDBRANCH  27  28
ENDBRANCH  20  22
ENDBRANCH  19  20
ENDBRANCH  18  19
ENDBRANCH   1  18
TORSDOF 18
ENDMDL
MODEL 3
REMARK VINA RESULT:     -10.1      4.873     11.632
REMARK SMILES N#CCNC(=O)Cn1ccc(C(=O)OCCOC(=O)c2ccc(-c3c4nc(c(-c5cccc(S(=O)(=O)[O-])c5F)c5ccc([nH]5)c(-c5cccc(S(=O)(=O)[O-])c5F)c5nc(c(-c6cccc(S(=O)(=O)[O-])c6F)c6ccc3[nH]6)C=C5)C=C4)cc2)c1
REMARK SMILES IDX 15 1 14 2 12 3 13 4 11 5 8 6 9 7 83 8 10 9 7 10 5 11 4 12
REMARK SMILES IDX 6 14 3 15 2 16 1 17 16 18 17 19 18 20 19 21 20 22 21 23
REMARK SMILES IDX 82 24 22 25 81 26 23 27 24 28 25 29 75 30 26 31 80 32 74 33
REMARK SMILES IDX 76 34 27 35 79 36 73 37 72 38 28 40 60 41 40 42 59 43 41 44
REMARK SMILES IDX 44 45 58 46 77 47 42 48 43 49 57 51 78 52 45 53 29 54 30 55
REMARK SMILES IDX 38 56 31 57 33 58 39 59 32 60 34 61 35 62 36 63 37 64 61 65
REMARK SMILES IDX 62 66 70 67 63 68 65 69 71 70 64 71 66 72 67 73 68 74 69 75
REMARK SMILES IDX 46 76 47 77 55 78 48 79 50 80 56 81 49 82 51 83 52 84 53 85
REMARK SMILES IDX 54 86
REMARK H PARENT 4 13 76 39 44 50
REMARK Flexibility Score: inf
ROOT
ATOM      1  C   UNL A   1      35.375  31.764  30.178  1.00  0.00     0.275 C 
ENDROOT
BRANCH   1   2
ATOM      2  O   UNL A   1      35.860  31.425  31.487  1.00  0.00    -0.458 OA
BRANCH   2   3
ATOM      3  C   UNL A   1      36.318  32.493  32.212  1.00  0.00     0.339 C 
ATOM      4  O   UNL A   1      35.645  33.458  32.523  1.00  0.00    -0.246 OA
BRANCH   3   5
ATOM      5  C   UNL A   1      37.682  32.297  32.689  1.00  0.00     0.077 A 
ATOM      6  N   UNL A   1      39.540  32.230  33.931  1.00  0.00    -0.344 N 
ATOM      7  C   UNL A   1      39.933  32.120  32.627  1.00  0.00     0.087 A 
ATOM      8  C   UNL A   1      38.181  32.442  33.972  1.00  0.00     0.101 A 
ATOM      9  C   UNL A   1      38.798  31.997  31.859  1.00  0.00     0.035 A 
BRANCH   6  10
ATOM     10  C   UNL A   1      40.383  32.102  35.112  1.00  0.00     0.221 C 
BRANCH  10  11
ATOM     11  C   UNL A   1      40.022  30.985  36.076  1.00  0.00     0.240 C 
ATOM     12  N   UNL A   1      40.516  29.720  35.937  1.00  0.00    -0.341 N 
ATOM     13  H   UNL A   1      40.187  29.069  36.597  1.00  0.00     0.164 HD
ATOM     14  O   UNL A   1      39.180  31.165  36.961  1.00  0.00    -0.273 OA
BRANCH  12  15
ATOM     15  C   UNL A   1      41.455  29.190  34.962  1.00  0.00     0.236 C 
BRANCH  15  16
ATOM     16  C   UNL A   1      40.775  28.702  33.693  1.00  0.00     0.084 C 
ATOM     17  N   UNL A   1      40.210  28.297  32.641  1.00  0.00    -0.196 NA
ENDBRANCH  15  16
ENDBRANCH  12  15
ENDBRANCH  10  11
ENDBRANCH   6  10
ENDBRANCH   3   5
ENDBRANCH   2   3
ENDBRANCH   1   2
BRANCH   1  18
ATOM     18  C   UNL A   1      36.486  32.316  29.278  1.00  0.00     0.275 C 
BRANCH  18  19
ATOM     19  O   UNL A   1      36.482  31.784  27.947  1.00  0.00    -0.458 OA
BRANCH  19  20
ATOM     20  C   UNL A   1      36.125  30.479  27.876  1.00  0.00     0.338 C 
ATOM     21  O   UNL A   1      34.987  30.038  27.824  1.00  0.00    -0.246 OA
BRANCH  20  22
ATOM     22  C   UNL A   1      37.290  29.602  28.024  1.00  0.00     0.060 A 
ATOM     23  C   UNL A   1      37.461  28.894  29.219  1.00  0.00     0.016 A 
ATOM     24  C   UNL A   1      38.315  29.682  27.078  1.00  0.00     0.016 A 
ATOM     25  C   UNL A   1      38.679  28.285  29.484  1.00  0.00     0.010 A 
ATOM     26  C   UNL A   1      39.548  29.117  27.370  1.00  0.00     0.010 A 
ATOM     27  C   UNL A   1      39.732  28.424  28.573  1.00  0.00    -0.014 A 
BRANCH  27  28
ATOM     28  C   UNL A   1      41.018  27.747  28.851  1.00  0.00     0.031 A 
ATOM     29  C   UNL A   1      41.012  26.285  28.391  1.00  0.00     0.074 A 
ATOM     30  C   UNL A   1      41.977  28.483  29.491  1.00  0.00     0.049 A 
ATOM     31  N   UNL A   1      41.656  25.268  28.881  1.00  0.00    -0.248 NA
ATOM     32  C   UNL A   1      40.069  25.858  27.322  1.00  0.00     0.031 C 
ATOM     33  C   UNL A   1      41.811  29.898  29.886  1.00  0.00     0.029 A 
ATOM     34  N   UNL A   1      43.260  28.225  29.943  1.00  0.00    -0.354 N 
ATOM     35  C   UNL A   1      41.380  24.166  28.040  1.00  0.00     0.074 A 
ATOM     36  C   UNL A   1      40.280  24.546  27.211  1.00  0.00     0.031 C 
ATOM     37  C   UNL A   1      42.889  30.341  30.564  1.00  0.00     0.029 A 
ATOM     38  C   UNL A   1      43.888  29.289  30.640  1.00  0.00     0.049 A 
ATOM     39  H   UNL A   1      43.708  27.361  29.791  1.00  0.00     0.167 HD
ATOM     40  C   UNL A   1      42.191  23.072  27.961  1.00  0.00     0.034 A 
ATOM     41  C   UNL A   1      45.113  29.334  31.257  1.00  0.00     0.034 A 
ATOM     42  C   UNL A   1      43.324  23.264  28.803  1.00  0.00     0.049 A 
ATOM     43  C   UNL A   1      45.813  28.095  30.888  1.00  0.00     0.074 A 
ATOM     44  C   UNL A   1      43.509  23.216  30.158  1.00  0.00     0.029 A 
ATOM     45  N   UNL A   1      44.393  23.891  28.207  1.00  0.00    -0.354 N 
ATOM     46  N   UNL A   1      46.309  27.848  29.710  1.00  0.00    -0.248 NA
ATOM     47  C   UNL A   1      45.913  27.010  31.873  1.00  0.00     0.031 C 
ATOM     48  C   UNL A   1      44.533  24.153  30.390  1.00  0.00     0.029 A 
ATOM     49  C   UNL A   1      45.029  24.630  29.168  1.00  0.00     0.049 A 
ATOM     50  H   UNL A   1      44.654  23.821  27.261  1.00  0.00     0.167 HD
ATOM     51  C   UNL A   1      46.416  26.479  29.731  1.00  0.00     0.074 A 
ATOM     52  C   UNL A   1      46.518  26.097  31.120  1.00  0.00     0.031 C 
ATOM     53  C   UNL A   1      45.821  25.761  28.742  1.00  0.00     0.034 A 
BRANCH  40  54
ATOM     54  C   UNL A   1      42.266  21.894  27.021  1.00  0.00     0.023 A 
ATOM     55  C   UNL A   1      41.273  20.893  27.225  1.00  0.00     0.012 A 
ATOM     56  C   UNL A   1      43.354  21.562  26.198  1.00  0.00     0.148 A 
ATOM     57  C   UNL A   1      41.409  19.593  26.746  1.00  0.00     0.002 A 
ATOM     58  C   UNL A   1      43.458  20.270  25.670  1.00  0.00     0.091 A 
ATOM     59  F   UNL A   1      44.331  22.452  26.000  1.00  0.00    -0.205 F 
ATOM     60  C   UNL A   1      42.512  19.278  25.975  1.00  0.00     0.022 A 
BRANCH  58  61
ATOM     61  S   UNL A   1      44.797  19.778  24.578  1.00  0.00     0.127 S 
ATOM     62  O   UNL A   1      44.510  20.553  23.374  1.00  0.00    -0.237 OA
ATOM     63  O   UNL A   1      45.978  20.228  25.319  1.00  0.00    -0.237 OA
ATOM     64  O   UNL A   1      44.691  18.330  24.464  1.00  0.00    -0.744 OA
ENDBRANCH  58  61
ENDBRANCH  40  54
BRANCH  41  65
ATOM     65  C   UNL A   1      45.831  30.270  32.212  1.00  0.00     0.023 A 
ATOM     66  C   UNL A   1      46.814  31.189  31.823  1.00  0.00     0.012 A 
ATOM     67  C   UNL A   1      45.469  30.311  33.594  1.00  0.00     0.148 A 
ATOM     68  C   UNL A   1      47.325  32.150  32.719  1.00  0.00     0.002 A 
ATOM     69  C   UNL A   1      45.884  31.327  34.450  1.00  0.00     0.091 A 
ATOM     70  F   UNL A   1      44.731  29.330  34.121  1.00  0.00    -0.205 F 
ATOM     71  C   UNL A   1      46.830  32.249  34.017  1.00  0.00     0.022 A 
BRANCH  69  72
ATOM     72  S   UNL A   1      45.133  31.573  36.072  1.00  0.00     0.127 S 
ATOM     73  O   UNL A   1      43.711  31.676  35.748  1.00  0.00    -0.237 OA
ATOM     74  O   UNL A   1      45.519  30.341  36.760  1.00  0.00    -0.237 OA
ATOM     75  O   UNL A   1      45.725  32.786  36.623  1.00  0.00    -0.744 OA
ENDBRANCH  69  72
ENDBRANCH  41  65
BRANCH  53  76
ATOM     76  C   UNL A   1      45.776  26.468  27.392  1.00  0.00     0.023 A 
ATOM     77  C   UNL A   1      44.521  26.955  26.966  1.00  0.00     0.012 A 
ATOM     78  C   UNL A   1      46.855  26.579  26.483  1.00  0.00     0.148 A 
ATOM     79  C   UNL A   1      44.337  27.507  25.696  1.00  0.00     0.002 A 
ATOM     80  C   UNL A   1      46.669  27.125  25.208  1.00  0.00     0.091 A 
ATOM     81  F   UNL A   1      48.053  26.138  26.861  1.00  0.00    -0.205 F 
ATOM     82  C   UNL A   1      45.408  27.591  24.816  1.00  0.00     0.022 A 
BRANCH  80  83
ATOM     83  S   UNL A   1      47.970  27.241  23.962  1.00  0.00     0.127 S 
ATOM     84  O   UNL A   1      48.201  25.838  23.615  1.00  0.00    -0.237 OA
ATOM     85  O   UNL A   1      47.318  28.016  22.907  1.00  0.00    -0.237 OA
ATOM     86  O   UNL A   1      49.102  27.895  24.603  1.00  0.00    -0.744 OA
ENDBRANCH  80  83
ENDBRANCH  53  76
ENDBRANCH  27  28
ENDBRANCH  20  22
ENDBRANCH  19  20
ENDBRANCH  18  19
ENDBRANCH   1  18
TORSDOF 18
ENDMDL
