MODEL 1
REMARK VINA RESULT:     -10.9      0.000      0.000
REMARK SMILES CC(C)[C@@H](CCNC(=O)N1C[C@@H](C)[C@H](C)C1)CCC(=O)OCCOC(=O)c1ccc(-c2c3nc(c(-c4cccc(S(=O)(=O)[O-])c4F)c4ccc([nH]4)c(-c4cccc(S(=O)(=O)[O-])c4F)c4nc(c(-c5cccc(S(=O)(=O)[O-])c5F)c5ccc2[nH]5)C=C4)C=C3)cc1
REMARK SMILES IDX 22 1 21 2 19 3 20 4 18 5 17 6 4 7 2 8 1 9 3 10 5 11 6 12
REMARK SMILES IDX 7 13 8 14 9 16 10 17 11 18 16 19 12 20 14 21 13 22 15 23
REMARK SMILES IDX 23 24 24 25 25 26 26 27 27 28 28 29 89 30 29 31 88 32 30 33
REMARK SMILES IDX 31 34 32 35 82 36 33 37 87 38 81 39 83 40 34 41 86 42 80 43
REMARK SMILES IDX 79 44 35 46 67 47 47 48 66 49 48 50 51 51 65 52 84 53 49 54
REMARK SMILES IDX 50 55 64 57 85 58 52 59 36 60 37 61 45 62 38 63 40 64 46 65
REMARK SMILES IDX 39 66 41 67 42 68 43 69 44 70 68 71 69 72 77 73 70 74 72 75
REMARK SMILES IDX 78 76 71 77 73 78 74 79 75 80 76 81 53 82 54 83 62 84 55 85
REMARK SMILES IDX 57 86 63 87 56 88 58 89 59 90 60 91 61 92
REMARK H PARENT 7 15 83 45 51 56
REMARK Flexibility Score: inf
ROOT
ATOM      1  C   UNL A   1      31.729  30.760  26.677  1.00  0.00     0.274 C 
ENDROOT
BRANCH   1   2
ATOM      2  O   UNL A   1      33.000  30.383  26.112  1.00  0.00    -0.462 OA
BRANCH   2   3
ATOM      3  C   UNL A   1      33.611  29.306  26.657  1.00  0.00     0.305 C 
ATOM      4  O   UNL A   1      34.824  29.128  26.671  1.00  0.00    -0.252 OA
BRANCH   3   5
ATOM      5  C   UNL A   1      32.657  28.276  27.226  1.00  0.00     0.123 C 
BRANCH   5   6
ATOM      6  C   UNL A   1      32.326  27.009  26.430  1.00  0.00     0.015 C 
BRANCH   6   7
ATOM      7  C   UNL A   1      31.009  26.910  25.618  1.00  0.00    -0.006 C 
BRANCH   7   8
ATOM      8  C   UNL A   1      31.103  27.273  24.100  1.00  0.00    -0.014 C 
ATOM      9  C   UNL A   1      30.541  28.679  23.830  1.00  0.00     0.007 C 
ATOM     10  C   UNL A   1      32.525  27.232  23.532  1.00  0.00     0.007 C 
ENDBRANCH   7   8
BRANCH   7  11
ATOM     11  C   UNL A   1      30.360  25.508  25.864  1.00  0.00     0.025 C 
BRANCH  11  12
ATOM     12  C   UNL A   1      31.265  24.269  25.751  1.00  0.00     0.118 C 
BRANCH  12  13
ATOM     13  N   UNL A   1      31.882  23.910  27.015  1.00  0.00    -0.338 N 
ATOM     14  C   UNL A   1      32.737  22.879  27.236  1.00  0.00     0.317 C 
ATOM     15  H   UNL A   1      31.656  24.471  27.791  1.00  0.00     0.165 HD
ATOM     16  O   UNL A   1      32.635  22.257  28.291  1.00  0.00    -0.249 OA
ATOM     17  N   UNL A   1      33.674  22.589  26.284  1.00  0.00    -0.324 N 
ATOM     18  C   UNL A   1      34.356  21.308  26.296  1.00  0.00     0.125 C 
ATOM     19  C   UNL A   1      34.440  23.592  25.560  1.00  0.00     0.125 C 
ATOM     20  C   UNL A   1      35.764  21.589  25.780  1.00  0.00     0.010 C 
ATOM     21  C   UNL A   1      35.577  22.823  24.882  1.00  0.00     0.010 C 
ATOM     22  C   UNL A   1      36.355  20.396  25.040  1.00  0.00     0.010 C 
ATOM     23  C   UNL A   1      36.844  23.659  24.757  1.00  0.00     0.010 C 
ENDBRANCH  12  13
ENDBRANCH  11  12
ENDBRANCH   7  11
ENDBRANCH   6   7
ENDBRANCH   5   6
ENDBRANCH   3   5
ENDBRANCH   2   3
ENDBRANCH   1   2
BRANCH   1  24
ATOM     24  C   UNL A   1      31.652  32.272  26.895  1.00  0.00     0.275 C 
BRANCH  24  25
ATOM     25  O   UNL A   1      32.948  32.879  26.756  1.00  0.00    -0.458 OA
BRANCH  25  26
ATOM     26  C   UNL A   1      33.401  33.495  27.874  1.00  0.00     0.338 C 
ATOM     27  O   UNL A   1      32.823  34.341  28.534  1.00  0.00    -0.246 OA
BRANCH  26  28
ATOM     28  C   UNL A   1      34.658  32.864  28.307  1.00  0.00     0.060 A 
ATOM     29  C   UNL A   1      34.554  31.677  29.033  1.00  0.00     0.016 A 
ATOM     30  C   UNL A   1      35.902  33.455  28.088  1.00  0.00     0.016 A 
ATOM     31  C   UNL A   1      35.692  31.076  29.558  1.00  0.00     0.010 A 
ATOM     32  C   UNL A   1      37.050  32.848  28.616  1.00  0.00     0.010 A 
ATOM     33  C   UNL A   1      36.950  31.665  29.370  1.00  0.00    -0.014 A 
BRANCH  33  34
ATOM     34  C   UNL A   1      38.130  31.054  30.033  1.00  0.00     0.031 A 
ATOM     35  C   UNL A   1      38.455  31.399  31.460  1.00  0.00     0.074 A 
ATOM     36  C   UNL A   1      38.874  30.145  29.374  1.00  0.00     0.049 A 
ATOM     37  N   UNL A   1      39.431  30.961  32.213  1.00  0.00    -0.248 NA
ATOM     38  C   UNL A   1      37.569  32.367  32.128  1.00  0.00     0.031 C 
ATOM     39  C   UNL A   1      38.657  29.725  27.989  1.00  0.00     0.029 A 
ATOM     40  N   UNL A   1      39.956  29.407  29.782  1.00  0.00    -0.354 N 
ATOM     41  C   UNL A   1      39.308  31.634  33.424  1.00  0.00     0.074 A 
ATOM     42  C   UNL A   1      38.162  32.508  33.305  1.00  0.00     0.031 C 
ATOM     43  C   UNL A   1      39.568  28.792  27.667  1.00  0.00     0.029 A 
ATOM     44  C   UNL A   1      40.450  28.570  28.810  1.00  0.00     0.049 A 
ATOM     45  H   UNL A   1      40.341  29.469  30.686  1.00  0.00     0.167 HD
ATOM     46  C   UNL A   1      40.069  31.518  34.539  1.00  0.00     0.034 A 
ATOM     47  C   UNL A   1      41.497  27.722  28.833  1.00  0.00     0.034 A 
ATOM     48  C   UNL A   1      41.168  30.601  34.678  1.00  0.00     0.049 A 
ATOM     49  C   UNL A   1      42.294  27.579  30.102  1.00  0.00     0.074 A 
ATOM     50  C   UNL A   1      41.980  30.391  35.779  1.00  0.00     0.029 A 
ATOM     51  N   UNL A   1      41.602  29.729  33.691  1.00  0.00    -0.354 N 
ATOM     52  N   UNL A   1      42.114  28.165  31.261  1.00  0.00    -0.248 NA
ATOM     53  C   UNL A   1      43.423  26.636  30.076  1.00  0.00     0.031 C 
ATOM     54  C   UNL A   1      42.906  29.392  35.457  1.00  0.00     0.029 A 
ATOM     55  C   UNL A   1      42.666  28.976  34.157  1.00  0.00     0.049 A 
ATOM     56  H   UNL A   1      41.211  29.657  32.790  1.00  0.00     0.167 HD
ATOM     57  C   UNL A   1      43.091  27.650  32.107  1.00  0.00     0.074 A 
ATOM     58  C   UNL A   1      43.838  26.677  31.334  1.00  0.00     0.031 C 
ATOM     59  C   UNL A   1      43.364  27.973  33.394  1.00  0.00     0.034 A 
BRANCH  46  60
ATOM     60  C   UNL A   1      39.713  32.387  35.715  1.00  0.00     0.023 A 
ATOM     61  C   UNL A   1      40.298  33.663  35.841  1.00  0.00     0.012 A 
ATOM     62  C   UNL A   1      38.768  31.963  36.670  1.00  0.00     0.148 A 
ATOM     63  C   UNL A   1      39.970  34.493  36.913  1.00  0.00     0.002 A 
ATOM     64  C   UNL A   1      38.418  32.811  37.716  1.00  0.00     0.091 A 
ATOM     65  F   UNL A   1      38.242  30.736  36.550  1.00  0.00    -0.205 F 
ATOM     66  C   UNL A   1      39.024  34.072  37.843  1.00  0.00     0.022 A 
BRANCH  64  67
ATOM     67  S   UNL A   1      37.158  32.380  38.922  1.00  0.00     0.127 S 
ATOM     68  O   UNL A   1      37.345  30.936  39.044  1.00  0.00    -0.237 OA
ATOM     69  O   UNL A   1      37.573  33.149  40.097  1.00  0.00    -0.237 OA
ATOM     70  O   UNL A   1      35.891  32.804  38.343  1.00  0.00    -0.744 OA
ENDBRANCH  64  67
ENDBRANCH  46  60
BRANCH  47  71
ATOM     71  C   UNL A   1      41.814  26.901  27.631  1.00  0.00     0.023 A 
ATOM     72  C   UNL A   1      42.470  27.498  26.537  1.00  0.00     0.012 A 
ATOM     73  C   UNL A   1      41.508  25.528  27.580  1.00  0.00     0.148 A 
ATOM     74  C   UNL A   1      42.799  26.746  25.407  1.00  0.00     0.002 A 
ATOM     75  C   UNL A   1      41.889  24.772  26.477  1.00  0.00     0.091 A 
ATOM     76  F   UNL A   1      40.856  24.981  28.617  1.00  0.00    -0.205 F 
ATOM     77  C   UNL A   1      42.520  25.382  25.383  1.00  0.00     0.022 A 
BRANCH  75  78
ATOM     78  S   UNL A   1      41.694  22.986  26.438  1.00  0.00     0.127 S 
ATOM     79  O   UNL A   1      42.376  22.582  27.663  1.00  0.00    -0.237 OA
ATOM     80  O   UNL A   1      40.239  22.833  26.463  1.00  0.00    -0.237 OA
ATOM     81  O   UNL A   1      42.314  22.560  25.189  1.00  0.00    -0.744 OA
ENDBRANCH  75  78
ENDBRANCH  47  71
BRANCH  59  82
ATOM     82  C   UNL A   1      44.515  27.261  34.056  1.00  0.00     0.023 A 
ATOM     83  C   UNL A   1      45.819  27.775  33.916  1.00  0.00     0.012 A 
ATOM     84  C   UNL A   1      44.303  26.121  34.857  1.00  0.00     0.148 A 
ATOM     85  C   UNL A   1      46.900  27.148  34.533  1.00  0.00     0.002 A 
ATOM     86  C   UNL A   1      45.381  25.524  35.502  1.00  0.00     0.091 A 
ATOM     87  F   UNL A   1      43.060  25.629  34.962  1.00  0.00    -0.205 F 
ATOM     88  C   UNL A   1      46.681  26.030  35.334  1.00  0.00     0.022 A 
BRANCH  86  89
ATOM     89  S   UNL A   1      45.159  24.132  36.616  1.00  0.00     0.127 S 
ATOM     90  O   UNL A   1      44.560  23.132  35.733  1.00  0.00    -0.237 OA
ATOM     91  O   UNL A   1      46.530  23.832  37.032  1.00  0.00    -0.237 OA
ATOM     92  O   UNL A   1      44.306  24.626  37.689  1.00  0.00    -0.744 OA
ENDBRANCH  86  89
ENDBRANCH  59  82
ENDBRANCH  33  34
ENDBRANCH  26  28
ENDBRANCH  25  26
ENDBRANCH  24  25
ENDBRANCH   1  24
TORSDOF 20
ENDMDL
MODEL 2
REMARK VINA RESULT:     -10.8      5.166     10.631
REMARK SMILES CC(C)[C@@H](CCNC(=O)N1C[C@@H](C)[C@H](C)C1)CCC(=O)OCCOC(=O)c1ccc(-c2c3nc(c(-c4cccc(S(=O)(=O)[O-])c4F)c4ccc([nH]4)c(-c4cccc(S(=O)(=O)[O-])c4F)c4nc(c(-c5cccc(S(=O)(=O)[O-])c5F)c5ccc2[nH]5)C=C4)C=C3)cc1
REMARK SMILES IDX 22 1 21 2 19 3 20 4 18 5 17 6 4 7 2 8 1 9 3 10 5 11 6 12
REMARK SMILES IDX 7 13 8 14 9 16 10 17 11 18 16 19 12 20 14 21 13 22 15 23
REMARK SMILES IDX 23 24 24 25 25 26 26 27 27 28 28 29 89 30 29 31 88 32 30 33
REMARK SMILES IDX 31 34 32 35 82 36 33 37 87 38 81 39 83 40 34 41 86 42 80 43
REMARK SMILES IDX 79 44 35 46 67 47 47 48 66 49 48 50 51 51 65 52 84 53 49 54
REMARK SMILES IDX 50 55 64 57 85 58 52 59 36 60 37 61 45 62 38 63 40 64 46 65
REMARK SMILES IDX 39 66 41 67 42 68 43 69 44 70 68 71 69 72 77 73 70 74 72 75
REMARK SMILES IDX 78 76 71 77 73 78 74 79 75 80 76 81 53 82 54 83 62 84 55 85
REMARK SMILES IDX 57 86 63 87 56 88 58 89 59 90 60 91 61 92
REMARK H PARENT 7 15 83 45 51 56
REMARK Flexibility Score: inf
ROOT
ATOM      1  C   UNL A   1      36.963  20.512  24.933  1.00  0.00     0.274 C 
ENDROOT
BRANCH   1   2
ATOM      2  O   UNL A   1      36.817  21.928  25.156  1.00  0.00    -0.462 OA
BRANCH   2   3
ATOM      3  C   UNL A   1      36.400  22.669  24.105  1.00  0.00     0.305 C 
ATOM      4  O   UNL A   1      36.815  22.543  22.958  1.00  0.00    -0.252 OA
BRANCH   3   5
ATOM      5  C   UNL A   1      35.386  23.735  24.463  1.00  0.00     0.123 C 
BRANCH   5   6
ATOM      6  C   UNL A   1      33.944  23.345  24.806  1.00  0.00     0.015 C 
BRANCH   6   7
ATOM      7  C   UNL A   1      33.326  22.040  24.242  1.00  0.00    -0.006 C 
BRANCH   7   8
ATOM      8  C   UNL A   1      33.027  20.909  25.281  1.00  0.00    -0.014 C 
ATOM      9  C   UNL A   1      33.489  19.539  24.759  1.00  0.00     0.007 C 
ATOM     10  C   UNL A   1      33.684  21.124  26.648  1.00  0.00     0.007 C 
ENDBRANCH   7   8
BRANCH   7  11
ATOM     11  C   UNL A   1      32.079  22.401  23.368  1.00  0.00     0.025 C 
BRANCH  11  12
ATOM     12  C   UNL A   1      31.528  23.834  23.460  1.00  0.00     0.118 C 
BRANCH  12  13
ATOM     13  N   UNL A   1      30.540  23.987  24.511  1.00  0.00    -0.338 N 
ATOM     14  C   UNL A   1      30.653  24.753  25.626  1.00  0.00     0.317 C 
ATOM     15  H   UNL A   1      29.700  23.484  24.404  1.00  0.00     0.165 HD
ATOM     16  O   UNL A   1      30.194  24.316  26.679  1.00  0.00    -0.249 OA
ATOM     17  N   UNL A   1      31.261  25.973  25.525  1.00  0.00    -0.324 N 
ATOM     18  C   UNL A   1      31.728  26.658  26.716  1.00  0.00     0.125 C 
ATOM     19  C   UNL A   1      31.050  26.902  24.426  1.00  0.00     0.125 C 
ATOM     20  C   UNL A   1      31.540  28.146  26.432  1.00  0.00     0.010 C 
ATOM     21  C   UNL A   1      31.638  28.233  24.900  1.00  0.00     0.010 C 
ATOM     22  C   UNL A   1      32.576  29.003  27.147  1.00  0.00     0.010 C 
ATOM     23  C   UNL A   1      30.890  29.431  24.329  1.00  0.00     0.010 C 
ENDBRANCH  12  13
ENDBRANCH  11  12
ENDBRANCH   7  11
ENDBRANCH   6   7
ENDBRANCH   5   6
ENDBRANCH   3   5
ENDBRANCH   2   3
ENDBRANCH   1   2
BRANCH   1  24
ATOM     24  C   UNL A   1      38.375  20.043  25.285  1.00  0.00     0.275 C 
BRANCH  24  25
ATOM     25  O   UNL A   1      39.235  21.161  25.565  1.00  0.00    -0.458 OA
BRANCH  25  26
ATOM     26  C   UNL A   1      40.046  20.989  26.637  1.00  0.00     0.338 C 
ATOM     27  O   UNL A   1      40.514  19.941  27.044  1.00  0.00    -0.246 OA
BRANCH  26  28
ATOM     28  C   UNL A   1      40.445  22.302  27.165  1.00  0.00     0.060 A 
ATOM     29  C   UNL A   1      39.922  23.428  26.526  1.00  0.00     0.016 A 
ATOM     30  C   UNL A   1      41.370  22.439  28.200  1.00  0.00     0.016 A 
ATOM     31  C   UNL A   1      40.331  24.700  26.907  1.00  0.00     0.010 A 
ATOM     32  C   UNL A   1      41.780  23.723  28.585  1.00  0.00     0.010 A 
ATOM     33  C   UNL A   1      41.277  24.861  27.928  1.00  0.00    -0.014 A 
BRANCH  33  34
ATOM     34  C   UNL A   1      41.769  26.228  28.238  1.00  0.00     0.031 A 
ATOM     35  C   UNL A   1      43.149  26.646  27.811  1.00  0.00     0.074 A 
ATOM     36  C   UNL A   1      40.955  27.111  28.846  1.00  0.00     0.049 A 
ATOM     37  N   UNL A   1      43.751  27.796  27.978  1.00  0.00    -0.248 NA
ATOM     38  C   UNL A   1      43.963  25.638  27.112  1.00  0.00     0.031 C 
ATOM     39  C   UNL A   1      39.595  26.827  29.304  1.00  0.00     0.029 A 
ATOM     40  N   UNL A   1      41.150  28.428  29.178  1.00  0.00    -0.354 N 
ATOM     41  C   UNL A   1      45.027  27.637  27.449  1.00  0.00     0.074 A 
ATOM     42  C   UNL A   1      45.112  26.280  26.956  1.00  0.00     0.031 C 
ATOM     43  C   UNL A   1      39.072  27.939  29.843  1.00  0.00     0.029 A 
ATOM     44  C   UNL A   1      40.069  29.007  29.798  1.00  0.00     0.049 A 
ATOM     45  H   UNL A   1      41.987  28.914  28.990  1.00  0.00     0.167 HD
ATOM     46  C   UNL A   1      46.029  28.545  27.364  1.00  0.00     0.034 A 
ATOM     47  C   UNL A   1      39.898  30.254  30.278  1.00  0.00     0.034 A 
ATOM     48  C   UNL A   1      45.921  29.913  27.796  1.00  0.00     0.049 A 
ATOM     49  C   UNL A   1      41.011  31.256  30.126  1.00  0.00     0.074 A 
ATOM     50  C   UNL A   1      46.871  30.916  27.725  1.00  0.00     0.029 A 
ATOM     51  N   UNL A   1      44.789  30.476  28.365  1.00  0.00    -0.354 N 
ATOM     52  N   UNL A   1      42.181  31.110  29.552  1.00  0.00    -0.248 NA
ATOM     53  C   UNL A   1      40.770  32.605  30.662  1.00  0.00     0.031 C 
ATOM     54  C   UNL A   1      46.315  32.087  28.252  1.00  0.00     0.029 A 
ATOM     55  C   UNL A   1      45.015  31.814  28.646  1.00  0.00     0.049 A 
ATOM     56  H   UNL A   1      43.949  29.996  28.545  1.00  0.00     0.167 HD
ATOM     57  C   UNL A   1      42.808  32.347  29.640  1.00  0.00     0.074 A 
ATOM     58  C   UNL A   1      41.872  33.242  30.292  1.00  0.00     0.031 C 
ATOM     59  C   UNL A   1      44.054  32.705  29.246  1.00  0.00     0.034 A 
BRANCH  46  60
ATOM     60  C   UNL A   1      47.325  28.093  26.748  1.00  0.00     0.023 A 
ATOM     61  C   UNL A   1      48.404  27.734  27.580  1.00  0.00     0.012 A 
ATOM     62  C   UNL A   1      47.462  27.979  25.350  1.00  0.00     0.148 A 
ATOM     63  C   UNL A   1      49.609  27.296  27.031  1.00  0.00     0.002 A 
ATOM     64  C   UNL A   1      48.654  27.505  24.811  1.00  0.00     0.091 A 
ATOM     65  F   UNL A   1      46.436  28.351  24.573  1.00  0.00    -0.205 F 
ATOM     66  C   UNL A   1      49.731  27.171  25.650  1.00  0.00     0.022 A 
BRANCH  64  67
ATOM     67  S   UNL A   1      48.877  27.248  23.047  1.00  0.00     0.127 S 
ATOM     68  O   UNL A   1      50.331  27.300  22.921  1.00  0.00    -0.237 OA
ATOM     69  O   UNL A   1      48.296  25.919  22.849  1.00  0.00    -0.237 OA
ATOM     70  O   UNL A   1      48.148  28.326  22.393  1.00  0.00    -0.744 OA
ENDBRANCH  64  67
ENDBRANCH  46  60
BRANCH  47  71
ATOM     71  C   UNL A   1      38.597  30.639  30.897  1.00  0.00     0.023 A 
ATOM     72  C   UNL A   1      38.398  30.434  32.275  1.00  0.00     0.012 A 
ATOM     73  C   UNL A   1      37.576  31.244  30.139  1.00  0.00     0.148 A 
ATOM     74  C   UNL A   1      37.198  30.806  32.884  1.00  0.00     0.002 A 
ATOM     75  C   UNL A   1      36.407  31.665  30.762  1.00  0.00     0.091 A 
ATOM     76  F   UNL A   1      37.770  31.406  28.822  1.00  0.00    -0.205 F 
ATOM     77  C   UNL A   1      36.209  31.433  32.131  1.00  0.00     0.022 A 
BRANCH  75  78
ATOM     78  S   UNL A   1      35.153  32.608  29.887  1.00  0.00     0.127 S 
ATOM     79  O   UNL A   1      34.208  32.917  30.956  1.00  0.00    -0.237 OA
ATOM     80  O   UNL A   1      35.917  33.753  29.390  1.00  0.00    -0.237 OA
ATOM     81  O   UNL A   1      34.666  31.720  28.839  1.00  0.00    -0.744 OA
ENDBRANCH  75  78
ENDBRANCH  47  71
BRANCH  59  82
ATOM     82  C   UNL A   1      44.478  34.128  29.498  1.00  0.00     0.023 A 
ATOM     83  C   UNL A   1      44.973  34.487  30.767  1.00  0.00     0.012 A 
ATOM     84  C   UNL A   1      44.439  35.093  28.472  1.00  0.00     0.148 A 
ATOM     85  C   UNL A   1      45.391  35.793  31.023  1.00  0.00     0.002 A 
ATOM     86  C   UNL A   1      44.894  36.383  28.723  1.00  0.00     0.091 A 
ATOM     87  F   UNL A   1      43.943  34.742  27.277  1.00  0.00    -0.205 F 
ATOM     88  C   UNL A   1      45.361  36.737  30.000  1.00  0.00     0.022 A 
BRANCH  86  89
ATOM     89  S   UNL A   1      44.963  37.627  27.428  1.00  0.00     0.127 S 
ATOM     90  O   UNL A   1      43.573  37.672  26.979  1.00  0.00    -0.237 OA
ATOM     91  O   UNL A   1      45.407  38.819  28.152  1.00  0.00    -0.237 OA
ATOM     92  O   UNL A   1      45.928  37.124  26.460  1.00  0.00    -0.744 OA
ENDBRANCH  86  89
ENDBRANCH  59  82
ENDBRANCH  33  34
ENDBRANCH  26  28
ENDBRANCH  25  26
ENDBRANCH  24  25
ENDBRANCH   1  24
TORSDOF 20
ENDMDL
MODEL 3
REMARK VINA RESULT:     -10.7      5.116     10.411
REMARK SMILES CC(C)[C@@H](CCNC(=O)N1C[C@@H](C)[C@H](C)C1)CCC(=O)OCCOC(=O)c1ccc(-c2c3nc(c(-c4cccc(S(=O)(=O)[O-])c4F)c4ccc([nH]4)c(-c4cccc(S(=O)(=O)[O-])c4F)c4nc(c(-c5cccc(S(=O)(=O)[O-])c5F)c5ccc2[nH]5)C=C4)C=C3)cc1
REMARK SMILES IDX 22 1 21 2 19 3 20 4 18 5 17 6 4 7 2 8 1 9 3 10 5 11 6 12
REMARK SMILES IDX 7 13 8 14 9 16 10 17 11 18 16 19 12 20 14 21 13 22 15 23
REMARK SMILES IDX 23 24 24 25 25 26 26 27 27 28 28 29 89 30 29 31 88 32 30 33
REMARK SMILES IDX 31 34 32 35 82 36 33 37 87 38 81 39 83 40 34 41 86 42 80 43
REMARK SMILES IDX 79 44 35 46 67 47 47 48 66 49 48 50 51 51 65 52 84 53 49 54
REMARK SMILES IDX 50 55 64 57 85 58 52 59 36 60 37 61 45 62 38 63 40 64 46 65
REMARK SMILES IDX 39 66 41 67 42 68 43 69 44 70 68 71 69 72 77 73 70 74 72 75
REMARK SMILES IDX 78 76 71 77 73 78 74 79 75 80 76 81 53 82 54 83 62 84 55 85
REMARK SMILES IDX 57 86 63 87 56 88 58 89 59 90 60 91 61 92
REMARK H PARENT 7 15 83 45 51 56
REMARK Flexibility Score: inf
ROOT
ATOM      1  C   UNL A   1      36.275  20.360  25.009  1.00  0.00     0.274 C 
ENDROOT
BRANCH   1   2
ATOM      2  O   UNL A   1      36.140  21.440  25.954  1.00  0.00    -0.462 OA
BRANCH   2   3
ATOM      3  C   UNL A   1      35.769  22.641  25.456  1.00  0.00     0.305 C 
ATOM      4  O   UNL A   1      36.193  23.120  24.410  1.00  0.00    -0.252 OA
BRANCH   3   5
ATOM      5  C   UNL A   1      34.798  23.401  26.334  1.00  0.00     0.123 C 
BRANCH   5   6
ATOM      6  C   UNL A   1      33.339  22.943  26.448  1.00  0.00     0.015 C 
BRANCH   6   7
ATOM      7  C   UNL A   1      32.253  23.534  25.512  1.00  0.00    -0.006 C 
BRANCH   7   8
ATOM      8  C   UNL A   1      32.031  22.791  24.153  1.00  0.00    -0.014 C 
ATOM      9  C   UNL A   1      32.865  23.430  23.030  1.00  0.00     0.007 C 
ATOM     10  C   UNL A   1      32.377  21.300  24.190  1.00  0.00     0.007 C 
ENDBRANCH   7   8
BRANCH   7  11
ATOM     11  C   UNL A   1      30.927  23.719  26.322  1.00  0.00     0.025 C 
BRANCH  11  12
ATOM     12  C   UNL A   1      30.011  24.894  25.941  1.00  0.00     0.118 C 
BRANCH  12  13
ATOM     13  N   UNL A   1      30.293  26.095  26.705  1.00  0.00    -0.338 N 
ATOM     14  C   UNL A   1      31.319  26.961  26.505  1.00  0.00     0.317 C 
ATOM     15  H   UNL A   1      29.677  26.302  27.444  1.00  0.00     0.165 HD
ATOM     16  O   UNL A   1      31.868  27.448  27.491  1.00  0.00    -0.249 OA
ATOM     17  N   UNL A   1      31.687  27.257  25.222  1.00  0.00    -0.324 N 
ATOM     18  C   UNL A   1      32.975  27.871  24.954  1.00  0.00     0.125 C 
ATOM     19  C   UNL A   1      30.747  27.499  24.139  1.00  0.00     0.125 C 
ATOM     20  C   UNL A   1      32.749  28.785  23.753  1.00  0.00     0.010 C 
ATOM     21  C   UNL A   1      31.576  28.122  23.012  1.00  0.00     0.010 C 
ATOM     22  C   UNL A   1      33.998  28.920  22.891  1.00  0.00     0.010 C 
ATOM     23  C   UNL A   1      30.769  29.110  22.181  1.00  0.00     0.010 C 
ENDBRANCH  12  13
ENDBRANCH  11  12
ENDBRANCH   7  11
ENDBRANCH   6   7
ENDBRANCH   5   6
ENDBRANCH   3   5
ENDBRANCH   2   3
ENDBRANCH   1   2
BRANCH   1  24
ATOM     24  C   UNL A   1      37.704  19.815  24.998  1.00  0.00     0.275 C 
BRANCH  24  25
ATOM     25  O   UNL A   1      38.661  20.872  25.183  1.00  0.00    -0.458 OA
BRANCH  25  26
ATOM     26  C   UNL A   1      39.594  20.624  26.133  1.00  0.00     0.338 C 
ATOM     27  O   UNL A   1      40.098  19.548  26.405  1.00  0.00    -0.246 OA
BRANCH  26  28
ATOM     28  C   UNL A   1      40.067  21.895  26.701  1.00  0.00     0.060 A 
ATOM     29  C   UNL A   1      39.565  23.068  26.135  1.00  0.00     0.016 A 
ATOM     30  C   UNL A   1      41.039  21.950  27.700  1.00  0.00     0.016 A 
ATOM     31  C   UNL A   1      40.039  24.305  26.553  1.00  0.00     0.010 A 
ATOM     32  C   UNL A   1      41.517  23.198  28.122  1.00  0.00     0.010 A 
ATOM     33  C   UNL A   1      41.033  24.383  27.539  1.00  0.00    -0.014 A 
BRANCH  33  34
ATOM     34  C   UNL A   1      41.592  25.715  27.886  1.00  0.00     0.031 A 
ATOM     35  C   UNL A   1      42.982  26.086  27.447  1.00  0.00     0.074 A 
ATOM     36  C   UNL A   1      40.830  26.611  28.542  1.00  0.00     0.049 A 
ATOM     37  N   UNL A   1      43.638  27.201  27.642  1.00  0.00    -0.248 NA
ATOM     38  C   UNL A   1      43.735  25.068  26.696  1.00  0.00     0.031 C 
ATOM     39  C   UNL A   1      39.468  26.371  29.017  1.00  0.00     0.029 A 
ATOM     40  N   UNL A   1      41.091  27.905  28.916  1.00  0.00    -0.354 N 
ATOM     41  C   UNL A   1      44.895  27.004  27.082  1.00  0.00     0.074 A 
ATOM     42  C   UNL A   1      44.909  25.663  26.539  1.00  0.00     0.031 C 
ATOM     43  C   UNL A   1      39.006  27.485  29.606  1.00  0.00     0.029 A 
ATOM     44  C   UNL A   1      40.049  28.508  29.578  1.00  0.00     0.049 A 
ATOM     45  H   UNL A   1      41.945  28.359  28.728  1.00  0.00     0.167 HD
ATOM     46  C   UNL A   1      45.935  27.869  27.009  1.00  0.00     0.034 A 
ATOM     47  C   UNL A   1      39.944  29.744  30.106  1.00  0.00     0.034 A 
ATOM     48  C   UNL A   1      45.898  29.224  27.491  1.00  0.00     0.049 A 
ATOM     49  C   UNL A   1      41.098  30.700  29.966  1.00  0.00     0.074 A 
ATOM     50  C   UNL A   1      46.891  30.186  27.436  1.00  0.00     0.029 A 
ATOM     51  N   UNL A   1      44.803  29.817  28.103  1.00  0.00    -0.354 N 
ATOM     52  N   UNL A   1      42.249  30.522  29.364  1.00  0.00    -0.248 NA
ATOM     53  C   UNL A   1      40.929  32.037  30.554  1.00  0.00     0.031 C 
ATOM     54  C   UNL A   1      46.398  31.361  28.015  1.00  0.00     0.029 A 
ATOM     55  C   UNL A   1      45.094  31.131  28.426  1.00  0.00     0.049 A 
ATOM     56  H   UNL A   1      43.946  29.368  28.282  1.00  0.00     0.167 HD
ATOM     57  C   UNL A   1      42.933  31.727  29.483  1.00  0.00     0.074 A 
ATOM     58  C   UNL A   1      42.051  32.638  30.185  1.00  0.00     0.031 C 
ATOM     59  C   UNL A   1      44.187  32.042  29.076  1.00  0.00     0.034 A 
BRANCH  46  60
ATOM     60  C   UNL A   1      47.198  27.383  26.350  1.00  0.00     0.023 A 
ATOM     61  C   UNL A   1      47.465  27.732  25.012  1.00  0.00     0.012 A 
ATOM     62  C   UNL A   1      48.143  26.622  27.068  1.00  0.00     0.148 A 
ATOM     63  C   UNL A   1      48.637  27.308  24.387  1.00  0.00     0.002 A 
ATOM     64  C   UNL A   1      49.327  26.235  26.450  1.00  0.00     0.091 A 
ATOM     65  F   UNL A   1      47.860  26.276  28.331  1.00  0.00    -0.205 F 
ATOM     66  C   UNL A   1      49.572  26.570  25.108  1.00  0.00     0.022 A 
BRANCH  64  67
ATOM     67  S   UNL A   1      50.619  25.341  27.322  1.00  0.00     0.127 S 
ATOM     68  O   UNL A   1      51.040  26.323  28.318  1.00  0.00    -0.237 OA
ATOM     69  O   UNL A   1      49.891  24.194  27.869  1.00  0.00    -0.237 OA
ATOM     70  O   UNL A   1      51.613  24.997  26.316  1.00  0.00    -0.744 OA
ENDBRANCH  64  67
ENDBRANCH  46  60
BRANCH  47  71
ATOM     71  C   UNL A   1      38.674  30.163  30.764  1.00  0.00     0.023 A 
ATOM     72  C   UNL A   1      38.483  29.898  32.133  1.00  0.00     0.012 A 
ATOM     73  C   UNL A   1      37.676  30.859  30.055  1.00  0.00     0.148 A 
ATOM     74  C   UNL A   1      37.312  30.300  32.780  1.00  0.00     0.002 A 
ATOM     75  C   UNL A   1      36.539  31.308  30.717  1.00  0.00     0.091 A 
ATOM     76  F   UNL A   1      37.860  31.078  28.744  1.00  0.00    -0.205 F 
ATOM     77  C   UNL A   1      36.348  31.016  32.075  1.00  0.00     0.022 A 
BRANCH  75  78
ATOM     78  S   UNL A   1      35.325  32.359  29.911  1.00  0.00     0.127 S 
ATOM     79  O   UNL A   1      36.146  33.482  29.469  1.00  0.00    -0.237 OA
ATOM     80  O   UNL A   1      34.833  31.495  28.836  1.00  0.00    -0.237 OA
ATOM     81  O   UNL A   1      34.332  32.654  30.936  1.00  0.00    -0.744 OA
ENDBRANCH  75  78
ENDBRANCH  47  71
BRANCH  59  82
ATOM     82  C   UNL A   1      44.679  33.435  29.369  1.00  0.00     0.023 A 
ATOM     83  C   UNL A   1      45.309  33.700  30.601  1.00  0.00     0.012 A 
ATOM     84  C   UNL A   1      44.570  34.464  28.413  1.00  0.00     0.148 A 
ATOM     85  C   UNL A   1      45.792  34.975  30.893  1.00  0.00     0.002 A 
ATOM     86  C   UNL A   1      45.089  35.723  28.695  1.00  0.00     0.091 A 
ATOM     87  F   UNL A   1      43.947  34.202  27.255  1.00  0.00    -0.205 F 
ATOM     88  C   UNL A   1      45.691  35.983  29.937  1.00  0.00     0.022 A 
BRANCH  86  89
ATOM     89  S   UNL A   1      45.070  37.044  27.477  1.00  0.00     0.127 S 
ATOM     90  O   UNL A   1      45.628  38.162  28.236  1.00  0.00    -0.237 OA
ATOM     91  O   UNL A   1      45.946  36.524  26.426  1.00  0.00    -0.237 OA
ATOM     92  O   UNL A   1      43.675  37.180  27.076  1.00  0.00    -0.744 OA
ENDBRANCH  86  89
ENDBRANCH  59  82
ENDBRANCH  33  34
ENDBRANCH  26  28
ENDBRANCH  25  26
ENDBRANCH  24  25
ENDBRANCH   1  24
TORSDOF 20
ENDMDL
