MODEL 1
REMARK VINA RESULT:     -11.2      0.000      0.000
REMARK SMILES Cc1cc(N(C)C(C)C)cc(C(=O)OCCOC(=O)c2ccc(-c3c4nc(c(-c5cccc(S(=O)(=O)[O-])c5F)c5ccc([nH]5)c(-c5cccc(S(=O)(=O)[O-])c5F)c5nc(c(-c6cccc(S(=O)(=O)[O-])c6F)c6ccc3[nH]6)C=C5)C=C4)cc2)c1N
REMARK SMILES IDX 16 1 15 2 14 3 12 4 13 5 11 6 1 7 2 8 3 9 83 10 4 11 10 12
REMARK SMILES IDX 84 13 5 16 6 17 7 18 8 19 9 20 17 21 18 22 19 23 20 24 21 25
REMARK SMILES IDX 82 26 22 27 81 28 23 29 24 30 25 31 75 32 26 33 80 34 74 35
REMARK SMILES IDX 76 36 27 37 79 38 73 39 72 40 28 42 60 43 40 44 59 45 41 46
REMARK SMILES IDX 44 47 58 48 77 49 42 50 43 51 57 53 78 54 45 55 29 56 30 57
REMARK SMILES IDX 38 58 31 59 33 60 39 61 32 62 34 63 35 64 36 65 37 66 61 67
REMARK SMILES IDX 62 68 70 69 63 70 65 71 71 72 64 73 66 74 67 75 68 76 69 77
REMARK SMILES IDX 46 78 47 79 55 80 48 81 50 82 56 83 49 84 51 85 52 86 53 87
REMARK SMILES IDX 54 88
REMARK H PARENT 84 14 84 15 76 41 44 52
REMARK Flexibility Score: inf
ROOT
ATOM      1  C   UNL A   1      35.710  20.584  25.029  1.00  0.00     0.275 C 
ENDROOT
BRANCH   1   2
ATOM      2  C   UNL A   1      34.258  21.009  25.251  1.00  0.00     0.275 C 
BRANCH   2   3
ATOM      3  O   UNL A   1      34.121  22.435  25.068  1.00  0.00    -0.458 OA
BRANCH   3   4
ATOM      4  C   UNL A   1      32.871  22.886  24.776  1.00  0.00     0.340 C 
ATOM      5  O   UNL A   1      31.820  22.346  25.088  1.00  0.00    -0.246 OA
BRANCH   4   6
ATOM      6  C   UNL A   1      32.948  24.201  24.084  1.00  0.00     0.085 A 
ATOM      7  C   UNL A   1      32.626  25.661  20.594  1.00  0.00     0.047 C 
ATOM      8  C   UNL A   1      32.842  25.510  22.077  1.00  0.00    -0.025 A 
ATOM      9  C   UNL A   1      32.895  26.673  22.875  1.00  0.00     0.031 A 
ATOM     10  C   UNL A   1      32.976  24.254  22.679  1.00  0.00     0.049 A 
ATOM     11  C   UNL A   1      33.070  26.659  24.267  1.00  0.00     0.038 A 
ATOM     12  C   UNL A   1      33.026  25.383  24.851  1.00  0.00     0.043 A 
BRANCH  10  13
ATOM     13  N   UNL A   1      32.990  23.103  21.896  1.00  0.00    -0.398 N 
ATOM     14  H   UNL A   1      32.743  23.151  20.944  1.00  0.00     0.156 HD
ATOM     15  H   UNL A   1      33.247  22.240  22.295  1.00  0.00     0.156 HD
ENDBRANCH  10  13
BRANCH  11  16
ATOM     16  N   UNL A   1      33.256  27.821  25.013  1.00  0.00    -0.372 N 
ATOM     17  C   UNL A   1      33.015  29.123  24.386  1.00  0.00     0.144 C 
BRANCH  16  18
ATOM     18  C   UNL A   1      33.390  27.862  26.492  1.00  0.00     0.075 C 
ATOM     19  C   UNL A   1      34.513  28.778  26.983  1.00  0.00     0.030 C 
ATOM     20  C   UNL A   1      32.050  28.081  27.192  1.00  0.00     0.030 C 
ENDBRANCH  16  18
ENDBRANCH  11  16
ENDBRANCH   4   6
ENDBRANCH   3   4
ENDBRANCH   2   3
ENDBRANCH   1   2
BRANCH   1  21
ATOM     21  O   UNL A   1      36.566  21.471  25.760  1.00  0.00    -0.458 OA
BRANCH  21  22
ATOM     22  C   UNL A   1      37.899  21.243  25.648  1.00  0.00     0.338 C 
ATOM     23  O   UNL A   1      38.425  20.264  25.148  1.00  0.00    -0.246 OA
BRANCH  22  24
ATOM     24  C   UNL A   1      38.645  22.392  26.225  1.00  0.00     0.060 A 
ATOM     25  C   UNL A   1      38.181  23.695  26.049  1.00  0.00     0.016 A 
ATOM     26  C   UNL A   1      39.852  22.185  26.892  1.00  0.00     0.016 A 
ATOM     27  C   UNL A   1      38.938  24.786  26.478  1.00  0.00     0.010 A 
ATOM     28  C   UNL A   1      40.570  23.282  27.398  1.00  0.00     0.010 A 
ATOM     29  C   UNL A   1      40.140  24.603  27.172  1.00  0.00    -0.014 A 
BRANCH  29  30
ATOM     30  C   UNL A   1      40.970  25.775  27.597  1.00  0.00     0.031 A 
ATOM     31  C   UNL A   1      40.375  26.831  28.498  1.00  0.00     0.074 A 
ATOM     32  C   UNL A   1      42.254  25.918  27.201  1.00  0.00     0.049 A 
ATOM     33  N   UNL A   1      40.826  28.026  28.783  1.00  0.00    -0.248 NA
ATOM     34  C   UNL A   1      39.095  26.506  29.148  1.00  0.00     0.031 C 
ATOM     35  C   UNL A   1      42.995  24.980  26.357  1.00  0.00     0.029 A 
ATOM     36  N   UNL A   1      43.167  26.918  27.457  1.00  0.00    -0.354 N 
ATOM     37  C   UNL A   1      39.836  28.634  29.549  1.00  0.00     0.074 A 
ATOM     38  C   UNL A   1      38.775  27.662  29.712  1.00  0.00     0.031 C 
ATOM     39  C   UNL A   1      44.252  25.422  26.202  1.00  0.00     0.029 A 
ATOM     40  C   UNL A   1      44.388  26.722  26.850  1.00  0.00     0.049 A 
ATOM     41  H   UNL A   1      42.966  27.698  28.023  1.00  0.00     0.167 HD
ATOM     42  C   UNL A   1      39.812  29.882  30.073  1.00  0.00     0.034 A 
ATOM     43  C   UNL A   1      45.480  27.512  26.779  1.00  0.00     0.034 A 
ATOM     44  C   UNL A   1      40.913  30.807  30.019  1.00  0.00     0.049 A 
ATOM     45  C   UNL A   1      45.454  28.872  27.423  1.00  0.00     0.074 A 
ATOM     46  C   UNL A   1      40.985  32.089  30.540  1.00  0.00     0.029 A 
ATOM     47  N   UNL A   1      42.145  30.540  29.446  1.00  0.00    -0.354 N 
ATOM     48  N   UNL A   1      44.500  29.435  28.122  1.00  0.00    -0.248 NA
ATOM     49  C   UNL A   1      46.654  29.708  27.262  1.00  0.00     0.031 C 
ATOM     50  C   UNL A   1      42.268  32.591  30.294  1.00  0.00     0.029 A 
ATOM     51  C   UNL A   1      42.992  31.622  29.620  1.00  0.00     0.049 A 
ATOM     52  H   UNL A   1      42.383  29.704  28.984  1.00  0.00     0.167 HD
ATOM     53  C   UNL A   1      44.983  30.688  28.486  1.00  0.00     0.074 A 
ATOM     54  C   UNL A   1      46.331  30.784  27.969  1.00  0.00     0.031 C 
ATOM     55  C   UNL A   1      44.352  31.684  29.155  1.00  0.00     0.034 A 
BRANCH  42  56
ATOM     56  C   UNL A   1      38.561  30.324  30.783  1.00  0.00     0.023 A 
ATOM     57  C   UNL A   1      38.421  30.098  32.166  1.00  0.00     0.012 A 
ATOM     58  C   UNL A   1      37.555  31.029  30.091  1.00  0.00     0.148 A 
ATOM     59  C   UNL A   1      37.290  30.547  32.846  1.00  0.00     0.002 A 
ATOM     60  C   UNL A   1      36.449  31.509  30.783  1.00  0.00     0.091 A 
ATOM     61  F   UNL A   1      37.696  31.214  28.771  1.00  0.00    -0.205 F 
ATOM     62  C   UNL A   1      36.310  31.261  32.158  1.00  0.00     0.022 A 
BRANCH  60  63
ATOM     63  S   UNL A   1      35.179  32.509  29.999  1.00  0.00     0.127 S 
ATOM     64  O   UNL A   1      34.261  32.746  31.112  1.00  0.00    -0.237 OA
ATOM     65  O   UNL A   1      35.931  33.687  29.569  1.00  0.00    -0.237 OA
ATOM     66  O   UNL A   1      34.650  31.699  28.910  1.00  0.00    -0.744 OA
ENDBRANCH  60  63
ENDBRANCH  42  56
BRANCH  43  67
ATOM     67  C   UNL A   1      46.700  27.031  26.067  1.00  0.00     0.023 A 
ATOM     68  C   UNL A   1      46.819  27.236  24.678  1.00  0.00     0.012 A 
ATOM     69  C   UNL A   1      47.760  26.412  26.758  1.00  0.00     0.148 A 
ATOM     70  C   UNL A   1      47.963  26.826  23.992  1.00  0.00     0.002 A 
ATOM     71  C   UNL A   1      48.926  26.072  26.082  1.00  0.00     0.091 A 
ATOM     72  F   UNL A   1      47.619  26.182  28.071  1.00  0.00    -0.205 F 
ATOM     73  C   UNL A   1      49.025  26.262  24.696  1.00  0.00     0.022 A 
BRANCH  71  74
ATOM     74  S   UNL A   1      50.386  25.512  26.966  1.00  0.00     0.127 S 
ATOM     75  O   UNL A   1      50.643  26.630  27.867  1.00  0.00    -0.237 OA
ATOM     76  O   UNL A   1      49.908  24.291  27.619  1.00  0.00    -0.237 OA
ATOM     77  O   UNL A   1      51.382  25.275  25.929  1.00  0.00    -0.744 OA
ENDBRANCH  71  74
ENDBRANCH  43  67
BRANCH  55  78
ATOM     78  C   UNL A   1      45.112  32.963  29.381  1.00  0.00     0.023 A 
ATOM     79  C   UNL A   1      45.915  33.091  30.532  1.00  0.00     0.012 A 
ATOM     80  C   UNL A   1      45.087  34.003  28.434  1.00  0.00     0.148 A 
ATOM     81  C   UNL A   1      46.664  34.247  30.747  1.00  0.00     0.002 A 
ATOM     82  C   UNL A   1      45.865  35.138  28.636  1.00  0.00     0.091 A 
ATOM     83  F   UNL A   1      44.300  33.870  27.357  1.00  0.00    -0.205 F 
ATOM     84  C   UNL A   1      46.647  35.265  29.796  1.00  0.00     0.022 A 
BRANCH  82  85
ATOM     85  S   UNL A   1      45.960  36.461  27.425  1.00  0.00     0.127 S 
ATOM     86  O   UNL A   1      46.818  37.429  28.106  1.00  0.00    -0.237 OA
ATOM     87  O   UNL A   1      46.580  35.796  26.279  1.00  0.00    -0.237 OA
ATOM     88  O   UNL A   1      44.584  36.888  27.198  1.00  0.00    -0.744 OA
ENDBRANCH  82  85
ENDBRANCH  55  78
ENDBRANCH  29  30
ENDBRANCH  22  24
ENDBRANCH  21  22
ENDBRANCH   1  21
TORSDOF 17
ENDMDL
MODEL 2
REMARK VINA RESULT:     -11.0      1.393      1.690
REMARK SMILES Cc1cc(N(C)C(C)C)cc(C(=O)OCCOC(=O)c2ccc(-c3c4nc(c(-c5cccc(S(=O)(=O)[O-])c5F)c5ccc([nH]5)c(-c5cccc(S(=O)(=O)[O-])c5F)c5nc(c(-c6cccc(S(=O)(=O)[O-])c6F)c6ccc3[nH]6)C=C5)C=C4)cc2)c1N
REMARK SMILES IDX 16 1 15 2 14 3 12 4 13 5 11 6 1 7 2 8 3 9 83 10 4 11 10 12
REMARK SMILES IDX 84 13 5 16 6 17 7 18 8 19 9 20 17 21 18 22 19 23 20 24 21 25
REMARK SMILES IDX 82 26 22 27 81 28 23 29 24 30 25 31 75 32 26 33 80 34 74 35
REMARK SMILES IDX 76 36 27 37 79 38 73 39 72 40 28 42 60 43 40 44 59 45 41 46
REMARK SMILES IDX 44 47 58 48 77 49 42 50 43 51 57 53 78 54 45 55 29 56 30 57
REMARK SMILES IDX 38 58 31 59 33 60 39 61 32 62 34 63 35 64 36 65 37 66 61 67
REMARK SMILES IDX 62 68 70 69 63 70 65 71 71 72 64 73 66 74 67 75 68 76 69 77
REMARK SMILES IDX 46 78 47 79 55 80 48 81 50 82 56 83 49 84 51 85 52 86 53 87
REMARK SMILES IDX 54 88
REMARK H PARENT 84 14 84 15 76 41 44 52
REMARK Flexibility Score: inf
ROOT
ATOM      1  C   UNL A   1      36.049  20.700  24.832  1.00  0.00     0.275 C 
ENDROOT
BRANCH   1   2
ATOM      2  C   UNL A   1      34.571  21.027  25.055  1.00  0.00     0.275 C 
BRANCH   2   3
ATOM      3  O   UNL A   1      34.297  22.390  24.663  1.00  0.00    -0.458 OA
BRANCH   3   4
ATOM      4  C   UNL A   1      32.999  22.789  24.750  1.00  0.00     0.340 C 
ATOM      5  O   UNL A   1      32.100  22.196  25.327  1.00  0.00    -0.246 OA
BRANCH   4   6
ATOM      6  C   UNL A   1      32.828  24.121  24.106  1.00  0.00     0.085 A 
ATOM      7  C   UNL A   1      32.554  25.650  20.642  1.00  0.00     0.047 C 
ATOM      8  C   UNL A   1      32.631  25.474  22.136  1.00  0.00    -0.025 A 
ATOM      9  C   UNL A   1      32.305  26.569  22.964  1.00  0.00     0.031 A 
ATOM     10  C   UNL A   1      33.001  24.256  22.717  1.00  0.00     0.049 A 
ATOM     11  C   UNL A   1      32.319  26.521  24.365  1.00  0.00     0.038 A 
ATOM     12  C   UNL A   1      32.524  25.242  24.907  1.00  0.00     0.043 A 
BRANCH  10  13
ATOM     13  N   UNL A   1      33.387  23.187  21.914  1.00  0.00    -0.398 N 
ATOM     14  H   UNL A   1      33.957  23.343  21.126  1.00  0.00     0.156 HD
ATOM     15  H   UNL A   1      33.090  22.274  22.133  1.00  0.00     0.156 HD
ENDBRANCH  10  13
BRANCH  11  16
ATOM     16  N   UNL A   1      32.127  27.652  25.159  1.00  0.00    -0.372 N 
ATOM     17  C   UNL A   1      31.146  28.659  24.747  1.00  0.00     0.144 C 
BRANCH  16  18
ATOM     18  C   UNL A   1      32.612  27.794  26.556  1.00  0.00     0.075 C 
ATOM     19  C   UNL A   1      34.056  28.288  26.658  1.00  0.00     0.030 C 
ATOM     20  C   UNL A   1      31.624  28.553  27.440  1.00  0.00     0.030 C 
ENDBRANCH  16  18
ENDBRANCH  11  16
ENDBRANCH   4   6
ENDBRANCH   3   4
ENDBRANCH   2   3
ENDBRANCH   1   2
BRANCH   1  21
ATOM     21  O   UNL A   1      36.833  21.468  25.755  1.00  0.00    -0.458 OA
BRANCH  21  22
ATOM     22  C   UNL A   1      38.167  21.217  25.759  1.00  0.00     0.338 C 
ATOM     23  O   UNL A   1      38.711  20.201  25.364  1.00  0.00    -0.246 OA
BRANCH  22  24
ATOM     24  C   UNL A   1      38.887  22.392  26.315  1.00  0.00     0.060 A 
ATOM     25  C   UNL A   1      38.397  23.681  26.111  1.00  0.00     0.016 A 
ATOM     26  C   UNL A   1      40.096  22.223  26.989  1.00  0.00     0.016 A 
ATOM     27  C   UNL A   1      39.130  24.797  26.521  1.00  0.00     0.010 A 
ATOM     28  C   UNL A   1      40.790  23.345  27.474  1.00  0.00     0.010 A 
ATOM     29  C   UNL A   1      40.334  24.652  27.221  1.00  0.00    -0.014 A 
BRANCH  29  30
ATOM     30  C   UNL A   1      41.138  25.849  27.624  1.00  0.00     0.031 A 
ATOM     31  C   UNL A   1      40.525  26.900  28.520  1.00  0.00     0.074 A 
ATOM     32  C   UNL A   1      42.414  26.019  27.215  1.00  0.00     0.049 A 
ATOM     33  N   UNL A   1      40.948  28.110  28.787  1.00  0.00    -0.248 NA
ATOM     34  C   UNL A   1      39.259  26.551  29.185  1.00  0.00     0.031 C 
ATOM     35  C   UNL A   1      43.170  25.091  26.375  1.00  0.00     0.029 A 
ATOM     36  N   UNL A   1      43.304  27.044  27.451  1.00  0.00    -0.354 N 
ATOM     37  C   UNL A   1      39.951  28.701  29.555  1.00  0.00     0.074 A 
ATOM     38  C   UNL A   1      38.916  27.705  29.740  1.00  0.00     0.031 C 
ATOM     39  C   UNL A   1      44.415  25.561  26.202  1.00  0.00     0.029 A 
ATOM     40  C   UNL A   1      44.524  26.872  26.834  1.00  0.00     0.049 A 
ATOM     41  H   UNL A   1      43.089  27.826  28.009  1.00  0.00     0.167 HD
ATOM     42  C   UNL A   1      39.901  29.955  30.065  1.00  0.00     0.034 A 
ATOM     43  C   UNL A   1      45.595  27.688  26.744  1.00  0.00     0.034 A 
ATOM     44  C   UNL A   1      40.977  30.906  29.990  1.00  0.00     0.049 A 
ATOM     45  C   UNL A   1      45.541  29.054  27.372  1.00  0.00     0.074 A 
ATOM     46  C   UNL A   1      41.023  32.195  30.495  1.00  0.00     0.029 A 
ATOM     47  N   UNL A   1      42.210  30.663  29.408  1.00  0.00    -0.354 N 
ATOM     48  N   UNL A   1      44.580  29.602  28.074  1.00  0.00    -0.248 NA
ATOM     49  C   UNL A   1      46.718  29.919  27.191  1.00  0.00     0.031 C 
ATOM     50  C   UNL A   1      42.290  32.726  30.231  1.00  0.00     0.029 A 
ATOM     51  C   UNL A   1      43.032  31.768  29.562  1.00  0.00     0.049 A 
ATOM     52  H   UNL A   1      42.466  29.828  28.953  1.00  0.00     0.167 HD
ATOM     53  C   UNL A   1      45.035  30.871  28.420  1.00  0.00     0.074 A 
ATOM     54  C   UNL A   1      46.376  30.994  27.888  1.00  0.00     0.031 C 
ATOM     55  C   UNL A   1      44.386  31.858  29.082  1.00  0.00     0.034 A 
BRANCH  42  56
ATOM     56  C   UNL A   1      38.645  30.373  30.782  1.00  0.00     0.023 A 
ATOM     57  C   UNL A   1      38.511  30.131  32.163  1.00  0.00     0.012 A 
ATOM     58  C   UNL A   1      37.630  31.074  30.099  1.00  0.00     0.148 A 
ATOM     59  C   UNL A   1      37.375  30.558  32.849  1.00  0.00     0.002 A 
ATOM     60  C   UNL A   1      36.519  31.532  30.798  1.00  0.00     0.091 A 
ATOM     61  F   UNL A   1      37.766  31.275  28.781  1.00  0.00    -0.205 F 
ATOM     62  C   UNL A   1      36.386  31.268  32.171  1.00  0.00     0.022 A 
BRANCH  60  63
ATOM     63  S   UNL A   1      35.236  32.525  30.027  1.00  0.00     0.127 S 
ATOM     64  O   UNL A   1      34.744  31.619  28.991  1.00  0.00    -0.237 OA
ATOM     65  O   UNL A   1      34.305  32.746  31.135  1.00  0.00    -0.237 OA
ATOM     66  O   UNL A   1      35.899  33.730  29.546  1.00  0.00    -0.744 OA
ENDBRANCH  60  63
ENDBRANCH  42  56
BRANCH  43  67
ATOM     67  C   UNL A   1      46.820  27.229  26.025  1.00  0.00     0.023 A 
ATOM     68  C   UNL A   1      47.687  26.310  26.648  1.00  0.00     0.012 A 
ATOM     69  C   UNL A   1      47.112  27.663  24.717  1.00  0.00     0.148 A 
ATOM     70  C   UNL A   1      48.822  25.840  25.987  1.00  0.00     0.002 A 
ATOM     71  C   UNL A   1      48.204  27.135  24.038  1.00  0.00     0.091 A 
ATOM     72  F   UNL A   1      46.306  28.571  24.150  1.00  0.00    -0.205 F 
ATOM     73  C   UNL A   1      49.071  26.236  24.675  1.00  0.00     0.022 A 
BRANCH  71  74
ATOM     74  S   UNL A   1      48.467  27.473  22.292  1.00  0.00     0.127 S 
ATOM     75  O   UNL A   1      49.682  28.280  22.319  1.00  0.00    -0.237 OA
ATOM     76  O   UNL A   1      48.631  26.129  21.734  1.00  0.00    -0.237 OA
ATOM     77  O   UNL A   1      47.251  28.148  21.856  1.00  0.00    -0.744 OA
ENDBRANCH  71  74
ENDBRANCH  43  67
BRANCH  55  78
ATOM     78  C   UNL A   1      45.115  33.158  29.287  1.00  0.00     0.023 A 
ATOM     79  C   UNL A   1      45.938  33.314  30.421  1.00  0.00     0.012 A 
ATOM     80  C   UNL A   1      45.044  34.192  28.335  1.00  0.00     0.148 A 
ATOM     81  C   UNL A   1      46.659  34.491  30.615  1.00  0.00     0.002 A 
ATOM     82  C   UNL A   1      45.795  35.348  28.517  1.00  0.00     0.091 A 
ATOM     83  F   UNL A   1      44.239  34.032  27.275  1.00  0.00    -0.205 F 
ATOM     84  C   UNL A   1      46.596  35.502  29.659  1.00  0.00     0.022 A 
BRANCH  82  85
ATOM     85  S   UNL A   1      45.829  36.667  27.297  1.00  0.00     0.127 S 
ATOM     86  O   UNL A   1      44.405  36.899  27.067  1.00  0.00    -0.237 OA
ATOM     87  O   UNL A   1      46.515  37.743  28.015  1.00  0.00    -0.237 OA
ATOM     88  O   UNL A   1      46.573  36.135  26.161  1.00  0.00    -0.744 OA
ENDBRANCH  82  85
ENDBRANCH  55  78
ENDBRANCH  29  30
ENDBRANCH  22  24
ENDBRANCH  21  22
ENDBRANCH   1  21
TORSDOF 17
ENDMDL
MODEL 3
REMARK VINA RESULT:     -11.0      5.152      9.832
REMARK SMILES Cc1cc(N(C)C(C)C)cc(C(=O)OCCOC(=O)c2ccc(-c3c4nc(c(-c5cccc(S(=O)(=O)[O-])c5F)c5ccc([nH]5)c(-c5cccc(S(=O)(=O)[O-])c5F)c5nc(c(-c6cccc(S(=O)(=O)[O-])c6F)c6ccc3[nH]6)C=C5)C=C4)cc2)c1N
REMARK SMILES IDX 16 1 15 2 14 3 12 4 13 5 11 6 1 7 2 8 3 9 83 10 4 11 10 12
REMARK SMILES IDX 84 13 5 16 6 17 7 18 8 19 9 20 17 21 18 22 19 23 20 24 21 25
REMARK SMILES IDX 82 26 22 27 81 28 23 29 24 30 25 31 75 32 26 33 80 34 74 35
REMARK SMILES IDX 76 36 27 37 79 38 73 39 72 40 28 42 60 43 40 44 59 45 41 46
REMARK SMILES IDX 44 47 58 48 77 49 42 50 43 51 57 53 78 54 45 55 29 56 30 57
REMARK SMILES IDX 38 58 31 59 33 60 39 61 32 62 34 63 35 64 36 65 37 66 61 67
REMARK SMILES IDX 62 68 70 69 63 70 65 71 71 72 64 73 66 74 67 75 68 76 69 77
REMARK SMILES IDX 46 78 47 79 55 80 48 81 50 82 56 83 49 84 51 85 52 86 53 87
REMARK SMILES IDX 54 88
REMARK H PARENT 84 14 84 15 76 41 44 52
REMARK Flexibility Score: inf
ROOT
ATOM      1  C   UNL A   1      31.886  29.858  26.124  1.00  0.00     0.275 C 
ENDROOT
BRANCH   1   2
ATOM      2  C   UNL A   1      31.781  28.801  27.224  1.00  0.00     0.275 C 
BRANCH   2   3
ATOM      3  O   UNL A   1      32.561  27.637  26.873  1.00  0.00    -0.458 OA
BRANCH   3   4
ATOM      4  C   UNL A   1      31.860  26.546  26.460  1.00  0.00     0.340 C 
ATOM      5  O   UNL A   1      30.712  26.268  26.772  1.00  0.00    -0.246 OA
BRANCH   4   6
ATOM      6  C   UNL A   1      32.665  25.758  25.486  1.00  0.00     0.085 A 
ATOM      7  C   UNL A   1      33.140  25.406  21.735  1.00  0.00     0.047 C 
ATOM      8  C   UNL A   1      33.254  25.216  23.226  1.00  0.00    -0.025 A 
ATOM      9  C   UNL A   1      34.314  24.431  23.729  1.00  0.00     0.031 A 
ATOM     10  C   UNL A   1      32.350  25.805  24.116  1.00  0.00     0.049 A 
ATOM     11  C   UNL A   1      34.537  24.200  25.094  1.00  0.00     0.038 A 
ATOM     12  C   UNL A   1      33.718  24.945  25.957  1.00  0.00     0.043 A 
BRANCH  10  13
ATOM     13  N   UNL A   1      31.263  26.527  23.632  1.00  0.00    -0.398 N 
ATOM     14  H   UNL A   1      31.373  27.118  22.851  1.00  0.00     0.156 HD
ATOM     15  H   UNL A   1      30.385  26.447  24.069  1.00  0.00     0.156 HD
ENDBRANCH  10  13
BRANCH  11  16
ATOM     16  N   UNL A   1      35.507  23.312  25.558  1.00  0.00    -0.372 N 
ATOM     17  C   UNL A   1      36.848  23.813  25.866  1.00  0.00     0.144 C 
BRANCH  16  18
ATOM     18  C   UNL A   1      35.225  21.944  26.063  1.00  0.00     0.075 C 
ATOM     19  C   UNL A   1      34.235  21.910  27.229  1.00  0.00     0.030 C 
ATOM     20  C   UNL A   1      34.903  20.963  24.937  1.00  0.00     0.030 C 
ENDBRANCH  16  18
ENDBRANCH  11  16
ENDBRANCH   4   6
ENDBRANCH   3   4
ENDBRANCH   2   3
ENDBRANCH   1   2
BRANCH   1  21
ATOM     21  O   UNL A   1      33.218  30.387  26.119  1.00  0.00    -0.458 OA
BRANCH  21  22
ATOM     22  C   UNL A   1      33.509  31.284  27.094  1.00  0.00     0.338 C 
ATOM     23  O   UNL A   1      32.797  32.200  27.468  1.00  0.00    -0.246 OA
BRANCH  22  24
ATOM     24  C   UNL A   1      34.846  30.975  27.664  1.00  0.00     0.060 A 
ATOM     25  C   UNL A   1      35.195  29.662  27.975  1.00  0.00     0.016 A 
ATOM     26  C   UNL A   1      35.742  32.003  27.957  1.00  0.00     0.016 A 
ATOM     27  C   UNL A   1      36.397  29.376  28.625  1.00  0.00     0.010 A 
ATOM     28  C   UNL A   1      36.987  31.703  28.534  1.00  0.00     0.010 A 
ATOM     29  C   UNL A   1      37.323  30.388  28.906  1.00  0.00    -0.014 A 
BRANCH  29  30
ATOM     30  C   UNL A   1      38.594  30.086  29.639  1.00  0.00     0.031 A 
ATOM     31  C   UNL A   1      39.632  29.190  29.006  1.00  0.00     0.074 A 
ATOM     32  C   UNL A   1      38.849  30.601  30.861  1.00  0.00     0.049 A 
ATOM     33  N   UNL A   1      40.672  28.612  29.553  1.00  0.00    -0.248 NA
ATOM     34  C   UNL A   1      39.467  28.888  27.575  1.00  0.00     0.031 C 
ATOM     35  C   UNL A   1      37.973  31.507  31.605  1.00  0.00     0.029 A 
ATOM     36  N   UNL A   1      39.930  30.431  31.700  1.00  0.00    -0.354 N 
ATOM     37  C   UNL A   1      41.215  27.795  28.567  1.00  0.00     0.074 A 
ATOM     38  C   UNL A   1      40.410  27.978  27.378  1.00  0.00     0.031 C 
ATOM     39  C   UNL A   1      38.564  31.846  32.760  1.00  0.00     0.029 A 
ATOM     40  C   UNL A   1      39.817  31.110  32.893  1.00  0.00     0.049 A 
ATOM     41  H   UNL A   1      40.709  29.878  31.467  1.00  0.00     0.167 HD
ATOM     42  C   UNL A   1      42.288  26.972  28.641  1.00  0.00     0.034 A 
ATOM     43  C   UNL A   1      40.602  31.112  33.991  1.00  0.00     0.034 A 
ATOM     44  C   UNL A   1      43.165  26.879  29.779  1.00  0.00     0.049 A 
ATOM     45  C   UNL A   1      41.826  30.236  34.027  1.00  0.00     0.074 A 
ATOM     46  C   UNL A   1      44.289  26.085  29.936  1.00  0.00     0.029 A 
ATOM     47  N   UNL A   1      43.042  27.629  30.936  1.00  0.00    -0.354 N 
ATOM     48  N   UNL A   1      42.309  29.454  33.093  1.00  0.00    -0.248 NA
ATOM     49  C   UNL A   1      42.610  30.238  35.272  1.00  0.00     0.031 C 
ATOM     50  C   UNL A   1      44.854  26.367  31.184  1.00  0.00     0.029 A 
ATOM     51  C   UNL A   1      44.082  27.335  31.802  1.00  0.00     0.049 A 
ATOM     52  H   UNL A   1      42.323  28.277  31.116  1.00  0.00     0.167 HD
ATOM     53  C   UNL A   1      43.451  28.874  33.635  1.00  0.00     0.074 A 
ATOM     54  C   UNL A   1      43.614  29.427  34.962  1.00  0.00     0.031 C 
ATOM     55  C   UNL A   1      44.269  27.937  33.096  1.00  0.00     0.034 A 
BRANCH  42  56
ATOM     56  C   UNL A   1      42.602  26.116  27.444  1.00  0.00     0.023 A 
ATOM     57  C   UNL A   1      43.412  26.625  26.410  1.00  0.00     0.012 A 
ATOM     58  C   UNL A   1      42.154  24.781  27.381  1.00  0.00     0.148 A 
ATOM     59  C   UNL A   1      43.753  25.826  25.319  1.00  0.00     0.002 A 
ATOM     60  C   UNL A   1      42.531  23.978  26.310  1.00  0.00     0.091 A 
ATOM     61  F   UNL A   1      41.366  24.323  28.363  1.00  0.00    -0.205 F 
ATOM     62  C   UNL A   1      43.323  24.501  25.275  1.00  0.00     0.022 A 
BRANCH  60  63
ATOM     63  S   UNL A   1      42.094  22.238  26.208  1.00  0.00     0.127 S 
ATOM     64  O   UNL A   1      42.843  21.814  25.026  1.00  0.00    -0.237 OA
ATOM     65  O   UNL A   1      42.608  21.713  27.474  1.00  0.00    -0.237 OA
ATOM     66  O   UNL A   1      40.644  22.198  26.081  1.00  0.00    -0.744 OA
ENDBRANCH  60  63
ENDBRANCH  42  56
BRANCH  43  67
ATOM     67  C   UNL A   1      40.253  31.979  35.154  1.00  0.00     0.023 A 
ATOM     68  C   UNL A   1      40.813  33.268  35.251  1.00  0.00     0.012 A 
ATOM     69  C   UNL A   1      39.342  31.555  36.140  1.00  0.00     0.148 A 
ATOM     70  C   UNL A   1      40.479  34.113  36.310  1.00  0.00     0.002 A 
ATOM     71  C   UNL A   1      38.958  32.428  37.153  1.00  0.00     0.091 A 
ATOM     72  F   UNL A   1      38.849  30.312  36.064  1.00  0.00    -0.205 F 
ATOM     73  C   UNL A   1      39.537  33.701  37.251  1.00  0.00     0.022 A 
BRANCH  71  74
ATOM     74  S   UNL A   1      37.621  32.017  38.280  1.00  0.00     0.127 S 
ATOM     75  O   UNL A   1      38.231  32.270  39.581  1.00  0.00    -0.237 OA
ATOM     76  O   UNL A   1      36.579  32.970  37.892  1.00  0.00    -0.237 OA
ATOM     77  O   UNL A   1      37.293  30.629  37.979  1.00  0.00    -0.744 OA
ENDBRANCH  71  74
ENDBRANCH  43  67
BRANCH  55  78
ATOM     78  C   UNL A   1      45.425  27.456  33.931  1.00  0.00     0.023 A 
ATOM     79  C   UNL A   1      46.644  28.161  33.888  1.00  0.00     0.012 A 
ATOM     80  C   UNL A   1      45.288  26.359  34.802  1.00  0.00     0.148 A 
ATOM     81  C   UNL A   1      47.719  27.765  34.683  1.00  0.00     0.002 A 
ATOM     82  C   UNL A   1      46.353  25.992  35.619  1.00  0.00     0.091 A 
ATOM     83  F   UNL A   1      44.127  25.689  34.811  1.00  0.00    -0.205 F 
ATOM     84  C   UNL A   1      47.570  26.688  35.555  1.00  0.00     0.022 A 
BRANCH  82  85
ATOM     85  S   UNL A   1      46.220  24.666  36.823  1.00  0.00     0.127 S 
ATOM     86  O   UNL A   1      47.515  24.742  37.496  1.00  0.00    -0.237 OA
ATOM     87  O   UNL A   1      45.082  25.092  37.639  1.00  0.00    -0.237 OA
ATOM     88  O   UNL A   1      45.982  23.453  36.050  1.00  0.00    -0.744 OA
ENDBRANCH  82  85
ENDBRANCH  55  78
ENDBRANCH  29  30
ENDBRANCH  22  24
ENDBRANCH  21  22
ENDBRANCH   1  21
TORSDOF 17
ENDMDL
