MODEL 1
REMARK VINA RESULT:     -11.3      0.000      0.000
REMARK SMILES C[C@H]1CN(CCC(=O)OCCOC(=O)c2ccc(-c3c4nc(c(-c5cccc(S(=O)(=O)[O-])c5F)c5ccc([nH]5)c(-c5cccc(S(=O)(=O)[O-])c5F)c5nc(c(-c6cccc(S(=O)(=O)[O-])c6F)c6ccc3[nH]6)C=C5)C=C4)cc2)S(=O)(=O)C1
REMARK SMILES IDX 11 1 10 2 9 3 7 4 8 5 6 6 5 7 4 8 1 9 2 10 3 11 81 12 78 13
REMARK SMILES IDX 79 14 80 15 12 16 13 17 14 18 15 19 16 20 77 21 17 22 76 23
REMARK SMILES IDX 18 24 19 25 20 26 70 27 21 28 75 29 69 30 71 31 22 32 74 33
REMARK SMILES IDX 68 34 67 35 23 37 55 38 35 39 54 40 36 41 39 42 53 43 72 44
REMARK SMILES IDX 37 45 38 46 52 48 73 49 40 50 24 51 25 52 33 53 26 54 28 55
REMARK SMILES IDX 34 56 27 57 29 58 30 59 31 60 32 61 56 62 57 63 65 64 58 65
REMARK SMILES IDX 60 66 66 67 59 68 61 69 62 70 63 71 64 72 41 73 42 74 50 75
REMARK SMILES IDX 43 76 45 77 51 78 44 79 46 80 47 81 48 82 49 83
REMARK H PARENT 71 36 39 47
REMARK Flexibility Score: inf
ROOT
ATOM      1  C   UNL A   1      36.652  20.367  25.082  1.00  0.00     0.275 C 
ENDROOT
BRANCH   1   2
ATOM      2  C   UNL A   1      35.147  20.581  25.240  1.00  0.00     0.274 C 
BRANCH   2   3
ATOM      3  O   UNL A   1      34.398  19.492  24.663  1.00  0.00    -0.462 OA
BRANCH   3   4
ATOM      4  C   UNL A   1      33.063  19.474  24.873  1.00  0.00     0.307 C 
ATOM      5  O   UNL A   1      32.449  18.540  25.373  1.00  0.00    -0.252 OA
BRANCH   4   6
ATOM      6  C   UNL A   1      32.361  20.696  24.329  1.00  0.00     0.139 C 
BRANCH   6   7
ATOM      7  C   UNL A   1      31.802  21.674  25.353  1.00  0.00     0.114 C 
BRANCH   7   8
ATOM      8  N   UNL A   1      31.787  23.095  24.963  1.00  0.00    -0.201 NA
ATOM      9  C   UNL A   1      34.959  24.167  25.416  1.00  0.00     0.010 C 
ATOM     10  C   UNL A   1      33.602  24.688  24.944  1.00  0.00     0.017 C 
ATOM     11  C   UNL A   1      32.822  23.661  24.093  1.00  0.00     0.106 C 
ATOM     12  C   UNL A   1      32.723  25.143  26.124  1.00  0.00     0.158 C 
ATOM     13  S   UNL A   1      31.164  24.302  25.972  1.00  0.00     0.214 S 
ATOM     14  O   UNL A   1      30.309  25.148  25.164  1.00  0.00    -0.212 OA
ATOM     15  O   UNL A   1      30.753  23.786  27.250  1.00  0.00    -0.212 OA
ENDBRANCH   7   8
ENDBRANCH   6   7
ENDBRANCH   4   6
ENDBRANCH   3   4
ENDBRANCH   2   3
ENDBRANCH   1   2
BRANCH   1  16
ATOM     16  O   UNL A   1      37.388  21.458  25.658  1.00  0.00    -0.458 OA
BRANCH  16  17
ATOM     17  C   UNL A   1      38.675  21.178  25.959  1.00  0.00     0.338 C 
ATOM     18  O   UNL A   1      39.299  20.160  25.720  1.00  0.00    -0.246 OA
BRANCH  17  19
ATOM     19  C   UNL A   1      39.324  22.372  26.494  1.00  0.00     0.060 A 
ATOM     20  C   UNL A   1      38.943  23.606  25.965  1.00  0.00     0.016 A 
ATOM     21  C   UNL A   1      40.363  22.269  27.412  1.00  0.00     0.016 A 
ATOM     22  C   UNL A   1      39.606  24.759  26.343  1.00  0.00     0.010 A 
ATOM     23  C   UNL A   1      41.019  23.431  27.809  1.00  0.00     0.010 A 
ATOM     24  C   UNL A   1      40.649  24.675  27.267  1.00  0.00    -0.014 A 
BRANCH  24  25
ATOM     25  C   UNL A   1      41.377  25.901  27.638  1.00  0.00     0.031 A 
ATOM     26  C   UNL A   1      40.681  26.951  28.446  1.00  0.00     0.074 A 
ATOM     27  C   UNL A   1      42.650  26.049  27.231  1.00  0.00     0.049 A 
ATOM     28  N   UNL A   1      41.094  28.144  28.775  1.00  0.00    -0.248 NA
ATOM     29  C   UNL A   1      39.335  26.618  28.944  1.00  0.00     0.031 C 
ATOM     30  C   UNL A   1      43.411  25.059  26.465  1.00  0.00     0.029 A 
ATOM     31  N   UNL A   1      43.519  27.096  27.383  1.00  0.00    -0.354 N 
ATOM     32  C   UNL A   1      40.042  28.727  29.468  1.00  0.00     0.074 A 
ATOM     33  C   UNL A   1      38.971  27.757  29.514  1.00  0.00     0.031 C 
ATOM     34  C   UNL A   1      44.630  25.552  26.200  1.00  0.00     0.029 A 
ATOM     35  C   UNL A   1      44.711  26.909  26.724  1.00  0.00     0.049 A 
ATOM     36  H   UNL A   1      43.311  27.900  27.910  1.00  0.00     0.167 HD
ATOM     37  C   UNL A   1      39.985  29.964  30.017  1.00  0.00     0.034 A 
ATOM     38  C   UNL A   1      45.734  27.761  26.533  1.00  0.00     0.034 A 
ATOM     39  C   UNL A   1      41.076  30.901  29.967  1.00  0.00     0.049 A 
ATOM     40  C   UNL A   1      45.632  29.137  27.128  1.00  0.00     0.074 A 
ATOM     41  C   UNL A   1      41.149  32.169  30.509  1.00  0.00     0.029 A 
ATOM     42  N   UNL A   1      42.285  30.669  29.323  1.00  0.00    -0.354 N 
ATOM     43  N   UNL A   1      44.660  29.658  27.840  1.00  0.00    -0.248 NA
ATOM     44  C   UNL A   1      46.774  30.034  26.917  1.00  0.00     0.031 C 
ATOM     45  C   UNL A   1      42.388  32.718  30.163  1.00  0.00     0.029 A 
ATOM     46  C   UNL A   1      43.108  31.775  29.445  1.00  0.00     0.049 A 
ATOM     47  H   UNL A   1      42.523  29.839  28.850  1.00  0.00     0.167 HD
ATOM     48  C   UNL A   1      45.087  30.931  28.195  1.00  0.00     0.074 A 
ATOM     49  C   UNL A   1      46.416  31.091  27.634  1.00  0.00     0.031 C 
ATOM     50  C   UNL A   1      44.442  31.886  28.909  1.00  0.00     0.034 A 
BRANCH  37  51
ATOM     51  C   UNL A   1      38.708  30.365  30.705  1.00  0.00     0.023 A 
ATOM     52  C   UNL A   1      38.503  30.042  32.063  1.00  0.00     0.012 A 
ATOM     53  C   UNL A   1      37.714  31.084  30.013  1.00  0.00     0.148 A 
ATOM     54  C   UNL A   1      37.316  30.391  32.707  1.00  0.00     0.002 A 
ATOM     55  C   UNL A   1      36.555  31.472  30.674  1.00  0.00     0.091 A 
ATOM     56  F   UNL A   1      37.913  31.362  28.716  1.00  0.00    -0.205 F 
ATOM     57  C   UNL A   1      36.347  31.113  32.016  1.00  0.00     0.022 A 
BRANCH  55  58
ATOM     58  S   UNL A   1      35.282  32.473  29.896  1.00  0.00     0.127 S 
ATOM     59  O   UNL A   1      34.800  31.573  28.847  1.00  0.00    -0.237 OA
ATOM     60  O   UNL A   1      34.342  32.683  30.997  1.00  0.00    -0.237 OA
ATOM     61  O   UNL A   1      35.949  33.678  29.424  1.00  0.00    -0.744 OA
ENDBRANCH  55  58
ENDBRANCH  37  51
BRANCH  38  62
ATOM     62  C   UNL A   1      46.935  27.326  25.769  1.00  0.00     0.023 A 
ATOM     63  C   UNL A   1      47.868  26.466  26.378  1.00  0.00     0.012 A 
ATOM     64  C   UNL A   1      47.140  27.725  24.433  1.00  0.00     0.148 A 
ATOM     65  C   UNL A   1      48.999  26.037  25.683  1.00  0.00     0.002 A 
ATOM     66  C   UNL A   1      48.239  27.249  23.728  1.00  0.00     0.091 A 
ATOM     67  F   UNL A   1      46.244  28.549  23.872  1.00  0.00    -0.205 F 
ATOM     68  C   UNL A   1      49.179  26.419  24.357  1.00  0.00     0.022 A 
BRANCH  66  69
ATOM     69  S   UNL A   1      48.486  27.584  21.980  1.00  0.00     0.127 S 
ATOM     70  O   UNL A   1      48.693  26.240  21.447  1.00  0.00    -0.237 OA
ATOM     71  O   UNL A   1      47.212  28.204  21.610  1.00  0.00    -0.237 OA
ATOM     72  O   UNL A   1      49.634  28.476  21.905  1.00  0.00    -0.744 OA
ENDBRANCH  66  69
ENDBRANCH  38  62
BRANCH  50  73
ATOM     73  C   UNL A   1      45.186  33.169  29.166  1.00  0.00     0.023 A 
ATOM     74  C   UNL A   1      45.995  33.300  30.311  1.00  0.00     0.012 A 
ATOM     75  C   UNL A   1      45.125  34.223  28.234  1.00  0.00     0.148 A 
ATOM     76  C   UNL A   1      46.700  34.480  30.546  1.00  0.00     0.002 A 
ATOM     77  C   UNL A   1      45.874  35.372  28.446  1.00  0.00     0.091 A 
ATOM     78  F   UNL A   1      44.333  34.083  27.160  1.00  0.00    -0.205 F 
ATOM     79  C   UNL A   1      46.650  35.509  29.608  1.00  0.00     0.022 A 
BRANCH  77  80
ATOM     80  S   UNL A   1      45.952  36.703  27.243  1.00  0.00     0.127 S 
ATOM     81  O   UNL A   1      46.435  36.002  26.054  1.00  0.00    -0.237 OA
ATOM     82  O   UNL A   1      44.557  37.138  27.172  1.00  0.00    -0.237 OA
ATOM     83  O   UNL A   1      46.867  37.693  27.796  1.00  0.00    -0.744 OA
ENDBRANCH  77  80
ENDBRANCH  50  73
ENDBRANCH  24  25
ENDBRANCH  17  19
ENDBRANCH  16  17
ENDBRANCH   1  16
TORSDOF 16
ENDMDL
MODEL 2
REMARK VINA RESULT:     -11.0      1.421      1.719
REMARK SMILES C[C@H]1CN(CCC(=O)OCCOC(=O)c2ccc(-c3c4nc(c(-c5cccc(S(=O)(=O)[O-])c5F)c5ccc([nH]5)c(-c5cccc(S(=O)(=O)[O-])c5F)c5nc(c(-c6cccc(S(=O)(=O)[O-])c6F)c6ccc3[nH]6)C=C5)C=C4)cc2)S(=O)(=O)C1
REMARK SMILES IDX 11 1 10 2 9 3 7 4 8 5 6 6 5 7 4 8 1 9 2 10 3 11 81 12 78 13
REMARK SMILES IDX 79 14 80 15 12 16 13 17 14 18 15 19 16 20 77 21 17 22 76 23
REMARK SMILES IDX 18 24 19 25 20 26 70 27 21 28 75 29 69 30 71 31 22 32 74 33
REMARK SMILES IDX 68 34 67 35 23 37 55 38 35 39 54 40 36 41 39 42 53 43 72 44
REMARK SMILES IDX 37 45 38 46 52 48 73 49 40 50 24 51 25 52 33 53 26 54 28 55
REMARK SMILES IDX 34 56 27 57 29 58 30 59 31 60 32 61 56 62 57 63 65 64 58 65
REMARK SMILES IDX 60 66 66 67 59 68 61 69 62 70 63 71 64 72 41 73 42 74 50 75
REMARK SMILES IDX 43 76 45 77 51 78 44 79 46 80 47 81 48 82 49 83
REMARK H PARENT 71 36 39 47
REMARK Flexibility Score: inf
ROOT
ATOM      1  C   UNL A   1      36.707  20.559  24.897  1.00  0.00     0.275 C 
ENDROOT
BRANCH   1   2
ATOM      2  C   UNL A   1      35.232  20.919  24.715  1.00  0.00     0.274 C 
BRANCH   2   3
ATOM      3  O   UNL A   1      34.379  19.790  24.993  1.00  0.00    -0.462 OA
BRANCH   3   4
ATOM      4  C   UNL A   1      33.077  20.042  25.250  1.00  0.00     0.307 C 
ATOM      5  O   UNL A   1      32.169  19.233  25.103  1.00  0.00    -0.252 OA
BRANCH   4   6
ATOM      6  C   UNL A   1      32.817  21.476  25.648  1.00  0.00     0.139 C 
BRANCH   6   7
ATOM      7  C   UNL A   1      31.538  22.109  25.119  1.00  0.00     0.114 C 
BRANCH   7   8
ATOM      8  N   UNL A   1      31.577  23.563  24.876  1.00  0.00    -0.201 NA
ATOM      9  C   UNL A   1      34.803  24.449  25.342  1.00  0.00     0.010 C 
ATOM     10  C   UNL A   1      33.459  25.072  24.965  1.00  0.00     0.017 C 
ATOM     11  C   UNL A   1      32.614  24.171  24.038  1.00  0.00     0.106 C 
ATOM     12  C   UNL A   1      32.631  25.440  26.210  1.00  0.00     0.158 C 
ATOM     13  S   UNL A   1      31.033  24.685  26.020  1.00  0.00     0.214 S 
ATOM     14  O   UNL A   1      30.197  25.644  25.327  1.00  0.00    -0.212 OA
ATOM     15  O   UNL A   1      30.631  24.058  27.251  1.00  0.00    -0.212 OA
ENDBRANCH   7   8
ENDBRANCH   6   7
ENDBRANCH   4   6
ENDBRANCH   3   4
ENDBRANCH   2   3
ENDBRANCH   1   2
BRANCH   1  16
ATOM     16  O   UNL A   1      37.364  21.511  25.750  1.00  0.00    -0.458 OA
BRANCH  16  17
ATOM     17  C   UNL A   1      38.658  21.231  26.021  1.00  0.00     0.338 C 
ATOM     18  O   UNL A   1      39.281  20.219  25.753  1.00  0.00    -0.246 OA
BRANCH  17  19
ATOM     19  C   UNL A   1      39.313  22.418  26.563  1.00  0.00     0.060 A 
ATOM     20  C   UNL A   1      38.858  23.663  26.126  1.00  0.00     0.016 A 
ATOM     21  C   UNL A   1      40.423  22.306  27.393  1.00  0.00     0.016 A 
ATOM     22  C   UNL A   1      39.516  24.818  26.508  1.00  0.00     0.010 A 
ATOM     23  C   UNL A   1      41.076  23.468  27.796  1.00  0.00     0.010 A 
ATOM     24  C   UNL A   1      40.630  24.724  27.344  1.00  0.00    -0.014 A 
BRANCH  24  25
ATOM     25  C   UNL A   1      41.351  25.953  27.718  1.00  0.00     0.031 A 
ATOM     26  C   UNL A   1      40.638  27.011  28.501  1.00  0.00     0.074 A 
ATOM     27  C   UNL A   1      42.631  26.097  27.337  1.00  0.00     0.049 A 
ATOM     28  N   UNL A   1      41.045  28.207  28.826  1.00  0.00    -0.248 NA
ATOM     29  C   UNL A   1      39.281  26.683  28.973  1.00  0.00     0.031 C 
ATOM     30  C   UNL A   1      43.408  25.099  26.597  1.00  0.00     0.029 A 
ATOM     31  N   UNL A   1      43.498  27.145  27.496  1.00  0.00    -0.354 N 
ATOM     32  C   UNL A   1      39.978  28.798  29.492  1.00  0.00     0.074 A 
ATOM     33  C   UNL A   1      38.906  27.828  29.525  1.00  0.00     0.031 C 
ATOM     34  C   UNL A   1      44.633  25.589  26.353  1.00  0.00     0.029 A 
ATOM     35  C   UNL A   1      44.703  26.952  26.865  1.00  0.00     0.049 A 
ATOM     36  H   UNL A   1      43.279  27.954  28.011  1.00  0.00     0.167 HD
ATOM     37  C   UNL A   1      39.910  30.039  30.027  1.00  0.00     0.034 A 
ATOM     38  C   UNL A   1      45.730  27.801  26.687  1.00  0.00     0.034 A 
ATOM     39  C   UNL A   1      41.002  30.976  29.990  1.00  0.00     0.049 A 
ATOM     40  C   UNL A   1      45.616  29.183  27.266  1.00  0.00     0.074 A 
ATOM     41  C   UNL A   1      41.064  32.249  30.521  1.00  0.00     0.029 A 
ATOM     42  N   UNL A   1      42.224  30.738  29.375  1.00  0.00    -0.354 N 
ATOM     43  N   UNL A   1      44.630  29.711  27.952  1.00  0.00    -0.248 NA
ATOM     44  C   UNL A   1      46.763  30.078  27.070  1.00  0.00     0.031 C 
ATOM     45  C   UNL A   1      42.310  32.795  30.196  1.00  0.00     0.029 A 
ATOM     46  C   UNL A   1      43.044  31.845  29.502  1.00  0.00     0.049 A 
ATOM     47  H   UNL A   1      42.472  29.903  28.915  1.00  0.00     0.167 HD
ATOM     48  C   UNL A   1      45.050  30.988  28.303  1.00  0.00     0.074 A 
ATOM     49  C   UNL A   1      46.390  31.143  27.768  1.00  0.00     0.031 C 
ATOM     50  C   UNL A   1      44.390  31.950  28.993  1.00  0.00     0.034 A 
BRANCH  37  51
ATOM     51  C   UNL A   1      38.618  30.448  30.684  1.00  0.00     0.023 A 
ATOM     52  C   UNL A   1      38.387  30.142  32.041  1.00  0.00     0.012 A 
ATOM     53  C   UNL A   1      37.638  31.156  29.962  1.00  0.00     0.148 A 
ATOM     54  C   UNL A   1      37.187  30.498  32.656  1.00  0.00     0.002 A 
ATOM     55  C   UNL A   1      36.465  31.551  30.595  1.00  0.00     0.091 A 
ATOM     56  F   UNL A   1      37.862  31.417  28.666  1.00  0.00    -0.205 F 
ATOM     57  C   UNL A   1      36.231  31.209  31.936  1.00  0.00     0.022 A 
BRANCH  55  58
ATOM     58  S   UNL A   1      35.207  32.539  29.778  1.00  0.00     0.127 S 
ATOM     59  O   UNL A   1      35.986  33.689  29.318  1.00  0.00    -0.237 OA
ATOM     60  O   UNL A   1      34.758  31.642  28.712  1.00  0.00    -0.237 OA
ATOM     61  O   UNL A   1      34.203  32.832  30.790  1.00  0.00    -0.744 OA
ENDBRANCH  55  58
ENDBRANCH  37  51
BRANCH  38  62
ATOM     62  C   UNL A   1      46.947  27.359  25.953  1.00  0.00     0.023 A 
ATOM     63  C   UNL A   1      47.054  27.616  24.573  1.00  0.00     0.012 A 
ATOM     64  C   UNL A   1      48.014  26.722  26.616  1.00  0.00     0.148 A 
ATOM     65  C   UNL A   1      48.186  27.219  23.861  1.00  0.00     0.002 A 
ATOM     66  C   UNL A   1      49.163  26.379  25.913  1.00  0.00     0.091 A 
ATOM     67  F   UNL A   1      47.892  26.480  27.929  1.00  0.00    -0.205 F 
ATOM     68  C   UNL A   1      49.244  26.612  24.531  1.00  0.00     0.022 A 
BRANCH  66  69
ATOM     69  S   UNL A   1      50.625  25.711  26.715  1.00  0.00     0.127 S 
ATOM     70  O   UNL A   1      50.118  24.454  27.259  1.00  0.00    -0.237 OA
ATOM     71  O   UNL A   1      51.547  25.566  25.587  1.00  0.00    -0.237 OA
ATOM     72  O   UNL A   1      51.029  26.707  27.698  1.00  0.00    -0.744 OA
ENDBRANCH  66  69
ENDBRANCH  38  62
BRANCH  50  73
ATOM     73  C   UNL A   1      45.128  33.235  29.253  1.00  0.00     0.023 A 
ATOM     74  C   UNL A   1      45.931  33.370  30.403  1.00  0.00     0.012 A 
ATOM     75  C   UNL A   1      45.069  34.288  28.319  1.00  0.00     0.148 A 
ATOM     76  C   UNL A   1      46.631  34.552  30.640  1.00  0.00     0.002 A 
ATOM     77  C   UNL A   1      45.814  35.440  28.534  1.00  0.00     0.091 A 
ATOM     78  F   UNL A   1      44.284  34.145  27.242  1.00  0.00    -0.205 F 
ATOM     79  C   UNL A   1      46.583  35.581  29.701  1.00  0.00     0.022 A 
BRANCH  77  80
ATOM     80  S   UNL A   1      45.895  36.770  27.331  1.00  0.00     0.127 S 
ATOM     81  O   UNL A   1      46.916  37.638  27.915  1.00  0.00    -0.237 OA
ATOM     82  O   UNL A   1      46.313  36.065  26.119  1.00  0.00    -0.237 OA
ATOM     83  O   UNL A   1      44.555  37.339  27.268  1.00  0.00    -0.744 OA
ENDBRANCH  77  80
ENDBRANCH  50  73
ENDBRANCH  24  25
ENDBRANCH  17  19
ENDBRANCH  16  17
ENDBRANCH   1  16
TORSDOF 16
ENDMDL
MODEL 3
REMARK VINA RESULT:     -10.8      5.694     10.622
REMARK SMILES C[C@H]1CN(CCC(=O)OCCOC(=O)c2ccc(-c3c4nc(c(-c5cccc(S(=O)(=O)[O-])c5F)c5ccc([nH]5)c(-c5cccc(S(=O)(=O)[O-])c5F)c5nc(c(-c6cccc(S(=O)(=O)[O-])c6F)c6ccc3[nH]6)C=C5)C=C4)cc2)S(=O)(=O)C1
REMARK SMILES IDX 11 1 10 2 9 3 7 4 8 5 6 6 5 7 4 8 1 9 2 10 3 11 81 12 78 13
REMARK SMILES IDX 79 14 80 15 12 16 13 17 14 18 15 19 16 20 77 21 17 22 76 23
REMARK SMILES IDX 18 24 19 25 20 26 70 27 21 28 75 29 69 30 71 31 22 32 74 33
REMARK SMILES IDX 68 34 67 35 23 37 55 38 35 39 54 40 36 41 39 42 53 43 72 44
REMARK SMILES IDX 37 45 38 46 52 48 73 49 40 50 24 51 25 52 33 53 26 54 28 55
REMARK SMILES IDX 34 56 27 57 29 58 30 59 31 60 32 61 56 62 57 63 65 64 58 65
REMARK SMILES IDX 60 66 66 67 59 68 61 69 62 70 63 71 64 72 41 73 42 74 50 75
REMARK SMILES IDX 43 76 45 77 51 78 44 79 46 80 47 81 48 82 49 83
REMARK H PARENT 71 36 39 47
REMARK Flexibility Score: inf
ROOT
ATOM      1  C   UNL A   1      31.794  29.817  25.732  1.00  0.00     0.275 C 
ENDROOT
BRANCH   1   2
ATOM      2  C   UNL A   1      31.547  29.332  24.304  1.00  0.00     0.274 C 
BRANCH   2   3
ATOM      3  O   UNL A   1      30.363  28.513  24.225  1.00  0.00    -0.462 OA
BRANCH   3   4
ATOM      4  C   UNL A   1      30.242  27.694  23.157  1.00  0.00     0.307 C 
ATOM      5  O   UNL A   1      30.237  28.066  21.991  1.00  0.00    -0.252 OA
BRANCH   4   6
ATOM      6  C   UNL A   1      30.004  26.252  23.540  1.00  0.00     0.139 C 
BRANCH   6   7
ATOM      7  C   UNL A   1      30.981  25.227  22.980  1.00  0.00     0.114 C 
BRANCH   7   8
ATOM      8  N   UNL A   1      32.132  24.883  23.834  1.00  0.00    -0.201 NA
ATOM      9  C   UNL A   1      31.568  26.475  26.760  1.00  0.00     0.010 C 
ATOM     10  C   UNL A   1      32.596  25.552  26.108  1.00  0.00     0.017 C 
ATOM     11  C   UNL A   1      31.953  24.458  25.226  1.00  0.00     0.106 C 
ATOM     12  C   UNL A   1      33.624  26.339  25.273  1.00  0.00     0.158 C 
ATOM     13  S   UNL A   1      33.645  25.617  23.649  1.00  0.00     0.214 S 
ATOM     14  O   UNL A   1      34.644  24.568  23.671  1.00  0.00    -0.212 OA
ATOM     15  O   UNL A   1      33.632  26.650  22.647  1.00  0.00    -0.212 OA
ENDBRANCH   7   8
ENDBRANCH   6   7
ENDBRANCH   4   6
ENDBRANCH   3   4
ENDBRANCH   2   3
ENDBRANCH   1   2
BRANCH   1  16
ATOM     16  O   UNL A   1      33.151  30.265  25.893  1.00  0.00    -0.458 OA
BRANCH  16  17
ATOM     17  C   UNL A   1      33.339  31.152  26.893  1.00  0.00     0.338 C 
ATOM     18  O   UNL A   1      32.547  31.961  27.342  1.00  0.00    -0.246 OA
BRANCH  17  19
ATOM     19  C   UNL A   1      34.632  30.908  27.528  1.00  0.00     0.060 A 
ATOM     20  C   UNL A   1      34.923  29.600  27.917  1.00  0.00     0.016 A 
ATOM     21  C   UNL A   1      35.488  31.960  27.835  1.00  0.00     0.016 A 
ATOM     22  C   UNL A   1      36.075  29.326  28.630  1.00  0.00     0.010 A 
ATOM     23  C   UNL A   1      36.659  31.685  28.536  1.00  0.00     0.010 A 
ATOM     24  C   UNL A   1      36.948  30.370  28.944  1.00  0.00    -0.014 A 
BRANCH  24  25
ATOM     25  C   UNL A   1      38.156  30.080  29.736  1.00  0.00     0.031 A 
ATOM     26  C   UNL A   1      39.190  29.150  29.183  1.00  0.00     0.074 A 
ATOM     27  C   UNL A   1      38.293  30.653  30.944  1.00  0.00     0.049 A 
ATOM     28  N   UNL A   1      40.257  28.671  29.759  1.00  0.00    -0.248 NA
ATOM     29  C   UNL A   1      38.991  28.690  27.797  1.00  0.00     0.031 C 
ATOM     30  C   UNL A   1      37.345  31.595  31.543  1.00  0.00     0.029 A 
ATOM     31  N   UNL A   1      39.269  30.511  31.894  1.00  0.00    -0.354 N 
ATOM     32  C   UNL A   1      40.830  27.809  28.832  1.00  0.00     0.074 A 
ATOM     33  C   UNL A   1      39.992  27.832  27.654  1.00  0.00     0.031 C 
ATOM     34  C   UNL A   1      37.778  31.935  32.767  1.00  0.00     0.029 A 
ATOM     35  C   UNL A   1      38.996  31.190  33.057  1.00  0.00     0.049 A 
ATOM     36  H   UNL A   1      40.083  29.975  31.757  1.00  0.00     0.167 HD
ATOM     37  C   UNL A   1      41.957  27.071  28.961  1.00  0.00     0.034 A 
ATOM     38  C   UNL A   1      39.641  31.175  34.236  1.00  0.00     0.034 A 
ATOM     39  C   UNL A   1      42.778  27.083  30.143  1.00  0.00     0.049 A 
ATOM     40  C   UNL A   1      40.873  30.324  34.361  1.00  0.00     0.074 A 
ATOM     41  C   UNL A   1      43.955  26.402  30.382  1.00  0.00     0.029 A 
ATOM     42  N   UNL A   1      42.495  27.810  31.292  1.00  0.00    -0.354 N 
ATOM     43  N   UNL A   1      41.445  29.564  33.457  1.00  0.00    -0.248 NA
ATOM     44  C   UNL A   1      41.563  30.346  35.656  1.00  0.00     0.031 C 
ATOM     45  C   UNL A   1      44.366  26.689  31.688  1.00  0.00     0.029 A 
ATOM     46  C   UNL A   1      43.469  27.587  32.248  1.00  0.00     0.049 A 
ATOM     47  H   UNL A   1      41.715  28.400  31.409  1.00  0.00     0.167 HD
ATOM     48  C   UNL A   1      42.583  29.044  34.061  1.00  0.00     0.074 A 
ATOM     49  C   UNL A   1      42.627  29.596  35.402  1.00  0.00     0.031 C 
ATOM     50  C   UNL A   1      43.504  28.185  33.560  1.00  0.00     0.034 A 
BRANCH  37  51
ATOM     51  C   UNL A   1      42.355  26.194  27.804  1.00  0.00     0.023 A 
ATOM     52  C   UNL A   1      43.192  26.700  26.787  1.00  0.00     0.012 A 
ATOM     53  C   UNL A   1      41.917  24.858  27.731  1.00  0.00     0.148 A 
ATOM     54  C   UNL A   1      43.551  25.905  25.700  1.00  0.00     0.002 A 
ATOM     55  C   UNL A   1      42.320  24.055  26.670  1.00  0.00     0.091 A 
ATOM     56  F   UNL A   1      41.101  24.399  28.692  1.00  0.00    -0.205 F 
ATOM     57  C   UNL A   1      43.123  24.581  25.646  1.00  0.00     0.022 A 
BRANCH  55  58
ATOM     58  S   UNL A   1      41.887  22.316  26.550  1.00  0.00     0.127 S 
ATOM     59  O   UNL A   1      40.439  22.385  26.351  1.00  0.00    -0.237 OA
ATOM     60  O   UNL A   1      42.645  21.893  25.372  1.00  0.00    -0.237 OA
ATOM     61  O   UNL A   1      42.316  21.706  27.801  1.00  0.00    -0.744 OA
ENDBRANCH  55  58
ENDBRANCH  37  51
BRANCH  38  62
ATOM     62  C   UNL A   1      39.144  32.003  35.370  1.00  0.00     0.023 A 
ATOM     63  C   UNL A   1      39.292  33.402  35.320  1.00  0.00     0.012 A 
ATOM     64  C   UNL A   1      38.494  31.421  36.475  1.00  0.00     0.148 A 
ATOM     65  C   UNL A   1      38.830  34.204  36.365  1.00  0.00     0.002 A 
ATOM     66  C   UNL A   1      37.985  32.228  37.486  1.00  0.00     0.091 A 
ATOM     67  F   UNL A   1      38.368  30.087  36.507  1.00  0.00    -0.205 F 
ATOM     68  C   UNL A   1      38.168  33.619  37.440  1.00  0.00     0.022 A 
BRANCH  66  69
ATOM     69  S   UNL A   1      37.007  31.578  38.845  1.00  0.00     0.127 S 
ATOM     70  O   UNL A   1      37.900  31.790  39.981  1.00  0.00    -0.237 OA
ATOM     71  O   UNL A   1      35.831  32.449  38.813  1.00  0.00    -0.237 OA
ATOM     72  O   UNL A   1      36.736  30.187  38.508  1.00  0.00    -0.744 OA
ENDBRANCH  66  69
ENDBRANCH  38  62
BRANCH  50  73
ATOM     73  C   UNL A   1      44.664  27.828  34.452  1.00  0.00     0.023 A 
ATOM     74  C   UNL A   1      45.826  28.625  34.453  1.00  0.00     0.012 A 
ATOM     75  C   UNL A   1      44.571  26.732  35.331  1.00  0.00     0.148 A 
ATOM     76  C   UNL A   1      46.896  28.310  35.290  1.00  0.00     0.002 A 
ATOM     77  C   UNL A   1      45.618  26.459  36.201  1.00  0.00     0.091 A 
ATOM     78  F   UNL A   1      43.464  25.977  35.299  1.00  0.00    -0.205 F 
ATOM     79  C   UNL A   1      46.787  27.236  36.171  1.00  0.00     0.022 A 
BRANCH  77  80
ATOM     80  S   UNL A   1      45.524  25.163  37.441  1.00  0.00     0.127 S 
ATOM     81  O   UNL A   1      44.322  25.546  38.180  1.00  0.00    -0.237 OA
ATOM     82  O   UNL A   1      45.379  23.961  36.620  1.00  0.00    -0.237 OA
ATOM     83  O   UNL A   1      46.768  25.235  38.195  1.00  0.00    -0.744 OA
ENDBRANCH  77  80
ENDBRANCH  50  73
ENDBRANCH  24  25
ENDBRANCH  17  19
ENDBRANCH  16  17
ENDBRANCH   1  16
TORSDOF 16
ENDMDL
