MODEL 1
REMARK VINA RESULT:     -11.8      0.000      0.000
REMARK SMILES C[C@H](NC(=O)N1CC[C@@H](C(=O)OCCOC(=O)c2ccc(-c3c4nc(c(-c5cccc(S(=O)(=O)[O-])c5F)c5ccc([nH]5)c(-c5cccc(S(=O)(=O)[O-])c5F)c5nc(c(-c6cccc(S(=O)(=O)[O-])c6F)c6ccc3[nH]6)C=C5)C=C4)cc2)[C@H]1C)c1ccc(Cl)cc1
REMARK SMILES IDX 13 1 12 2 10 3 11 4 9 5 6 6 7 7 81 8 8 9 82 10 4 11 3 12
REMARK SMILES IDX 5 14 2 15 1 16 83 17 84 18 89 19 85 20 88 21 86 22 87 23
REMARK SMILES IDX 14 24 15 25 16 26 17 27 18 28 19 29 80 30 20 31 79 32 21 33
REMARK SMILES IDX 22 34 23 35 73 36 24 37 78 38 72 39 74 40 25 41 77 42 71 43
REMARK SMILES IDX 70 44 26 46 58 47 38 48 57 49 39 50 42 51 56 52 75 53 40 54
REMARK SMILES IDX 41 55 55 57 76 58 43 59 27 60 28 61 36 62 29 63 31 64 37 65
REMARK SMILES IDX 30 66 32 67 33 68 34 69 35 70 59 71 60 72 68 73 61 74 63 75
REMARK SMILES IDX 69 76 62 77 64 78 65 79 66 80 67 81 44 82 45 83 53 84 46 85
REMARK SMILES IDX 48 86 54 87 47 88 49 89 50 90 51 91 52 92
REMARK H PARENT 3 13 74 45 42 56
REMARK Flexibility Score: inf
ROOT
ATOM      1  C   UNL A   1      31.677  29.268  23.838  1.00  0.00     0.274 C 
ENDROOT
BRANCH   1   2
ATOM      2  O   UNL A   1      31.449  27.858  23.621  1.00  0.00    -0.462 OA
BRANCH   2   3
ATOM      3  C   UNL A   1      32.543  27.144  23.254  1.00  0.00     0.311 C 
ATOM      4  O   UNL A   1      33.492  27.600  22.630  1.00  0.00    -0.252 OA
BRANCH   3   5
ATOM      5  C   UNL A   1      32.472  25.684  23.635  1.00  0.00     0.123 C 
ATOM      6  N   UNL A   1      31.757  24.284  25.430  1.00  0.00    -0.321 N 
ATOM      7  C   UNL A   1      31.053  23.889  24.226  1.00  0.00     0.122 C 
ATOM      8  C   UNL A   1      32.850  25.196  25.057  1.00  0.00     0.098 C 
ATOM      9  C   UNL A   1      31.067  25.139  23.382  1.00  0.00     0.039 C 
ATOM     10  C   UNL A   1      33.162  26.239  26.121  1.00  0.00     0.032 C 
BRANCH   6  11
ATOM     11  C   UNL A   1      31.909  23.309  26.375  1.00  0.00     0.318 C 
ATOM     12  N   UNL A   1      33.061  22.595  26.359  1.00  0.00    -0.331 N 
ATOM     13  H   UNL A   1      33.255  22.135  27.208  1.00  0.00     0.165 HD
ATOM     14  O   UNL A   1      31.124  23.160  27.309  1.00  0.00    -0.249 OA
BRANCH  12  15
ATOM     15  C   UNL A   1      34.067  22.378  25.329  1.00  0.00     0.111 C 
ATOM     16  C   UNL A   1      35.544  22.588  25.701  1.00  0.00     0.036 C 
BRANCH  15  17
ATOM     17  C   UNL A   1      33.948  20.953  24.794  1.00  0.00    -0.026 A 
ATOM     18  C   UNL A   1      34.991  20.030  24.951  1.00  0.00     0.007 A 
ATOM     19  C   UNL A   1      32.731  20.517  24.234  1.00  0.00     0.007 A 
ATOM     20  C   UNL A   1      34.791  18.684  24.627  1.00  0.00     0.021 A 
ATOM     21  C   UNL A   1      32.528  19.173  23.927  1.00  0.00     0.021 A 
ATOM     22  C   UNL A   1      33.555  18.258  24.142  1.00  0.00     0.041 A 
ATOM     23  Cl  UNL A   1      33.282  16.587  23.837  1.00  0.00    -0.084 Cl
ENDBRANCH  15  17
ENDBRANCH  12  15
ENDBRANCH   6  11
ENDBRANCH   3   5
ENDBRANCH   2   3
ENDBRANCH   1   2
BRANCH   1  24
ATOM     24  C   UNL A   1      31.653  29.563  25.339  1.00  0.00     0.275 C 
BRANCH  24  25
ATOM     25  O   UNL A   1      32.969  29.964  25.749  1.00  0.00    -0.458 OA
BRANCH  25  26
ATOM     26  C   UNL A   1      33.030  30.939  26.682  1.00  0.00     0.338 C 
ATOM     27  O   UNL A   1      32.214  31.820  26.876  1.00  0.00    -0.246 OA
BRANCH  26  28
ATOM     28  C   UNL A   1      34.273  30.765  27.459  1.00  0.00     0.060 A 
ATOM     29  C   UNL A   1      35.144  31.841  27.667  1.00  0.00     0.016 A 
ATOM     30  C   UNL A   1      34.587  29.502  27.954  1.00  0.00     0.016 A 
ATOM     31  C   UNL A   1      36.339  31.656  28.362  1.00  0.00     0.010 A 
ATOM     32  C   UNL A   1      35.759  29.328  28.691  1.00  0.00     0.010 A 
ATOM     33  C   UNL A   1      36.652  30.398  28.888  1.00  0.00    -0.014 A 
BRANCH  33  34
ATOM     34  C   UNL A   1      37.920  30.165  29.621  1.00  0.00     0.031 A 
ATOM     35  C   UNL A   1      38.950  29.240  29.039  1.00  0.00     0.074 A 
ATOM     36  C   UNL A   1      38.111  30.720  30.834  1.00  0.00     0.049 A 
ATOM     37  N   UNL A   1      40.029  28.751  29.590  1.00  0.00    -0.248 NA
ATOM     38  C   UNL A   1      38.725  28.793  27.653  1.00  0.00     0.031 C 
ATOM     39  C   UNL A   1      37.185  31.635  31.501  1.00  0.00     0.029 A 
ATOM     40  N   UNL A   1      39.133  30.562  31.737  1.00  0.00    -0.354 N 
ATOM     41  C   UNL A   1      40.581  27.894  28.646  1.00  0.00     0.074 A 
ATOM     42  C   UNL A   1      39.721  27.934  27.482  1.00  0.00     0.031 C 
ATOM     43  C   UNL A   1      37.668  31.939  32.716  1.00  0.00     0.029 A 
ATOM     44  C   UNL A   1      38.911  31.204  32.933  1.00  0.00     0.049 A 
ATOM     45  H   UNL A   1      39.946  30.040  31.546  1.00  0.00     0.167 HD
ATOM     46  C   UNL A   1      41.708  27.148  28.737  1.00  0.00     0.034 A 
ATOM     47  C   UNL A   1      39.609  31.173  34.085  1.00  0.00     0.034 A 
ATOM     48  C   UNL A   1      42.584  27.153  29.876  1.00  0.00     0.049 A 
ATOM     49  C   UNL A   1      40.864  30.345  34.156  1.00  0.00     0.074 A 
ATOM     50  C   UNL A   1      43.776  26.471  30.048  1.00  0.00     0.029 A 
ATOM     51  N   UNL A   1      42.366  27.878  31.037  1.00  0.00    -0.354 N 
ATOM     52  N   UNL A   1      41.419  29.608  33.225  1.00  0.00    -0.248 NA
ATOM     53  C   UNL A   1      41.602  30.363  35.427  1.00  0.00     0.031 C 
ATOM     54  C   UNL A   1      44.274  26.778  31.320  1.00  0.00     0.029 A 
ATOM     55  C   UNL A   1      43.399  27.662  31.933  1.00  0.00     0.049 A 
ATOM     56  H   UNL A   1      41.590  28.461  31.202  1.00  0.00     0.167 HD
ATOM     57  C   UNL A   1      42.583  29.095  33.786  1.00  0.00     0.074 A 
ATOM     58  C   UNL A   1      42.665  29.627  35.132  1.00  0.00     0.031 C 
ATOM     59  C   UNL A   1      43.491  28.246  33.246  1.00  0.00     0.034 A 
BRANCH  46  60
ATOM     60  C   UNL A   1      42.073  26.289  27.556  1.00  0.00     0.023 A 
ATOM     61  C   UNL A   1      42.777  26.855  26.475  1.00  0.00     0.012 A 
ATOM     62  C   UNL A   1      41.763  24.915  27.537  1.00  0.00     0.148 A 
ATOM     63  C   UNL A   1      43.142  26.074  25.378  1.00  0.00     0.002 A 
ATOM     64  C   UNL A   1      42.163  24.134  26.458  1.00  0.00     0.091 A 
ATOM     65  F   UNL A   1      41.069  24.401  28.562  1.00  0.00    -0.205 F 
ATOM     66  C   UNL A   1      42.844  24.713  25.375  1.00  0.00     0.022 A 
BRANCH  64  67
ATOM     67  S   UNL A   1      41.885  22.360  26.394  1.00  0.00     0.127 S 
ATOM     68  O   UNL A   1      42.626  21.988  25.190  1.00  0.00    -0.237 OA
ATOM     69  O   UNL A   1      42.490  21.905  27.647  1.00  0.00    -0.237 OA
ATOM     70  O   UNL A   1      40.440  22.186  26.322  1.00  0.00    -0.744 OA
ENDBRANCH  64  67
ENDBRANCH  46  60
BRANCH  47  71
ATOM     71  C   UNL A   1      39.152  31.982  35.252  1.00  0.00     0.023 A 
ATOM     72  C   UNL A   1      38.252  31.414  36.173  1.00  0.00     0.012 A 
ATOM     73  C   UNL A   1      39.632  33.288  35.477  1.00  0.00     0.148 A 
ATOM     74  C   UNL A   1      37.822  32.137  37.286  1.00  0.00     0.002 A 
ATOM     75  C   UNL A   1      39.241  33.982  36.617  1.00  0.00     0.091 A 
ATOM     76  F   UNL A   1      40.469  33.823  34.577  1.00  0.00    -0.205 F 
ATOM     77  C   UNL A   1      38.326  33.414  37.516  1.00  0.00     0.022 A 
BRANCH  75  78
ATOM     78  S   UNL A   1      39.949  35.574  37.057  1.00  0.00     0.127 S 
ATOM     79  O   UNL A   1      39.254  35.876  38.305  1.00  0.00    -0.237 OA
ATOM     80  O   UNL A   1      41.369  35.250  37.205  1.00  0.00    -0.237 OA
ATOM     81  O   UNL A   1      39.653  36.453  35.933  1.00  0.00    -0.744 OA
ENDBRANCH  75  78
ENDBRANCH  47  71
BRANCH  59  82
ATOM     82  C   UNL A   1      44.671  27.856  34.096  1.00  0.00     0.023 A 
ATOM     83  C   UNL A   1      45.818  28.673  34.108  1.00  0.00     0.012 A 
ATOM     84  C   UNL A   1      44.612  26.731  34.939  1.00  0.00     0.148 A 
ATOM     85  C   UNL A   1      46.901  28.361  34.928  1.00  0.00     0.002 A 
ATOM     86  C   UNL A   1      45.679  26.448  35.786  1.00  0.00     0.091 A 
ATOM     87  F   UNL A   1      43.520  25.954  34.897  1.00  0.00    -0.205 F 
ATOM     88  C   UNL A   1      46.827  27.257  35.776  1.00  0.00     0.022 A 
BRANCH  86  89
ATOM     89  S   UNL A   1      45.627  25.100  36.972  1.00  0.00     0.127 S 
ATOM     90  O   UNL A   1      46.935  25.215  37.611  1.00  0.00    -0.237 OA
ATOM     91  O   UNL A   1      44.496  25.474  37.825  1.00  0.00    -0.237 OA
ATOM     92  O   UNL A   1      45.412  23.891  36.190  1.00  0.00    -0.744 OA
ENDBRANCH  86  89
ENDBRANCH  59  82
ENDBRANCH  33  34
ENDBRANCH  26  28
ENDBRANCH  25  26
ENDBRANCH  24  25
ENDBRANCH   1  24
TORSDOF 17
ENDMDL
MODEL 2
REMARK VINA RESULT:     -11.7      1.707      2.330
REMARK SMILES C[C@H](NC(=O)N1CC[C@@H](C(=O)OCCOC(=O)c2ccc(-c3c4nc(c(-c5cccc(S(=O)(=O)[O-])c5F)c5ccc([nH]5)c(-c5cccc(S(=O)(=O)[O-])c5F)c5nc(c(-c6cccc(S(=O)(=O)[O-])c6F)c6ccc3[nH]6)C=C5)C=C4)cc2)[C@H]1C)c1ccc(Cl)cc1
REMARK SMILES IDX 13 1 12 2 10 3 11 4 9 5 6 6 7 7 81 8 8 9 82 10 4 11 3 12
REMARK SMILES IDX 5 14 2 15 1 16 83 17 84 18 89 19 85 20 88 21 86 22 87 23
REMARK SMILES IDX 14 24 15 25 16 26 17 27 18 28 19 29 80 30 20 31 79 32 21 33
REMARK SMILES IDX 22 34 23 35 73 36 24 37 78 38 72 39 74 40 25 41 77 42 71 43
REMARK SMILES IDX 70 44 26 46 58 47 38 48 57 49 39 50 42 51 56 52 75 53 40 54
REMARK SMILES IDX 41 55 55 57 76 58 43 59 27 60 28 61 36 62 29 63 31 64 37 65
REMARK SMILES IDX 30 66 32 67 33 68 34 69 35 70 59 71 60 72 68 73 61 74 63 75
REMARK SMILES IDX 69 76 62 77 64 78 65 79 66 80 67 81 44 82 45 83 53 84 46 85
REMARK SMILES IDX 48 86 54 87 47 88 49 89 50 90 51 91 52 92
REMARK H PARENT 3 13 74 45 42 56
REMARK Flexibility Score: inf
ROOT
ATOM      1  C   UNL A   1      31.502  29.590  24.331  1.00  0.00     0.274 C 
ENDROOT
BRANCH   1   2
ATOM      2  O   UNL A   1      30.903  28.280  24.433  1.00  0.00    -0.462 OA
BRANCH   2   3
ATOM      3  C   UNL A   1      31.760  27.238  24.289  1.00  0.00     0.311 C 
ATOM      4  O   UNL A   1      32.600  27.148  23.403  1.00  0.00    -0.252 OA
BRANCH   3   5
ATOM      5  C   UNL A   1      31.553  26.135  25.300  1.00  0.00     0.123 C 
ATOM      6  N   UNL A   1      31.576  23.754  25.455  1.00  0.00    -0.321 N 
ATOM      7  C   UNL A   1      32.535  24.290  26.401  1.00  0.00     0.122 C 
ATOM      8  C   UNL A   1      30.742  24.859  24.956  1.00  0.00     0.098 C 
ATOM      9  C   UNL A   1      32.899  25.631  25.815  1.00  0.00     0.039 C 
ATOM     10  C   UNL A   1      30.271  24.666  23.521  1.00  0.00     0.032 C 
BRANCH   6  11
ATOM     11  C   UNL A   1      31.056  22.530  25.766  1.00  0.00     0.318 C 
ATOM     12  N   UNL A   1      31.667  21.438  25.245  1.00  0.00    -0.331 N 
ATOM     13  H   UNL A   1      31.461  20.602  25.721  1.00  0.00     0.165 HD
ATOM     14  O   UNL A   1      30.168  22.378  26.603  1.00  0.00    -0.249 OA
BRANCH  12  15
ATOM     15  C   UNL A   1      32.569  21.265  24.115  1.00  0.00     0.111 C 
ATOM     16  C   UNL A   1      32.179  21.899  22.770  1.00  0.00     0.036 C 
BRANCH  15  17
ATOM     17  C   UNL A   1      33.947  21.815  24.476  1.00  0.00    -0.026 A 
ATOM     18  C   UNL A   1      34.522  22.865  23.747  1.00  0.00     0.007 A 
ATOM     19  C   UNL A   1      34.608  21.345  25.629  1.00  0.00     0.007 A 
ATOM     20  C   UNL A   1      35.691  23.481  24.207  1.00  0.00     0.021 A 
ATOM     21  C   UNL A   1      35.763  21.969  26.094  1.00  0.00     0.021 A 
ATOM     22  C   UNL A   1      36.290  23.047  25.389  1.00  0.00     0.041 A 
ATOM     23  Cl  UNL A   1      37.672  23.869  26.003  1.00  0.00    -0.084 Cl
ENDBRANCH  15  17
ENDBRANCH  12  15
ENDBRANCH   6  11
ENDBRANCH   3   5
ENDBRANCH   2   3
ENDBRANCH   1   2
BRANCH   1  24
ATOM     24  C   UNL A   1      31.562  30.233  25.718  1.00  0.00     0.275 C 
BRANCH  24  25
ATOM     25  O   UNL A   1      32.940  30.405  26.085  1.00  0.00    -0.458 OA
BRANCH  25  26
ATOM     26  C   UNL A   1      33.198  31.374  26.991  1.00  0.00     0.338 C 
ATOM     27  O   UNL A   1      32.508  32.344  27.243  1.00  0.00    -0.246 OA
BRANCH  26  28
ATOM     28  C   UNL A   1      34.481  31.065  27.653  1.00  0.00     0.060 A 
ATOM     29  C   UNL A   1      34.783  29.759  28.054  1.00  0.00     0.016 A 
ATOM     30  C   UNL A   1      35.374  32.102  27.906  1.00  0.00     0.016 A 
ATOM     31  C   UNL A   1      35.977  29.486  28.721  1.00  0.00     0.010 A 
ATOM     32  C   UNL A   1      36.590  31.820  28.531  1.00  0.00     0.010 A 
ATOM     33  C   UNL A   1      36.895  30.515  28.957  1.00  0.00    -0.014 A 
BRANCH  33  34
ATOM     34  C   UNL A   1      38.168  30.259  29.674  1.00  0.00     0.031 A 
ATOM     35  C   UNL A   1      39.169  29.307  29.085  1.00  0.00     0.074 A 
ATOM     36  C   UNL A   1      38.389  30.818  30.879  1.00  0.00     0.049 A 
ATOM     37  N   UNL A   1      40.244  28.798  29.624  1.00  0.00    -0.248 NA
ATOM     38  C   UNL A   1      38.914  28.854  27.705  1.00  0.00     0.031 C 
ATOM     39  C   UNL A   1      37.494  31.759  31.553  1.00  0.00     0.029 A 
ATOM     40  N   UNL A   1      39.420  30.644  31.769  1.00  0.00    -0.354 N 
ATOM     41  C   UNL A   1      40.763  27.921  28.678  1.00  0.00     0.074 A 
ATOM     42  C   UNL A   1      39.887  27.973  27.527  1.00  0.00     0.031 C 
ATOM     43  C   UNL A   1      38.001  32.060  32.759  1.00  0.00     0.029 A 
ATOM     44  C   UNL A   1      39.230  31.300  32.963  1.00  0.00     0.049 A 
ATOM     45  H   UNL A   1      40.219  30.103  31.571  1.00  0.00     0.167 HD
ATOM     46  C   UNL A   1      41.874  27.151  28.759  1.00  0.00     0.034 A 
ATOM     47  C   UNL A   1      39.944  31.262  34.106  1.00  0.00     0.034 A 
ATOM     48  C   UNL A   1      42.766  27.144  29.885  1.00  0.00     0.049 A 
ATOM     49  C   UNL A   1      41.180  30.406  34.165  1.00  0.00     0.074 A 
ATOM     50  C   UNL A   1      43.945  26.437  30.046  1.00  0.00     0.029 A 
ATOM     51  N   UNL A   1      42.582  27.883  31.044  1.00  0.00    -0.354 N 
ATOM     52  N   UNL A   1      41.705  29.649  33.232  1.00  0.00    -0.248 NA
ATOM     53  C   UNL A   1      41.937  30.416  35.425  1.00  0.00     0.031 C 
ATOM     54  C   UNL A   1      44.468  26.742  31.308  1.00  0.00     0.029 A 
ATOM     55  C   UNL A   1      43.622  27.650  31.926  1.00  0.00     0.049 A 
ATOM     56  H   UNL A   1      41.821  28.485  31.215  1.00  0.00     0.167 HD
ATOM     57  C   UNL A   1      42.866  29.115  33.780  1.00  0.00     0.074 A 
ATOM     58  C   UNL A   1      42.979  29.654  35.120  1.00  0.00     0.031 C 
ATOM     59  C   UNL A   1      43.747  28.241  33.234  1.00  0.00     0.034 A 
BRANCH  46  60
ATOM     60  C   UNL A   1      42.203  26.275  27.580  1.00  0.00     0.023 A 
ATOM     61  C   UNL A   1      42.874  26.826  26.469  1.00  0.00     0.012 A 
ATOM     62  C   UNL A   1      41.892  24.901  27.589  1.00  0.00     0.148 A 
ATOM     63  C   UNL A   1      43.205  26.029  25.373  1.00  0.00     0.002 A 
ATOM     64  C   UNL A   1      42.259  24.105  26.510  1.00  0.00     0.091 A 
ATOM     65  F   UNL A   1      41.230  24.402  28.642  1.00  0.00    -0.205 F 
ATOM     66  C   UNL A   1      42.906  24.668  25.398  1.00  0.00     0.022 A 
BRANCH  64  67
ATOM     67  S   UNL A   1      41.979  22.330  26.479  1.00  0.00     0.127 S 
ATOM     68  O   UNL A   1      42.608  21.911  27.731  1.00  0.00    -0.237 OA
ATOM     69  O   UNL A   1      40.517  22.246  26.473  1.00  0.00    -0.237 OA
ATOM     70  O   UNL A   1      42.617  21.848  25.262  1.00  0.00    -0.744 OA
ENDBRANCH  64  67
ENDBRANCH  46  60
BRANCH  47  71
ATOM     71  C   UNL A   1      39.522  32.089  35.272  1.00  0.00     0.023 A 
ATOM     72  C   UNL A   1      39.862  33.454  35.307  1.00  0.00     0.012 A 
ATOM     73  C   UNL A   1      38.754  31.545  36.322  1.00  0.00     0.148 A 
ATOM     74  C   UNL A   1      39.463  34.260  36.375  1.00  0.00     0.002 A 
ATOM     75  C   UNL A   1      38.314  32.366  37.354  1.00  0.00     0.091 A 
ATOM     76  F   UNL A   1      38.459  30.238  36.286  1.00  0.00    -0.205 F 
ATOM     77  C   UNL A   1      38.679  33.721  37.390  1.00  0.00     0.022 A 
BRANCH  75  78
ATOM     78  S   UNL A   1      37.187  31.783  38.627  1.00  0.00     0.127 S 
ATOM     79  O   UNL A   1      36.944  30.406  38.204  1.00  0.00    -0.237 OA
ATOM     80  O   UNL A   1      37.996  31.920  39.840  1.00  0.00    -0.237 OA
ATOM     81  O   UNL A   1      36.041  32.680  38.572  1.00  0.00    -0.744 OA
ENDBRANCH  75  78
ENDBRANCH  47  71
BRANCH  59  82
ATOM     82  C   UNL A   1      44.929  27.831  34.069  1.00  0.00     0.023 A 
ATOM     83  C   UNL A   1      46.102  28.611  34.044  1.00  0.00     0.012 A 
ATOM     84  C   UNL A   1      44.852  26.725  34.937  1.00  0.00     0.148 A 
ATOM     85  C   UNL A   1      47.189  28.281  34.850  1.00  0.00     0.002 A 
ATOM     86  C   UNL A   1      45.924  26.426  35.769  1.00  0.00     0.091 A 
ATOM     87  F   UNL A   1      43.735  25.982  34.930  1.00  0.00    -0.205 F 
ATOM     88  C   UNL A   1      47.097  27.197  35.721  1.00  0.00     0.022 A 
BRANCH  86  89
ATOM     89  S   UNL A   1      45.853  25.103  36.983  1.00  0.00     0.127 S 
ATOM     90  O   UNL A   1      46.047  23.921  36.148  1.00  0.00    -0.237 OA
ATOM     91  O   UNL A   1      46.981  25.422  37.862  1.00  0.00    -0.237 OA
ATOM     92  O   UNL A   1      44.547  25.218  37.619  1.00  0.00    -0.744 OA
ENDBRANCH  86  89
ENDBRANCH  59  82
ENDBRANCH  33  34
ENDBRANCH  26  28
ENDBRANCH  25  26
ENDBRANCH  24  25
ENDBRANCH   1  24
TORSDOF 17
ENDMDL
MODEL 3
REMARK VINA RESULT:     -11.7      4.833      9.891
REMARK SMILES C[C@H](NC(=O)N1CC[C@@H](C(=O)OCCOC(=O)c2ccc(-c3c4nc(c(-c5cccc(S(=O)(=O)[O-])c5F)c5ccc([nH]5)c(-c5cccc(S(=O)(=O)[O-])c5F)c5nc(c(-c6cccc(S(=O)(=O)[O-])c6F)c6ccc3[nH]6)C=C5)C=C4)cc2)[C@H]1C)c1ccc(Cl)cc1
REMARK SMILES IDX 13 1 12 2 10 3 11 4 9 5 6 6 7 7 81 8 8 9 82 10 4 11 3 12
REMARK SMILES IDX 5 14 2 15 1 16 83 17 84 18 89 19 85 20 88 21 86 22 87 23
REMARK SMILES IDX 14 24 15 25 16 26 17 27 18 28 19 29 80 30 20 31 79 32 21 33
REMARK SMILES IDX 22 34 23 35 73 36 24 37 78 38 72 39 74 40 25 41 77 42 71 43
REMARK SMILES IDX 70 44 26 46 58 47 38 48 57 49 39 50 42 51 56 52 75 53 40 54
REMARK SMILES IDX 41 55 55 57 76 58 43 59 27 60 28 61 36 62 29 63 31 64 37 65
REMARK SMILES IDX 30 66 32 67 33 68 34 69 35 70 59 71 60 72 68 73 61 74 63 75
REMARK SMILES IDX 69 76 62 77 64 78 65 79 66 80 67 81 44 82 45 83 53 84 46 85
REMARK SMILES IDX 48 86 54 87 47 88 49 89 50 90 51 91 52 92
REMARK H PARENT 3 13 74 45 42 56
REMARK Flexibility Score: inf
ROOT
ATOM      1  C   UNL A   1      34.342  21.179  25.117  1.00  0.00     0.274 C 
ENDROOT
BRANCH   1   2
ATOM      2  O   UNL A   1      34.207  22.020  26.284  1.00  0.00    -0.462 OA
BRANCH   2   3
ATOM      3  C   UNL A   1      33.409  23.107  26.126  1.00  0.00     0.311 C 
ATOM      4  O   UNL A   1      32.574  23.479  26.940  1.00  0.00    -0.252 OA
BRANCH   3   5
ATOM      5  C   UNL A   1      33.594  23.810  24.802  1.00  0.00     0.123 C 
ATOM      6  N   UNL A   1      32.515  25.417  23.406  1.00  0.00    -0.321 N 
ATOM      7  C   UNL A   1      33.848  25.895  23.720  1.00  0.00     0.122 C 
ATOM      8  C   UNL A   1      32.415  24.007  23.815  1.00  0.00     0.098 C 
ATOM      9  C   UNL A   1      34.174  25.206  25.021  1.00  0.00     0.039 C 
ATOM     10  C   UNL A   1      31.018  23.602  24.266  1.00  0.00     0.032 C 
BRANCH   6  11
ATOM     11  C   UNL A   1      31.979  25.879  22.238  1.00  0.00     0.318 C 
ATOM     12  N   UNL A   1      31.073  26.885  22.318  1.00  0.00    -0.331 N 
ATOM     13  H   UNL A   1      30.949  27.376  21.474  1.00  0.00     0.165 HD
ATOM     14  O   UNL A   1      32.390  25.529  21.134  1.00  0.00    -0.249 OA
BRANCH  12  15
ATOM     15  C   UNL A   1      30.249  27.377  23.413  1.00  0.00     0.111 C 
ATOM     16  C   UNL A   1      29.249  26.407  24.062  1.00  0.00     0.036 C 
BRANCH  15  17
ATOM     17  C   UNL A   1      31.148  27.895  24.534  1.00  0.00    -0.026 A 
ATOM     18  C   UNL A   1      31.156  27.285  25.796  1.00  0.00     0.007 A 
ATOM     19  C   UNL A   1      32.071  28.926  24.270  1.00  0.00     0.007 A 
ATOM     20  C   UNL A   1      32.118  27.648  26.744  1.00  0.00     0.021 A 
ATOM     21  C   UNL A   1      33.038  29.275  25.209  1.00  0.00     0.021 A 
ATOM     22  C   UNL A   1      33.069  28.622  26.437  1.00  0.00     0.041 A 
ATOM     23  Cl  UNL A   1      34.310  28.996  27.568  1.00  0.00    -0.084 Cl
ENDBRANCH  15  17
ENDBRANCH  12  15
ENDBRANCH   6  11
ENDBRANCH   3   5
ENDBRANCH   2   3
ENDBRANCH   1   2
BRANCH   1  24
ATOM     24  C   UNL A   1      35.788  20.692  25.006  1.00  0.00     0.275 C 
BRANCH  24  25
ATOM     25  O   UNL A   1      36.650  21.672  25.605  1.00  0.00    -0.458 OA
BRANCH  25  26
ATOM     26  C   UNL A   1      37.964  21.360  25.652  1.00  0.00     0.338 C 
ATOM     27  O   UNL A   1      38.481  20.311  25.316  1.00  0.00    -0.246 OA
BRANCH  26  28
ATOM     28  C   UNL A   1      38.702  22.523  26.184  1.00  0.00     0.060 A 
ATOM     29  C   UNL A   1      38.232  23.825  25.975  1.00  0.00     0.016 A 
ATOM     30  C   UNL A   1      39.896  22.308  26.866  1.00  0.00     0.016 A 
ATOM     31  C   UNL A   1      38.961  24.919  26.441  1.00  0.00     0.010 A 
ATOM     32  C   UNL A   1      40.601  23.401  27.373  1.00  0.00     0.010 A 
ATOM     33  C   UNL A   1      40.149  24.715  27.152  1.00  0.00    -0.014 A 
BRANCH  33  34
ATOM     34  C   UNL A   1      40.953  25.858  27.650  1.00  0.00     0.031 A 
ATOM     35  C   UNL A   1      40.284  26.938  28.451  1.00  0.00     0.074 A 
ATOM     36  C   UNL A   1      42.255  25.962  27.321  1.00  0.00     0.049 A 
ATOM     37  N   UNL A   1      40.746  28.103  28.817  1.00  0.00    -0.248 NA
ATOM     38  C   UNL A   1      38.900  26.674  28.885  1.00  0.00     0.031 C 
ATOM     39  C   UNL A   1      43.014  24.977  26.550  1.00  0.00     0.029 A 
ATOM     40  N   UNL A   1      43.159  26.967  27.561  1.00  0.00    -0.354 N 
ATOM     41  C   UNL A   1      39.696  28.738  29.470  1.00  0.00     0.074 A 
ATOM     42  C   UNL A   1      38.574  27.824  29.457  1.00  0.00     0.031 C 
ATOM     43  C   UNL A   1      44.261  25.437  26.359  1.00  0.00     0.029 A 
ATOM     44  C   UNL A   1      44.376  26.766  26.952  1.00  0.00     0.049 A 
ATOM     45  H   UNL A   1      42.956  27.755  28.116  1.00  0.00     0.167 HD
ATOM     46  C   UNL A   1      39.674  29.967  30.039  1.00  0.00     0.034 A 
ATOM     47  C   UNL A   1      45.447  27.577  26.850  1.00  0.00     0.034 A 
ATOM     48  C   UNL A   1      40.808  30.848  30.092  1.00  0.00     0.049 A 
ATOM     49  C   UNL A   1      45.400  28.934  27.500  1.00  0.00     0.074 A 
ATOM     50  C   UNL A   1      40.904  32.094  30.688  1.00  0.00     0.029 A 
ATOM     51  N   UNL A   1      42.047  30.575  29.533  1.00  0.00    -0.354 N 
ATOM     52  N   UNL A   1      44.430  29.485  28.188  1.00  0.00    -0.248 NA
ATOM     53  C   UNL A   1      46.602  29.771  27.380  1.00  0.00     0.031 C 
ATOM     54  C   UNL A   1      42.200  32.578  30.479  1.00  0.00     0.029 A 
ATOM     55  C   UNL A   1      42.915  31.628  29.767  1.00  0.00     0.049 A 
ATOM     56  H   UNL A   1      42.277  29.754  29.041  1.00  0.00     0.167 HD
ATOM     57  C   UNL A   1      44.912  30.720  28.607  1.00  0.00     0.074 A 
ATOM     58  C   UNL A   1      46.270  30.826  28.113  1.00  0.00     0.031 C 
ATOM     59  C   UNL A   1      44.282  31.689  29.316  1.00  0.00     0.034 A 
BRANCH  46  60
ATOM     60  C   UNL A   1      38.387  30.417  30.677  1.00  0.00     0.023 A 
ATOM     61  C   UNL A   1      38.091  30.025  31.997  1.00  0.00     0.012 A 
ATOM     62  C   UNL A   1      37.495  31.265  29.990  1.00  0.00     0.148 A 
ATOM     63  C   UNL A   1      36.913  30.445  32.616  1.00  0.00     0.002 A 
ATOM     64  C   UNL A   1      36.342  31.710  30.626  1.00  0.00     0.091 A 
ATOM     65  F   UNL A   1      37.782  31.605  28.726  1.00  0.00    -0.205 F 
ATOM     66  C   UNL A   1      36.045  31.294  31.934  1.00  0.00     0.022 A 
BRANCH  64  67
ATOM     67  S   UNL A   1      35.197  32.861  29.854  1.00  0.00     0.127 S 
ATOM     68  O   UNL A   1      34.620  32.036  28.793  1.00  0.00    -0.237 OA
ATOM     69  O   UNL A   1      34.279  33.169  30.952  1.00  0.00    -0.237 OA
ATOM     70  O   UNL A   1      36.005  33.987  29.407  1.00  0.00    -0.744 OA
ENDBRANCH  64  67
ENDBRANCH  46  60
BRANCH  47  71
ATOM     71  C   UNL A   1      46.667  27.108  26.132  1.00  0.00     0.023 A 
ATOM     72  C   UNL A   1      46.774  27.322  24.744  1.00  0.00     0.012 A 
ATOM     73  C   UNL A   1      47.734  26.493  26.816  1.00  0.00     0.148 A 
ATOM     74  C   UNL A   1      47.912  26.914  24.047  1.00  0.00     0.002 A 
ATOM     75  C   UNL A   1      48.888  26.139  26.124  1.00  0.00     0.091 A 
ATOM     76  F   UNL A   1      47.606  26.275  28.132  1.00  0.00    -0.205 F 
ATOM     77  C   UNL A   1      48.973  26.336  24.737  1.00  0.00     0.022 A 
BRANCH  75  78
ATOM     78  S   UNL A   1      50.351  25.515  26.960  1.00  0.00     0.127 S 
ATOM     79  O   UNL A   1      51.280  25.337  25.847  1.00  0.00    -0.237 OA
ATOM     80  O   UNL A   1      50.680  26.616  27.867  1.00  0.00    -0.237 OA
ATOM     81  O   UNL A   1      49.923  24.297  27.635  1.00  0.00    -0.744 OA
ENDBRANCH  75  78
ENDBRANCH  47  71
BRANCH  59  82
ATOM     82  C   UNL A   1      45.059  32.939  29.630  1.00  0.00     0.023 A 
ATOM     83  C   UNL A   1      45.869  32.982  30.781  1.00  0.00     0.012 A 
ATOM     84  C   UNL A   1      45.050  34.035  28.747  1.00  0.00     0.148 A 
ATOM     85  C   UNL A   1      46.640  34.109  31.062  1.00  0.00     0.002 A 
ATOM     86  C   UNL A   1      45.853  35.139  29.011  1.00  0.00     0.091 A 
ATOM     87  F   UNL A   1      44.256  33.982  27.667  1.00  0.00    -0.205 F 
ATOM     88  C   UNL A   1      46.641  35.182  30.172  1.00  0.00     0.022 A 
BRANCH  86  89
ATOM     89  S   UNL A   1      45.983  36.522  27.871  1.00  0.00     0.127 S 
ATOM     90  O   UNL A   1      47.082  37.287  28.455  1.00  0.00    -0.237 OA
ATOM     91  O   UNL A   1      46.306  35.858  26.607  1.00  0.00    -0.237 OA
ATOM     92  O   UNL A   1      44.681  37.175  27.890  1.00  0.00    -0.744 OA
ENDBRANCH  86  89
ENDBRANCH  59  82
ENDBRANCH  33  34
ENDBRANCH  26  28
ENDBRANCH  25  26
ENDBRANCH  24  25
ENDBRANCH   1  24
TORSDOF 17
ENDMDL
