MODEL 1
REMARK VINA RESULT:     -12.8      0.000      0.000
REMARK SMILES Cc1nc(-c2ccccc2)sc1C(=O)N[C@@H](CC1=c2ccccc2=NC1)C(=O)OCCOC(=O)c1ccc(-c2c3nc(c(-c4cccc(S(=O)(=O)[O-])c4F)c4ccc([nH]4)c(-c4cccc(S(=O)(=O)[O-])c4F)c4nc(c(-c5cccc(S(=O)(=O)[O-])c5F)c5ccc2[nH]5)C=C4)C=C3)cc1
REMARK SMILES IDX 30 1 29 2 27 3 28 4 16 5 15 6 13 7 14 8 12 10 1 11 2 12 3 13
REMARK SMILES IDX 4 14 11 15 5 16 6 17 10 18 7 19 9 20 8 21 17 22 18 23 19 24
REMARK SMILES IDX 26 25 20 26 24 27 25 28 21 29 23 30 22 31 31 32 32 33 33 34
REMARK SMILES IDX 34 35 35 36 36 37 97 38 37 39 96 40 38 41 39 42 40 43 90 44
REMARK SMILES IDX 41 45 95 46 89 47 91 48 42 49 94 50 88 51 87 52 43 54 75 55
REMARK SMILES IDX 55 56 74 57 56 58 59 59 73 60 92 61 57 62 58 63 72 65 93 66
REMARK SMILES IDX 60 67 44 68 45 69 53 70 46 71 48 72 54 73 47 74 49 75 50 76
REMARK SMILES IDX 51 77 52 78 76 79 77 80 85 81 78 82 80 83 86 84 79 85 81 86
REMARK SMILES IDX 82 87 83 88 84 89 61 90 62 91 70 92 63 93 65 94 71 95 64 96
REMARK SMILES IDX 66 97 67 98 68 99 69 100
REMARK H PARENT 15 9 91 53 59 64
REMARK Flexibility Score: inf
ROOT
ATOM      1  C   UNL A   1      35.597  20.389  25.218  1.00  0.00     0.274 C 
ENDROOT
BRANCH   1   2
ATOM      2  O   UNL A   1      35.269  21.760  24.918  1.00  0.00    -0.461 OA
BRANCH   2   3
ATOM      3  C   UNL A   1      35.119  22.580  25.992  1.00  0.00     0.329 C 
ATOM      4  O   UNL A   1      35.785  22.520  27.020  1.00  0.00    -0.250 OA
BRANCH   3   5
ATOM      5  C   UNL A   1      33.965  23.577  25.828  1.00  0.00     0.196 C 
BRANCH   5   6
ATOM      6  N   UNL A   1      32.747  23.278  26.573  1.00  0.00    -0.338 N 
ATOM      7  C   UNL A   1      31.441  23.683  26.458  1.00  0.00     0.264 C 
ATOM      8  O   UNL A   1      30.755  23.395  27.447  1.00  0.00    -0.268 OA
ATOM      9  H   UNL A   1      32.895  22.651  27.319  1.00  0.00     0.164 HD
BRANCH   7  10
ATOM     10  C   UNL A   1      30.874  24.347  25.287  1.00  0.00     0.115 A 
ATOM     11  C   UNL A   1      31.419  23.143  23.003  1.00  0.00     0.068 C 
ATOM     12  C   UNL A   1      30.812  24.152  23.908  1.00  0.00     0.062 A 
ATOM     13  N   UNL A   1      30.077  25.101  23.214  1.00  0.00    -0.241 NA
ATOM     14  C   UNL A   1      29.673  26.072  23.992  1.00  0.00     0.124 A 
ATOM     15  S   UNL A   1      30.065  25.869  25.637  1.00  0.00    -0.108 S 
BRANCH  14  16
ATOM     16  C   UNL A   1      28.920  27.227  23.509  1.00  0.00     0.010 A 
ATOM     17  C   UNL A   1      29.611  28.278  22.894  1.00  0.00     0.011 A 
ATOM     18  C   UNL A   1      27.546  27.364  23.745  1.00  0.00     0.011 A 
ATOM     19  C   UNL A   1      28.942  29.434  22.495  1.00  0.00     0.001 A 
ATOM     20  C   UNL A   1      26.879  28.534  23.364  1.00  0.00     0.001 A 
ATOM     21  C   UNL A   1      27.577  29.565  22.735  1.00  0.00     0.000 A 
ENDBRANCH  14  16
ENDBRANCH   7  10
ENDBRANCH   5   6
BRANCH   5  22
ATOM     22  C   UNL A   1      34.470  24.996  26.164  1.00  0.00     0.070 C 
BRANCH  22  23
ATOM     23  C   UNL A   1      33.901  26.075  25.294  1.00  0.00    -0.037 C 
ATOM     24  C   UNL A   1      33.389  27.245  25.666  1.00  0.00     0.001 A 
ATOM     25  C   UNL A   1      33.870  25.934  23.801  1.00  0.00     0.174 C 
ATOM     26  C   UNL A   1      33.152  27.901  26.911  1.00  0.00     0.010 A 
ATOM     27  C   UNL A   1      33.126  27.905  24.378  1.00  0.00     0.065 A 
ATOM     28  N   UNL A   1      33.357  27.230  23.293  1.00  0.00    -0.280 NA
ATOM     29  C   UNL A   1      32.719  29.171  26.897  1.00  0.00     0.001 A 
ATOM     30  C   UNL A   1      32.652  29.303  24.444  1.00  0.00     0.028 A 
ATOM     31  C   UNL A   1      32.484  29.877  25.648  1.00  0.00     0.002 A 
ENDBRANCH  22  23
ENDBRANCH   5  22
ENDBRANCH   3   5
ENDBRANCH   2   3
ENDBRANCH   1   2
BRANCH   1  32
ATOM     32  C   UNL A   1      37.013  20.058  24.745  1.00  0.00     0.275 C 
BRANCH  32  33
ATOM     33  O   UNL A   1      37.908  21.164  24.972  1.00  0.00    -0.458 OA
BRANCH  33  34
ATOM     34  C   UNL A   1      38.934  20.890  25.810  1.00  0.00     0.338 C 
ATOM     35  O   UNL A   1      39.449  19.801  26.017  1.00  0.00    -0.246 OA
BRANCH  34  36
ATOM     36  C   UNL A   1      39.449  22.131  26.398  1.00  0.00     0.060 A 
ATOM     37  C   UNL A   1      38.932  23.341  25.938  1.00  0.00     0.016 A 
ATOM     38  C   UNL A   1      40.529  22.113  27.276  1.00  0.00     0.016 A 
ATOM     39  C   UNL A   1      39.530  24.542  26.307  1.00  0.00     0.010 A 
ATOM     40  C   UNL A   1      41.097  23.325  27.690  1.00  0.00     0.010 A 
ATOM     41  C   UNL A   1      40.624  24.550  27.185  1.00  0.00    -0.014 A 
BRANCH  41  42
ATOM     42  C   UNL A   1      41.301  25.834  27.510  1.00  0.00     0.031 A 
ATOM     43  C   UNL A   1      40.583  26.891  28.306  1.00  0.00     0.074 A 
ATOM     44  C   UNL A   1      42.587  26.034  27.156  1.00  0.00     0.049 A 
ATOM     45  N   UNL A   1      40.984  28.094  28.627  1.00  0.00    -0.248 NA
ATOM     46  C   UNL A   1      39.248  26.545  28.822  1.00  0.00     0.031 C 
ATOM     47  C   UNL A   1      43.420  25.080  26.426  1.00  0.00     0.029 A 
ATOM     48  N   UNL A   1      43.419  27.106  27.370  1.00  0.00    -0.354 N 
ATOM     49  C   UNL A   1      39.944  28.660  29.354  1.00  0.00     0.074 A 
ATOM     50  C   UNL A   1      38.884  27.677  29.410  1.00  0.00     0.031 C 
ATOM     51  C   UNL A   1      44.646  25.600  26.264  1.00  0.00     0.029 A 
ATOM     52  C   UNL A   1      44.670  26.949  26.821  1.00  0.00     0.049 A 
ATOM     53  H   UNL A   1      43.146  27.910  27.869  1.00  0.00     0.167 HD
ATOM     54  C   UNL A   1      39.889  29.869  29.961  1.00  0.00     0.034 A 
ATOM     55  C   UNL A   1      45.711  27.802  26.741  1.00  0.00     0.034 A 
ATOM     56  C   UNL A   1      40.966  30.821  29.987  1.00  0.00     0.049 A 
ATOM     57  C   UNL A   1      45.590  29.173  27.345  1.00  0.00     0.074 A 
ATOM     58  C   UNL A   1      41.005  32.055  30.613  1.00  0.00     0.029 A 
ATOM     59  N   UNL A   1      42.194  30.648  29.370  1.00  0.00    -0.354 N 
ATOM     60  N   UNL A   1      44.610  29.679  28.053  1.00  0.00    -0.248 NA
ATOM     61  C   UNL A   1      46.722  30.091  27.144  1.00  0.00     0.031 C 
ATOM     62  C   UNL A   1      42.260  32.627  30.377  1.00  0.00     0.029 A 
ATOM     63  C   UNL A   1      43.001  31.748  29.604  1.00  0.00     0.049 A 
ATOM     64  H   UNL A   1      42.455  29.857  28.844  1.00  0.00     0.167 HD
ATOM     65  C   UNL A   1      45.012  30.965  28.395  1.00  0.00     0.074 A 
ATOM     66  C   UNL A   1      46.337  31.152  27.841  1.00  0.00     0.031 C 
ATOM     67  C   UNL A   1      44.333  31.914  29.085  1.00  0.00     0.034 A 
BRANCH  54  68
ATOM     68  C   UNL A   1      38.631  30.214  30.707  1.00  0.00     0.023 A 
ATOM     69  C   UNL A   1      38.469  29.763  32.031  1.00  0.00     0.012 A 
ATOM     70  C   UNL A   1      37.642  31.030  30.124  1.00  0.00     0.148 A 
ATOM     71  C   UNL A   1      37.332  30.105  32.761  1.00  0.00     0.002 A 
ATOM     72  C   UNL A   1      36.525  31.393  30.868  1.00  0.00     0.091 A 
ATOM     73  F   UNL A   1      37.804  31.423  28.852  1.00  0.00    -0.205 F 
ATOM     74  C   UNL A   1      36.366  30.928  32.183  1.00  0.00     0.022 A 
BRANCH  72  75
ATOM     75  S   UNL A   1      35.262  32.495  30.222  1.00  0.00     0.127 S 
ATOM     76  O   UNL A   1      34.735  31.717  29.102  1.00  0.00    -0.237 OA
ATOM     77  O   UNL A   1      34.349  32.625  31.357  1.00  0.00    -0.237 OA
ATOM     78  O   UNL A   1      35.958  33.724  29.865  1.00  0.00    -0.744 OA
ENDBRANCH  72  75
ENDBRANCH  54  68
BRANCH  55  79
ATOM     79  C   UNL A   1      46.966  27.377  26.057  1.00  0.00     0.023 A 
ATOM     80  C   UNL A   1      47.882  26.551  26.734  1.00  0.00     0.012 A 
ATOM     81  C   UNL A   1      47.237  27.757  24.728  1.00  0.00     0.148 A 
ATOM     82  C   UNL A   1      49.053  26.122  26.104  1.00  0.00     0.002 A 
ATOM     83  C   UNL A   1      48.371  27.275  24.086  1.00  0.00     0.091 A 
ATOM     84  F   UNL A   1      46.374  28.576  24.110  1.00  0.00    -0.205 F 
ATOM     85  C   UNL A   1      49.288  26.469  24.776  1.00  0.00     0.022 A 
BRANCH  83  86
ATOM     86  S   UNL A   1      48.651  27.556  22.333  1.00  0.00     0.127 S 
ATOM     87  O   UNL A   1      49.936  28.249  22.341  1.00  0.00    -0.237 OA
ATOM     88  O   UNL A   1      48.689  26.192  21.802  1.00  0.00    -0.237 OA
ATOM     89  O   UNL A   1      47.504  28.334  21.884  1.00  0.00    -0.744 OA
ENDBRANCH  83  86
ENDBRANCH  55  79
BRANCH  67  90
ATOM     90  C   UNL A   1      45.006  33.245  29.287  1.00  0.00     0.023 A 
ATOM     91  C   UNL A   1      45.745  33.471  30.465  1.00  0.00     0.012 A 
ATOM     92  C   UNL A   1      44.970  34.241  28.291  1.00  0.00     0.148 A 
ATOM     93  C   UNL A   1      46.417  34.677  30.660  1.00  0.00     0.002 A 
ATOM     94  C   UNL A   1      45.676  35.425  28.475  1.00  0.00     0.091 A 
ATOM     95  F   UNL A   1      44.243  34.016  27.187  1.00  0.00    -0.205 F 
ATOM     96  C   UNL A   1      46.392  35.648  29.662  1.00  0.00     0.022 A 
BRANCH  94  97
ATOM     97  S   UNL A   1      45.765  36.690  27.203  1.00  0.00     0.127 S 
ATOM     98  O   UNL A   1      44.388  37.177  27.168  1.00  0.00    -0.237 OA
ATOM     99  O   UNL A   1      46.732  37.636  27.767  1.00  0.00    -0.237 OA
ATOM    100  O   UNL A   1      46.226  36.009  26.001  1.00  0.00    -0.744 OA
ENDBRANCH  94  97
ENDBRANCH  67  90
ENDBRANCH  41  42
ENDBRANCH  34  36
ENDBRANCH  33  34
ENDBRANCH  32  33
ENDBRANCH   1  32
TORSDOF 19
ENDMDL
MODEL 2
REMARK VINA RESULT:     -12.6      4.953      9.708
REMARK SMILES Cc1nc(-c2ccccc2)sc1C(=O)N[C@@H](CC1=c2ccccc2=NC1)C(=O)OCCOC(=O)c1ccc(-c2c3nc(c(-c4cccc(S(=O)(=O)[O-])c4F)c4ccc([nH]4)c(-c4cccc(S(=O)(=O)[O-])c4F)c4nc(c(-c5cccc(S(=O)(=O)[O-])c5F)c5ccc2[nH]5)C=C4)C=C3)cc1
REMARK SMILES IDX 30 1 29 2 27 3 28 4 16 5 15 6 13 7 14 8 12 10 1 11 2 12 3 13
REMARK SMILES IDX 4 14 11 15 5 16 6 17 10 18 7 19 9 20 8 21 17 22 18 23 19 24
REMARK SMILES IDX 26 25 20 26 24 27 25 28 21 29 23 30 22 31 31 32 32 33 33 34
REMARK SMILES IDX 34 35 35 36 36 37 97 38 37 39 96 40 38 41 39 42 40 43 90 44
REMARK SMILES IDX 41 45 95 46 89 47 91 48 42 49 94 50 88 51 87 52 43 54 75 55
REMARK SMILES IDX 55 56 74 57 56 58 59 59 73 60 92 61 57 62 58 63 72 65 93 66
REMARK SMILES IDX 60 67 44 68 45 69 53 70 46 71 48 72 54 73 47 74 49 75 50 76
REMARK SMILES IDX 51 77 52 78 76 79 77 80 85 81 78 82 80 83 86 84 79 85 81 86
REMARK SMILES IDX 82 87 83 88 84 89 61 90 62 91 70 92 63 93 65 94 71 95 64 96
REMARK SMILES IDX 66 97 67 98 68 99 69 100
REMARK H PARENT 15 9 91 53 59 64
REMARK Flexibility Score: inf
ROOT
ATOM      1  C   UNL A   1      31.980  28.307  27.422  1.00  0.00     0.274 C 
ENDROOT
BRANCH   1   2
ATOM      2  O   UNL A   1      32.230  27.211  26.520  1.00  0.00    -0.461 OA
BRANCH   2   3
ATOM      3  C   UNL A   1      31.291  26.229  26.509  1.00  0.00     0.329 C 
ATOM      4  O   UNL A   1      30.123  26.368  26.855  1.00  0.00    -0.250 OA
BRANCH   3   5
ATOM      5  C   UNL A   1      31.853  24.869  26.075  1.00  0.00     0.196 C 
BRANCH   5   6
ATOM      6  N   UNL A   1      31.332  24.327  24.826  1.00  0.00    -0.338 N 
ATOM      7  C   UNL A   1      30.801  24.894  23.695  1.00  0.00     0.264 C 
ATOM      8  O   UNL A   1      30.242  24.073  22.957  1.00  0.00    -0.268 OA
ATOM      9  H   UNL A   1      31.370  23.344  24.785  1.00  0.00     0.164 HD
BRANCH   7  10
ATOM     10  C   UNL A   1      30.904  26.309  23.343  1.00  0.00     0.115 A 
ATOM     11  C   UNL A   1      33.376  27.133  22.929  1.00  0.00     0.068 C 
ATOM     12  C   UNL A   1      31.896  27.226  23.001  1.00  0.00     0.062 A 
ATOM     13  N   UNL A   1      31.439  28.501  22.705  1.00  0.00    -0.241 NA
ATOM     14  C   UNL A   1      30.153  28.621  22.918  1.00  0.00     0.124 A 
ATOM     15  S   UNL A   1      29.379  27.183  23.400  1.00  0.00    -0.108 S 
BRANCH  14  16
ATOM     16  C   UNL A   1      29.423  29.873  22.733  1.00  0.00     0.010 A 
ATOM     17  C   UNL A   1      28.814  30.128  21.499  1.00  0.00     0.011 A 
ATOM     18  C   UNL A   1      29.412  30.874  23.714  1.00  0.00     0.011 A 
ATOM     19  C   UNL A   1      28.181  31.345  21.253  1.00  0.00     0.001 A 
ATOM     20  C   UNL A   1      28.795  32.104  23.460  1.00  0.00     0.001 A 
ATOM     21  C   UNL A   1      28.176  32.336  22.232  1.00  0.00     0.000 A 
ENDBRANCH  14  16
ENDBRANCH   7  10
ENDBRANCH   5   6
BRANCH   5  22
ATOM     22  C   UNL A   1      33.394  24.950  26.028  1.00  0.00     0.070 C 
BRANCH  22  23
ATOM     23  C   UNL A   1      34.083  23.620  26.074  1.00  0.00    -0.037 C 
ATOM     24  C   UNL A   1      35.040  23.163  25.272  1.00  0.00     0.001 A 
ATOM     25  C   UNL A   1      33.743  22.604  27.124  1.00  0.00     0.174 C 
ATOM     26  C   UNL A   1      35.732  23.663  24.128  1.00  0.00     0.010 A 
ATOM     27  C   UNL A   1      35.391  21.876  25.890  1.00  0.00     0.065 A 
ATOM     28  N   UNL A   1      34.700  21.490  26.919  1.00  0.00    -0.280 NA
ATOM     29  C   UNL A   1      36.760  22.953  23.636  1.00  0.00     0.001 A 
ATOM     30  C   UNL A   1      36.533  21.153  25.293  1.00  0.00     0.028 A 
ATOM     31  C   UNL A   1      37.168  21.695  24.239  1.00  0.00     0.002 A 
ENDBRANCH  22  23
ENDBRANCH   5  22
ENDBRANCH   3   5
ENDBRANCH   2   3
ENDBRANCH   1   2
BRANCH   1  32
ATOM     32  C   UNL A   1      31.676  29.587  26.644  1.00  0.00     0.275 C 
BRANCH  32  33
ATOM     33  O   UNL A   1      32.888  30.225  26.200  1.00  0.00    -0.458 OA
BRANCH  33  34
ATOM     34  C   UNL A   1      33.301  31.247  26.984  1.00  0.00     0.338 C 
ATOM     35  O   UNL A   1      32.662  32.238  27.307  1.00  0.00    -0.246 OA
BRANCH  34  36
ATOM     36  C   UNL A   1      34.642  30.966  27.510  1.00  0.00     0.060 A 
ATOM     37  C   UNL A   1      35.021  29.635  27.671  1.00  0.00     0.016 A 
ATOM     38  C   UNL A   1      35.455  31.994  27.981  1.00  0.00     0.016 A 
ATOM     39  C   UNL A   1      36.189  29.318  28.357  1.00  0.00     0.010 A 
ATOM     40  C   UNL A   1      36.658  31.676  28.625  1.00  0.00     0.010 A 
ATOM     41  C   UNL A   1      37.021  30.335  28.848  1.00  0.00    -0.014 A 
BRANCH  41  42
ATOM     42  C   UNL A   1      38.226  29.982  29.646  1.00  0.00     0.031 A 
ATOM     43  C   UNL A   1      39.261  29.043  29.084  1.00  0.00     0.074 A 
ATOM     44  C   UNL A   1      38.438  30.554  30.849  1.00  0.00     0.049 A 
ATOM     45  N   UNL A   1      40.338  28.569  29.656  1.00  0.00    -0.248 NA
ATOM     46  C   UNL A   1      39.070  28.594  27.696  1.00  0.00     0.031 C 
ATOM     47  C   UNL A   1      37.545  31.516  31.495  1.00  0.00     0.029 A 
ATOM     48  N   UNL A   1      39.474  30.412  31.740  1.00  0.00    -0.354 N 
ATOM     49  C   UNL A   1      40.936  27.743  28.711  1.00  0.00     0.074 A 
ATOM     50  C   UNL A   1      40.092  27.764  27.537  1.00  0.00     0.031 C 
ATOM     51  C   UNL A   1      38.076  31.889  32.669  1.00  0.00     0.029 A 
ATOM     52  C   UNL A   1      39.314  31.147  32.891  1.00  0.00     0.049 A 
ATOM     53  H   UNL A   1      40.257  29.839  31.569  1.00  0.00     0.167 HD
ATOM     54  C   UNL A   1      42.104  27.064  28.793  1.00  0.00     0.034 A 
ATOM     55  C   UNL A   1      40.056  31.196  34.016  1.00  0.00     0.034 A 
ATOM     56  C   UNL A   1      42.995  27.101  29.921  1.00  0.00     0.049 A 
ATOM     57  C   UNL A   1      41.302  30.361  34.115  1.00  0.00     0.074 A 
ATOM     58  C   UNL A   1      44.219  26.471  30.069  1.00  0.00     0.029 A 
ATOM     59  N   UNL A   1      42.768  27.811  31.089  1.00  0.00    -0.354 N 
ATOM     60  N   UNL A   1      41.866  29.609  33.201  1.00  0.00    -0.248 NA
ATOM     61  C   UNL A   1      42.017  30.384  35.399  1.00  0.00     0.031 C 
ATOM     62  C   UNL A   1      44.734  26.803  31.327  1.00  0.00     0.029 A 
ATOM     63  C   UNL A   1      43.830  27.639  31.961  1.00  0.00     0.049 A 
ATOM     64  H   UNL A   1      41.970  28.357  31.271  1.00  0.00     0.167 HD
ATOM     65  C   UNL A   1      43.008  29.083  33.794  1.00  0.00     0.074 A 
ATOM     66  C   UNL A   1      43.073  29.625  35.135  1.00  0.00     0.031 C 
ATOM     67  C   UNL A   1      43.910  28.211  33.280  1.00  0.00     0.034 A 
BRANCH  54  68
ATOM     68  C   UNL A   1      42.523  26.257  27.597  1.00  0.00     0.023 A 
ATOM     69  C   UNL A   1      43.345  26.851  26.619  1.00  0.00     0.012 A 
ATOM     70  C   UNL A   1      42.157  24.904  27.469  1.00  0.00     0.148 A 
ATOM     71  C   UNL A   1      43.784  26.113  25.521  1.00  0.00     0.002 A 
ATOM     72  C   UNL A   1      42.624  24.165  26.388  1.00  0.00     0.091 A 
ATOM     73  F   UNL A   1      41.350  24.368  28.397  1.00  0.00    -0.205 F 
ATOM     74  C   UNL A   1      43.433  24.768  25.411  1.00  0.00     0.022 A 
BRANCH  72  75
ATOM     75  S   UNL A   1      42.268  22.415  26.199  1.00  0.00     0.127 S 
ATOM     76  O   UNL A   1      42.821  21.864  27.435  1.00  0.00    -0.237 OA
ATOM     77  O   UNL A   1      40.807  22.398  26.125  1.00  0.00    -0.237 OA
ATOM     78  O   UNL A   1      42.937  22.007  24.971  1.00  0.00    -0.744 OA
ENDBRANCH  72  75
ENDBRANCH  54  68
BRANCH  55  79
ATOM     79  C   UNL A   1      39.634  32.076  35.143  1.00  0.00     0.023 A 
ATOM     80  C   UNL A   1      39.919  33.453  35.096  1.00  0.00     0.012 A 
ATOM     81  C   UNL A   1      38.921  31.560  36.243  1.00  0.00     0.148 A 
ATOM     82  C   UNL A   1      39.512  34.299  36.130  1.00  0.00     0.002 A 
ATOM     83  C   UNL A   1      38.464  32.417  37.237  1.00  0.00     0.091 A 
ATOM     84  F   UNL A   1      38.693  30.240  36.293  1.00  0.00    -0.205 F 
ATOM     85  C   UNL A   1      38.771  33.785  37.190  1.00  0.00     0.022 A 
BRANCH  83  86
ATOM     86  S   UNL A   1      37.374  31.844  38.545  1.00  0.00     0.127 S 
ATOM     87  O   UNL A   1      38.198  32.045  39.733  1.00  0.00    -0.237 OA
ATOM     88  O   UNL A   1      36.236  32.757  38.423  1.00  0.00    -0.237 OA
ATOM     89  O   UNL A   1      37.063  30.462  38.203  1.00  0.00    -0.744 OA
ENDBRANCH  83  86
ENDBRANCH  55  79
BRANCH  67  90
ATOM     90  C   UNL A   1      45.049  27.784  34.165  1.00  0.00     0.023 A 
ATOM     91  C   UNL A   1      46.206  28.586  34.234  1.00  0.00     0.012 A 
ATOM     92  C   UNL A   1      44.953  26.637  34.977  1.00  0.00     0.148 A 
ATOM     93  C   UNL A   1      47.260  28.239  35.079  1.00  0.00     0.002 A 
ATOM     94  C   UNL A   1      45.991  26.320  35.846  1.00  0.00     0.091 A 
ATOM     95  F   UNL A   1      43.855  25.874  34.880  1.00  0.00    -0.205 F 
ATOM     96  C   UNL A   1      47.148  27.115  35.892  1.00  0.00     0.022 A 
BRANCH  94  97
ATOM     97  S   UNL A   1      45.891  24.937  36.989  1.00  0.00     0.127 S 
ATOM     98  O   UNL A   1      46.043  23.795  36.091  1.00  0.00    -0.237 OA
ATOM     99  O   UNL A   1      47.034  25.175  37.873  1.00  0.00    -0.237 OA
ATOM    100  O   UNL A   1      44.594  25.060  37.643  1.00  0.00    -0.744 OA
ENDBRANCH  94  97
ENDBRANCH  67  90
ENDBRANCH  41  42
ENDBRANCH  34  36
ENDBRANCH  33  34
ENDBRANCH  32  33
ENDBRANCH   1  32
TORSDOF 19
ENDMDL
MODEL 3
REMARK VINA RESULT:     -12.5      5.214     10.190
REMARK SMILES Cc1nc(-c2ccccc2)sc1C(=O)N[C@@H](CC1=c2ccccc2=NC1)C(=O)OCCOC(=O)c1ccc(-c2c3nc(c(-c4cccc(S(=O)(=O)[O-])c4F)c4ccc([nH]4)c(-c4cccc(S(=O)(=O)[O-])c4F)c4nc(c(-c5cccc(S(=O)(=O)[O-])c5F)c5ccc2[nH]5)C=C4)C=C3)cc1
REMARK SMILES IDX 30 1 29 2 27 3 28 4 16 5 15 6 13 7 14 8 12 10 1 11 2 12 3 13
REMARK SMILES IDX 4 14 11 15 5 16 6 17 10 18 7 19 9 20 8 21 17 22 18 23 19 24
REMARK SMILES IDX 26 25 20 26 24 27 25 28 21 29 23 30 22 31 31 32 32 33 33 34
REMARK SMILES IDX 34 35 35 36 36 37 97 38 37 39 96 40 38 41 39 42 40 43 90 44
REMARK SMILES IDX 41 45 95 46 89 47 91 48 42 49 94 50 88 51 87 52 43 54 75 55
REMARK SMILES IDX 55 56 74 57 56 58 59 59 73 60 92 61 57 62 58 63 72 65 93 66
REMARK SMILES IDX 60 67 44 68 45 69 53 70 46 71 48 72 54 73 47 74 49 75 50 76
REMARK SMILES IDX 51 77 52 78 76 79 77 80 85 81 78 82 80 83 86 84 79 85 81 86
REMARK SMILES IDX 82 87 83 88 84 89 61 90 62 91 70 92 63 93 65 94 71 95 64 96
REMARK SMILES IDX 66 97 67 98 68 99 69 100
REMARK H PARENT 15 9 91 53 59 64
REMARK Flexibility Score: inf
ROOT
ATOM      1  C   UNL A   1      31.726  29.596  26.020  1.00  0.00     0.274 C 
ENDROOT
BRANCH   1   2
ATOM      2  O   UNL A   1      32.696  29.273  25.004  1.00  0.00    -0.461 OA
BRANCH   2   3
ATOM      3  C   UNL A   1      32.194  28.763  23.849  1.00  0.00     0.329 C 
ATOM      4  O   UNL A   1      31.604  29.411  22.991  1.00  0.00    -0.250 OA
BRANCH   3   5
ATOM      5  C   UNL A   1      32.376  27.243  23.737  1.00  0.00     0.196 C 
BRANCH   5   6
ATOM      6  N   UNL A   1      32.754  26.737  22.423  1.00  0.00    -0.338 N 
ATOM      7  C   UNL A   1      32.856  25.479  21.884  1.00  0.00     0.264 C 
ATOM      8  O   UNL A   1      33.455  25.462  20.801  1.00  0.00    -0.268 OA
ATOM      9  H   UNL A   1      32.986  27.451  21.785  1.00  0.00     0.164 HD
BRANCH   7  10
ATOM     10  C   UNL A   1      32.289  24.269  22.477  1.00  0.00     0.115 A 
ATOM     11  C   UNL A   1      29.862  24.594  23.461  1.00  0.00     0.068 C 
ATOM     12  C   UNL A   1      31.099  23.866  23.081  1.00  0.00     0.062 A 
ATOM     13  N   UNL A   1      31.052  22.530  23.449  1.00  0.00    -0.241 NA
ATOM     14  C   UNL A   1      32.198  21.929  23.254  1.00  0.00     0.124 A 
ATOM     15  S   UNL A   1      33.391  22.900  22.523  1.00  0.00    -0.108 S 
BRANCH  14  16
ATOM     16  C   UNL A   1      32.439  20.531  23.602  1.00  0.00     0.010 A 
ATOM     17  C   UNL A   1      32.277  19.548  22.617  1.00  0.00     0.011 A 
ATOM     18  C   UNL A   1      32.715  20.133  24.917  1.00  0.00     0.011 A 
ATOM     19  C   UNL A   1      32.414  18.196  22.929  1.00  0.00     0.001 A 
ATOM     20  C   UNL A   1      32.832  18.775  25.234  1.00  0.00     0.001 A 
ATOM     21  C   UNL A   1      32.687  17.809  24.238  1.00  0.00     0.000 A 
ENDBRANCH  14  16
ENDBRANCH   7  10
ENDBRANCH   5   6
BRANCH   5  22
ATOM     22  C   UNL A   1      33.385  26.775  24.808  1.00  0.00     0.070 C 
BRANCH  22  23
ATOM     23  C   UNL A   1      32.899  25.640  25.657  1.00  0.00    -0.037 C 
ATOM     24  C   UNL A   1      33.547  24.528  25.989  1.00  0.00     0.001 A 
ATOM     25  C   UNL A   1      31.533  25.662  26.277  1.00  0.00     0.174 C 
ATOM     26  C   UNL A   1      34.827  23.970  25.695  1.00  0.00     0.010 A 
ATOM     27  C   UNL A   1      32.616  23.881  26.926  1.00  0.00     0.065 A 
ATOM     28  N   UNL A   1      31.466  24.448  27.126  1.00  0.00    -0.280 NA
ATOM     29  C   UNL A   1      35.203  22.849  26.328  1.00  0.00     0.001 A 
ATOM     30  C   UNL A   1      33.101  22.650  27.585  1.00  0.00     0.028 A 
ATOM     31  C   UNL A   1      34.332  22.196  27.293  1.00  0.00     0.002 A 
ENDBRANCH  22  23
ENDBRANCH   5  22
ENDBRANCH   3   5
ENDBRANCH   2   3
ENDBRANCH   1   2
BRANCH   1  32
ATOM     32  C   UNL A   1      32.033  30.956  26.647  1.00  0.00     0.275 C 
BRANCH  32  33
ATOM     33  O   UNL A   1      33.435  31.271  26.541  1.00  0.00    -0.458 OA
BRANCH  33  34
ATOM     34  C   UNL A   1      33.904  32.067  27.530  1.00  0.00     0.338 C 
ATOM     35  O   UNL A   1      33.339  33.022  28.042  1.00  0.00    -0.246 OA
BRANCH  34  36
ATOM     36  C   UNL A   1      35.196  31.564  28.010  1.00  0.00     0.060 A 
ATOM     37  C   UNL A   1      35.289  30.219  28.364  1.00  0.00     0.016 A 
ATOM     38  C   UNL A   1      36.257  32.433  28.251  1.00  0.00     0.016 A 
ATOM     39  C   UNL A   1      36.422  29.745  29.018  1.00  0.00     0.010 A 
ATOM     40  C   UNL A   1      37.419  31.943  28.861  1.00  0.00     0.010 A 
ATOM     41  C   UNL A   1      37.501  30.602  29.279  1.00  0.00    -0.014 A 
BRANCH  41  42
ATOM     42  C   UNL A   1      38.674  30.101  30.046  1.00  0.00     0.031 A 
ATOM     43  C   UNL A   1      39.606  29.090  29.434  1.00  0.00     0.074 A 
ATOM     44  C   UNL A   1      38.951  30.600  31.268  1.00  0.00     0.049 A 
ATOM     45  N   UNL A   1      40.636  28.489  29.972  1.00  0.00    -0.248 NA
ATOM     46  C   UNL A   1      39.359  28.718  28.031  1.00  0.00     0.031 C 
ATOM     47  C   UNL A   1      38.164  31.617  31.964  1.00  0.00     0.029 A 
ATOM     48  N   UNL A   1      39.977  30.321  32.138  1.00  0.00    -0.354 N 
ATOM     49  C   UNL A   1      41.142  27.649  28.987  1.00  0.00     0.074 A 
ATOM     50  C   UNL A   1      40.292  27.800  27.826  1.00  0.00     0.031 C 
ATOM     51  C   UNL A   1      38.740  31.889  33.144  1.00  0.00     0.029 A 
ATOM     52  C   UNL A   1      39.901  31.021  33.320  1.00  0.00     0.049 A 
ATOM     53  H   UNL A   1      40.699  29.682  31.935  1.00  0.00     0.167 HD
ATOM     54  C   UNL A   1      42.239  26.856  29.026  1.00  0.00     0.034 A 
ATOM     55  C   UNL A   1      40.656  30.952  34.435  1.00  0.00     0.034 A 
ATOM     56  C   UNL A   1      43.139  26.760  30.142  1.00  0.00     0.049 A 
ATOM     57  C   UNL A   1      41.814  29.995  34.484  1.00  0.00     0.074 A 
ATOM     58  C   UNL A   1      44.297  26.008  30.248  1.00  0.00     0.029 A 
ATOM     59  N   UNL A   1      42.995  27.440  31.340  1.00  0.00    -0.354 N 
ATOM     60  N   UNL A   1      42.293  29.231  33.534  1.00  0.00    -0.248 NA
ATOM     61  C   UNL A   1      42.541  29.897  35.759  1.00  0.00     0.031 C 
ATOM     62  C   UNL A   1      44.854  26.236  31.512  1.00  0.00     0.029 A 
ATOM     63  C   UNL A   1      44.042  27.130  32.190  1.00  0.00     0.049 A 
ATOM     64  H   UNL A   1      42.255  28.054  31.555  1.00  0.00     0.167 HD
ATOM     65  C   UNL A   1      43.384  28.572  34.090  1.00  0.00     0.074 A 
ATOM     66  C   UNL A   1      43.514  29.049  35.451  1.00  0.00     0.031 C 
ATOM     67  C   UNL A   1      44.191  27.637  33.529  1.00  0.00     0.034 A 
BRANCH  54  68
ATOM     68  C   UNL A   1      42.565  26.062  27.793  1.00  0.00     0.023 A 
ATOM     69  C   UNL A   1      43.364  26.644  26.790  1.00  0.00     0.012 A 
ATOM     70  C   UNL A   1      42.134  24.728  27.653  1.00  0.00     0.148 A 
ATOM     71  C   UNL A   1      43.719  25.915  25.656  1.00  0.00     0.002 A 
ATOM     72  C   UNL A   1      42.517  23.997  26.534  1.00  0.00     0.091 A 
ATOM     73  F   UNL A   1      41.349  24.205  28.606  1.00  0.00    -0.205 F 
ATOM     74  C   UNL A   1      43.304  24.589  25.533  1.00  0.00     0.022 A 
BRANCH  72  75
ATOM     75  S   UNL A   1      42.076  22.269  26.323  1.00  0.00     0.127 S 
ATOM     76  O   UNL A   1      42.570  21.682  27.568  1.00  0.00    -0.237 OA
ATOM     77  O   UNL A   1      40.618  22.328  26.215  1.00  0.00    -0.237 OA
ATOM     78  O   UNL A   1      42.752  21.835  25.108  1.00  0.00    -0.744 OA
ENDBRANCH  72  75
ENDBRANCH  54  68
BRANCH  55  79
ATOM     79  C   UNL A   1      40.333  31.822  35.602  1.00  0.00     0.023 A 
ATOM     80  C   UNL A   1      41.126  32.954  35.867  1.00  0.00     0.012 A 
ATOM     81  C   UNL A   1      39.223  31.553  36.427  1.00  0.00     0.148 A 
ATOM     82  C   UNL A   1      40.827  33.795  36.941  1.00  0.00     0.002 A 
ATOM     83  C   UNL A   1      38.894  32.429  37.454  1.00  0.00     0.091 A 
ATOM     84  F   UNL A   1      38.501  30.450  36.186  1.00  0.00    -0.205 F 
ATOM     85  C   UNL A   1      39.703  33.543  37.723  1.00  0.00     0.022 A 
BRANCH  83  86
ATOM     86  S   UNL A   1      37.374  32.247  38.395  1.00  0.00     0.127 S 
ATOM     87  O   UNL A   1      37.205  30.797  38.416  1.00  0.00    -0.237 OA
ATOM     88  O   UNL A   1      37.734  32.844  39.683  1.00  0.00    -0.237 OA
ATOM     89  O   UNL A   1      36.373  33.001  37.653  1.00  0.00    -0.744 OA
ENDBRANCH  83  86
ENDBRANCH  55  79
BRANCH  67  90
ATOM     90  C   UNL A   1      45.291  27.065  34.381  1.00  0.00     0.023 A 
ATOM     91  C   UNL A   1      46.546  27.706  34.406  1.00  0.00     0.012 A 
ATOM     92  C   UNL A   1      45.070  25.945  35.206  1.00  0.00     0.148 A 
ATOM     93  C   UNL A   1      47.571  27.225  35.220  1.00  0.00     0.002 A 
ATOM     94  C   UNL A   1      46.084  25.495  36.044  1.00  0.00     0.091 A 
ATOM     95  F   UNL A   1      43.877  25.335  35.151  1.00  0.00    -0.205 F 
ATOM     96  C   UNL A   1      47.337  26.129  36.047  1.00  0.00     0.022 A 
BRANCH  94  97
ATOM     97  S   UNL A   1      45.837  24.144  37.202  1.00  0.00     0.127 S 
ATOM     98  O   UNL A   1      47.147  24.057  37.843  1.00  0.00    -0.237 OA
ATOM     99  O   UNL A   1      44.769  24.657  38.063  1.00  0.00    -0.237 OA
ATOM    100  O   UNL A   1      45.452  22.996  36.391  1.00  0.00    -0.744 OA
ENDBRANCH  94  97
ENDBRANCH  67  90
ENDBRANCH  41  42
ENDBRANCH  34  36
ENDBRANCH  33  34
ENDBRANCH  32  33
ENDBRANCH   1  32
TORSDOF 19
ENDMDL
