MODEL 1
REMARK VINA RESULT:     -11.4      0.000      0.000
REMARK SMILES CC(C)(C)[NH+]1CCN(C(=O)CCCC(=O)OCCOC(=O)c2ccc(-c3c4nc(c(-c5cccc(S(=O)(=O)[O-])c5F)c5ccc([nH]5)c(-c5cccc(S(=O)(=O)[O-])c5F)c5nc(c(-c6cccc(S(=O)(=O)[O-])c6F)c6ccc3[nH]6)C=C5)C=C4)cc2)CC1
REMARK SMILES IDX 17 1 16 2 14 3 15 4 13 5 12 6 11 7 9 8 5 9 6 10 86 11 7 13
REMARK SMILES IDX 85 14 8 15 10 16 2 17 1 18 3 19 4 20 18 21 19 22 20 23 21 24
REMARK SMILES IDX 22 25 23 26 84 27 24 28 83 29 25 30 26 31 27 32 77 33 28 34
REMARK SMILES IDX 82 35 76 36 78 37 29 38 81 39 75 40 74 41 30 43 62 44 42 45
REMARK SMILES IDX 61 46 43 47 46 48 60 49 79 50 44 51 45 52 59 54 80 55 47 56
REMARK SMILES IDX 31 57 32 58 40 59 33 60 35 61 41 62 34 63 36 64 37 65 38 66
REMARK SMILES IDX 39 67 63 68 64 69 72 70 65 71 67 72 73 73 66 74 68 75 69 76
REMARK SMILES IDX 70 77 71 78 48 79 49 80 57 81 50 82 52 83 58 84 51 85 53 86
REMARK SMILES IDX 54 87 55 88 56 89
REMARK H PARENT 5 12 78 42 46 53
REMARK Flexibility Score: inf
ROOT
ATOM      1  C   UNL A   1      35.076  20.375  25.058  1.00  0.00     0.274 C 
ENDROOT
BRANCH   1   2
ATOM      2  O   UNL A   1      34.011  20.364  24.079  1.00  0.00    -0.462 OA
BRANCH   2   3
ATOM      3  C   UNL A   1      32.807  20.798  24.526  1.00  0.00     0.305 C 
ATOM      4  O   UNL A   1      32.087  20.157  25.285  1.00  0.00    -0.252 OA
BRANCH   3   5
ATOM      5  C   UNL A   1      32.372  22.139  23.973  1.00  0.00     0.123 C 
BRANCH   5   6
ATOM      6  C   UNL A   1      33.072  22.682  22.735  1.00  0.00     0.022 C 
BRANCH   6   7
ATOM      7  C   UNL A   1      34.017  23.869  22.932  1.00  0.00     0.101 C 
BRANCH   7   8
ATOM      8  C   UNL A   1      33.433  25.220  22.533  1.00  0.00     0.222 C 
ATOM      9  N   UNL A   1      31.329  27.664  25.450  1.00  0.00    -0.328 N 
ATOM     10  C   UNL A   1      31.207  27.912  24.005  1.00  0.00     0.284 C 
ATOM     11  C   UNL A   1      31.503  26.228  25.669  1.00  0.00     0.284 C 
ATOM     12  H   UNL A   1      30.441  27.957  25.856  1.00  0.00     0.348 HD
ATOM     13  C   UNL A   1      32.327  27.324  23.119  1.00  0.00     0.181 C 
ATOM     14  C   UNL A   1      32.697  25.657  24.901  1.00  0.00     0.181 C 
ATOM     15  N   UNL A   1      32.722  25.956  23.474  1.00  0.00    -0.331 N 
ATOM     16  O   UNL A   1      33.610  25.633  21.384  1.00  0.00    -0.275 OA
BRANCH   9  17
ATOM     17  C   UNL A   1      32.095  28.603  26.312  1.00  0.00     0.089 C 
ATOM     18  C   UNL A   1      33.635  28.434  26.359  1.00  0.00     0.078 C 
ATOM     19  C   UNL A   1      31.575  28.303  27.736  1.00  0.00     0.078 C 
ATOM     20  C   UNL A   1      31.842  30.099  26.025  1.00  0.00     0.078 C 
ENDBRANCH   9  17
ENDBRANCH   7   8
ENDBRANCH   6   7
ENDBRANCH   5   6
ENDBRANCH   3   5
ENDBRANCH   2   3
ENDBRANCH   1   2
BRANCH   1  21
ATOM     21  C   UNL A   1      36.201  21.346  24.696  1.00  0.00     0.275 C 
BRANCH  21  22
ATOM     22  O   UNL A   1      36.902  21.808  25.860  1.00  0.00    -0.458 OA
BRANCH  22  23
ATOM     23  C   UNL A   1      38.226  21.538  25.869  1.00  0.00     0.338 C 
ATOM     24  O   UNL A   1      38.794  20.590  25.341  1.00  0.00    -0.246 OA
BRANCH  23  25
ATOM     25  C   UNL A   1      38.945  22.658  26.480  1.00  0.00     0.060 A 
ATOM     26  C   UNL A   1      38.509  23.953  26.189  1.00  0.00     0.016 A 
ATOM     27  C   UNL A   1      40.076  22.445  27.265  1.00  0.00     0.016 A 
ATOM     28  C   UNL A   1      39.200  25.052  26.667  1.00  0.00     0.010 A 
ATOM     29  C   UNL A   1      40.775  23.552  27.748  1.00  0.00     0.010 A 
ATOM     30  C   UNL A   1      40.345  24.854  27.437  1.00  0.00    -0.014 A 
BRANCH  30  31
ATOM     31  C   UNL A   1      41.141  26.025  27.840  1.00  0.00     0.031 A 
ATOM     32  C   UNL A   1      40.481  27.100  28.646  1.00  0.00     0.074 A 
ATOM     33  C   UNL A   1      42.439  26.094  27.496  1.00  0.00     0.049 A 
ATOM     34  N   UNL A   1      40.931  28.280  28.967  1.00  0.00    -0.248 NA
ATOM     35  C   UNL A   1      39.131  26.805  29.158  1.00  0.00     0.031 C 
ATOM     36  C   UNL A   1      43.178  25.056  26.774  1.00  0.00     0.029 A 
ATOM     37  N   UNL A   1      43.359  27.090  27.688  1.00  0.00    -0.354 N 
ATOM     38  C   UNL A   1      39.903  28.893  29.672  1.00  0.00     0.074 A 
ATOM     39  C   UNL A   1      38.810  27.949  29.747  1.00  0.00     0.031 C 
ATOM     40  C   UNL A   1      44.431  25.486  26.552  1.00  0.00     0.029 A 
ATOM     41  C   UNL A   1      44.561  26.844  27.067  1.00  0.00     0.049 A 
ATOM     42  H   UNL A   1      43.177  27.901  28.216  1.00  0.00     0.167 HD
ATOM     43  C   UNL A   1      39.884  30.134  30.206  1.00  0.00     0.034 A 
ATOM     44  C   UNL A   1      45.623  27.653  26.894  1.00  0.00     0.034 A 
ATOM     45  C   UNL A   1      40.998  31.039  30.144  1.00  0.00     0.049 A 
ATOM     46  C   UNL A   1      45.557  29.043  27.464  1.00  0.00     0.074 A 
ATOM     47  C   UNL A   1      41.097  32.323  30.646  1.00  0.00     0.029 A 
ATOM     48  N   UNL A   1      42.213  30.745  29.541  1.00  0.00    -0.354 N 
ATOM     49  N   UNL A   1      44.595  29.605  28.158  1.00  0.00    -0.248 NA
ATOM     50  C   UNL A   1      46.723  29.908  27.241  1.00  0.00     0.031 C 
ATOM     51  C   UNL A   1      42.372  32.810  30.338  1.00  0.00     0.029 A 
ATOM     52  C   UNL A   1      43.070  31.824  29.657  1.00  0.00     0.049 A 
ATOM     53  H   UNL A   1      42.433  29.896  29.097  1.00  0.00     0.167 HD
ATOM     54  C   UNL A   1      45.047  30.881  28.473  1.00  0.00     0.074 A 
ATOM     55  C   UNL A   1      46.382  30.997  27.918  1.00  0.00     0.031 C 
ATOM     56  C   UNL A   1      44.413  31.878  29.137  1.00  0.00     0.034 A 
BRANCH  43  57
ATOM     57  C   UNL A   1      38.631  30.575  30.910  1.00  0.00     0.023 A 
ATOM     58  C   UNL A   1      38.494  30.358  32.295  1.00  0.00     0.012 A 
ATOM     59  C   UNL A   1      37.608  31.243  30.208  1.00  0.00     0.148 A 
ATOM     60  C   UNL A   1      37.351  30.781  32.970  1.00  0.00     0.002 A 
ATOM     61  C   UNL A   1      36.486  31.695  30.895  1.00  0.00     0.091 A 
ATOM     62  F   UNL A   1      37.746  31.415  28.887  1.00  0.00    -0.205 F 
ATOM     63  C   UNL A   1      36.352  31.457  32.273  1.00  0.00     0.022 A 
BRANCH  61  64
ATOM     64  S   UNL A   1      35.171  32.626  30.101  1.00  0.00     0.127 S 
ATOM     65  O   UNL A   1      34.213  32.776  31.196  1.00  0.00    -0.237 OA
ATOM     66  O   UNL A   1      35.858  33.860  29.719  1.00  0.00    -0.237 OA
ATOM     67  O   UNL A   1      34.714  31.811  28.985  1.00  0.00    -0.744 OA
ENDBRANCH  61  64
ENDBRANCH  43  57
BRANCH  44  68
ATOM     68  C   UNL A   1      46.822  27.171  26.150  1.00  0.00     0.023 A 
ATOM     69  C   UNL A   1      46.898  27.363  24.758  1.00  0.00     0.012 A 
ATOM     70  C   UNL A   1      47.897  26.546  26.815  1.00  0.00     0.148 A 
ATOM     71  C   UNL A   1      48.008  26.918  24.037  1.00  0.00     0.002 A 
ATOM     72  C   UNL A   1      49.024  26.157  26.100  1.00  0.00     0.091 A 
ATOM     73  F   UNL A   1      47.801  26.344  28.136  1.00  0.00    -0.205 F 
ATOM     74  C   UNL A   1      49.075  26.327  24.709  1.00  0.00     0.022 A 
BRANCH  72  75
ATOM     75  S   UNL A   1      50.490  25.517  26.919  1.00  0.00     0.127 S 
ATOM     76  O   UNL A   1      50.847  26.622  27.803  1.00  0.00    -0.237 OA
ATOM     77  O   UNL A   1      49.972  24.328  27.599  1.00  0.00    -0.237 OA
ATOM     78  O   UNL A   1      51.429  25.222  25.845  1.00  0.00    -0.744 OA
ENDBRANCH  72  75
ENDBRANCH  44  68
BRANCH  56  79
ATOM     79  C   UNL A   1      45.164  33.167  29.320  1.00  0.00     0.023 A 
ATOM     80  C   UNL A   1      45.989  33.334  30.449  1.00  0.00     0.012 A 
ATOM     81  C   UNL A   1      45.116  34.173  28.335  1.00  0.00     0.148 A 
ATOM     82  C   UNL A   1      46.738  34.499  30.609  1.00  0.00     0.002 A 
ATOM     83  C   UNL A   1      45.900  35.310  28.479  1.00  0.00     0.091 A 
ATOM     84  F   UNL A   1      44.308  33.998  27.280  1.00  0.00    -0.205 F 
ATOM     85  C   UNL A   1      46.703  35.479  29.620  1.00  0.00     0.022 A 
BRANCH  83  86
ATOM     86  S   UNL A   1      45.989  36.578  27.212  1.00  0.00     0.127 S 
ATOM     87  O   UNL A   1      46.428  35.807  26.049  1.00  0.00    -0.237 OA
ATOM     88  O   UNL A   1      44.605  37.050  27.144  1.00  0.00    -0.237 OA
ATOM     89  O   UNL A   1      46.938  37.568  27.702  1.00  0.00    -0.744 OA
ENDBRANCH  83  86
ENDBRANCH  56  79
ENDBRANCH  30  31
ENDBRANCH  23  25
ENDBRANCH  22  23
ENDBRANCH  21  22
ENDBRANCH   1  21
TORSDOF 18
ENDMDL
MODEL 2
REMARK VINA RESULT:     -11.1      4.873     10.108
REMARK SMILES CC(C)(C)[NH+]1CCN(C(=O)CCCC(=O)OCCOC(=O)c2ccc(-c3c4nc(c(-c5cccc(S(=O)(=O)[O-])c5F)c5ccc([nH]5)c(-c5cccc(S(=O)(=O)[O-])c5F)c5nc(c(-c6cccc(S(=O)(=O)[O-])c6F)c6ccc3[nH]6)C=C5)C=C4)cc2)CC1
REMARK SMILES IDX 17 1 16 2 14 3 15 4 13 5 12 6 11 7 9 8 5 9 6 10 86 11 7 13
REMARK SMILES IDX 85 14 8 15 10 16 2 17 1 18 3 19 4 20 18 21 19 22 20 23 21 24
REMARK SMILES IDX 22 25 23 26 84 27 24 28 83 29 25 30 26 31 27 32 77 33 28 34
REMARK SMILES IDX 82 35 76 36 78 37 29 38 81 39 75 40 74 41 30 43 62 44 42 45
REMARK SMILES IDX 61 46 43 47 46 48 60 49 79 50 44 51 45 52 59 54 80 55 47 56
REMARK SMILES IDX 31 57 32 58 40 59 33 60 35 61 41 62 34 63 36 64 37 65 38 66
REMARK SMILES IDX 39 67 63 68 64 69 72 70 65 71 67 72 73 73 66 74 68 75 69 76
REMARK SMILES IDX 70 77 71 78 48 79 49 80 57 81 50 82 52 83 58 84 51 85 53 86
REMARK SMILES IDX 54 87 55 88 56 89
REMARK H PARENT 5 12 78 42 46 53
REMARK Flexibility Score: inf
ROOT
ATOM      1  C   UNL A   1      31.258  29.304  25.217  1.00  0.00     0.274 C 
ENDROOT
BRANCH   1   2
ATOM      2  O   UNL A   1      30.567  29.475  23.959  1.00  0.00    -0.462 OA
BRANCH   2   3
ATOM      3  C   UNL A   1      30.452  28.357  23.202  1.00  0.00     0.305 C 
ATOM      4  O   UNL A   1      29.844  28.310  22.137  1.00  0.00    -0.252 OA
BRANCH   3   5
ATOM      5  C   UNL A   1      31.095  27.121  23.795  1.00  0.00     0.123 C 
BRANCH   5   6
ATOM      6  C   UNL A   1      30.206  26.087  24.473  1.00  0.00     0.022 C 
BRANCH   6   7
ATOM      7  C   UNL A   1      30.738  24.656  24.556  1.00  0.00     0.101 C 
BRANCH   7   8
ATOM      8  C   UNL A   1      31.677  24.393  25.730  1.00  0.00     0.222 C 
ATOM      9  N   UNL A   1      35.195  21.888  25.227  1.00  0.00    -0.328 N 
ATOM     10  C   UNL A   1      34.666  22.216  26.560  1.00  0.00     0.284 C 
ATOM     11  C   UNL A   1      34.078  21.801  24.286  1.00  0.00     0.284 C 
ATOM     12  H   UNL A   1      35.625  20.968  25.320  1.00  0.00     0.348 HD
ATOM     13  C   UNL A   1      33.746  23.454  26.639  1.00  0.00     0.181 C 
ATOM     14  C   UNL A   1      33.236  23.077  24.254  1.00  0.00     0.181 C 
ATOM     15  N   UNL A   1      32.765  23.547  25.551  1.00  0.00    -0.331 N 
ATOM     16  O   UNL A   1      31.451  24.943  26.811  1.00  0.00    -0.275 OA
BRANCH   9  17
ATOM     17  C   UNL A   1      36.467  22.493  24.752  1.00  0.00     0.089 C 
ATOM     18  C   UNL A   1      36.574  22.840  23.245  1.00  0.00     0.078 C 
ATOM     19  C   UNL A   1      37.522  21.399  25.029  1.00  0.00     0.078 C 
ATOM     20  C   UNL A   1      36.901  23.766  25.511  1.00  0.00     0.078 C 
ENDBRANCH   9  17
ENDBRANCH   7   8
ENDBRANCH   6   7
ENDBRANCH   5   6
ENDBRANCH   3   5
ENDBRANCH   2   3
ENDBRANCH   1   2
BRANCH   1  21
ATOM     21  C   UNL A   1      31.701  30.631  25.834  1.00  0.00     0.275 C 
BRANCH  21  22
ATOM     22  O   UNL A   1      32.771  30.453  26.774  1.00  0.00    -0.458 OA
BRANCH  22  23
ATOM     23  C   UNL A   1      33.325  31.599  27.227  1.00  0.00     0.338 C 
ATOM     24  O   UNL A   1      32.792  32.698  27.312  1.00  0.00    -0.246 OA
BRANCH  23  25
ATOM     25  C   UNL A   1      34.650  31.310  27.781  1.00  0.00     0.060 A 
ATOM     26  C   UNL A   1      34.905  30.010  28.225  1.00  0.00     0.016 A 
ATOM     27  C   UNL A   1      35.601  32.316  27.932  1.00  0.00     0.016 A 
ATOM     28  C   UNL A   1      36.107  29.699  28.834  1.00  0.00     0.010 A 
ATOM     29  C   UNL A   1      36.814  32.005  28.548  1.00  0.00     0.010 A 
ATOM     30  C   UNL A   1      37.061  30.700  29.012  1.00  0.00    -0.014 A 
BRANCH  30  31
ATOM     31  C   UNL A   1      38.285  30.390  29.768  1.00  0.00     0.031 A 
ATOM     32  C   UNL A   1      39.287  29.458  29.162  1.00  0.00     0.074 A 
ATOM     33  C   UNL A   1      38.485  30.962  30.969  1.00  0.00     0.049 A 
ATOM     34  N   UNL A   1      40.342  28.918  29.705  1.00  0.00    -0.248 NA
ATOM     35  C   UNL A   1      39.071  29.082  27.754  1.00  0.00     0.031 C 
ATOM     36  C   UNL A   1      37.593  31.938  31.599  1.00  0.00     0.029 A 
ATOM     37  N   UNL A   1      39.491  30.787  31.881  1.00  0.00    -0.354 N 
ATOM     38  C   UNL A   1      40.887  28.096  28.728  1.00  0.00     0.074 A 
ATOM     39  C   UNL A   1      40.057  28.220  27.550  1.00  0.00     0.031 C 
ATOM     40  C   UNL A   1      38.074  32.249  32.813  1.00  0.00     0.029 A 
ATOM     41  C   UNL A   1      39.273  31.456  33.063  1.00  0.00     0.049 A 
ATOM     42  H   UNL A   1      40.289  30.237  31.709  1.00  0.00     0.167 HD
ATOM     43  C   UNL A   1      41.985  27.314  28.815  1.00  0.00     0.034 A 
ATOM     44  C   UNL A   1      39.942  31.387  34.228  1.00  0.00     0.034 A 
ATOM     45  C   UNL A   1      42.810  27.237  29.989  1.00  0.00     0.049 A 
ATOM     46  C   UNL A   1      41.136  30.475  34.309  1.00  0.00     0.074 A 
ATOM     47  C   UNL A   1      43.946  26.478  30.198  1.00  0.00     0.029 A 
ATOM     48  N   UNL A   1      42.582  27.954  31.155  1.00  0.00    -0.354 N 
ATOM     49  N   UNL A   1      41.666  29.726  33.371  1.00  0.00    -0.248 NA
ATOM     50  C   UNL A   1      41.833  30.406  35.599  1.00  0.00     0.031 C 
ATOM     51  C   UNL A   1      44.402  26.731  31.496  1.00  0.00     0.029 A 
ATOM     52  C   UNL A   1      43.557  27.657  32.090  1.00  0.00     0.049 A 
ATOM     53  H   UNL A   1      41.839  28.582  31.296  1.00  0.00     0.167 HD
ATOM     54  C   UNL A   1      42.770  29.113  33.950  1.00  0.00     0.074 A 
ATOM     55  C   UNL A   1      42.849  29.603  35.313  1.00  0.00     0.031 C 
ATOM     56  C   UNL A   1      43.630  28.209  33.419  1.00  0.00     0.034 A 
BRANCH  43  57
ATOM     57  C   UNL A   1      42.360  26.495  27.612  1.00  0.00     0.023 A 
ATOM     58  C   UNL A   1      43.115  27.080  26.576  1.00  0.00     0.012 A 
ATOM     59  C   UNL A   1      42.001  25.135  27.525  1.00  0.00     0.148 A 
ATOM     60  C   UNL A   1      43.493  26.330  25.464  1.00  0.00     0.002 A 
ATOM     61  C   UNL A   1      42.413  24.384  26.429  1.00  0.00     0.091 A 
ATOM     62  F   UNL A   1      41.259  24.606  28.508  1.00  0.00    -0.205 F 
ATOM     63  C   UNL A   1      43.151  24.982  25.394  1.00  0.00     0.022 A 
BRANCH  61  64
ATOM     64  S   UNL A   1      42.073  22.627  26.273  1.00  0.00     0.127 S 
ATOM     65  O   UNL A   1      42.725  22.094  27.470  1.00  0.00    -0.237 OA
ATOM     66  O   UNL A   1      40.610  22.594  26.311  1.00  0.00    -0.237 OA
ATOM     67  O   UNL A   1      42.661  22.211  25.009  1.00  0.00    -0.744 OA
ENDBRANCH  61  64
ENDBRANCH  43  57
BRANCH  44  68
ATOM     68  C   UNL A   1      39.497  32.193  35.400  1.00  0.00     0.023 A 
ATOM     69  C   UNL A   1      38.669  31.603  36.374  1.00  0.00     0.012 A 
ATOM     70  C   UNL A   1      39.905  33.532  35.570  1.00  0.00     0.148 A 
ATOM     71  C   UNL A   1      38.234  32.337  37.479  1.00  0.00     0.002 A 
ATOM     72  C   UNL A   1      39.516  34.239  36.701  1.00  0.00     0.091 A 
ATOM     73  F   UNL A   1      40.670  34.091  34.622  1.00  0.00    -0.205 F 
ATOM     74  C   UNL A   1      38.667  33.650  37.649  1.00  0.00     0.022 A 
BRANCH  72  75
ATOM     75  S   UNL A   1      40.148  35.884  37.052  1.00  0.00     0.127 S 
ATOM     76  O   UNL A   1      41.584  35.641  37.147  1.00  0.00    -0.237 OA
ATOM     77  O   UNL A   1      39.729  36.638  35.869  1.00  0.00    -0.237 OA
ATOM     78  O   UNL A   1      39.482  36.294  38.282  1.00  0.00    -0.744 OA
ENDBRANCH  72  75
ENDBRANCH  44  68
BRANCH  56  79
ATOM     79  C   UNL A   1      44.738  27.713  34.304  1.00  0.00     0.023 A 
ATOM     80  C   UNL A   1      45.943  28.439  34.378  1.00  0.00     0.012 A 
ATOM     81  C   UNL A   1      44.554  26.581  35.120  1.00  0.00     0.148 A 
ATOM     82  C   UNL A   1      46.962  28.027  35.234  1.00  0.00     0.002 A 
ATOM     83  C   UNL A   1      45.556  26.204  36.005  1.00  0.00     0.091 A 
ATOM     84  F   UNL A   1      43.406  25.897  35.017  1.00  0.00    -0.205 F 
ATOM     85  C   UNL A   1      46.764  26.920  36.056  1.00  0.00     0.022 A 
BRANCH  83  86
ATOM     86  S   UNL A   1      45.350  24.850  37.165  1.00  0.00     0.127 S 
ATOM     87  O   UNL A   1      45.010  23.742  36.272  1.00  0.00    -0.237 OA
ATOM     88  O   UNL A   1      46.676  24.757  37.776  1.00  0.00    -0.237 OA
ATOM     89  O   UNL A   1      44.294  25.264  38.079  1.00  0.00    -0.744 OA
ENDBRANCH  83  86
ENDBRANCH  56  79
ENDBRANCH  30  31
ENDBRANCH  23  25
ENDBRANCH  22  23
ENDBRANCH  21  22
ENDBRANCH   1  21
TORSDOF 18
ENDMDL
MODEL 3
REMARK VINA RESULT:     -10.8      5.235     10.216
REMARK SMILES CC(C)(C)[NH+]1CCN(C(=O)CCCC(=O)OCCOC(=O)c2ccc(-c3c4nc(c(-c5cccc(S(=O)(=O)[O-])c5F)c5ccc([nH]5)c(-c5cccc(S(=O)(=O)[O-])c5F)c5nc(c(-c6cccc(S(=O)(=O)[O-])c6F)c6ccc3[nH]6)C=C5)C=C4)cc2)CC1
REMARK SMILES IDX 17 1 16 2 14 3 15 4 13 5 12 6 11 7 9 8 5 9 6 10 86 11 7 13
REMARK SMILES IDX 85 14 8 15 10 16 2 17 1 18 3 19 4 20 18 21 19 22 20 23 21 24
REMARK SMILES IDX 22 25 23 26 84 27 24 28 83 29 25 30 26 31 27 32 77 33 28 34
REMARK SMILES IDX 82 35 76 36 78 37 29 38 81 39 75 40 74 41 30 43 62 44 42 45
REMARK SMILES IDX 61 46 43 47 46 48 60 49 79 50 44 51 45 52 59 54 80 55 47 56
REMARK SMILES IDX 31 57 32 58 40 59 33 60 35 61 41 62 34 63 36 64 37 65 38 66
REMARK SMILES IDX 39 67 63 68 64 69 72 70 65 71 67 72 73 73 66 74 68 75 69 76
REMARK SMILES IDX 70 77 71 78 48 79 49 80 57 81 50 82 52 83 58 84 51 85 53 86
REMARK SMILES IDX 54 87 55 88 56 89
REMARK H PARENT 5 12 78 42 46 53
REMARK Flexibility Score: inf
ROOT
ATOM      1  C   UNL A   1      32.721  29.700  25.530  1.00  0.00     0.274 C 
ENDROOT
BRANCH   1   2
ATOM      2  O   UNL A   1      31.675  29.080  24.748  1.00  0.00    -0.462 OA
BRANCH   2   3
ATOM      3  C   UNL A   1      32.066  28.575  23.552  1.00  0.00     0.305 C 
ATOM      4  O   UNL A   1      33.010  29.011  22.901  1.00  0.00    -0.252 OA
BRANCH   3   5
ATOM      5  C   UNL A   1      31.207  27.441  23.031  1.00  0.00     0.123 C 
BRANCH   5   6
ATOM      6  C   UNL A   1      29.815  27.249  23.616  1.00  0.00     0.022 C 
BRANCH   6   7
ATOM      7  C   UNL A   1      29.516  25.904  24.280  1.00  0.00     0.101 C 
BRANCH   7   8
ATOM      8  C   UNL A   1      30.396  25.579  25.483  1.00  0.00     0.222 C 
ATOM      9  N   UNL A   1      33.389  22.434  25.243  1.00  0.00    -0.328 N 
ATOM     10  C   UNL A   1      32.938  22.972  26.536  1.00  0.00     0.284 C 
ATOM     11  C   UNL A   1      32.271  22.471  24.301  1.00  0.00     0.284 C 
ATOM     12  H   UNL A   1      33.642  21.463  25.421  1.00  0.00     0.348 HD
ATOM     13  C   UNL A   1      32.262  24.360  26.495  1.00  0.00     0.181 C 
ATOM     14  C   UNL A   1      31.678  23.872  24.146  1.00  0.00     0.181 C 
ATOM     15  N   UNL A   1      31.309  24.535  25.392  1.00  0.00    -0.331 N 
ATOM     16  O   UNL A   1      30.281  26.255  26.508  1.00  0.00    -0.275 OA
BRANCH   9  17
ATOM     17  C   UNL A   1      34.748  22.750  24.731  1.00  0.00     0.089 C 
ATOM     18  C   UNL A   1      34.908  22.943  23.201  1.00  0.00     0.078 C 
ATOM     19  C   UNL A   1      35.584  21.506  25.107  1.00  0.00     0.078 C 
ATOM     20  C   UNL A   1      35.417  23.979  25.383  1.00  0.00     0.078 C 
ENDBRANCH   9  17
ENDBRANCH   7   8
ENDBRANCH   6   7
ENDBRANCH   5   6
ENDBRANCH   3   5
ENDBRANCH   2   3
ENDBRANCH   1   2
BRANCH   1  21
ATOM     21  C   UNL A   1      32.210  30.857  26.390  1.00  0.00     0.275 C 
BRANCH  21  22
ATOM     22  O   UNL A   1      32.966  30.997  27.601  1.00  0.00    -0.458 OA
BRANCH  22  23
ATOM     23  C   UNL A   1      33.804  32.057  27.627  1.00  0.00     0.338 C 
ATOM     24  O   UNL A   1      33.525  33.229  27.408  1.00  0.00    -0.246 OA
BRANCH  23  25
ATOM     25  C   UNL A   1      35.111  31.629  28.133  1.00  0.00     0.060 A 
ATOM     26  C   UNL A   1      35.226  30.331  28.635  1.00  0.00     0.016 A 
ATOM     27  C   UNL A   1      36.187  32.513  28.184  1.00  0.00     0.016 A 
ATOM     28  C   UNL A   1      36.410  29.899  29.203  1.00  0.00     0.010 A 
ATOM     29  C   UNL A   1      37.382  32.080  28.759  1.00  0.00     0.010 A 
ATOM     30  C   UNL A   1      37.489  30.778  29.281  1.00  0.00    -0.014 A 
BRANCH  30  31
ATOM     31  C   UNL A   1      38.704  30.352  29.995  1.00  0.00     0.031 A 
ATOM     32  C   UNL A   1      39.599  29.341  29.349  1.00  0.00     0.074 A 
ATOM     33  C   UNL A   1      38.993  30.891  31.192  1.00  0.00     0.049 A 
ATOM     34  N   UNL A   1      40.618  28.703  29.854  1.00  0.00    -0.248 NA
ATOM     35  C   UNL A   1      39.305  29.000  27.946  1.00  0.00     0.031 C 
ATOM     36  C   UNL A   1      38.212  31.936  31.859  1.00  0.00     0.029 A 
ATOM     37  N   UNL A   1      40.007  30.617  32.071  1.00  0.00    -0.354 N 
ATOM     38  C   UNL A   1      41.056  27.846  28.853  1.00  0.00     0.074 A 
ATOM     39  C   UNL A   1      40.203  28.056  27.703  1.00  0.00     0.031 C 
ATOM     40  C   UNL A   1      38.757  32.190  33.059  1.00  0.00     0.029 A 
ATOM     41  C   UNL A   1      39.886  31.290  33.264  1.00  0.00     0.049 A 
ATOM     42  H   UNL A   1      40.747  30.000  31.868  1.00  0.00     0.167 HD
ATOM     43  C   UNL A   1      42.081  26.968  28.898  1.00  0.00     0.034 A 
ATOM     44  C   UNL A   1      40.584  31.149  34.406  1.00  0.00     0.034 A 
ATOM     45  C   UNL A   1      42.933  26.805  30.045  1.00  0.00     0.049 A 
ATOM     46  C   UNL A   1      41.693  30.134  34.441  1.00  0.00     0.074 A 
ATOM     47  C   UNL A   1      44.002  25.945  30.210  1.00  0.00     0.029 A 
ATOM     48  N   UNL A   1      42.807  27.527  31.223  1.00  0.00    -0.354 N 
ATOM     49  N   UNL A   1      42.124  29.350  33.480  1.00  0.00    -0.248 NA
ATOM     50  C   UNL A   1      42.422  29.989  35.708  1.00  0.00     0.031 C 
ATOM     51  C   UNL A   1      44.519  26.143  31.495  1.00  0.00     0.029 A 
ATOM     52  C   UNL A   1      43.780  27.134  32.123  1.00  0.00     0.049 A 
ATOM     53  H   UNL A   1      42.127  28.218  31.393  1.00  0.00     0.167 HD
ATOM     54  C   UNL A   1      43.186  28.635  34.019  1.00  0.00     0.074 A 
ATOM     55  C   UNL A   1      43.351  29.102  35.382  1.00  0.00     0.031 C 
ATOM     56  C   UNL A   1      43.944  27.664  33.453  1.00  0.00     0.034 A 
BRANCH  43  57
ATOM     57  C   UNL A   1      42.343  26.131  27.677  1.00  0.00     0.023 A 
ATOM     58  C   UNL A   1      43.053  26.682  26.593  1.00  0.00     0.012 A 
ATOM     59  C   UNL A   1      41.923  24.787  27.621  1.00  0.00     0.148 A 
ATOM     60  C   UNL A   1      43.327  25.915  25.461  1.00  0.00     0.002 A 
ATOM     61  C   UNL A   1      42.231  24.018  26.504  1.00  0.00     0.091 A 
ATOM     62  F   UNL A   1      41.225  24.293  28.652  1.00  0.00    -0.205 F 
ATOM     63  C   UNL A   1      42.925  24.582  25.421  1.00  0.00     0.022 A 
BRANCH  61  64
ATOM     64  S   UNL A   1      41.810  22.277  26.379  1.00  0.00     0.127 S 
ATOM     65  O   UNL A   1      42.383  21.745  27.615  1.00  0.00    -0.237 OA
ATOM     66  O   UNL A   1      40.347  22.317  26.353  1.00  0.00    -0.237 OA
ATOM     67  O   UNL A   1      42.428  21.797  25.152  1.00  0.00    -0.744 OA
ENDBRANCH  61  64
ENDBRANCH  43  57
BRANCH  44  68
ATOM     68  C   UNL A   1      40.249  31.979  35.598  1.00  0.00     0.023 A 
ATOM     69  C   UNL A   1      41.060  33.082  35.926  1.00  0.00     0.012 A 
ATOM     70  C   UNL A   1      39.121  31.699  36.396  1.00  0.00     0.148 A 
ATOM     71  C   UNL A   1      40.770  33.873  37.040  1.00  0.00     0.002 A 
ATOM     72  C   UNL A   1      38.806  32.524  37.470  1.00  0.00     0.091 A 
ATOM     73  F   UNL A   1      38.372  30.630  36.091  1.00  0.00    -0.205 F 
ATOM     74  C   UNL A   1      39.638  33.602  37.803  1.00  0.00     0.022 A 
BRANCH  72  75
ATOM     75  S   UNL A   1      37.289  32.315  38.410  1.00  0.00     0.127 S 
ATOM     76  O   UNL A   1      37.138  30.864  38.421  1.00  0.00    -0.237 OA
ATOM     77  O   UNL A   1      37.639  32.908  39.702  1.00  0.00    -0.237 OA
ATOM     78  O   UNL A   1      36.277  33.061  37.671  1.00  0.00    -0.744 OA
ENDBRANCH  72  75
ENDBRANCH  44  68
BRANCH  56  79
ATOM     79  C   UNL A   1      45.031  27.061  34.298  1.00  0.00     0.023 A 
ATOM     80  C   UNL A   1      46.312  27.646  34.300  1.00  0.00     0.012 A 
ATOM     81  C   UNL A   1      44.760  25.972  35.148  1.00  0.00     0.148 A 
ATOM     82  C   UNL A   1      47.319  27.137  35.118  1.00  0.00     0.002 A 
ATOM     83  C   UNL A   1      45.755  25.500  35.995  1.00  0.00     0.091 A 
ATOM     84  F   UNL A   1      43.539  25.421  35.114  1.00  0.00    -0.205 F 
ATOM     85  C   UNL A   1      47.037  26.075  35.973  1.00  0.00     0.022 A 
BRANCH  83  86
ATOM     86  S   UNL A   1      45.453  24.199  37.195  1.00  0.00     0.127 S 
ATOM     87  O   UNL A   1      44.306  24.732  37.929  1.00  0.00    -0.237 OA
ATOM     88  O   UNL A   1      45.152  23.050  36.340  1.00  0.00    -0.237 OA
ATOM     89  O   UNL A   1      46.684  24.072  37.964  1.00  0.00    -0.744 OA
ENDBRANCH  83  86
ENDBRANCH  56  79
ENDBRANCH  30  31
ENDBRANCH  23  25
ENDBRANCH  22  23
ENDBRANCH  21  22
ENDBRANCH   1  21
TORSDOF 18
ENDMDL
