MODEL 1
REMARK VINA RESULT:     -11.9      0.000      0.000
REMARK SMILES O=C(CCCN1C(=O)C(=O)/C(=C(\[O-])c2ccccc2)[C@H]1c1ccc([N+](=O)[O-])cc1)OCCOC(=O)c1ccc(-c2c3nc(c(-c4cccc(S(=O)(=O)[O-])c4F)c4ccc([nH]4)c(-c4cccc(S(=O)(=O)[O-])c4F)c4nc(c(-c5cccc(S(=O)(=O)[O-])c5F)c5ccc2[nH]5)C=C4)C=C3)cc1
REMARK SMILES IDX 31 1 30 2 2 3 1 4 3 5 4 6 5 7 6 8 7 9 20 10 8 11 9 12 11 13
REMARK SMILES IDX 10 14 12 15 13 16 21 17 22 18 29 19 23 20 28 21 24 22 25 23
REMARK SMILES IDX 26 24 27 25 14 26 15 27 19 28 16 29 18 30 17 31 32 32 33 33
REMARK SMILES IDX 34 34 35 35 36 36 37 37 98 38 38 39 97 40 39 41 40 42 41 43
REMARK SMILES IDX 91 44 42 45 96 46 90 47 92 48 43 49 95 50 89 51 88 52 44 54
REMARK SMILES IDX 76 55 56 56 75 57 57 58 60 59 74 60 93 61 58 62 59 63 73 65
REMARK SMILES IDX 94 66 61 67 45 68 46 69 54 70 47 71 49 72 55 73 48 74 50 75
REMARK SMILES IDX 51 76 52 77 53 78 77 79 78 80 86 81 79 82 81 83 87 84 80 85
REMARK SMILES IDX 82 86 83 87 84 88 85 89 62 90 63 91 71 92 64 93 66 94 72 95
REMARK SMILES IDX 65 96 67 97 68 98 69 99 70 100
REMARK H PARENT 92 53 60 64
REMARK Flexibility Score: inf
ROOT
ATOM      1  C   UNL A   1      31.713  29.191  25.762  1.00  0.00     0.274 C 
ENDROOT
BRANCH   1   2
ATOM      2  O   UNL A   1      31.236  28.866  24.452  1.00  0.00    -0.462 OA
BRANCH   2   3
ATOM      3  C   UNL A   1      31.616  27.693  23.876  1.00  0.00     0.305 C 
ATOM      4  O   UNL A   1      32.718  27.214  24.120  1.00  0.00    -0.252 OA
BRANCH   3   5
ATOM      5  C   UNL A   1      30.677  27.074  22.856  1.00  0.00     0.124 C 
BRANCH   5   6
ATOM      6  C   UNL A   1      30.979  25.613  22.517  1.00  0.00     0.033 C 
BRANCH   6   7
ATOM      7  C   UNL A   1      30.341  24.555  23.439  1.00  0.00     0.121 C 
BRANCH   7   8
ATOM      8  N   UNL A   1      31.115  24.136  24.613  1.00  0.00    -0.325 N 
ATOM      9  C   UNL A   1      30.732  24.414  25.912  1.00  0.00     0.295 C 
ATOM     10  C   UNL A   1      32.335  23.322  24.541  1.00  0.00     0.150 C 
ATOM     11  O   UNL A   1      29.731  24.961  26.319  1.00  0.00    -0.265 OA
ATOM     12  C   UNL A   1      31.896  23.996  26.803  1.00  0.00     0.248 C 
ATOM     13  C   UNL A   1      32.935  23.423  25.923  1.00  0.00     0.025 C 
ATOM     14  O   UNL A   1      32.000  24.157  28.002  1.00  0.00    -0.283 OA
ATOM     15  C   UNL A   1      34.165  23.140  26.391  1.00  0.00    -0.092 C 
ATOM     16  O   UNL A   1      34.531  23.321  27.713  1.00  0.00    -0.872 OA
BRANCH  10  17
ATOM     17  C   UNL A   1      32.149  21.910  23.989  1.00  0.00    -0.020 A 
ATOM     18  C   UNL A   1      32.187  20.761  24.801  1.00  0.00     0.013 A 
ATOM     19  C   UNL A   1      32.095  21.725  22.593  1.00  0.00     0.013 A 
ATOM     20  C   UNL A   1      32.284  19.482  24.239  1.00  0.00     0.086 A 
ATOM     21  C   UNL A   1      32.153  20.452  22.021  1.00  0.00     0.086 A 
ATOM     22  C   UNL A   1      32.289  19.336  22.849  1.00  0.00     0.269 A 
BRANCH  22  23
ATOM     23  N   UNL A   1      32.496  18.012  22.252  1.00  0.00     0.062 N 
ATOM     24  O   UNL A   1      33.378  17.291  22.740  1.00  0.00    -0.258 OA
ATOM     25  O   UNL A   1      31.795  17.703  21.278  1.00  0.00    -0.258 OA
ENDBRANCH  22  23
ENDBRANCH  10  17
BRANCH  15  26
ATOM     26  C   UNL A   1      35.237  22.534  25.581  1.00  0.00    -0.033 A 
ATOM     27  C   UNL A   1      35.799  23.279  24.536  1.00  0.00     0.007 A 
ATOM     28  C   UNL A   1      35.697  21.229  25.787  1.00  0.00     0.007 A 
ATOM     29  C   UNL A   1      36.816  22.742  23.742  1.00  0.00     0.001 A 
ATOM     30  C   UNL A   1      36.706  20.685  24.989  1.00  0.00     0.001 A 
ATOM     31  C   UNL A   1      37.271  21.445  23.970  1.00  0.00     0.000 A 
ENDBRANCH  15  26
ENDBRANCH   7   8
ENDBRANCH   6   7
ENDBRANCH   5   6
ENDBRANCH   3   5
ENDBRANCH   2   3
ENDBRANCH   1   2
BRANCH   1  32
ATOM     32  C   UNL A   1      32.092  30.661  25.938  1.00  0.00     0.275 C 
BRANCH  32  33
ATOM     33  O   UNL A   1      32.481  30.940  27.277  1.00  0.00    -0.458 OA
BRANCH  33  34
ATOM     34  C   UNL A   1      33.276  32.031  27.382  1.00  0.00     0.338 C 
ATOM     35  O   UNL A   1      32.941  33.196  27.250  1.00  0.00    -0.246 OA
BRANCH  34  36
ATOM     36  C   UNL A   1      34.576  31.596  27.910  1.00  0.00     0.060 A 
ATOM     37  C   UNL A   1      34.691  30.250  28.266  1.00  0.00     0.016 A 
ATOM     38  C   UNL A   1      35.661  32.471  28.025  1.00  0.00     0.016 A 
ATOM     39  C   UNL A   1      35.884  29.782  28.796  1.00  0.00     0.010 A 
ATOM     40  C   UNL A   1      36.861  31.997  28.550  1.00  0.00     0.010 A 
ATOM     41  C   UNL A   1      36.962  30.661  28.969  1.00  0.00    -0.014 A 
BRANCH  41  42
ATOM     42  C   UNL A   1      38.152  30.189  29.702  1.00  0.00     0.031 A 
ATOM     43  C   UNL A   1      38.383  30.680  31.101  1.00  0.00     0.074 A 
ATOM     44  C   UNL A   1      38.991  29.313  29.125  1.00  0.00     0.049 A 
ATOM     45  N   UNL A   1      39.310  30.331  31.952  1.00  0.00    -0.248 NA
ATOM     46  C   UNL A   1      37.446  31.695  31.615  1.00  0.00     0.031 C 
ATOM     47  C   UNL A   1      38.867  28.796  27.761  1.00  0.00     0.029 A 
ATOM     48  N   UNL A   1      40.124  28.717  29.610  1.00  0.00    -0.354 N 
ATOM     49  C   UNL A   1      39.079  31.087  33.092  1.00  0.00     0.074 A 
ATOM     50  C   UNL A   1      37.935  31.929  32.824  1.00  0.00     0.031 C 
ATOM     51  C   UNL A   1      39.903  27.979  27.510  1.00  0.00     0.029 A 
ATOM     52  C   UNL A   1      40.763  27.922  28.689  1.00  0.00     0.049 A 
ATOM     53  H   UNL A   1      40.451  28.845  30.530  1.00  0.00     0.167 HD
ATOM     54  C   UNL A   1      39.752  31.066  34.265  1.00  0.00     0.034 A 
ATOM     55  C   UNL A   1      41.920  27.239  28.790  1.00  0.00     0.034 A 
ATOM     56  C   UNL A   1      40.878  30.212  34.525  1.00  0.00     0.049 A 
ATOM     57  C   UNL A   1      42.656  27.249  30.106  1.00  0.00     0.074 A 
ATOM     58  C   UNL A   1      41.581  30.054  35.705  1.00  0.00     0.029 A 
ATOM     59  N   UNL A   1      41.479  29.391  33.584  1.00  0.00    -0.354 N 
ATOM     60  N   UNL A   1      42.321  27.826  31.235  1.00  0.00    -0.248 NA
ATOM     61  C   UNL A   1      43.910  26.487  30.171  1.00  0.00     0.031 C 
ATOM     62  C   UNL A   1      42.632  29.164  35.467  1.00  0.00     0.029 A 
ATOM     63  C   UNL A   1      42.567  28.748  34.147  1.00  0.00     0.049 A 
ATOM     64  H   UNL A   1      41.178  29.283  32.654  1.00  0.00     0.167 HD
ATOM     65  C   UNL A   1      43.308  27.476  32.150  1.00  0.00     0.074 A 
ATOM     66  C   UNL A   1      44.235  26.611  31.451  1.00  0.00     0.031 C 
ATOM     67  C   UNL A   1      43.450  27.854  33.445  1.00  0.00     0.034 A 
BRANCH  54  68
ATOM     68  C   UNL A   1      39.275  31.965  35.370  1.00  0.00     0.023 A 
ATOM     69  C   UNL A   1      38.291  31.501  36.268  1.00  0.00     0.012 A 
ATOM     70  C   UNL A   1      39.858  33.231  35.573  1.00  0.00     0.148 A 
ATOM     71  C   UNL A   1      37.885  32.290  37.343  1.00  0.00     0.002 A 
ATOM     72  C   UNL A   1      39.476  33.995  36.667  1.00  0.00     0.091 A 
ATOM     73  F   UNL A   1      40.775  33.658  34.693  1.00  0.00    -0.205 F 
ATOM     74  C   UNL A   1      38.486  33.530  37.549  1.00  0.00     0.022 A 
BRANCH  72  75
ATOM     75  S   UNL A   1      40.235  35.575  37.062  1.00  0.00     0.127 S 
ATOM     76  O   UNL A   1      41.653  35.276  36.875  1.00  0.00    -0.237 OA
ATOM     77  O   UNL A   1      39.656  36.452  36.045  1.00  0.00    -0.237 OA
ATOM     78  O   UNL A   1      39.840  35.881  38.430  1.00  0.00    -0.744 OA
ENDBRANCH  72  75
ENDBRANCH  54  68
BRANCH  55  79
ATOM     79  C   UNL A   1      42.442  26.470  27.626  1.00  0.00     0.023 A 
ATOM     80  C   UNL A   1      43.287  27.101  26.693  1.00  0.00     0.012 A 
ATOM     81  C   UNL A   1      42.102  25.116  27.436  1.00  0.00     0.148 A 
ATOM     82  C   UNL A   1      43.750  26.410  25.571  1.00  0.00     0.002 A 
ATOM     83  C   UNL A   1      42.611  24.419  26.348  1.00  0.00     0.091 A 
ATOM     84  F   UNL A   1      41.279  24.537  28.322  1.00  0.00    -0.205 F 
ATOM     85  C   UNL A   1      43.421  25.069  25.404  1.00  0.00     0.022 A 
BRANCH  83  86
ATOM     86  S   UNL A   1      42.336  22.657  26.129  1.00  0.00     0.127 S 
ATOM     87  O   UNL A   1      42.919  22.109  27.351  1.00  0.00    -0.237 OA
ATOM     88  O   UNL A   1      40.876  22.581  26.055  1.00  0.00    -0.237 OA
ATOM     89  O   UNL A   1      43.013  22.311  24.886  1.00  0.00    -0.744 OA
ENDBRANCH  83  86
ENDBRANCH  55  79
BRANCH  67  90
ATOM     90  C   UNL A   1      44.647  27.332  34.196  1.00  0.00     0.023 A 
ATOM     91  C   UNL A   1      45.848  28.068  34.182  1.00  0.00     0.012 A 
ATOM     92  C   UNL A   1      44.556  26.166  34.981  1.00  0.00     0.148 A 
ATOM     93  C   UNL A   1      46.952  27.634  34.914  1.00  0.00     0.002 A 
ATOM     94  C   UNL A   1      45.645  25.768  35.748  1.00  0.00     0.091 A 
ATOM     95  F   UNL A   1      43.408  25.474  34.970  1.00  0.00    -0.205 F 
ATOM     96  C   UNL A   1      46.847  26.494  35.707  1.00  0.00     0.022 A 
BRANCH  94  97
ATOM     97  S   UNL A   1      45.572  24.369  36.873  1.00  0.00     0.127 S 
ATOM     98  O   UNL A   1      45.320  23.261  35.953  1.00  0.00    -0.237 OA
ATOM     99  O   UNL A   1      46.911  24.377  37.465  1.00  0.00    -0.237 OA
ATOM    100  O   UNL A   1      44.495  24.661  37.809  1.00  0.00    -0.744 OA
ENDBRANCH  94  97
ENDBRANCH  67  90
ENDBRANCH  41  42
ENDBRANCH  34  36
ENDBRANCH  33  34
ENDBRANCH  32  33
ENDBRANCH   1  32
TORSDOF 20
ENDMDL
MODEL 2
REMARK VINA RESULT:     -11.1      0.516      7.415
REMARK SMILES O=C(CCCN1C(=O)C(=O)/C(=C(\[O-])c2ccccc2)[C@H]1c1ccc([N+](=O)[O-])cc1)OCCOC(=O)c1ccc(-c2c3nc(c(-c4cccc(S(=O)(=O)[O-])c4F)c4ccc([nH]4)c(-c4cccc(S(=O)(=O)[O-])c4F)c4nc(c(-c5cccc(S(=O)(=O)[O-])c5F)c5ccc2[nH]5)C=C4)C=C3)cc1
REMARK SMILES IDX 31 1 30 2 2 3 1 4 3 5 4 6 5 7 6 8 7 9 20 10 8 11 9 12 11 13
REMARK SMILES IDX 10 14 12 15 13 16 21 17 22 18 29 19 23 20 28 21 24 22 25 23
REMARK SMILES IDX 26 24 27 25 14 26 15 27 19 28 16 29 18 30 17 31 32 32 33 33
REMARK SMILES IDX 34 34 35 35 36 36 37 37 98 38 38 39 97 40 39 41 40 42 41 43
REMARK SMILES IDX 91 44 42 45 96 46 90 47 92 48 43 49 95 50 89 51 88 52 44 54
REMARK SMILES IDX 76 55 56 56 75 57 57 58 60 59 74 60 93 61 58 62 59 63 73 65
REMARK SMILES IDX 94 66 61 67 45 68 46 69 54 70 47 71 49 72 55 73 48 74 50 75
REMARK SMILES IDX 51 76 52 77 53 78 77 79 78 80 86 81 79 82 81 83 87 84 80 85
REMARK SMILES IDX 82 86 83 87 84 88 85 89 62 90 63 91 71 92 64 93 66 94 72 95
REMARK SMILES IDX 65 96 67 97 68 98 69 99 70 100
REMARK H PARENT 92 53 60 64
REMARK Flexibility Score: inf
ROOT
ATOM      1  C   UNL A   1      31.425  29.646  26.248  1.00  0.00     0.274 C 
ENDROOT
BRANCH   1   2
ATOM      2  O   UNL A   1      31.188  29.327  24.873  1.00  0.00    -0.462 OA
BRANCH   2   3
ATOM      3  C   UNL A   1      31.425  28.061  24.431  1.00  0.00     0.305 C 
ATOM      4  O   UNL A   1      32.552  27.584  24.501  1.00  0.00    -0.252 OA
BRANCH   3   5
ATOM      5  C   UNL A   1      30.278  27.323  23.764  1.00  0.00     0.124 C 
BRANCH   5   6
ATOM      6  C   UNL A   1      30.700  26.107  22.937  1.00  0.00     0.033 C 
BRANCH   6   7
ATOM      7  C   UNL A   1      30.347  24.727  23.526  1.00  0.00     0.121 C 
BRANCH   7   8
ATOM      8  N   UNL A   1      31.151  24.258  24.660  1.00  0.00    -0.325 N 
ATOM      9  C   UNL A   1      30.807  24.486  25.979  1.00  0.00     0.295 C 
ATOM     10  C   UNL A   1      32.364  23.442  24.521  1.00  0.00     0.150 C 
ATOM     11  O   UNL A   1      29.821  25.021  26.436  1.00  0.00    -0.265 OA
ATOM     12  C   UNL A   1      31.993  24.028  26.819  1.00  0.00     0.248 C 
ATOM     13  C   UNL A   1      33.003  23.485  25.889  1.00  0.00     0.025 C 
ATOM     14  O   UNL A   1      32.132  24.140  28.021  1.00  0.00    -0.283 OA
ATOM     15  C   UNL A   1      34.245  23.179  26.310  1.00  0.00    -0.092 C 
ATOM     16  O   UNL A   1      34.649  23.305  27.627  1.00  0.00    -0.872 OA
BRANCH  10  17
ATOM     17  C   UNL A   1      32.155  22.053  23.920  1.00  0.00    -0.020 A 
ATOM     18  C   UNL A   1      32.193  20.874  24.687  1.00  0.00     0.013 A 
ATOM     19  C   UNL A   1      32.077  21.923  22.518  1.00  0.00     0.013 A 
ATOM     20  C   UNL A   1      32.268  19.617  24.075  1.00  0.00     0.086 A 
ATOM     21  C   UNL A   1      32.113  20.671  21.898  1.00  0.00     0.086 A 
ATOM     22  C   UNL A   1      32.250  19.524  22.681  1.00  0.00     0.269 A 
BRANCH  22  23
ATOM     23  N   UNL A   1      32.433  18.222  22.031  1.00  0.00     0.062 N 
ATOM     24  O   UNL A   1      33.109  17.370  22.626  1.00  0.00    -0.258 OA
ATOM     25  O   UNL A   1      31.924  18.058  20.913  1.00  0.00    -0.258 OA
ENDBRANCH  22  23
ENDBRANCH  10  17
BRANCH  15  26
ATOM     26  C   UNL A   1      35.290  22.600  25.446  1.00  0.00    -0.033 A 
ATOM     27  C   UNL A   1      35.858  21.370  25.803  1.00  0.00     0.007 A 
ATOM     28  C   UNL A   1      35.766  23.241  24.297  1.00  0.00     0.007 A 
ATOM     29  C   UNL A   1      36.852  20.786  25.014  1.00  0.00     0.001 A 
ATOM     30  C   UNL A   1      36.767  22.665  23.512  1.00  0.00     0.001 A 
ATOM     31  C   UNL A   1      37.305  21.434  23.867  1.00  0.00     0.000 A 
ENDBRANCH  15  26
ENDBRANCH   7   8
ENDBRANCH   6   7
ENDBRANCH   5   6
ENDBRANCH   3   5
ENDBRANCH   2   3
ENDBRANCH   1   2
BRANCH   1  32
ATOM     32  C   UNL A   1      31.771  31.115  26.493  1.00  0.00     0.275 C 
BRANCH  32  33
ATOM     33  O   UNL A   1      33.174  31.334  26.429  1.00  0.00    -0.458 OA
BRANCH  33  34
ATOM     34  C   UNL A   1      33.606  32.271  27.306  1.00  0.00     0.338 C 
ATOM     35  O   UNL A   1      33.007  33.272  27.661  1.00  0.00    -0.246 OA
BRANCH  34  36
ATOM     36  C   UNL A   1      34.832  31.769  27.939  1.00  0.00     0.060 A 
ATOM     37  C   UNL A   1      34.848  30.418  28.293  1.00  0.00     0.016 A 
ATOM     38  C   UNL A   1      35.946  32.587  28.153  1.00  0.00     0.016 A 
ATOM     39  C   UNL A   1      35.966  29.888  28.920  1.00  0.00     0.010 A 
ATOM     40  C   UNL A   1      37.072  32.051  28.775  1.00  0.00     0.010 A 
ATOM     41  C   UNL A   1      37.068  30.710  29.192  1.00  0.00    -0.014 A 
BRANCH  41  42
ATOM     42  C   UNL A   1      38.165  30.176  30.020  1.00  0.00     0.031 A 
ATOM     43  C   UNL A   1      39.128  29.203  29.408  1.00  0.00     0.074 A 
ATOM     44  C   UNL A   1      38.304  30.585  31.293  1.00  0.00     0.049 A 
ATOM     45  N   UNL A   1      40.208  28.679  29.924  1.00  0.00    -0.248 NA
ATOM     46  C   UNL A   1      38.846  28.762  28.030  1.00  0.00     0.031 C 
ATOM     47  C   UNL A   1      37.405  31.508  31.987  1.00  0.00     0.029 A 
ATOM     48  N   UNL A   1      39.247  30.261  32.232  1.00  0.00    -0.354 N 
ATOM     49  C   UNL A   1      40.725  27.841  28.947  1.00  0.00     0.074 A 
ATOM     50  C   UNL A   1      39.836  27.909  27.809  1.00  0.00     0.031 C 
ATOM     51  C   UNL A   1      37.826  31.655  33.255  1.00  0.00     0.029 A 
ATOM     52  C   UNL A   1      39.016  30.832  33.461  1.00  0.00     0.049 A 
ATOM     53  H   UNL A   1      40.015  29.675  32.046  1.00  0.00     0.167 HD
ATOM     54  C   UNL A   1      41.853  27.096  28.989  1.00  0.00     0.034 A 
ATOM     55  C   UNL A   1      39.686  30.691  34.620  1.00  0.00     0.034 A 
ATOM     56  C   UNL A   1      42.738  27.049  30.120  1.00  0.00     0.049 A 
ATOM     57  C   UNL A   1      40.931  29.840  34.639  1.00  0.00     0.074 A 
ATOM     58  C   UNL A   1      43.947  26.390  30.237  1.00  0.00     0.029 A 
ATOM     59  N   UNL A   1      42.496  27.668  31.337  1.00  0.00    -0.354 N 
ATOM     60  N   UNL A   1      41.509  29.200  33.651  1.00  0.00    -0.248 NA
ATOM     61  C   UNL A   1      41.633  29.719  35.924  1.00  0.00     0.031 C 
ATOM     62  C   UNL A   1      44.420  26.580  31.539  1.00  0.00     0.029 A 
ATOM     63  C   UNL A   1      43.518  27.379  32.223  1.00  0.00     0.049 A 
ATOM     64  H   UNL A   1      41.713  28.228  31.540  1.00  0.00     0.167 HD
ATOM     65  C   UNL A   1      42.654  28.622  34.189  1.00  0.00     0.074 A 
ATOM     66  C   UNL A   1      42.704  29.016  35.581  1.00  0.00     0.031 C 
ATOM     67  C   UNL A   1      43.571  27.819  33.592  1.00  0.00     0.034 A 
BRANCH  54  68
ATOM     68  C   UNL A   1      42.217  26.295  27.771  1.00  0.00     0.023 A 
ATOM     69  C   UNL A   1      43.025  26.876  26.773  1.00  0.00     0.012 A 
ATOM     70  C   UNL A   1      41.834  24.945  27.656  1.00  0.00     0.148 A 
ATOM     71  C   UNL A   1      43.434  26.129  25.669  1.00  0.00     0.002 A 
ATOM     72  C   UNL A   1      42.277  24.196  26.574  1.00  0.00     0.091 A 
ATOM     73  F   UNL A   1      41.047  24.422  28.607  1.00  0.00    -0.205 F 
ATOM     74  C   UNL A   1      43.071  24.787  25.577  1.00  0.00     0.022 A 
BRANCH  72  75
ATOM     75  S   UNL A   1      41.923  22.444  26.393  1.00  0.00     0.127 S 
ATOM     76  O   UNL A   1      42.313  22.206  25.004  1.00  0.00    -0.237 OA
ATOM     77  O   UNL A   1      42.815  21.849  27.388  1.00  0.00    -0.237 OA
ATOM     78  O   UNL A   1      40.503  22.288  26.674  1.00  0.00    -0.744 OA
ENDBRANCH  72  75
ENDBRANCH  54  68
BRANCH  55  79
ATOM     79  C   UNL A   1      39.216  31.388  35.850  1.00  0.00     0.023 A 
ATOM     80  C   UNL A   1      38.181  30.824  36.620  1.00  0.00     0.012 A 
ATOM     81  C   UNL A   1      39.787  32.610  36.258  1.00  0.00     0.148 A 
ATOM     82  C   UNL A   1      37.695  31.485  37.750  1.00  0.00     0.002 A 
ATOM     83  C   UNL A   1      39.336  33.234  37.414  1.00  0.00     0.091 A 
ATOM     84  F   UNL A   1      40.756  33.143  35.501  1.00  0.00    -0.205 F 
ATOM     85  C   UNL A   1      38.278  32.683  38.152  1.00  0.00     0.022 A 
BRANCH  83  86
ATOM     86  S   UNL A   1      40.119  34.713  38.068  1.00  0.00     0.127 S 
ATOM     87  O   UNL A   1      39.313  35.771  37.463  1.00  0.00    -0.237 OA
ATOM     88  O   UNL A   1      39.935  34.547  39.510  1.00  0.00    -0.237 OA
ATOM     89  O   UNL A   1      41.508  34.640  37.633  1.00  0.00    -0.744 OA
ENDBRANCH  83  86
ENDBRANCH  55  79
BRANCH  67  90
ATOM     90  C   UNL A   1      44.710  27.314  34.439  1.00  0.00     0.023 A 
ATOM     91  C   UNL A   1      45.872  28.099  34.573  1.00  0.00     0.012 A 
ATOM     92  C   UNL A   1      44.596  26.113  35.165  1.00  0.00     0.148 A 
ATOM     93  C   UNL A   1      46.917  27.680  35.394  1.00  0.00     0.002 A 
ATOM     94  C   UNL A   1      45.621  25.727  36.020  1.00  0.00     0.091 A 
ATOM     95  F   UNL A   1      43.487  25.376  35.011  1.00  0.00    -0.205 F 
ATOM     96  C   UNL A   1      46.787  26.503  36.127  1.00  0.00     0.022 A 
BRANCH  94  97
ATOM     97  S   UNL A   1      45.502  24.279  37.077  1.00  0.00     0.127 S 
ATOM     98  O   UNL A   1      44.932  23.290  36.162  1.00  0.00    -0.237 OA
ATOM     99  O   UNL A   1      46.900  24.041  37.437  1.00  0.00    -0.237 OA
ATOM    100  O   UNL A   1      44.648  24.664  38.192  1.00  0.00    -0.744 OA
ENDBRANCH  94  97
ENDBRANCH  67  90
ENDBRANCH  41  42
ENDBRANCH  34  36
ENDBRANCH  33  34
ENDBRANCH  32  33
ENDBRANCH   1  32
TORSDOF 20
ENDMDL
MODEL 3
REMARK VINA RESULT:      -9.9      7.143     15.021
REMARK SMILES O=C(CCCN1C(=O)C(=O)/C(=C(\[O-])c2ccccc2)[C@H]1c1ccc([N+](=O)[O-])cc1)OCCOC(=O)c1ccc(-c2c3nc(c(-c4cccc(S(=O)(=O)[O-])c4F)c4ccc([nH]4)c(-c4cccc(S(=O)(=O)[O-])c4F)c4nc(c(-c5cccc(S(=O)(=O)[O-])c5F)c5ccc2[nH]5)C=C4)C=C3)cc1
REMARK SMILES IDX 31 1 30 2 2 3 1 4 3 5 4 6 5 7 6 8 7 9 20 10 8 11 9 12 11 13
REMARK SMILES IDX 10 14 12 15 13 16 21 17 22 18 29 19 23 20 28 21 24 22 25 23
REMARK SMILES IDX 26 24 27 25 14 26 15 27 19 28 16 29 18 30 17 31 32 32 33 33
REMARK SMILES IDX 34 34 35 35 36 36 37 37 98 38 38 39 97 40 39 41 40 42 41 43
REMARK SMILES IDX 91 44 42 45 96 46 90 47 92 48 43 49 95 50 89 51 88 52 44 54
REMARK SMILES IDX 76 55 56 56 75 57 57 58 60 59 74 60 93 61 58 62 59 63 73 65
REMARK SMILES IDX 94 66 61 67 45 68 46 69 54 70 47 71 49 72 55 73 48 74 50 75
REMARK SMILES IDX 51 76 52 77 53 78 77 79 78 80 86 81 79 82 81 83 87 84 80 85
REMARK SMILES IDX 82 86 83 87 84 88 85 89 62 90 63 91 71 92 64 93 66 94 72 95
REMARK SMILES IDX 65 96 67 97 68 98 69 99 70 100
REMARK H PARENT 92 53 60 64
REMARK Flexibility Score: inf
ROOT
ATOM      1  C   UNL A   1      54.934  22.452  35.653  1.00  0.00     0.274 C 
ENDROOT
BRANCH   1   2
ATOM      2  O   UNL A   1      55.292  21.073  35.514  1.00  0.00    -0.462 OA
BRANCH   2   3
ATOM      3  C   UNL A   1      54.315  20.148  35.310  1.00  0.00     0.305 C 
ATOM      4  O   UNL A   1      54.605  19.015  34.939  1.00  0.00    -0.252 OA
BRANCH   3   5
ATOM      5  C   UNL A   1      52.874  20.602  35.457  1.00  0.00     0.124 C 
BRANCH   5   6
ATOM      6  C   UNL A   1      51.976  20.265  34.264  1.00  0.00     0.033 C 
BRANCH   6   7
ATOM      7  C   UNL A   1      50.751  19.378  34.564  1.00  0.00     0.121 C 
BRANCH   7   8
ATOM      8  N   UNL A   1      49.478  20.060  34.824  1.00  0.00    -0.325 N 
ATOM      9  C   UNL A   1      48.394  19.993  33.969  1.00  0.00     0.295 C 
ATOM     10  C   UNL A   1      49.195  20.827  36.044  1.00  0.00     0.150 C 
ATOM     11  O   UNL A   1      48.259  19.360  32.945  1.00  0.00    -0.265 OA
ATOM     12  C   UNL A   1      47.370  20.992  34.493  1.00  0.00     0.248 C 
ATOM     13  C   UNL A   1      47.931  21.588  35.722  1.00  0.00     0.025 C 
ATOM     14  O   UNL A   1      46.316  21.306  33.977  1.00  0.00    -0.283 OA
ATOM     15  C   UNL A   1      47.347  22.649  36.311  1.00  0.00    -0.092 C 
ATOM     16  O   UNL A   1      46.177  23.223  35.846  1.00  0.00    -0.872 OA
BRANCH  10  17
ATOM     17  C   UNL A   1      49.181  20.017  37.339  1.00  0.00    -0.020 A 
ATOM     18  C   UNL A   1      47.997  19.537  37.928  1.00  0.00     0.013 A 
ATOM     19  C   UNL A   1      50.381  19.874  38.065  1.00  0.00     0.013 A 
ATOM     20  C   UNL A   1      47.992  19.040  39.237  1.00  0.00     0.086 A 
ATOM     21  C   UNL A   1      50.393  19.345  39.358  1.00  0.00     0.086 A 
ATOM     22  C   UNL A   1      49.189  18.967  39.954  1.00  0.00     0.269 A 
BRANCH  22  23
ATOM     23  N   UNL A   1      49.177  18.547  41.359  1.00  0.00     0.062 N 
ATOM     24  O   UNL A   1      48.252  17.812  41.734  1.00  0.00    -0.258 OA
ATOM     25  O   UNL A   1      50.078  18.972  42.097  1.00  0.00    -0.258 OA
ENDBRANCH  22  23
ENDBRANCH  10  17
BRANCH  15  26
ATOM     26  C   UNL A   1      47.830  23.270  37.558  1.00  0.00    -0.033 A 
ATOM     27  C   UNL A   1      49.183  23.616  37.660  1.00  0.00     0.007 A 
ATOM     28  C   UNL A   1      47.001  23.500  38.661  1.00  0.00     0.007 A 
ATOM     29  C   UNL A   1      49.684  24.206  38.824  1.00  0.00     0.001 A 
ATOM     30  C   UNL A   1      47.500  24.079  39.830  1.00  0.00     0.001 A 
ATOM     31  C   UNL A   1      48.841  24.439  39.909  1.00  0.00     0.000 A 
ENDBRANCH  15  26
ENDBRANCH   7   8
ENDBRANCH   6   7
ENDBRANCH   5   6
ENDBRANCH   3   5
ENDBRANCH   2   3
ENDBRANCH   1   2
BRANCH   1  32
ATOM     32  C   UNL A   1      55.115  23.272  34.376  1.00  0.00     0.275 C 
BRANCH  32  33
ATOM     33  O   UNL A   1      53.945  23.239  33.569  1.00  0.00    -0.458 OA
BRANCH  33  34
ATOM     34  C   UNL A   1      53.826  24.319  32.761  1.00  0.00     0.338 C 
ATOM     35  O   UNL A   1      54.642  24.718  31.948  1.00  0.00    -0.246 OA
BRANCH  34  36
ATOM     36  C   UNL A   1      52.445  24.810  32.862  1.00  0.00     0.060 A 
ATOM     37  C   UNL A   1      51.442  23.845  32.970  1.00  0.00     0.016 A 
ATOM     38  C   UNL A   1      52.143  26.176  32.880  1.00  0.00     0.016 A 
ATOM     39  C   UNL A   1      50.115  24.243  33.042  1.00  0.00     0.010 A 
ATOM     40  C   UNL A   1      50.810  26.574  32.960  1.00  0.00     0.010 A 
ATOM     41  C   UNL A   1      49.793  25.607  33.004  1.00  0.00    -0.014 A 
BRANCH  41  42
ATOM     42  C   UNL A   1      48.376  25.999  32.894  1.00  0.00     0.031 A 
ATOM     43  C   UNL A   1      47.625  26.363  34.141  1.00  0.00     0.074 A 
ATOM     44  C   UNL A   1      47.788  26.054  31.686  1.00  0.00     0.049 A 
ATOM     45  N   UNL A   1      46.406  26.817  34.264  1.00  0.00    -0.248 NA
ATOM     46  C   UNL A   1      48.338  26.199  35.420  1.00  0.00     0.031 C 
ATOM     47  C   UNL A   1      48.425  25.696  30.418  1.00  0.00     0.029 A 
ATOM     48  N   UNL A   1      46.515  26.416  31.334  1.00  0.00    -0.354 N 
ATOM     49  C   UNL A   1      46.201  26.980  35.626  1.00  0.00     0.074 A 
ATOM     50  C   UNL A   1      47.412  26.563  36.296  1.00  0.00     0.031 C 
ATOM     51  C   UNL A   1      47.528  25.831  29.427  1.00  0.00     0.029 A 
ATOM     52  C   UNL A   1      46.256  26.275  29.992  1.00  0.00     0.049 A 
ATOM     53  H   UNL A   1      45.848  26.744  31.980  1.00  0.00     0.167 HD
ATOM     54  C   UNL A   1      45.105  27.456  36.260  1.00  0.00     0.034 A 
ATOM     55  C   UNL A   1      45.114  26.473  29.306  1.00  0.00     0.034 A 
ATOM     56  C   UNL A   1      43.912  27.883  35.581  1.00  0.00     0.049 A 
ATOM     57  C   UNL A   1      43.904  26.987  30.044  1.00  0.00     0.074 A 
ATOM     58  C   UNL A   1      42.775  28.455  36.122  1.00  0.00     0.029 A 
ATOM     59  N   UNL A   1      43.694  27.763  34.218  1.00  0.00    -0.354 N 
ATOM     60  N   UNL A   1      43.784  27.313  31.308  1.00  0.00    -0.248 NA
ATOM     61  C   UNL A   1      42.682  27.192  29.254  1.00  0.00     0.031 C 
ATOM     62  C   UNL A   1      41.854  28.647  35.088  1.00  0.00     0.029 A 
ATOM     63  C   UNL A   1      42.427  28.219  33.902  1.00  0.00     0.049 A 
ATOM     64  H   UNL A   1      44.344  27.405  33.572  1.00  0.00     0.167 HD
ATOM     65  C   UNL A   1      42.485  27.784  31.460  1.00  0.00     0.074 A 
ATOM     66  C   UNL A   1      41.868  27.732  30.151  1.00  0.00     0.031 C 
ATOM     67  C   UNL A   1      41.849  28.201  32.584  1.00  0.00     0.034 A 
BRANCH  54  68
ATOM     68  C   UNL A   1      45.148  27.572  37.757  1.00  0.00     0.023 A 
ATOM     69  C   UNL A   1      44.729  26.485  38.551  1.00  0.00     0.012 A 
ATOM     70  C   UNL A   1      45.683  28.718  38.376  1.00  0.00     0.148 A 
ATOM     71  C   UNL A   1      44.827  26.543  39.940  1.00  0.00     0.002 A 
ATOM     72  C   UNL A   1      45.813  28.754  39.758  1.00  0.00     0.091 A 
ATOM     73  F   UNL A   1      46.053  29.747  37.601  1.00  0.00    -0.205 F 
ATOM     74  C   UNL A   1      45.380  27.671  40.542  1.00  0.00     0.022 A 
BRANCH  72  75
ATOM     75  S   UNL A   1      46.574  30.129  40.628  1.00  0.00     0.127 S 
ATOM     76  O   UNL A   1      47.889  30.189  39.993  1.00  0.00    -0.237 OA
ATOM     77  O   UNL A   1      45.681  31.237  40.285  1.00  0.00    -0.237 OA
ATOM     78  O   UNL A   1      46.580  29.762  42.036  1.00  0.00    -0.744 OA
ENDBRANCH  72  75
ENDBRANCH  54  68
BRANCH  55  79
ATOM     79  C   UNL A   1      45.064  26.211  27.840  1.00  0.00     0.023 A 
ATOM     80  C   UNL A   1      45.099  27.290  26.935  1.00  0.00     0.012 A 
ATOM     81  C   UNL A   1      44.977  24.898  27.337  1.00  0.00     0.148 A 
ATOM     82  C   UNL A   1      45.008  27.068  25.560  1.00  0.00     0.002 A 
ATOM     83  C   UNL A   1      44.942  24.681  25.965  1.00  0.00     0.091 A 
ATOM     84  F   UNL A   1      44.923  23.884  28.213  1.00  0.00    -0.205 F 
ATOM     85  C   UNL A   1      44.939  25.765  25.075  1.00  0.00     0.022 A 
BRANCH  83  86
ATOM     86  S   UNL A   1      44.980  23.030  25.258  1.00  0.00     0.127 S 
ATOM     87  O   UNL A   1      43.674  22.507  25.647  1.00  0.00    -0.237 OA
ATOM     88  O   UNL A   1      45.131  23.311  23.829  1.00  0.00    -0.237 OA
ATOM     89  O   UNL A   1      46.136  22.378  25.860  1.00  0.00    -0.744 OA
ENDBRANCH  83  86
ENDBRANCH  55  79
BRANCH  67  90
ATOM     90  C   UNL A   1      40.414  28.640  32.451  1.00  0.00     0.023 A 
ATOM     91  C   UNL A   1      39.387  27.679  32.525  1.00  0.00     0.012 A 
ATOM     92  C   UNL A   1      40.082  30.005  32.340  1.00  0.00     0.148 A 
ATOM     93  C   UNL A   1      38.050  28.067  32.461  1.00  0.00     0.002 A 
ATOM     94  C   UNL A   1      38.747  30.387  32.327  1.00  0.00     0.091 A 
ATOM     95  F   UNL A   1      41.076  30.900  32.258  1.00  0.00    -0.205 F 
ATOM     96  C   UNL A   1      37.730  29.420  32.376  1.00  0.00     0.022 A 
BRANCH  94  97
ATOM     97  S   UNL A   1      38.237  32.110  32.317  1.00  0.00     0.127 S 
ATOM     98  O   UNL A   1      38.443  32.473  30.916  1.00  0.00    -0.237 OA
ATOM     99  O   UNL A   1      36.834  32.022  32.725  1.00  0.00    -0.237 OA
ATOM    100  O   UNL A   1      39.102  32.791  33.272  1.00  0.00    -0.744 OA
ENDBRANCH  94  97
ENDBRANCH  67  90
ENDBRANCH  41  42
ENDBRANCH  34  36
ENDBRANCH  33  34
ENDBRANCH  32  33
ENDBRANCH   1  32
TORSDOF 20
ENDMDL
