MODEL 1
REMARK VINA RESULT:     -12.0      0.000      0.000
REMARK SMILES Cc1cc(NC(=O)c2ccc3ncsc3c2)sc1C(=O)OCCOC(=O)c1ccc(-c2c3nc(c(-c4cccc(S(=O)(=O)[O-])c4F)c4ccc([nH]4)c(-c4cccc(S(=O)(=O)[O-])c4F)c4nc(c(-c5cccc(S(=O)(=O)[O-])c5F)c5ccc2[nH]5)C=C4)C=C3)cc1
REMARK SMILES IDX 23 1 22 2 21 3 19 4 20 5 18 6 1 7 2 8 3 9 4 10 17 11 5 12
REMARK SMILES IDX 6 13 7 15 8 16 9 17 16 18 10 19 15 20 11 21 14 22 12 23
REMARK SMILES IDX 13 24 24 25 25 26 26 27 27 28 28 29 89 30 29 31 88 32 30 33
REMARK SMILES IDX 31 34 32 35 82 36 33 37 87 38 81 39 83 40 34 41 86 42 80 43
REMARK SMILES IDX 79 44 35 46 67 47 47 48 66 49 48 50 51 51 65 52 84 53 49 54
REMARK SMILES IDX 50 55 64 57 85 58 52 59 36 60 37 61 45 62 38 63 40 64 46 65
REMARK SMILES IDX 39 66 41 67 42 68 43 69 44 70 68 71 69 72 77 73 70 74 72 75
REMARK SMILES IDX 78 76 71 77 73 78 74 79 75 80 76 81 53 82 54 83 62 84 55 85
REMARK SMILES IDX 57 86 63 87 56 88 58 89 59 90 60 91 61 92
REMARK H PARENT 5 14 83 45 51 56
REMARK Flexibility Score: inf
ROOT
ATOM      1  C   UNL A   1      38.167  19.592  25.255  1.00  0.00     0.275 C 
ENDROOT
BRANCH   1   2
ATOM      2  C   UNL A   1      36.808  20.006  24.683  1.00  0.00     0.275 C 
BRANCH   2   3
ATOM      3  O   UNL A   1      36.469  21.338  25.111  1.00  0.00    -0.458 OA
BRANCH   3   4
ATOM      4  C   UNL A   1      35.242  21.519  25.683  1.00  0.00     0.348 C 
ATOM      5  O   UNL A   1      35.034  21.454  26.882  1.00  0.00    -0.245 OA
BRANCH   4   6
ATOM      6  C   UNL A   1      34.261  21.871  24.660  1.00  0.00     0.117 A 
ATOM      7  C   UNL A   1      32.524  19.946  24.701  1.00  0.00     0.046 C 
ATOM      8  C   UNL A   1      33.150  21.194  24.167  1.00  0.00    -0.023 A 
ATOM      9  C   UNL A   1      32.617  21.866  23.016  1.00  0.00     0.042 A 
ATOM     10  C   UNL A   1      33.198  23.088  22.793  1.00  0.00     0.096 A 
ATOM     11  S   UNL A   1      34.459  23.397  23.868  1.00  0.00    -0.111 S 
BRANCH  10  12
ATOM     12  N   UNL A   1      32.936  24.104  21.901  1.00  0.00    -0.314 N 
ATOM     13  C   UNL A   1      32.180  25.230  22.150  1.00  0.00     0.256 C 
ATOM     14  H   UNL A   1      33.324  24.018  21.001  1.00  0.00     0.171 HD
ATOM     15  O   UNL A   1      31.761  25.951  21.250  1.00  0.00    -0.269 OA
BRANCH  13  16
ATOM     16  C   UNL A   1      31.941  25.638  23.555  1.00  0.00     0.041 A 
ATOM     17  C   UNL A   1      30.772  25.226  24.203  1.00  0.00     0.016 A 
ATOM     18  C   UNL A   1      32.853  26.504  24.168  1.00  0.00     0.035 A 
ATOM     19  C   UNL A   1      30.426  25.773  25.440  1.00  0.00     0.030 A 
ATOM     20  C   UNL A   1      32.483  27.050  25.409  1.00  0.00     0.055 A 
ATOM     21  C   UNL A   1      31.280  26.717  26.044  1.00  0.00     0.081 A 
ATOM     22  S   UNL A   1      33.321  28.203  26.378  1.00  0.00    -0.122 S 
ATOM     23  N   UNL A   1      31.029  27.384  27.231  1.00  0.00    -0.245 NA
ATOM     24  C   UNL A   1      32.025  28.196  27.494  1.00  0.00     0.176 A 
ENDBRANCH  13  16
ENDBRANCH  10  12
ENDBRANCH   4   6
ENDBRANCH   3   4
ENDBRANCH   2   3
ENDBRANCH   1   2
BRANCH   1  25
ATOM     25  O   UNL A   1      39.002  20.741  25.487  1.00  0.00    -0.458 OA
BRANCH  25  26
ATOM     26  C   UNL A   1      39.891  20.619  26.500  1.00  0.00     0.338 C 
ATOM     27  O   UNL A   1      40.380  19.587  26.930  1.00  0.00    -0.246 OA
BRANCH  26  28
ATOM     28  C   UNL A   1      40.333  21.957  26.921  1.00  0.00     0.060 A 
ATOM     29  C   UNL A   1      39.818  23.044  26.219  1.00  0.00     0.016 A 
ATOM     30  C   UNL A   1      41.274  22.154  27.930  1.00  0.00     0.016 A 
ATOM     31  C   UNL A   1      40.238  24.338  26.504  1.00  0.00     0.010 A 
ATOM     32  C   UNL A   1      41.692  23.458  28.227  1.00  0.00     0.010 A 
ATOM     33  C   UNL A   1      41.186  24.559  27.508  1.00  0.00    -0.014 A 
BRANCH  33  34
ATOM     34  C   UNL A   1      41.673  25.939  27.764  1.00  0.00     0.031 A 
ATOM     35  C   UNL A   1      43.039  26.353  27.294  1.00  0.00     0.074 A 
ATOM     36  C   UNL A   1      40.882  26.825  28.399  1.00  0.00     0.049 A 
ATOM     37  N   UNL A   1      43.670  27.482  27.484  1.00  0.00    -0.248 NA
ATOM     38  C   UNL A   1      43.796  25.366  26.509  1.00  0.00     0.031 C 
ATOM     39  C   UNL A   1      39.528  26.551  28.884  1.00  0.00     0.029 A 
ATOM     40  N   UNL A   1      41.107  28.132  28.757  1.00  0.00    -0.354 N 
ATOM     41  C   UNL A   1      44.916  27.326  26.889  1.00  0.00     0.074 A 
ATOM     42  C   UNL A   1      44.951  25.991  26.328  1.00  0.00     0.031 C 
ATOM     43  C   UNL A   1      39.047  27.651  29.484  1.00  0.00     0.029 A 
ATOM     44  C   UNL A   1      40.070  28.693  29.466  1.00  0.00     0.049 A 
ATOM     45  H   UNL A   1      41.931  28.619  28.528  1.00  0.00     0.167 HD
ATOM     46  C   UNL A   1      45.934  28.216  26.805  1.00  0.00     0.034 A 
ATOM     47  C   UNL A   1      39.966  29.899  30.059  1.00  0.00     0.034 A 
ATOM     48  C   UNL A   1      45.878  29.559  27.320  1.00  0.00     0.049 A 
ATOM     49  C   UNL A   1      41.112  30.870  29.951  1.00  0.00     0.074 A 
ATOM     50  C   UNL A   1      46.844  30.546  27.254  1.00  0.00     0.029 A 
ATOM     51  N   UNL A   1      44.795  30.105  27.992  1.00  0.00    -0.354 N 
ATOM     52  N   UNL A   1      42.253  30.731  29.321  1.00  0.00    -0.248 NA
ATOM     53  C   UNL A   1      40.947  32.169  30.619  1.00  0.00     0.031 C 
ATOM     54  C   UNL A   1      46.351  31.687  27.897  1.00  0.00     0.029 A 
ATOM     55  C   UNL A   1      45.069  31.414  28.349  1.00  0.00     0.049 A 
ATOM     56  H   UNL A   1      43.954  29.631  28.186  1.00  0.00     0.167 HD
ATOM     57  C   UNL A   1      42.932  31.932  29.494  1.00  0.00     0.074 A 
ATOM     58  C   UNL A   1      42.063  32.795  30.266  1.00  0.00     0.031 C 
ATOM     59  C   UNL A   1      44.172  32.280  29.071  1.00  0.00     0.034 A 
BRANCH  46  60
ATOM     60  C   UNL A   1      47.193  27.774  26.107  1.00  0.00     0.023 A 
ATOM     61  C   UNL A   1      48.234  27.189  26.854  1.00  0.00     0.012 A 
ATOM     62  C   UNL A   1      47.324  27.893  24.710  1.00  0.00     0.148 A 
ATOM     63  C   UNL A   1      49.400  26.754  26.225  1.00  0.00     0.002 A 
ATOM     64  C   UNL A   1      48.473  27.421  24.085  1.00  0.00     0.091 A 
ATOM     65  F   UNL A   1      46.333  28.475  24.021  1.00  0.00    -0.205 F 
ATOM     66  C   UNL A   1      49.515  26.861  24.842  1.00  0.00     0.022 A 
BRANCH  64  67
ATOM     67  S   UNL A   1      48.682  27.453  22.301  1.00  0.00     0.127 S 
ATOM     68  O   UNL A   1      48.656  26.028  21.975  1.00  0.00    -0.237 OA
ATOM     69  O   UNL A   1      47.502  28.200  21.863  1.00  0.00    -0.237 OA
ATOM     70  O   UNL A   1      49.948  28.129  22.059  1.00  0.00    -0.744 OA
ENDBRANCH  64  67
ENDBRANCH  46  60
BRANCH  47  71
ATOM     71  C   UNL A   1      38.715  30.263  30.784  1.00  0.00     0.023 A 
ATOM     72  C   UNL A   1      38.566  29.902  32.136  1.00  0.00     0.012 A 
ATOM     73  C   UNL A   1      37.692  30.996  30.152  1.00  0.00     0.148 A 
ATOM     74  C   UNL A   1      37.411  30.245  32.840  1.00  0.00     0.002 A 
ATOM     75  C   UNL A   1      36.569  31.385  30.875  1.00  0.00     0.091 A 
ATOM     76  F   UNL A   1      37.839  31.309  28.857  1.00  0.00    -0.205 F 
ATOM     77  C   UNL A   1      36.420  30.997  32.214  1.00  0.00     0.022 A 
BRANCH  75  78
ATOM     78  S   UNL A   1      35.314  32.468  30.183  1.00  0.00     0.127 S 
ATOM     79  O   UNL A   1      34.398  32.624  31.309  1.00  0.00    -0.237 OA
ATOM     80  O   UNL A   1      36.092  33.664  29.852  1.00  0.00    -0.237 OA
ATOM     81  O   UNL A   1      34.786  31.763  29.024  1.00  0.00    -0.744 OA
ENDBRANCH  75  78
ENDBRANCH  47  71
BRANCH  59  82
ATOM     82  C   UNL A   1      44.662  33.663  29.412  1.00  0.00     0.023 A 
ATOM     83  C   UNL A   1      45.310  33.888  30.641  1.00  0.00     0.012 A 
ATOM     84  C   UNL A   1      44.550  34.718  28.485  1.00  0.00     0.148 A 
ATOM     85  C   UNL A   1      45.815  35.149  30.958  1.00  0.00     0.002 A 
ATOM     86  C   UNL A   1      45.094  35.961  28.788  1.00  0.00     0.091 A 
ATOM     87  F   UNL A   1      43.912  34.491  27.328  1.00  0.00    -0.205 F 
ATOM     88  C   UNL A   1      45.717  36.181  30.028  1.00  0.00     0.022 A 
BRANCH  86  89
ATOM     89  S   UNL A   1      45.094  37.322  27.613  1.00  0.00     0.127 S 
ATOM     90  O   UNL A   1      43.665  37.506  27.371  1.00  0.00    -0.237 OA
ATOM     91  O   UNL A   1      45.727  38.396  28.379  1.00  0.00    -0.237 OA
ATOM     92  O   UNL A   1      45.871  36.859  26.471  1.00  0.00    -0.744 OA
ENDBRANCH  86  89
ENDBRANCH  59  82
ENDBRANCH  33  34
ENDBRANCH  26  28
ENDBRANCH  25  26
ENDBRANCH   1  25
TORSDOF 16
ENDMDL
MODEL 2
REMARK VINA RESULT:     -12.0      5.094     10.400
REMARK SMILES Cc1cc(NC(=O)c2ccc3ncsc3c2)sc1C(=O)OCCOC(=O)c1ccc(-c2c3nc(c(-c4cccc(S(=O)(=O)[O-])c4F)c4ccc([nH]4)c(-c4cccc(S(=O)(=O)[O-])c4F)c4nc(c(-c5cccc(S(=O)(=O)[O-])c5F)c5ccc2[nH]5)C=C4)C=C3)cc1
REMARK SMILES IDX 23 1 22 2 21 3 19 4 20 5 18 6 1 7 2 8 3 9 4 10 17 11 5 12
REMARK SMILES IDX 6 13 7 15 8 16 9 17 16 18 10 19 15 20 11 21 14 22 12 23
REMARK SMILES IDX 13 24 24 25 25 26 26 27 27 28 28 29 89 30 29 31 88 32 30 33
REMARK SMILES IDX 31 34 32 35 82 36 33 37 87 38 81 39 83 40 34 41 86 42 80 43
REMARK SMILES IDX 79 44 35 46 67 47 47 48 66 49 48 50 51 51 65 52 84 53 49 54
REMARK SMILES IDX 50 55 64 57 85 58 52 59 36 60 37 61 45 62 38 63 40 64 46 65
REMARK SMILES IDX 39 66 41 67 42 68 43 69 44 70 68 71 69 72 77 73 70 74 72 75
REMARK SMILES IDX 78 76 71 77 73 78 74 79 75 80 76 81 53 82 54 83 62 84 55 85
REMARK SMILES IDX 57 86 63 87 56 88 58 89 59 90 60 91 61 92
REMARK H PARENT 5 14 83 45 51 56
REMARK Flexibility Score: inf
ROOT
ATOM      1  C   UNL A   1      31.311  32.287  26.324  1.00  0.00     0.275 C 
ENDROOT
BRANCH   1   2
ATOM      2  C   UNL A   1      30.995  31.044  25.488  1.00  0.00     0.275 C 
BRANCH   2   3
ATOM      3  O   UNL A   1      31.846  29.950  25.875  1.00  0.00    -0.458 OA
BRANCH   3   4
ATOM      4  C   UNL A   1      32.235  29.082  24.895  1.00  0.00     0.348 C 
ATOM      5  O   UNL A   1      33.186  29.271  24.156  1.00  0.00    -0.245 OA
BRANCH   4   6
ATOM      6  C   UNL A   1      31.399  27.885  24.927  1.00  0.00     0.117 A 
ATOM      7  C   UNL A   1      30.460  27.656  22.520  1.00  0.00     0.046 C 
ATOM      8  C   UNL A   1      30.575  27.302  23.968  1.00  0.00    -0.023 A 
ATOM      9  C   UNL A   1      29.798  26.242  24.545  1.00  0.00     0.042 A 
ATOM     10  C   UNL A   1      30.178  25.937  25.827  1.00  0.00     0.096 A 
ATOM     11  S   UNL A   1      31.373  26.979  26.401  1.00  0.00    -0.111 S 
BRANCH  10  12
ATOM     12  N   UNL A   1      29.804  24.945  26.706  1.00  0.00    -0.314 N 
ATOM     13  C   UNL A   1      30.207  23.626  26.663  1.00  0.00     0.256 C 
ATOM     14  H   UNL A   1      29.192  25.201  27.433  1.00  0.00     0.171 HD
ATOM     15  O   UNL A   1      29.634  22.745  27.298  1.00  0.00    -0.269 OA
BRANCH  13  16
ATOM     16  C   UNL A   1      31.427  23.272  25.901  1.00  0.00     0.041 A 
ATOM     17  C   UNL A   1      31.306  22.598  24.682  1.00  0.00     0.016 A 
ATOM     18  C   UNL A   1      32.677  23.543  26.469  1.00  0.00     0.035 A 
ATOM     19  C   UNL A   1      32.437  22.068  24.059  1.00  0.00     0.030 A 
ATOM     20  C   UNL A   1      33.803  22.994  25.831  1.00  0.00     0.055 A 
ATOM     21  C   UNL A   1      33.703  22.245  24.652  1.00  0.00     0.081 A 
ATOM     22  S   UNL A   1      35.457  23.057  26.311  1.00  0.00    -0.122 S 
ATOM     23  N   UNL A   1      34.893  21.719  24.178  1.00  0.00    -0.245 NA
ATOM     24  C   UNL A   1      35.873  22.071  24.977  1.00  0.00     0.176 A 
ENDBRANCH  13  16
ENDBRANCH  10  12
ENDBRANCH   4   6
ENDBRANCH   3   4
ENDBRANCH   2   3
ENDBRANCH   1   2
BRANCH   1  25
ATOM     25  O   UNL A   1      32.369  32.024  27.264  1.00  0.00    -0.458 OA
BRANCH  25  26
ATOM     26  C   UNL A   1      33.228  33.048  27.473  1.00  0.00     0.338 C 
ATOM     27  O   UNL A   1      32.991  34.241  27.373  1.00  0.00    -0.246 OA
BRANCH  26  28
ATOM     28  C   UNL A   1      34.488  32.520  28.020  1.00  0.00     0.060 A 
ATOM     29  C   UNL A   1      34.498  31.182  28.408  1.00  0.00     0.016 A 
ATOM     30  C   UNL A   1      35.615  33.317  28.214  1.00  0.00     0.016 A 
ATOM     31  C   UNL A   1      35.624  30.623  29.002  1.00  0.00     0.010 A 
ATOM     32  C   UNL A   1      36.755  32.754  28.803  1.00  0.00     0.010 A 
ATOM     33  C   UNL A   1      36.764  31.405  29.212  1.00  0.00    -0.014 A 
BRANCH  33  34
ATOM     34  C   UNL A   1      37.940  30.814  29.901  1.00  0.00     0.031 A 
ATOM     35  C   UNL A   1      38.249  31.198  31.321  1.00  0.00     0.074 A 
ATOM     36  C   UNL A   1      38.716  29.919  29.260  1.00  0.00     0.049 A 
ATOM     37  N   UNL A   1      39.266  30.850  32.067  1.00  0.00    -0.248 NA
ATOM     38  C   UNL A   1      37.291  32.091  31.990  1.00  0.00     0.031 C 
ATOM     39  C   UNL A   1      38.508  29.451  27.889  1.00  0.00     0.029 A 
ATOM     40  N   UNL A   1      39.845  29.255  29.672  1.00  0.00    -0.354 N 
ATOM     41  C   UNL A   1      39.099  31.521  33.273  1.00  0.00     0.074 A 
ATOM     42  C   UNL A   1      37.880  32.295  33.160  1.00  0.00     0.031 C 
ATOM     43  C   UNL A   1      39.480  28.582  27.571  1.00  0.00     0.029 A 
ATOM     44  C   UNL A   1      40.405  28.466  28.695  1.00  0.00     0.049 A 
ATOM     45  H   UNL A   1      40.218  29.337  30.580  1.00  0.00     0.167 HD
ATOM     46  C   UNL A   1      39.881  31.486  34.377  1.00  0.00     0.034 A 
ATOM     47  C   UNL A   1      41.549  27.752  28.694  1.00  0.00     0.034 A 
ATOM     48  C   UNL A   1      41.065  30.678  34.505  1.00  0.00     0.049 A 
ATOM     49  C   UNL A   1      42.401  27.731  29.935  1.00  0.00     0.074 A 
ATOM     50  C   UNL A   1      41.905  30.548  35.596  1.00  0.00     0.029 A 
ATOM     51  N   UNL A   1      41.575  29.858  33.510  1.00  0.00    -0.354 N 
ATOM     52  N   UNL A   1      42.188  28.312  31.091  1.00  0.00    -0.248 NA
ATOM     53  C   UNL A   1      43.638  26.939  29.878  1.00  0.00     0.031 C 
ATOM     54  C   UNL A   1      42.931  29.659  35.258  1.00  0.00     0.029 A 
ATOM     55  C   UNL A   1      42.720  29.222  33.959  1.00  0.00     0.049 A 
ATOM     56  H   UNL A   1      41.181  29.744  32.615  1.00  0.00     0.167 HD
ATOM     57  C   UNL A   1      43.250  27.938  31.906  1.00  0.00     0.074 A 
ATOM     58  C   UNL A   1      44.091  27.059  31.120  1.00  0.00     0.031 C 
ATOM     59  C   UNL A   1      43.516  28.306  33.183  1.00  0.00     0.034 A 
BRANCH  46  60
ATOM     60  C   UNL A   1      39.468  32.331  35.553  1.00  0.00     0.023 A 
ATOM     61  C   UNL A   1      38.644  31.778  36.552  1.00  0.00     0.012 A 
ATOM     62  C   UNL A   1      39.935  33.653  35.693  1.00  0.00     0.148 A 
ATOM     63  C   UNL A   1      38.266  32.537  37.660  1.00  0.00     0.002 A 
ATOM     64  C   UNL A   1      39.585  34.390  36.819  1.00  0.00     0.091 A 
ATOM     65  F   UNL A   1      40.697  34.169  34.719  1.00  0.00    -0.205 F 
ATOM     66  C   UNL A   1      38.744  33.837  37.798  1.00  0.00     0.022 A 
BRANCH  64  67
ATOM     67  S   UNL A   1      40.210  36.048  37.118  1.00  0.00     0.127 S 
ATOM     68  O   UNL A   1      39.727  36.762  35.936  1.00  0.00    -0.237 OA
ATOM     69  O   UNL A   1      39.538  36.413  38.366  1.00  0.00    -0.237 OA
ATOM     70  O   UNL A   1      41.655  35.916  37.226  1.00  0.00    -0.744 OA
ENDBRANCH  64  67
ENDBRANCH  46  60
BRANCH  47  71
ATOM     71  C   UNL A   1      41.937  26.976  27.481  1.00  0.00     0.023 A 
ATOM     72  C   UNL A   1      42.529  27.642  26.391  1.00  0.00     0.012 A 
ATOM     73  C   UNL A   1      41.757  25.581  27.418  1.00  0.00     0.148 A 
ATOM     74  C   UNL A   1      42.915  26.934  25.251  1.00  0.00     0.002 A 
ATOM     75  C   UNL A   1      42.196  24.874  26.304  1.00  0.00     0.091 A 
ATOM     76  F   UNL A   1      41.168  24.968  28.455  1.00  0.00    -0.205 F 
ATOM     77  C   UNL A   1      42.761  25.551  25.213  1.00  0.00     0.022 A 
BRANCH  75  78
ATOM     78  S   UNL A   1      42.160  23.080  26.234  1.00  0.00     0.127 S 
ATOM     79  O   UNL A   1      42.966  22.718  27.396  1.00  0.00    -0.237 OA
ATOM     80  O   UNL A   1      40.729  22.797  26.366  1.00  0.00    -0.237 OA
ATOM     81  O   UNL A   1      42.719  22.728  24.936  1.00  0.00    -0.744 OA
ENDBRANCH  75  78
ENDBRANCH  47  71
BRANCH  59  82
ATOM     82  C   UNL A   1      44.758  27.745  33.826  1.00  0.00     0.023 A 
ATOM     83  C   UNL A   1      45.977  28.439  33.708  1.00  0.00     0.012 A 
ATOM     84  C   UNL A   1      44.700  26.574  34.608  1.00  0.00     0.148 A 
ATOM     85  C   UNL A   1      47.128  27.964  34.336  1.00  0.00     0.002 A 
ATOM     86  C   UNL A   1      45.841  26.129  35.267  1.00  0.00     0.091 A 
ATOM     87  F   UNL A   1      43.535  25.915  34.692  1.00  0.00    -0.205 F 
ATOM     88  C   UNL A   1      47.058  26.817  35.123  1.00  0.00     0.022 A 
BRANCH  86  89
ATOM     89  S   UNL A   1      45.820  24.714  36.374  1.00  0.00     0.127 S 
ATOM     90  O   UNL A   1      44.887  25.158  37.408  1.00  0.00    -0.237 OA
ATOM     91  O   UNL A   1      45.311  23.649  35.511  1.00  0.00    -0.237 OA
ATOM     92  O   UNL A   1      47.198  24.530  36.808  1.00  0.00    -0.744 OA
ENDBRANCH  86  89
ENDBRANCH  59  82
ENDBRANCH  33  34
ENDBRANCH  26  28
ENDBRANCH  25  26
ENDBRANCH   1  25
TORSDOF 16
ENDMDL
MODEL 3
REMARK VINA RESULT:     -11.9      0.487      7.510
REMARK SMILES Cc1cc(NC(=O)c2ccc3ncsc3c2)sc1C(=O)OCCOC(=O)c1ccc(-c2c3nc(c(-c4cccc(S(=O)(=O)[O-])c4F)c4ccc([nH]4)c(-c4cccc(S(=O)(=O)[O-])c4F)c4nc(c(-c5cccc(S(=O)(=O)[O-])c5F)c5ccc2[nH]5)C=C4)C=C3)cc1
REMARK SMILES IDX 23 1 22 2 21 3 19 4 20 5 18 6 1 7 2 8 3 9 4 10 17 11 5 12
REMARK SMILES IDX 6 13 7 15 8 16 9 17 16 18 10 19 15 20 11 21 14 22 12 23
REMARK SMILES IDX 13 24 24 25 25 26 26 27 27 28 28 29 89 30 29 31 88 32 30 33
REMARK SMILES IDX 31 34 32 35 82 36 33 37 87 38 81 39 83 40 34 41 86 42 80 43
REMARK SMILES IDX 79 44 35 46 67 47 47 48 66 49 48 50 51 51 65 52 84 53 49 54
REMARK SMILES IDX 50 55 64 57 85 58 52 59 36 60 37 61 45 62 38 63 40 64 46 65
REMARK SMILES IDX 39 66 41 67 42 68 43 69 44 70 68 71 69 72 77 73 70 74 72 75
REMARK SMILES IDX 78 76 71 77 73 78 74 79 75 80 76 81 53 82 54 83 62 84 55 85
REMARK SMILES IDX 57 86 63 87 56 88 58 89 59 90 60 91 61 92
REMARK H PARENT 5 14 83 45 51 56
REMARK Flexibility Score: inf
ROOT
ATOM      1  C   UNL A   1      38.293  19.952  24.987  1.00  0.00     0.275 C 
ENDROOT
BRANCH   1   2
ATOM      2  C   UNL A   1      36.767  19.909  24.871  1.00  0.00     0.275 C 
BRANCH   2   3
ATOM      3  O   UNL A   1      36.254  21.208  24.522  1.00  0.00    -0.458 OA
BRANCH   3   4
ATOM      4  C   UNL A   1      35.170  21.661  25.218  1.00  0.00     0.348 C 
ATOM      5  O   UNL A   1      35.133  21.758  26.432  1.00  0.00    -0.245 OA
BRANCH   4   6
ATOM      6  C   UNL A   1      34.118  22.073  24.293  1.00  0.00     0.117 A 
ATOM      7  C   UNL A   1      32.362  20.167  24.375  1.00  0.00     0.046 C 
ATOM      8  C   UNL A   1      32.963  21.433  23.854  1.00  0.00    -0.023 A 
ATOM      9  C   UNL A   1      32.353  22.166  22.782  1.00  0.00     0.042 A 
ATOM     10  C   UNL A   1      32.932  23.391  22.573  1.00  0.00     0.096 A 
ATOM     11  S   UNL A   1      34.277  23.634  23.562  1.00  0.00    -0.111 S 
BRANCH  10  12
ATOM     12  N   UNL A   1      32.617  24.453  21.755  1.00  0.00    -0.314 N 
ATOM     13  C   UNL A   1      31.871  25.558  22.107  1.00  0.00     0.256 C 
ATOM     14  H   UNL A   1      32.956  24.419  20.831  1.00  0.00     0.171 HD
ATOM     15  O   UNL A   1      31.400  26.324  21.271  1.00  0.00    -0.269 OA
BRANCH  13  16
ATOM     16  C   UNL A   1      31.707  25.886  23.542  1.00  0.00     0.041 A 
ATOM     17  C   UNL A   1      30.584  25.418  24.233  1.00  0.00     0.016 A 
ATOM     18  C   UNL A   1      32.638  26.737  24.148  1.00  0.00     0.035 A 
ATOM     19  C   UNL A   1      30.302  25.892  25.515  1.00  0.00     0.030 A 
ATOM     20  C   UNL A   1      32.332  27.208  25.436  1.00  0.00     0.055 A 
ATOM     21  C   UNL A   1      31.174  26.819  26.119  1.00  0.00     0.081 A 
ATOM     22  S   UNL A   1      33.206  28.326  26.416  1.00  0.00    -0.122 S 
ATOM     23  N   UNL A   1      30.981  27.417  27.353  1.00  0.00    -0.245 NA
ATOM     24  C   UNL A   1      31.978  28.234  27.602  1.00  0.00     0.176 A 
ENDBRANCH  13  16
ENDBRANCH  10  12
ENDBRANCH   4   6
ENDBRANCH   3   4
ENDBRANCH   2   3
ENDBRANCH   1   2
BRANCH   1  25
ATOM     25  O   UNL A   1      38.701  20.612  26.199  1.00  0.00    -0.458 OA
BRANCH  25  26
ATOM     26  C   UNL A   1      40.020  20.527  26.492  1.00  0.00     0.338 C 
ATOM     27  O   UNL A   1      40.758  19.576  26.293  1.00  0.00    -0.246 OA
BRANCH  26  28
ATOM     28  C   UNL A   1      40.502  21.842  26.945  1.00  0.00     0.060 A 
ATOM     29  C   UNL A   1      40.168  22.943  26.161  1.00  0.00     0.016 A 
ATOM     30  C   UNL A   1      41.313  21.997  28.067  1.00  0.00     0.016 A 
ATOM     31  C   UNL A   1      40.643  24.210  26.476  1.00  0.00     0.010 A 
ATOM     32  C   UNL A   1      41.786  23.276  28.395  1.00  0.00     0.010 A 
ATOM     33  C   UNL A   1      41.464  24.390  27.594  1.00  0.00    -0.014 A 
BRANCH  33  34
ATOM     34  C   UNL A   1      42.015  25.737  27.888  1.00  0.00     0.031 A 
ATOM     35  C   UNL A   1      41.159  26.766  28.571  1.00  0.00     0.074 A 
ATOM     36  C   UNL A   1      43.288  26.031  27.561  1.00  0.00     0.049 A 
ATOM     37  N   UNL A   1      41.430  28.016  28.847  1.00  0.00    -0.248 NA
ATOM     38  C   UNL A   1      39.819  26.334  29.000  1.00  0.00     0.031 C 
ATOM     39  C   UNL A   1      44.226  25.111  26.914  1.00  0.00     0.029 A 
ATOM     40  N   UNL A   1      44.009  27.189  27.715  1.00  0.00    -0.354 N 
ATOM     41  C   UNL A   1      40.282  28.534  29.432  1.00  0.00     0.074 A 
ATOM     42  C   UNL A   1      39.309  27.462  29.475  1.00  0.00     0.031 C 
ATOM     43  C   UNL A   1      45.394  25.742  26.720  1.00  0.00     0.029 A 
ATOM     44  C   UNL A   1      45.276  27.122  27.184  1.00  0.00     0.049 A 
ATOM     45  H   UNL A   1      43.653  27.991  28.161  1.00  0.00     0.167 HD
ATOM     46  C   UNL A   1      40.061  29.785  29.903  1.00  0.00     0.034 A 
ATOM     47  C   UNL A   1      46.226  28.071  27.060  1.00  0.00     0.034 A 
ATOM     48  C   UNL A   1      41.045  30.834  29.904  1.00  0.00     0.049 A 
ATOM     49  C   UNL A   1      45.954  29.453  27.591  1.00  0.00     0.074 A 
ATOM     50  C   UNL A   1      40.927  32.124  30.390  1.00  0.00     0.029 A 
ATOM     51  N   UNL A   1      42.331  30.715  29.399  1.00  0.00    -0.354 N 
ATOM     52  N   UNL A   1      44.889  29.905  28.208  1.00  0.00    -0.248 NA
ATOM     53  C   UNL A   1      47.022  30.450  27.427  1.00  0.00     0.031 C 
ATOM     54  C   UNL A   1      42.138  32.789  30.168  1.00  0.00     0.029 A 
ATOM     55  C   UNL A   1      43.016  31.908  29.558  1.00  0.00     0.049 A 
ATOM     56  H   UNL A   1      42.703  29.901  28.988  1.00  0.00     0.167 HD
ATOM     57  C   UNL A   1      45.166  31.228  28.528  1.00  0.00     0.074 A 
ATOM     58  C   UNL A   1      46.510  31.498  28.059  1.00  0.00     0.031 C 
ATOM     59  C   UNL A   1      44.373  32.144  29.135  1.00  0.00     0.034 A 
BRANCH  46  60
ATOM     60  C   UNL A   1      38.703  30.083  30.482  1.00  0.00     0.023 A 
ATOM     61  C   UNL A   1      38.388  29.641  31.782  1.00  0.00     0.012 A 
ATOM     62  C   UNL A   1      37.760  30.842  29.761  1.00  0.00     0.148 A 
ATOM     63  C   UNL A   1      37.144  29.925  32.345  1.00  0.00     0.002 A 
ATOM     64  C   UNL A   1      36.537  31.153  30.345  1.00  0.00     0.091 A 
ATOM     65  F   UNL A   1      38.070  31.232  28.516  1.00  0.00    -0.205 F 
ATOM     66  C   UNL A   1      36.225  30.688  31.632  1.00  0.00     0.022 A 
BRANCH  64  67
ATOM     67  S   UNL A   1      35.316  32.190  29.529  1.00  0.00     0.127 S 
ATOM     68  O   UNL A   1      34.795  31.283  28.508  1.00  0.00    -0.237 OA
ATOM     69  O   UNL A   1      34.382  32.484  30.617  1.00  0.00    -0.237 OA
ATOM     70  O   UNL A   1      36.045  33.347  29.030  1.00  0.00    -0.744 OA
ENDBRANCH  64  67
ENDBRANCH  46  60
BRANCH  47  71
ATOM     71  C   UNL A   1      47.533  27.733  26.428  1.00  0.00     0.023 A 
ATOM     72  C   UNL A   1      48.615  27.341  27.239  1.00  0.00     0.012 A 
ATOM     73  C   UNL A   1      47.698  27.764  25.030  1.00  0.00     0.148 A 
ATOM     74  C   UNL A   1      49.844  27.005  26.668  1.00  0.00     0.002 A 
ATOM     75  C   UNL A   1      48.908  27.373  24.465  1.00  0.00     0.091 A 
ATOM     76  F   UNL A   1      46.665  28.165  24.276  1.00  0.00    -0.205 F 
ATOM     77  C   UNL A   1      49.986  27.008  25.283  1.00  0.00     0.022 A 
BRANCH  75  78
ATOM     78  S   UNL A   1      49.127  27.218  22.689  1.00  0.00     0.127 S 
ATOM     79  O   UNL A   1      48.596  28.489  22.209  1.00  0.00    -0.237 OA
ATOM     80  O   UNL A   1      50.580  27.074  22.572  1.00  0.00    -0.237 OA
ATOM     81  O   UNL A   1      48.379  26.028  22.306  1.00  0.00    -0.744 OA
ENDBRANCH  75  78
ENDBRANCH  47  71
BRANCH  59  82
ATOM     82  C   UNL A   1      44.939  33.524  29.352  1.00  0.00     0.023 A 
ATOM     83  C   UNL A   1      45.698  33.790  30.507  1.00  0.00     0.012 A 
ATOM     84  C   UNL A   1      44.784  34.530  28.377  1.00  0.00     0.148 A 
ATOM     85  C   UNL A   1      46.272  35.046  30.705  1.00  0.00     0.002 A 
ATOM     86  C   UNL A   1      45.396  35.764  28.559  1.00  0.00     0.091 A 
ATOM     87  F   UNL A   1      44.040  34.263  27.294  1.00  0.00    -0.205 F 
ATOM     88  C   UNL A   1      46.131  36.027  29.727  1.00  0.00     0.022 A 
BRANCH  86  89
ATOM     89  S   UNL A   1      45.342  37.056  27.311  1.00  0.00     0.127 S 
ATOM     90  O   UNL A   1      46.252  36.528  26.297  1.00  0.00    -0.237 OA
ATOM     91  O   UNL A   1      43.932  37.058  26.923  1.00  0.00    -0.237 OA
ATOM     92  O   UNL A   1      45.785  38.273  27.980  1.00  0.00    -0.744 OA
ENDBRANCH  86  89
ENDBRANCH  59  82
ENDBRANCH  33  34
ENDBRANCH  26  28
ENDBRANCH  25  26
ENDBRANCH   1  25
TORSDOF 16
ENDMDL
