MODEL 1
REMARK VINA RESULT:     -11.4      0.000      0.000
REMARK SMILES C[C@@H]1C[C@@H](C)CN(C(=O)CCn2cc(C(=O)OCCOC(=O)c3ccc(-c4c5nc(c(-c6cccc(S(=O)(=O)[O-])c6F)c6ccc([nH]6)c(-c6cccc(S(=O)(=O)[O-])c6F)c6nc(c(-c7cccc(S(=O)(=O)[O-])c7F)c7ccc4[nH]7)C=C6)C=C5)cc3)cn2)C1
REMARK SMILES IDX 18 1 17 2 15 3 16 4 14 5 12 6 13 7 87 8 86 9 11 10 10 11
REMARK SMILES IDX 8 12 1 13 2 14 3 15 88 16 4 17 7 18 6 19 5 20 9 21 19 22
REMARK SMILES IDX 20 23 21 24 22 25 23 26 24 27 85 28 25 29 84 30 26 31 27 32
REMARK SMILES IDX 28 33 78 34 29 35 83 36 77 37 79 38 30 39 82 40 76 41 75 42
REMARK SMILES IDX 31 44 63 45 43 46 62 47 44 48 47 49 61 50 80 51 45 52 46 53
REMARK SMILES IDX 60 55 81 56 48 57 32 58 33 59 41 60 34 61 36 62 42 63 35 64
REMARK SMILES IDX 37 65 38 66 39 67 40 68 64 69 65 70 73 71 66 72 68 73 74 74
REMARK SMILES IDX 67 75 69 76 70 77 71 78 72 79 49 80 50 81 58 82 51 83 53 84
REMARK SMILES IDX 59 85 52 86 54 87 55 88 56 89 57 90
REMARK H PARENT 79 43 47 54
REMARK Flexibility Score: inf
ROOT
ATOM      1  C   UNL A   1      42.277  20.614  26.761  1.00  0.00     0.275 C 
ENDROOT
BRANCH   1   2
ATOM      2  O   UNL A   1      42.077  19.712  25.657  1.00  0.00    -0.458 OA
BRANCH   2   3
ATOM      3  C   UNL A   1      42.985  18.705  25.573  1.00  0.00     0.341 C 
ATOM      4  O   UNL A   1      42.761  17.545  25.913  1.00  0.00    -0.246 OA
BRANCH   3   5
ATOM      5  C   UNL A   1      44.294  19.100  25.093  1.00  0.00     0.098 A 
ATOM      6  N   UNL A   1      45.861  20.558  24.692  1.00  0.00    -0.271 N 
ATOM      7  C   UNL A   1      44.563  20.253  24.383  1.00  0.00     0.124 A 
ATOM      8  N   UNL A   1      46.538  19.529  25.214  1.00  0.00    -0.181 NA
ATOM      9  C   UNL A   1      45.575  18.645  25.491  1.00  0.00     0.150 A 
BRANCH   6  10
ATOM     10  C   UNL A   1      46.421  21.896  24.769  1.00  0.00     0.154 C 
BRANCH  10  11
ATOM     11  C   UNL A   1      46.015  22.616  26.053  1.00  0.00     0.124 C 
BRANCH  11  12
ATOM     12  C   UNL A   1      46.592  24.010  26.180  1.00  0.00     0.224 C 
ATOM     13  C   UNL A   1      45.993  27.206  27.742  1.00  0.00     0.009 C 
ATOM     14  C   UNL A   1      46.003  27.448  26.227  1.00  0.00     0.006 C 
ATOM     15  C   UNL A   1      44.583  27.592  25.667  1.00  0.00     0.010 C 
ATOM     16  C   UNL A   1      46.742  26.341  25.471  1.00  0.00     0.122 C 
ATOM     17  C   UNL A   1      43.823  26.252  25.648  1.00  0.00     0.006 C 
ATOM     18  N   UNL A   1      46.009  25.082  25.522  1.00  0.00    -0.342 N 
ATOM     19  C   UNL A   1      44.662  25.164  24.937  1.00  0.00     0.122 C 
ATOM     20  C   UNL A   1      42.448  26.491  25.026  1.00  0.00     0.009 C 
ATOM     21  O   UNL A   1      47.640  24.133  26.824  1.00  0.00    -0.275 OA
ENDBRANCH  11  12
ENDBRANCH  10  11
ENDBRANCH   6  10
ENDBRANCH   3   5
ENDBRANCH   2   3
ENDBRANCH   1   2
BRANCH   1  22
ATOM     22  C   UNL A   1      40.970  20.854  27.504  1.00  0.00     0.275 C 
BRANCH  22  23
ATOM     23  O   UNL A   1      40.893  22.167  28.073  1.00  0.00    -0.458 OA
BRANCH  23  24
ATOM     24  C   UNL A   1      40.094  22.988  27.354  1.00  0.00     0.338 C 
ATOM     25  O   UNL A   1      39.284  22.660  26.512  1.00  0.00    -0.246 OA
BRANCH  24  26
ATOM     26  C   UNL A   1      40.535  24.374  27.436  1.00  0.00     0.060 A 
ATOM     27  C   UNL A   1      41.672  24.624  28.213  1.00  0.00     0.016 A 
ATOM     28  C   UNL A   1      39.579  25.356  27.158  1.00  0.00     0.016 A 
ATOM     29  C   UNL A   1      41.761  25.838  28.856  1.00  0.00     0.010 A 
ATOM     30  C   UNL A   1      39.665  26.561  27.812  1.00  0.00     0.010 A 
ATOM     31  C   UNL A   1      40.717  26.760  28.704  1.00  0.00    -0.014 A 
BRANCH  31  32
ATOM     32  C   UNL A   1      40.853  28.046  29.358  1.00  0.00     0.031 A 
ATOM     33  C   UNL A   1      41.844  28.900  28.660  1.00  0.00     0.074 A 
ATOM     34  C   UNL A   1      40.076  28.434  30.387  1.00  0.00     0.049 A 
ATOM     35  N   UNL A   1      42.986  29.296  29.112  1.00  0.00    -0.248 NA
ATOM     36  C   UNL A   1      41.651  29.152  27.221  1.00  0.00     0.031 C 
ATOM     37  C   UNL A   1      38.906  27.750  30.943  1.00  0.00     0.029 A 
ATOM     38  N   UNL A   1      40.085  29.615  31.064  1.00  0.00    -0.354 N 
ATOM     39  C   UNL A   1      43.539  30.064  28.090  1.00  0.00     0.074 A 
ATOM     40  C   UNL A   1      42.799  29.747  26.900  1.00  0.00     0.031 C 
ATOM     41  C   UNL A   1      38.173  28.638  31.654  1.00  0.00     0.029 A 
ATOM     42  C   UNL A   1      38.881  29.907  31.699  1.00  0.00     0.049 A 
ATOM     43  H   UNL A   1      40.870  30.208  31.100  1.00  0.00     0.167 HD
ATOM     44  C   UNL A   1      44.371  31.100  28.373  1.00  0.00     0.034 A 
ATOM     45  C   UNL A   1      38.469  31.129  32.129  1.00  0.00     0.034 A 
ATOM     46  C   UNL A   1      44.863  31.010  29.725  1.00  0.00     0.049 A 
ATOM     47  C   UNL A   1      39.671  31.994  32.223  1.00  0.00     0.074 A 
ATOM     48  C   UNL A   1      45.590  30.079  30.437  1.00  0.00     0.029 A 
ATOM     49  N   UNL A   1      44.247  31.813  30.655  1.00  0.00    -0.354 N 
ATOM     50  N   UNL A   1      40.617  31.804  33.097  1.00  0.00    -0.248 NA
ATOM     51  C   UNL A   1      40.045  32.765  31.047  1.00  0.00     0.031 C 
ATOM     52  C   UNL A   1      45.007  30.076  31.735  1.00  0.00     0.029 A 
ATOM     53  C   UNL A   1      44.016  31.058  31.772  1.00  0.00     0.049 A 
ATOM     54  H   UNL A   1      44.015  32.763  30.538  1.00  0.00     0.167 HD
ATOM     55  C   UNL A   1      41.787  31.992  32.372  1.00  0.00     0.074 A 
ATOM     56  C   UNL A   1      41.375  32.680  31.149  1.00  0.00     0.031 C 
ATOM     57  C   UNL A   1      42.921  31.298  32.682  1.00  0.00     0.034 A 
BRANCH  44  58
ATOM     58  C   UNL A   1      44.418  32.401  27.605  1.00  0.00     0.023 A 
ATOM     59  C   UNL A   1      45.504  32.572  26.717  1.00  0.00     0.012 A 
ATOM     60  C   UNL A   1      43.657  33.551  27.914  1.00  0.00     0.148 A 
ATOM     61  C   UNL A   1      45.862  33.831  26.229  1.00  0.00     0.002 A 
ATOM     62  C   UNL A   1      43.971  34.790  27.367  1.00  0.00     0.091 A 
ATOM     63  F   UNL A   1      42.695  33.498  28.836  1.00  0.00    -0.205 F 
ATOM     64  C   UNL A   1      45.095  34.942  26.554  1.00  0.00     0.022 A 
BRANCH  62  65
ATOM     65  S   UNL A   1      42.994  36.258  27.722  1.00  0.00     0.127 S 
ATOM     66  O   UNL A   1      43.389  36.548  29.097  1.00  0.00    -0.237 OA
ATOM     67  O   UNL A   1      43.499  37.196  26.718  1.00  0.00    -0.237 OA
ATOM     68  O   UNL A   1      41.603  35.868  27.530  1.00  0.00    -0.744 OA
ENDBRANCH  62  65
ENDBRANCH  44  58
BRANCH  45  69
ATOM     69  C   UNL A   1      37.103  31.710  32.184  1.00  0.00     0.023 A 
ATOM     70  C   UNL A   1      36.560  32.114  33.422  1.00  0.00     0.012 A 
ATOM     71  C   UNL A   1      36.449  32.136  31.006  1.00  0.00     0.148 A 
ATOM     72  C   UNL A   1      35.428  32.938  33.484  1.00  0.00     0.002 A 
ATOM     73  C   UNL A   1      35.321  32.950  31.072  1.00  0.00     0.091 A 
ATOM     74  F   UNL A   1      36.989  31.827  29.821  1.00  0.00    -0.205 F 
ATOM     75  C   UNL A   1      34.813  33.363  32.309  1.00  0.00     0.022 A 
BRANCH  73  76
ATOM     76  S   UNL A   1      34.502  33.566  29.594  1.00  0.00     0.127 S 
ATOM     77  O   UNL A   1      33.399  34.343  30.160  1.00  0.00    -0.237 OA
ATOM     78  O   UNL A   1      35.557  34.359  28.972  1.00  0.00    -0.237 OA
ATOM     79  O   UNL A   1      34.080  32.384  28.851  1.00  0.00    -0.744 OA
ENDBRANCH  73  76
ENDBRANCH  45  69
BRANCH  57  80
ATOM     80  C   UNL A   1      42.954  30.533  33.979  1.00  0.00     0.023 A 
ATOM     81  C   UNL A   1      43.216  31.140  35.226  1.00  0.00     0.012 A 
ATOM     82  C   UNL A   1      42.538  29.193  33.948  1.00  0.00     0.148 A 
ATOM     83  C   UNL A   1      43.087  30.413  36.412  1.00  0.00     0.002 A 
ATOM     84  C   UNL A   1      42.363  28.490  35.130  1.00  0.00     0.091 A 
ATOM     85  F   UNL A   1      42.294  28.633  32.752  1.00  0.00    -0.205 F 
ATOM     86  C   UNL A   1      42.645  29.091  36.366  1.00  0.00     0.022 A 
BRANCH  84  87
ATOM     87  S   UNL A   1      41.677  26.834  35.127  1.00  0.00     0.127 S 
ATOM     88  O   UNL A   1      41.310  26.654  36.529  1.00  0.00    -0.237 OA
ATOM     89  O   UNL A   1      40.544  26.962  34.208  1.00  0.00    -0.237 OA
ATOM     90  O   UNL A   1      42.739  25.964  34.636  1.00  0.00    -0.744 OA
ENDBRANCH  84  87
ENDBRANCH  57  80
ENDBRANCH  31  32
ENDBRANCH  24  26
ENDBRANCH  23  24
ENDBRANCH  22  23
ENDBRANCH   1  22
TORSDOF 17
ENDMDL
MODEL 2
REMARK VINA RESULT:     -11.4      3.124     11.890
REMARK SMILES C[C@@H]1C[C@@H](C)CN(C(=O)CCn2cc(C(=O)OCCOC(=O)c3ccc(-c4c5nc(c(-c6cccc(S(=O)(=O)[O-])c6F)c6ccc([nH]6)c(-c6cccc(S(=O)(=O)[O-])c6F)c6nc(c(-c7cccc(S(=O)(=O)[O-])c7F)c7ccc4[nH]7)C=C6)C=C5)cc3)cn2)C1
REMARK SMILES IDX 18 1 17 2 15 3 16 4 14 5 12 6 13 7 87 8 86 9 11 10 10 11
REMARK SMILES IDX 8 12 1 13 2 14 3 15 88 16 4 17 7 18 6 19 5 20 9 21 19 22
REMARK SMILES IDX 20 23 21 24 22 25 23 26 24 27 85 28 25 29 84 30 26 31 27 32
REMARK SMILES IDX 28 33 78 34 29 35 83 36 77 37 79 38 30 39 82 40 76 41 75 42
REMARK SMILES IDX 31 44 63 45 43 46 62 47 44 48 47 49 61 50 80 51 45 52 46 53
REMARK SMILES IDX 60 55 81 56 48 57 32 58 33 59 41 60 34 61 36 62 42 63 35 64
REMARK SMILES IDX 37 65 38 66 39 67 40 68 64 69 65 70 73 71 66 72 68 73 74 74
REMARK SMILES IDX 67 75 69 76 70 77 71 78 72 79 49 80 50 81 58 82 51 83 53 84
REMARK SMILES IDX 59 85 52 86 54 87 55 88 56 89 57 90
REMARK H PARENT 79 43 47 54
REMARK Flexibility Score: inf
ROOT
ATOM      1  C   UNL A   1      33.390  34.298  28.492  1.00  0.00     0.275 C 
ENDROOT
BRANCH   1   2
ATOM      2  O   UNL A   1      32.525  34.952  29.440  1.00  0.00    -0.458 OA
BRANCH   2   3
ATOM      3  C   UNL A   1      32.919  36.201  29.802  1.00  0.00     0.341 C 
ATOM      4  O   UNL A   1      33.167  37.104  29.005  1.00  0.00    -0.246 OA
BRANCH   3   5
ATOM      5  C   UNL A   1      33.088  36.400  31.227  1.00  0.00     0.098 A 
ATOM      6  N   UNL A   1      33.936  35.912  33.173  1.00  0.00    -0.271 N 
ATOM      7  C   UNL A   1      33.173  35.389  32.164  1.00  0.00     0.124 A 
ATOM      8  N   UNL A   1      34.022  37.247  33.138  1.00  0.00    -0.181 NA
ATOM      9  C   UNL A   1      33.531  37.547  31.931  1.00  0.00     0.150 A 
BRANCH   6  10
ATOM     10  C   UNL A   1      34.836  35.159  34.030  1.00  0.00     0.154 C 
BRANCH  10  11
ATOM     11  C   UNL A   1      36.185  34.901  33.362  1.00  0.00     0.124 C 
BRANCH  11  12
ATOM     12  C   UNL A   1      36.785  33.552  33.699  1.00  0.00     0.224 C 
ATOM     13  C   UNL A   1      39.507  32.021  35.504  1.00  0.00     0.009 C 
ATOM     14  C   UNL A   1      39.663  31.610  34.035  1.00  0.00     0.006 C 
ATOM     15  C   UNL A   1      40.751  32.429  33.330  1.00  0.00     0.010 C 
ATOM     16  C   UNL A   1      38.349  31.731  33.259  1.00  0.00     0.122 C 
ATOM     17  C   UNL A   1      40.318  33.886  33.083  1.00  0.00     0.006 C 
ATOM     18  N   UNL A   1      37.955  33.124  33.092  1.00  0.00    -0.342 N 
ATOM     19  C   UNL A   1      38.948  33.930  32.366  1.00  0.00     0.122 C 
ATOM     20  C   UNL A   1      41.443  34.598  32.332  1.00  0.00     0.009 C 
ATOM     21  O   UNL A   1      36.148  32.826  34.471  1.00  0.00    -0.275 OA
ENDBRANCH  11  12
ENDBRANCH  10  11
ENDBRANCH   6  10
ENDBRANCH   3   5
ENDBRANCH   2   3
ENDBRANCH   1   2
BRANCH   1  22
ATOM     22  C   UNL A   1      34.640  33.768  29.181  1.00  0.00     0.275 C 
BRANCH  22  23
ATOM     23  O   UNL A   1      34.922  32.405  28.838  1.00  0.00    -0.458 OA
BRANCH  23  24
ATOM     24  C   UNL A   1      35.620  31.770  29.806  1.00  0.00     0.338 C 
ATOM     25  O   UNL A   1      35.441  31.851  31.004  1.00  0.00    -0.246 OA
BRANCH  24  26
ATOM     26  C   UNL A   1      36.865  31.215  29.294  1.00  0.00     0.060 A 
ATOM     27  C   UNL A   1      36.861  29.852  28.979  1.00  0.00     0.016 A 
ATOM     28  C   UNL A   1      38.037  31.918  29.595  1.00  0.00     0.016 A 
ATOM     29  C   UNL A   1      38.036  29.150  29.132  1.00  0.00     0.010 A 
ATOM     30  C   UNL A   1      39.203  31.211  29.759  1.00  0.00     0.010 A 
ATOM     31  C   UNL A   1      39.172  29.827  29.591  1.00  0.00    -0.014 A 
BRANCH  31  32
ATOM     32  C   UNL A   1      40.406  29.076  29.705  1.00  0.00     0.031 A 
ATOM     33  C   UNL A   1      40.740  28.806  31.125  1.00  0.00     0.074 A 
ATOM     34  C   UNL A   1      41.073  28.590  28.641  1.00  0.00     0.049 A 
ATOM     35  N   UNL A   1      41.741  29.273  31.791  1.00  0.00    -0.248 NA
ATOM     36  C   UNL A   1      39.729  28.131  31.958  1.00  0.00     0.031 C 
ATOM     37  C   UNL A   1      40.654  28.588  27.237  1.00  0.00     0.029 A 
ATOM     38  N   UNL A   1      42.216  27.852  28.616  1.00  0.00    -0.354 N 
ATOM     39  C   UNL A   1      41.613  28.735  33.069  1.00  0.00     0.074 A 
ATOM     40  C   UNL A   1      40.265  28.249  33.172  1.00  0.00     0.031 C 
ATOM     41  C   UNL A   1      41.372  27.658  26.565  1.00  0.00     0.029 A 
ATOM     42  C   UNL A   1      42.370  27.093  27.459  1.00  0.00     0.049 A 
ATOM     43  H   UNL A   1      42.873  27.854  29.349  1.00  0.00     0.167 HD
ATOM     44  C   UNL A   1      42.712  28.484  33.829  1.00  0.00     0.034 A 
ATOM     45  C   UNL A   1      43.185  26.017  27.299  1.00  0.00     0.034 A 
ATOM     46  C   UNL A   1      43.863  29.182  33.316  1.00  0.00     0.049 A 
ATOM     47  C   UNL A   1      44.196  26.064  28.383  1.00  0.00     0.074 A 
ATOM     48  C   UNL A   1      44.178  30.506  33.090  1.00  0.00     0.029 A 
ATOM     49  N   UNL A   1      44.744  28.442  32.563  1.00  0.00    -0.354 N 
ATOM     50  N   UNL A   1      45.119  26.980  28.457  1.00  0.00    -0.248 NA
ATOM     51  C   UNL A   1      43.886  25.381  29.629  1.00  0.00     0.031 C 
ATOM     52  C   UNL A   1      44.911  30.505  31.870  1.00  0.00     0.029 A 
ATOM     53  C   UNL A   1      45.076  29.180  31.461  1.00  0.00     0.049 A 
ATOM     54  H   UNL A   1      45.077  27.542  32.781  1.00  0.00     0.167 HD
ATOM     55  C   UNL A   1      45.143  27.324  29.803  1.00  0.00     0.074 A 
ATOM     56  C   UNL A   1      44.443  26.239  30.489  1.00  0.00     0.031 C 
ATOM     57  C   UNL A   1      45.449  28.595  30.194  1.00  0.00     0.034 A 
BRANCH  44  58
ATOM     58  C   UNL A   1      42.861  27.305  34.763  1.00  0.00     0.023 A 
ATOM     59  C   UNL A   1      42.813  27.585  36.148  1.00  0.00     0.012 A 
ATOM     60  C   UNL A   1      43.333  26.026  34.385  1.00  0.00     0.148 A 
ATOM     61  C   UNL A   1      43.284  26.676  37.098  1.00  0.00     0.002 A 
ATOM     62  C   UNL A   1      43.732  25.096  35.338  1.00  0.00     0.091 A 
ATOM     63  F   UNL A   1      43.525  25.730  33.099  1.00  0.00    -0.205 F 
ATOM     64  C   UNL A   1      43.744  25.429  36.693  1.00  0.00     0.022 A 
BRANCH  62  65
ATOM     65  S   UNL A   1      44.303  23.454  34.878  1.00  0.00     0.127 S 
ATOM     66  O   UNL A   1      44.634  22.883  36.179  1.00  0.00    -0.237 OA
ATOM     67  O   UNL A   1      43.109  22.897  34.240  1.00  0.00    -0.237 OA
ATOM     68  O   UNL A   1      45.425  23.660  33.971  1.00  0.00    -0.744 OA
ENDBRANCH  62  65
ENDBRANCH  44  58
BRANCH  45  69
ATOM     69  C   UNL A   1      42.998  24.793  26.479  1.00  0.00     0.023 A 
ATOM     70  C   UNL A   1      44.012  24.384  25.586  1.00  0.00     0.012 A 
ATOM     71  C   UNL A   1      41.969  23.872  26.776  1.00  0.00     0.148 A 
ATOM     72  C   UNL A   1      44.017  23.095  25.036  1.00  0.00     0.002 A 
ATOM     73  C   UNL A   1      41.975  22.595  26.223  1.00  0.00     0.091 A 
ATOM     74  F   UNL A   1      41.039  24.212  27.677  1.00  0.00    -0.205 F 
ATOM     75  C   UNL A   1      43.004  22.197  25.361  1.00  0.00     0.022 A 
BRANCH  73  76
ATOM     76  S   UNL A   1      40.718  21.374  26.629  1.00  0.00     0.127 S 
ATOM     77  O   UNL A   1      40.814  21.313  28.088  1.00  0.00    -0.237 OA
ATOM     78  O   UNL A   1      39.506  22.006  26.118  1.00  0.00    -0.237 OA
ATOM     79  O   UNL A   1      41.122  20.147  25.953  1.00  0.00    -0.744 OA
ENDBRANCH  73  76
ENDBRANCH  45  69
BRANCH  57  80
ATOM     80  C   UNL A   1      46.013  29.540  29.167  1.00  0.00     0.023 A 
ATOM     81  C   UNL A   1      47.368  29.529  28.770  1.00  0.00     0.012 A 
ATOM     82  C   UNL A   1      45.104  30.344  28.461  1.00  0.00     0.148 A 
ATOM     83  C   UNL A   1      47.805  30.323  27.707  1.00  0.00     0.002 A 
ATOM     84  C   UNL A   1      45.532  31.092  27.374  1.00  0.00     0.091 A 
ATOM     85  F   UNL A   1      43.820  30.341  28.852  1.00  0.00    -0.205 F 
ATOM     86  C   UNL A   1      46.884  31.094  26.998  1.00  0.00     0.022 A 
BRANCH  84  87
ATOM     87  S   UNL A   1      44.365  31.996  26.358  1.00  0.00     0.127 S 
ATOM     88  O   UNL A   1      43.967  33.084  27.247  1.00  0.00    -0.237 OA
ATOM     89  O   UNL A   1      45.188  32.405  25.219  1.00  0.00    -0.237 OA
ATOM     90  O   UNL A   1      43.314  31.044  26.016  1.00  0.00    -0.744 OA
ENDBRANCH  84  87
ENDBRANCH  57  80
ENDBRANCH  31  32
ENDBRANCH  24  26
ENDBRANCH  23  24
ENDBRANCH  22  23
ENDBRANCH   1  22
TORSDOF 17
ENDMDL
MODEL 3
REMARK VINA RESULT:     -10.9      4.541      9.122
REMARK SMILES C[C@@H]1C[C@@H](C)CN(C(=O)CCn2cc(C(=O)OCCOC(=O)c3ccc(-c4c5nc(c(-c6cccc(S(=O)(=O)[O-])c6F)c6ccc([nH]6)c(-c6cccc(S(=O)(=O)[O-])c6F)c6nc(c(-c7cccc(S(=O)(=O)[O-])c7F)c7ccc4[nH]7)C=C6)C=C5)cc3)cn2)C1
REMARK SMILES IDX 18 1 17 2 15 3 16 4 14 5 12 6 13 7 87 8 86 9 11 10 10 11
REMARK SMILES IDX 8 12 1 13 2 14 3 15 88 16 4 17 7 18 6 19 5 20 9 21 19 22
REMARK SMILES IDX 20 23 21 24 22 25 23 26 24 27 85 28 25 29 84 30 26 31 27 32
REMARK SMILES IDX 28 33 78 34 29 35 83 36 77 37 79 38 30 39 82 40 76 41 75 42
REMARK SMILES IDX 31 44 63 45 43 46 62 47 44 48 47 49 61 50 80 51 45 52 46 53
REMARK SMILES IDX 60 55 81 56 48 57 32 58 33 59 41 60 34 61 36 62 42 63 35 64
REMARK SMILES IDX 37 65 38 66 39 67 40 68 64 69 65 70 73 71 66 72 68 73 74 74
REMARK SMILES IDX 67 75 69 76 70 77 71 78 72 79 49 80 50 81 58 82 51 83 53 84
REMARK SMILES IDX 59 85 52 86 54 87 55 88 56 89 57 90
REMARK H PARENT 79 43 47 54
REMARK Flexibility Score: inf
ROOT
ATOM      1  C   UNL A   1      37.930  21.036  24.989  1.00  0.00     0.275 C 
ENDROOT
BRANCH   1   2
ATOM      2  O   UNL A   1      36.805  21.305  25.848  1.00  0.00    -0.458 OA
BRANCH   2   3
ATOM      3  C   UNL A   1      36.120  22.439  25.550  1.00  0.00     0.341 C 
ATOM      4  O   UNL A   1      36.139  23.457  26.239  1.00  0.00    -0.246 OA
BRANCH   3   5
ATOM      5  C   UNL A   1      35.296  22.362  24.361  1.00  0.00     0.098 A 
ATOM      6  N   UNL A   1      33.390  22.414  23.307  1.00  0.00    -0.271 N 
ATOM      7  C   UNL A   1      34.066  21.739  24.288  1.00  0.00     0.124 A 
ATOM      8  N   UNL A   1      34.189  23.137  22.514  1.00  0.00    -0.181 NA
ATOM      9  C   UNL A   1      35.351  23.134  23.174  1.00  0.00     0.150 A 
BRANCH   6  10
ATOM     10  C   UNL A   1      31.954  22.623  23.260  1.00  0.00     0.154 C 
BRANCH  10  11
ATOM     11  C   UNL A   1      31.586  24.103  23.355  1.00  0.00     0.124 C 
BRANCH  11  12
ATOM     12  C   UNL A   1      31.945  24.737  24.683  1.00  0.00     0.224 C 
ATOM     13  C   UNL A   1      31.674  27.826  26.527  1.00  0.00     0.009 C 
ATOM     14  C   UNL A   1      33.171  27.528  26.378  1.00  0.00     0.006 C 
ATOM     15  C   UNL A   1      33.812  28.382  25.277  1.00  0.00     0.010 C 
ATOM     16  C   UNL A   1      33.441  26.048  26.098  1.00  0.00     0.122 C 
ATOM     17  C   UNL A   1      33.380  27.938  23.867  1.00  0.00     0.006 C 
ATOM     18  N   UNL A   1      32.973  25.663  24.772  1.00  0.00    -0.342 N 
ATOM     19  C   UNL A   1      33.610  26.420  23.684  1.00  0.00     0.122 C 
ATOM     20  C   UNL A   1      34.110  28.811  22.846  1.00  0.00     0.009 C 
ATOM     21  O   UNL A   1      31.341  24.336  25.684  1.00  0.00    -0.275 OA
ENDBRANCH  11  12
ENDBRANCH  10  11
ENDBRANCH   6  10
ENDBRANCH   3   5
ENDBRANCH   2   3
ENDBRANCH   1   2
BRANCH   1  22
ATOM     22  C   UNL A   1      39.239  21.230  25.742  1.00  0.00     0.275 C 
BRANCH  22  23
ATOM     23  O   UNL A   1      39.820  19.990  26.165  1.00  0.00    -0.458 OA
BRANCH  23  24
ATOM     24  C   UNL A   1      41.143  19.927  25.895  1.00  0.00     0.338 C 
ATOM     25  O   UNL A   1      41.729  19.021  25.337  1.00  0.00    -0.246 OA
BRANCH  24  26
ATOM     26  C   UNL A   1      41.893  20.921  26.649  1.00  0.00     0.060 A 
ATOM     27  C   UNL A   1      41.607  21.018  28.015  1.00  0.00     0.016 A 
ATOM     28  C   UNL A   1      42.454  21.974  25.918  1.00  0.00     0.016 A 
ATOM     29  C   UNL A   1      41.735  22.250  28.617  1.00  0.00     0.010 A 
ATOM     30  C   UNL A   1      42.566  23.205  26.519  1.00  0.00     0.010 A 
ATOM     31  C   UNL A   1      42.142  23.342  27.839  1.00  0.00    -0.014 A 
BRANCH  31  32
ATOM     32  C   UNL A   1      42.307  24.618  28.504  1.00  0.00     0.031 A 
ATOM     33  C   UNL A   1      41.139  25.501  28.266  1.00  0.00     0.074 A 
ATOM     34  C   UNL A   1      43.337  24.892  29.327  1.00  0.00     0.049 A 
ATOM     35  N   UNL A   1      41.121  26.604  27.597  1.00  0.00    -0.248 NA
ATOM     36  C   UNL A   1      39.801  24.990  28.613  1.00  0.00     0.031 C 
ATOM     37  C   UNL A   1      44.371  23.976  29.814  1.00  0.00     0.029 A 
ATOM     38  N   UNL A   1      43.589  26.032  30.027  1.00  0.00    -0.354 N 
ATOM     39  C   UNL A   1      39.802  27.049  27.660  1.00  0.00     0.074 A 
ATOM     40  C   UNL A   1      39.015  25.924  28.082  1.00  0.00     0.031 C 
ATOM     41  C   UNL A   1      44.946  24.508  30.918  1.00  0.00     0.029 A 
ATOM     42  C   UNL A   1      44.405  25.840  31.138  1.00  0.00     0.049 A 
ATOM     43  H   UNL A   1      43.228  26.911  29.771  1.00  0.00     0.167 HD
ATOM     44  C   UNL A   1      39.517  28.378  27.632  1.00  0.00     0.034 A 
ATOM     45  C   UNL A   1      44.533  26.676  32.202  1.00  0.00     0.034 A 
ATOM     46  C   UNL A   1      40.644  29.136  27.153  1.00  0.00     0.049 A 
ATOM     47  C   UNL A   1      44.028  28.006  31.783  1.00  0.00     0.074 A 
ATOM     48  C   UNL A   1      41.383  29.151  25.987  1.00  0.00     0.029 A 
ATOM     49  N   UNL A   1      41.414  29.760  28.106  1.00  0.00    -0.354 N 
ATOM     50  N   UNL A   1      44.627  28.748  30.896  1.00  0.00    -0.248 NA
ATOM     51  C   UNL A   1      42.618  28.292  31.994  1.00  0.00     0.031 C 
ATOM     52  C   UNL A   1      42.727  29.358  26.410  1.00  0.00     0.029 A 
ATOM     53  C   UNL A   1      42.727  29.540  27.794  1.00  0.00     0.049 A 
ATOM     54  H   UNL A   1      41.078  30.274  28.876  1.00  0.00     0.167 HD
ATOM     55  C   UNL A   1      43.591  29.233  30.109  1.00  0.00     0.074 A 
ATOM     56  C   UNL A   1      42.376  29.007  30.891  1.00  0.00     0.031 C 
ATOM     57  C   UNL A   1      43.780  29.482  28.781  1.00  0.00     0.034 A 
BRANCH  44  58
ATOM     58  C   UNL A   1      38.404  29.035  28.416  1.00  0.00     0.023 A 
ATOM     59  C   UNL A   1      37.539  29.887  27.692  1.00  0.00     0.012 A 
ATOM     60  C   UNL A   1      38.339  29.106  29.826  1.00  0.00     0.148 A 
ATOM     61  C   UNL A   1      36.716  30.815  28.334  1.00  0.00     0.002 A 
ATOM     62  C   UNL A   1      37.465  29.979  30.463  1.00  0.00     0.091 A 
ATOM     63  F   UNL A   1      39.206  28.426  30.578  1.00  0.00    -0.205 F 
ATOM     64  C   UNL A   1      36.678  30.862  29.722  1.00  0.00     0.022 A 
BRANCH  62  65
ATOM     65  S   UNL A   1      37.344  30.059  32.256  1.00  0.00     0.127 S 
ATOM     66  O   UNL A   1      38.645  30.616  32.613  1.00  0.00    -0.237 OA
ATOM     67  O   UNL A   1      36.209  30.967  32.432  1.00  0.00    -0.237 OA
ATOM     68  O   UNL A   1      37.094  28.694  32.701  1.00  0.00    -0.744 OA
ENDBRANCH  62  65
ENDBRANCH  44  58
BRANCH  45  69
ATOM     69  C   UNL A   1      44.775  26.366  33.635  1.00  0.00     0.023 A 
ATOM     70  C   UNL A   1      46.082  26.447  34.160  1.00  0.00     0.012 A 
ATOM     71  C   UNL A   1      43.701  26.278  34.548  1.00  0.00     0.148 A 
ATOM     72  C   UNL A   1      46.308  26.470  35.544  1.00  0.00     0.002 A 
ATOM     73  C   UNL A   1      43.930  26.296  35.921  1.00  0.00     0.091 A 
ATOM     74  F   UNL A   1      42.449  26.276  34.074  1.00  0.00    -0.205 F 
ATOM     75  C   UNL A   1      45.232  26.404  36.424  1.00  0.00     0.022 A 
BRANCH  73  76
ATOM     76  S   UNL A   1      42.584  26.253  37.114  1.00  0.00     0.127 S 
ATOM     77  O   UNL A   1      43.304  26.312  38.386  1.00  0.00    -0.237 OA
ATOM     78  O   UNL A   1      41.839  27.460  36.772  1.00  0.00    -0.237 OA
ATOM     79  O   UNL A   1      41.885  24.995  36.880  1.00  0.00    -0.744 OA
ENDBRANCH  73  76
ENDBRANCH  45  69
BRANCH  57  80
ATOM     80  C   UNL A   1      45.189  29.474  28.248  1.00  0.00     0.023 A 
ATOM     81  C   UNL A   1      45.822  28.313  27.758  1.00  0.00     0.012 A 
ATOM     82  C   UNL A   1      45.823  30.716  28.084  1.00  0.00     0.148 A 
ATOM     83  C   UNL A   1      47.072  28.391  27.138  1.00  0.00     0.002 A 
ATOM     84  C   UNL A   1      47.040  30.796  27.424  1.00  0.00     0.091 A 
ATOM     85  F   UNL A   1      45.205  31.810  28.557  1.00  0.00    -0.205 F 
ATOM     86  C   UNL A   1      47.675  29.635  26.957  1.00  0.00     0.022 A 
BRANCH  84  87
ATOM     87  S   UNL A   1      47.789  32.382  27.057  1.00  0.00     0.127 S 
ATOM     88  O   UNL A   1      49.066  31.986  26.467  1.00  0.00    -0.237 OA
ATOM     89  O   UNL A   1      46.836  32.973  26.116  1.00  0.00    -0.237 OA
ATOM     90  O   UNL A   1      47.875  33.087  28.331  1.00  0.00    -0.744 OA
ENDBRANCH  84  87
ENDBRANCH  57  80
ENDBRANCH  31  32
ENDBRANCH  24  26
ENDBRANCH  23  24
ENDBRANCH  22  23
ENDBRANCH   1  22
TORSDOF 17
ENDMDL
