MODEL 1
REMARK VINA RESULT:     -11.6      0.000      0.000
REMARK SMILES COc1ccc(-c2nn(-c3ccccc3)cc2/C=C2\SC(=S)N(CCC(=O)OCCOC(=O)c3ccc(-c4c5nc(c(-c6cccc(S(=O)(=O)[O-])c6F)c6ccc([nH]6)c(-c6cccc(S(=O)(=O)[O-])c6F)c6nc(c(-c7cccc(S(=O)(=O)[O-])c7F)c7ccc4[nH]7)C=C6)C=C5)cc3)C2=O)c(C)c1
REMARK SMILES IDX 29 1 28 2 26 3 27 4 25 5 24 6 23 7 18 8 19 9 20 10 97 11
REMARK SMILES IDX 21 12 98 13 22 14 17 15 7 16 8 17 9 18 16 19 6 20 3 21 4 22
REMARK SMILES IDX 101 23 5 24 99 25 100 26 2 27 1 28 10 29 11 30 15 31 12 32
REMARK SMILES IDX 14 33 13 34 30 35 31 36 32 37 33 38 34 39 35 40 96 41 36 42
REMARK SMILES IDX 95 43 37 44 38 45 39 46 89 47 40 48 94 49 88 50 90 51 41 52
REMARK SMILES IDX 93 53 87 54 86 55 42 57 74 58 54 59 73 60 55 61 58 62 72 63
REMARK SMILES IDX 91 64 56 65 57 66 71 68 92 69 59 70 43 71 44 72 52 73 45 74
REMARK SMILES IDX 47 75 53 76 46 77 48 78 49 79 50 80 51 81 75 82 76 83 84 84
REMARK SMILES IDX 77 85 79 86 85 87 78 88 80 89 81 90 82 91 83 92 60 93 61 94
REMARK SMILES IDX 69 95 62 96 64 97 70 98 63 99 65 100 66 101 67 102 68 103
REMARK H PARENT 90 56 58 67
REMARK Flexibility Score: inf
ROOT
ATOM      1  C   UNL A   1      33.472  29.912  27.241  1.00  0.00     0.274 C 
ENDROOT
BRANCH   1   2
ATOM      2  O   UNL A   1      33.723  29.421  25.912  1.00  0.00    -0.462 OA
BRANCH   2   3
ATOM      3  C   UNL A   1      32.730  28.873  25.174  1.00  0.00     0.307 C 
ATOM      4  O   UNL A   1      31.578  29.273  25.140  1.00  0.00    -0.252 OA
BRANCH   3   5
ATOM      5  C   UNL A   1      33.237  27.709  24.355  1.00  0.00     0.144 C 
BRANCH   5   6
ATOM      6  C   UNL A   1      32.127  27.246  23.409  1.00  0.00     0.139 C 
BRANCH   6   7
ATOM      7  N   UNL A   1      31.973  25.806  23.575  1.00  0.00    -0.292 N 
ATOM      8  C   UNL A   1      34.455  23.358  23.543  1.00  0.00     0.033 C 
ATOM      9  C   UNL A   1      33.222  23.881  23.654  1.00  0.00     0.081 C 
ATOM     10  S   UNL A   1      31.972  23.548  24.790  1.00  0.00    -0.054 SA
ATOM     11  C   UNL A   1      32.792  24.998  22.815  1.00  0.00     0.266 C 
ATOM     12  C   UNL A   1      31.321  25.181  24.616  1.00  0.00     0.148 C 
ATOM     13  O   UNL A   1      33.153  25.156  21.661  1.00  0.00    -0.268 OA
ATOM     14  S   UNL A   1      30.138  25.806  25.605  1.00  0.00    -0.052 S 
BRANCH   8  15
ATOM     15  C   UNL A   1      34.792  22.118  24.125  1.00  0.00     0.022 A 
ATOM     16  C   UNL A   1      35.778  21.599  25.001  1.00  0.00     0.100 A 
ATOM     17  N   UNL A   1      35.449  20.329  25.338  1.00  0.00    -0.167 NA
ATOM     18  N   UNL A   1      34.407  20.017  24.544  1.00  0.00    -0.240 N 
ATOM     19  C   UNL A   1      34.054  21.038  23.726  1.00  0.00     0.123 A 
BRANCH  16  20
ATOM     20  C   UNL A   1      37.036  22.182  25.491  1.00  0.00     0.006 A 
ATOM     21  C   UNL A   1      39.403  23.208  26.635  1.00  0.00     0.119 A 
ATOM     22  C   UNL A   1      38.264  24.005  26.557  1.00  0.00     0.047 A 
ATOM     23  C   UNL A   1      39.389  21.927  26.095  1.00  0.00     0.050 A 
ATOM     24  C   UNL A   1      37.082  23.493  25.992  1.00  0.00     0.014 A 
ATOM     25  C   UNL A   1      38.218  21.400  25.518  1.00  0.00    -0.038 A 
ATOM     26  C   UNL A   1      38.279  19.980  25.022  1.00  0.00     0.045 C 
BRANCH  21  27
ATOM     27  O   UNL A   1      40.584  23.648  27.169  1.00  0.00    -0.497 OA
ATOM     28  C   UNL A   1      41.191  22.654  27.999  1.00  0.00     0.278 C 
ENDBRANCH  21  27
ENDBRANCH  16  20
BRANCH  18  29
ATOM     29  C   UNL A   1      33.700  18.804  24.578  1.00  0.00     0.065 A 
ATOM     30  C   UNL A   1      33.966  17.821  23.629  1.00  0.00     0.028 A 
ATOM     31  C   UNL A   1      32.873  18.542  25.685  1.00  0.00     0.028 A 
ATOM     32  C   UNL A   1      33.438  16.545  23.829  1.00  0.00     0.002 A 
ATOM     33  C   UNL A   1      32.319  17.281  25.852  1.00  0.00     0.002 A 
ATOM     34  C   UNL A   1      32.619  16.278  24.933  1.00  0.00     0.000 A 
ENDBRANCH  18  29
ENDBRANCH   8  15
ENDBRANCH   6   7
ENDBRANCH   5   6
ENDBRANCH   3   5
ENDBRANCH   2   3
ENDBRANCH   1   2
BRANCH   1  35
ATOM     35  C   UNL A   1      33.682  31.399  27.621  1.00  0.00     0.275 C 
BRANCH  35  36
ATOM     36  O   UNL A   1      34.795  31.998  28.374  1.00  0.00    -0.458 OA
BRANCH  36  37
ATOM     37  C   UNL A   1      35.228  31.935  29.674  1.00  0.00     0.338 C 
ATOM     38  O   UNL A   1      34.701  32.542  30.562  1.00  0.00    -0.246 OA
BRANCH  37  39
ATOM     39  C   UNL A   1      36.473  31.168  29.881  1.00  0.00     0.060 A 
ATOM     40  C   UNL A   1      36.578  30.077  30.762  1.00  0.00     0.016 A 
ATOM     41  C   UNL A   1      37.535  31.518  29.081  1.00  0.00     0.016 A 
ATOM     42  C   UNL A   1      37.741  29.288  30.752  1.00  0.00     0.010 A 
ATOM     43  C   UNL A   1      38.502  30.581  28.848  1.00  0.00     0.010 A 
ATOM     44  C   UNL A   1      38.695  29.540  29.769  1.00  0.00    -0.014 A 
BRANCH  44  45
ATOM     45  C   UNL A   1      40.110  29.173  29.818  1.00  0.00     0.031 A 
ATOM     46  C   UNL A   1      40.745  28.048  29.142  1.00  0.00     0.074 A 
ATOM     47  C   UNL A   1      40.862  30.206  30.271  1.00  0.00     0.049 A 
ATOM     48  N   UNL A   1      41.920  27.640  29.478  1.00  0.00    -0.248 NA
ATOM     49  C   UNL A   1      40.171  27.326  28.018  1.00  0.00     0.031 C 
ATOM     50  C   UNL A   1      42.240  30.572  30.033  1.00  0.00     0.029 A 
ATOM     51  N   UNL A   1      40.385  31.232  31.090  1.00  0.00    -0.354 N 
ATOM     52  C   UNL A   1      42.382  26.842  28.460  1.00  0.00     0.074 A 
ATOM     53  C   UNL A   1      41.220  26.584  27.630  1.00  0.00     0.031 C 
ATOM     54  C   UNL A   1      42.557  31.583  30.868  1.00  0.00     0.029 A 
ATOM     55  C   UNL A   1      41.445  31.764  31.794  1.00  0.00     0.049 A 
ATOM     56  H   UNL A   1      39.448  31.527  31.154  1.00  0.00     0.167 HD
ATOM     57  C   UNL A   1      43.727  26.657  28.327  1.00  0.00     0.034 A 
ATOM     58  C   UNL A   1      41.438  31.682  33.156  1.00  0.00     0.034 A 
ATOM     59  C   UNL A   1      44.473  27.486  29.301  1.00  0.00     0.049 A 
ATOM     60  C   UNL A   1      42.548  30.755  33.616  1.00  0.00     0.074 A 
ATOM     61  C   UNL A   1      45.161  28.686  29.187  1.00  0.00     0.029 A 
ATOM     62  N   UNL A   1      44.326  27.270  30.668  1.00  0.00    -0.354 N 
ATOM     63  N   UNL A   1      43.425  30.182  32.838  1.00  0.00    -0.248 NA
ATOM     64  C   UNL A   1      42.650  30.302  34.994  1.00  0.00     0.031 C 
ATOM     65  C   UNL A   1      45.396  29.203  30.495  1.00  0.00     0.029 A 
ATOM     66  C   UNL A   1      44.883  28.308  31.415  1.00  0.00     0.049 A 
ATOM     67  H   UNL A   1      43.883  26.483  31.059  1.00  0.00     0.167 HD
ATOM     68  C   UNL A   1      44.039  29.157  33.510  1.00  0.00     0.074 A 
ATOM     69  C   UNL A   1      43.531  29.299  34.868  1.00  0.00     0.031 C 
ATOM     70  C   UNL A   1      44.845  28.238  32.881  1.00  0.00     0.034 A 
BRANCH  57  71
ATOM     71  C   UNL A   1      44.389  26.002  27.122  1.00  0.00     0.023 A 
ATOM     72  C   UNL A   1      45.141  26.830  26.256  1.00  0.00     0.012 A 
ATOM     73  C   UNL A   1      44.332  24.632  26.770  1.00  0.00     0.148 A 
ATOM     74  C   UNL A   1      45.708  26.365  25.064  1.00  0.00     0.002 A 
ATOM     75  C   UNL A   1      44.854  24.174  25.552  1.00  0.00     0.091 A 
ATOM     76  F   UNL A   1      43.834  23.747  27.644  1.00  0.00    -0.205 F 
ATOM     77  C   UNL A   1      45.537  25.043  24.694  1.00  0.00     0.022 A 
BRANCH  75  78
ATOM     78  S   UNL A   1      44.625  22.486  24.960  1.00  0.00     0.127 S 
ATOM     79  O   UNL A   1      45.152  22.563  23.594  1.00  0.00    -0.237 OA
ATOM     80  O   UNL A   1      45.451  21.711  25.881  1.00  0.00    -0.237 OA
ATOM     81  O   UNL A   1      43.191  22.234  25.028  1.00  0.00    -0.744 OA
ENDBRANCH  75  78
ENDBRANCH  57  71
BRANCH  58  82
ATOM     82  C   UNL A   1      40.034  31.701  33.742  1.00  0.00     0.023 A 
ATOM     83  C   UNL A   1      39.247  30.525  33.608  1.00  0.00     0.012 A 
ATOM     84  C   UNL A   1      39.658  32.623  34.741  1.00  0.00     0.148 A 
ATOM     85  C   UNL A   1      38.208  30.234  34.505  1.00  0.00     0.002 A 
ATOM     86  C   UNL A   1      38.619  32.327  35.627  1.00  0.00     0.091 A 
ATOM     87  F   UNL A   1      40.370  33.746  34.896  1.00  0.00    -0.205 F 
ATOM     88  C   UNL A   1      37.909  31.125  35.530  1.00  0.00     0.022 A 
BRANCH  86  89
ATOM     89  S   UNL A   1      38.290  33.432  37.010  1.00  0.00     0.127 S 
ATOM     90  O   UNL A   1      39.455  33.245  37.874  1.00  0.00    -0.237 OA
ATOM     91  O   UNL A   1      38.226  34.751  36.391  1.00  0.00    -0.237 OA
ATOM     92  O   UNL A   1      37.041  32.890  37.534  1.00  0.00    -0.744 OA
ENDBRANCH  86  89
ENDBRANCH  58  82
BRANCH  70  93
ATOM     93  C   UNL A   1      45.634  27.129  33.577  1.00  0.00     0.023 A 
ATOM     94  C   UNL A   1      46.998  27.245  33.897  1.00  0.00     0.012 A 
ATOM     95  C   UNL A   1      45.041  25.874  33.883  1.00  0.00     0.148 A 
ATOM     96  C   UNL A   1      47.690  26.269  34.622  1.00  0.00     0.002 A 
ATOM     97  C   UNL A   1      45.726  24.900  34.605  1.00  0.00     0.091 A 
ATOM     98  F   UNL A   1      43.832  25.566  33.401  1.00  0.00    -0.205 F 
ATOM     99  C   UNL A   1      47.044  25.108  35.005  1.00  0.00     0.022 A 
BRANCH  97 100
ATOM    100  S   UNL A   1      44.957  23.339  35.051  1.00  0.00     0.127 S 
ATOM    101  O   UNL A   1      46.055  22.656  35.733  1.00  0.00    -0.237 OA
ATOM    102  O   UNL A   1      43.869  23.773  35.928  1.00  0.00    -0.237 OA
ATOM    103  O   UNL A   1      44.516  22.741  33.799  1.00  0.00    -0.744 OA
ENDBRANCH  97 100
ENDBRANCH  70  93
ENDBRANCH  44  45
ENDBRANCH  37  39
ENDBRANCH  36  37
ENDBRANCH  35  36
ENDBRANCH   1  35
TORSDOF 20
ENDMDL
MODEL 2
REMARK VINA RESULT:     -11.3      1.647      2.233
REMARK SMILES COc1ccc(-c2nn(-c3ccccc3)cc2/C=C2\SC(=S)N(CCC(=O)OCCOC(=O)c3ccc(-c4c5nc(c(-c6cccc(S(=O)(=O)[O-])c6F)c6ccc([nH]6)c(-c6cccc(S(=O)(=O)[O-])c6F)c6nc(c(-c7cccc(S(=O)(=O)[O-])c7F)c7ccc4[nH]7)C=C6)C=C5)cc3)C2=O)c(C)c1
REMARK SMILES IDX 29 1 28 2 26 3 27 4 25 5 24 6 23 7 18 8 19 9 20 10 97 11
REMARK SMILES IDX 21 12 98 13 22 14 17 15 7 16 8 17 9 18 16 19 6 20 3 21 4 22
REMARK SMILES IDX 101 23 5 24 99 25 100 26 2 27 1 28 10 29 11 30 15 31 12 32
REMARK SMILES IDX 14 33 13 34 30 35 31 36 32 37 33 38 34 39 35 40 96 41 36 42
REMARK SMILES IDX 95 43 37 44 38 45 39 46 89 47 40 48 94 49 88 50 90 51 41 52
REMARK SMILES IDX 93 53 87 54 86 55 42 57 74 58 54 59 73 60 55 61 58 62 72 63
REMARK SMILES IDX 91 64 56 65 57 66 71 68 92 69 59 70 43 71 44 72 52 73 45 74
REMARK SMILES IDX 47 75 53 76 46 77 48 78 49 79 50 80 51 81 75 82 76 83 84 84
REMARK SMILES IDX 77 85 79 86 85 87 78 88 80 89 81 90 82 91 83 92 60 93 61 94
REMARK SMILES IDX 69 95 62 96 64 97 70 98 63 99 65 100 66 101 67 102 68 103
REMARK H PARENT 90 56 58 67
REMARK Flexibility Score: inf
ROOT
ATOM      1  C   UNL A   1      33.240  30.235  27.097  1.00  0.00     0.274 C 
ENDROOT
BRANCH   1   2
ATOM      2  O   UNL A   1      33.636  29.558  25.891  1.00  0.00    -0.462 OA
BRANCH   2   3
ATOM      3  C   UNL A   1      32.729  28.894  25.137  1.00  0.00     0.307 C 
ATOM      4  O   UNL A   1      31.536  29.142  25.093  1.00  0.00    -0.252 OA
BRANCH   3   5
ATOM      5  C   UNL A   1      33.391  27.814  24.313  1.00  0.00     0.144 C 
BRANCH   5   6
ATOM      6  C   UNL A   1      32.404  27.325  23.250  1.00  0.00     0.139 C 
BRANCH   6   7
ATOM      7  N   UNL A   1      32.258  25.883  23.409  1.00  0.00    -0.292 N 
ATOM      8  C   UNL A   1      34.771  23.475  23.605  1.00  0.00     0.033 C 
ATOM      9  C   UNL A   1      33.525  23.979  23.605  1.00  0.00     0.081 C 
ATOM     10  S   UNL A   1      32.186  23.630  24.630  1.00  0.00    -0.054 SA
ATOM     11  C   UNL A   1      33.153  25.086  22.727  1.00  0.00     0.266 C 
ATOM     12  C   UNL A   1      31.528  25.252  24.392  1.00  0.00     0.148 C 
ATOM     13  O   UNL A   1      33.610  25.245  21.608  1.00  0.00    -0.268 OA
ATOM     14  S   UNL A   1      30.254  25.861  25.272  1.00  0.00    -0.052 S 
BRANCH   8  15
ATOM     15  C   UNL A   1      35.075  22.243  24.219  1.00  0.00     0.022 A 
ATOM     16  C   UNL A   1      36.009  21.735  25.158  1.00  0.00     0.100 A 
ATOM     17  N   UNL A   1      35.663  20.468  25.489  1.00  0.00    -0.167 NA
ATOM     18  N   UNL A   1      34.669  20.145  24.640  1.00  0.00    -0.240 N 
ATOM     19  C   UNL A   1      34.363  21.156  23.791  1.00  0.00     0.123 A 
BRANCH  16  20
ATOM     20  C   UNL A   1      37.236  22.326  25.714  1.00  0.00     0.006 A 
ATOM     21  C   UNL A   1      39.622  23.559  26.577  1.00  0.00     0.119 A 
ATOM     22  C   UNL A   1      39.644  22.247  26.113  1.00  0.00     0.047 A 
ATOM     23  C   UNL A   1      38.413  24.239  26.671  1.00  0.00     0.050 A 
ATOM     24  C   UNL A   1      38.457  21.632  25.676  1.00  0.00     0.014 A 
ATOM     25  C   UNL A   1      37.213  23.638  26.248  1.00  0.00    -0.038 A 
ATOM     26  C   UNL A   1      35.965  24.477  26.321  1.00  0.00     0.045 C 
BRANCH  21  27
ATOM     27  O   UNL A   1      40.742  24.211  27.018  1.00  0.00    -0.497 OA
ATOM     28  C   UNL A   1      41.348  24.983  25.979  1.00  0.00     0.278 C 
ENDBRANCH  21  27
ENDBRANCH  16  20
BRANCH  18  29
ATOM     29  C   UNL A   1      33.963  18.931  24.646  1.00  0.00     0.065 A 
ATOM     30  C   UNL A   1      34.403  17.870  23.860  1.00  0.00     0.028 A 
ATOM     31  C   UNL A   1      32.936  18.759  25.592  1.00  0.00     0.028 A 
ATOM     32  C   UNL A   1      33.839  16.611  24.070  1.00  0.00     0.002 A 
ATOM     33  C   UNL A   1      32.354  17.511  25.763  1.00  0.00     0.002 A 
ATOM     34  C   UNL A   1      32.821  16.434  25.014  1.00  0.00     0.000 A 
ENDBRANCH  18  29
ENDBRANCH   8  15
ENDBRANCH   6   7
ENDBRANCH   5   6
ENDBRANCH   3   5
ENDBRANCH   2   3
ENDBRANCH   1   2
BRANCH   1  35
ATOM     35  C   UNL A   1      33.854  31.595  27.516  1.00  0.00     0.275 C 
BRANCH  35  36
ATOM     36  O   UNL A   1      35.137  31.845  28.190  1.00  0.00    -0.458 OA
BRANCH  36  37
ATOM     37  C   UNL A   1      35.565  31.830  29.493  1.00  0.00     0.338 C 
ATOM     38  O   UNL A   1      34.886  32.218  30.401  1.00  0.00    -0.246 OA
BRANCH  37  39
ATOM     39  C   UNL A   1      36.972  31.424  29.685  1.00  0.00     0.060 A 
ATOM     40  C   UNL A   1      38.069  32.246  29.373  1.00  0.00     0.016 A 
ATOM     41  C   UNL A   1      37.168  30.205  30.290  1.00  0.00     0.016 A 
ATOM     42  C   UNL A   1      39.360  31.856  29.767  1.00  0.00     0.010 A 
ATOM     43  C   UNL A   1      38.350  29.993  30.943  1.00  0.00     0.010 A 
ATOM     44  C   UNL A   1      39.487  30.729  30.576  1.00  0.00    -0.014 A 
BRANCH  44  45
ATOM     45  C   UNL A   1      40.686  29.910  30.742  1.00  0.00     0.031 A 
ATOM     46  C   UNL A   1      41.108  28.797  29.901  1.00  0.00     0.074 A 
ATOM     47  C   UNL A   1      41.580  30.522  31.558  1.00  0.00     0.049 A 
ATOM     48  N   UNL A   1      42.008  27.962  30.293  1.00  0.00    -0.248 NA
ATOM     49  C   UNL A   1      40.622  28.547  28.553  1.00  0.00     0.031 C 
ATOM     50  C   UNL A   1      43.022  30.448  31.636  1.00  0.00     0.029 A 
ATOM     51  N   UNL A   1      41.245  31.463  32.534  1.00  0.00    -0.354 N 
ATOM     52  C   UNL A   1      42.440  27.277  29.184  1.00  0.00     0.074 A 
ATOM     53  C   UNL A   1      41.473  27.590  28.150  1.00  0.00     0.031 C 
ATOM     54  C   UNL A   1      43.418  31.108  32.743  1.00  0.00     0.029 A 
ATOM     55  C   UNL A   1      42.225  31.461  33.505  1.00  0.00     0.049 A 
ATOM     56  H   UNL A   1      40.444  32.034  32.530  1.00  0.00     0.167 HD
ATOM     57  C   UNL A   1      43.669  26.684  29.214  1.00  0.00     0.034 A 
ATOM     58  C   UNL A   1      41.886  31.116  34.781  1.00  0.00     0.034 A 
ATOM     59  C   UNL A   1      44.381  27.006  30.473  1.00  0.00     0.049 A 
ATOM     60  C   UNL A   1      42.549  29.800  35.146  1.00  0.00     0.074 A 
ATOM     61  C   UNL A   1      45.391  27.906  30.781  1.00  0.00     0.029 A 
ATOM     62  N   UNL A   1      43.871  26.584  31.697  1.00  0.00    -0.354 N 
ATOM     63  N   UNL A   1      43.377  29.136  34.388  1.00  0.00    -0.248 NA
ATOM     64  C   UNL A   1      42.201  29.075  36.357  1.00  0.00     0.031 C 
ATOM     65  C   UNL A   1      45.461  28.044  32.198  1.00  0.00     0.029 A 
ATOM     66  C   UNL A   1      44.518  27.206  32.764  1.00  0.00     0.049 A 
ATOM     67  H   UNL A   1      43.144  25.928  31.797  1.00  0.00     0.167 HD
ATOM     68  C   UNL A   1      43.501  27.852  34.855  1.00  0.00     0.074 A 
ATOM     69  C   UNL A   1      42.761  27.882  36.109  1.00  0.00     0.031 C 
ATOM     70  C   UNL A   1      44.130  26.862  34.138  1.00  0.00     0.034 A 
BRANCH  57  71
ATOM     71  C   UNL A   1      44.371  26.101  27.994  1.00  0.00     0.023 A 
ATOM     72  C   UNL A   1      44.317  24.700  27.814  1.00  0.00     0.012 A 
ATOM     73  C   UNL A   1      45.081  26.824  27.005  1.00  0.00     0.148 A 
ATOM     74  C   UNL A   1      45.006  24.039  26.792  1.00  0.00     0.002 A 
ATOM     75  C   UNL A   1      45.815  26.161  26.011  1.00  0.00     0.091 A 
ATOM     76  F   UNL A   1      44.995  28.160  26.976  1.00  0.00    -0.205 F 
ATOM     77  C   UNL A   1      45.785  24.766  25.909  1.00  0.00     0.022 A 
BRANCH  75  78
ATOM     78  S   UNL A   1      46.904  27.022  24.860  1.00  0.00     0.127 S 
ATOM     79  O   UNL A   1      45.982  27.947  24.196  1.00  0.00    -0.237 OA
ATOM     80  O   UNL A   1      47.866  27.664  25.750  1.00  0.00    -0.237 OA
ATOM     81  O   UNL A   1      47.443  25.991  23.980  1.00  0.00    -0.744 OA
ENDBRANCH  75  78
ENDBRANCH  57  71
BRANCH  58  82
ATOM     82  C   UNL A   1      40.451  31.484  35.132  1.00  0.00     0.023 A 
ATOM     83  C   UNL A   1      39.417  30.628  34.664  1.00  0.00     0.012 A 
ATOM     84  C   UNL A   1      40.147  32.343  36.208  1.00  0.00     0.148 A 
ATOM     85  C   UNL A   1      38.179  30.554  35.318  1.00  0.00     0.002 A 
ATOM     86  C   UNL A   1      38.908  32.265  36.850  1.00  0.00     0.091 A 
ATOM     87  F   UNL A   1      41.091  33.168  36.674  1.00  0.00    -0.205 F 
ATOM     88  C   UNL A   1      37.932  31.355  36.427  1.00  0.00     0.022 A 
BRANCH  86  89
ATOM     89  S   UNL A   1      38.619  33.233  38.340  1.00  0.00     0.127 S 
ATOM     90  O   UNL A   1      38.888  34.604  37.909  1.00  0.00    -0.237 OA
ATOM     91  O   UNL A   1      37.215  32.983  38.649  1.00  0.00    -0.237 OA
ATOM     92  O   UNL A   1      39.604  32.670  39.257  1.00  0.00    -0.744 OA
ENDBRANCH  86  89
ENDBRANCH  58  82
BRANCH  70  93
ATOM     93  C   UNL A   1      44.388  25.439  34.631  1.00  0.00     0.023 A 
ATOM     94  C   UNL A   1      43.367  24.486  34.790  1.00  0.00     0.012 A 
ATOM     95  C   UNL A   1      45.685  25.013  35.027  1.00  0.00     0.148 A 
ATOM     96  C   UNL A   1      43.621  23.157  35.146  1.00  0.00     0.002 A 
ATOM     97  C   UNL A   1      45.943  23.691  35.381  1.00  0.00     0.091 A 
ATOM     98  F   UNL A   1      46.676  25.903  35.156  1.00  0.00    -0.205 F 
ATOM     99  C   UNL A   1      44.916  22.751  35.410  1.00  0.00     0.022 A 
BRANCH  97 100
ATOM    100  S   UNL A   1      47.594  23.135  35.818  1.00  0.00     0.127 S 
ATOM    101  O   UNL A   1      47.788  23.785  37.113  1.00  0.00    -0.237 OA
ATOM    102  O   UNL A   1      47.421  21.684  35.883  1.00  0.00    -0.237 OA
ATOM    103  O   UNL A   1      48.465  23.590  34.743  1.00  0.00    -0.744 OA
ENDBRANCH  97 100
ENDBRANCH  70  93
ENDBRANCH  44  45
ENDBRANCH  37  39
ENDBRANCH  36  37
ENDBRANCH  35  36
ENDBRANCH   1  35
TORSDOF 20
ENDMDL
MODEL 3
REMARK VINA RESULT:     -11.2      5.398     12.990
REMARK SMILES COc1ccc(-c2nn(-c3ccccc3)cc2/C=C2\SC(=S)N(CCC(=O)OCCOC(=O)c3ccc(-c4c5nc(c(-c6cccc(S(=O)(=O)[O-])c6F)c6ccc([nH]6)c(-c6cccc(S(=O)(=O)[O-])c6F)c6nc(c(-c7cccc(S(=O)(=O)[O-])c7F)c7ccc4[nH]7)C=C6)C=C5)cc3)C2=O)c(C)c1
REMARK SMILES IDX 29 1 28 2 26 3 27 4 25 5 24 6 23 7 18 8 19 9 20 10 97 11
REMARK SMILES IDX 21 12 98 13 22 14 17 15 7 16 8 17 9 18 16 19 6 20 3 21 4 22
REMARK SMILES IDX 101 23 5 24 99 25 100 26 2 27 1 28 10 29 11 30 15 31 12 32
REMARK SMILES IDX 14 33 13 34 30 35 31 36 32 37 33 38 34 39 35 40 96 41 36 42
REMARK SMILES IDX 95 43 37 44 38 45 39 46 89 47 40 48 94 49 88 50 90 51 41 52
REMARK SMILES IDX 93 53 87 54 86 55 42 57 74 58 54 59 73 60 55 61 58 62 72 63
REMARK SMILES IDX 91 64 56 65 57 66 71 68 92 69 59 70 43 71 44 72 52 73 45 74
REMARK SMILES IDX 47 75 53 76 46 77 48 78 49 79 50 80 51 81 75 82 76 83 84 84
REMARK SMILES IDX 77 85 79 86 85 87 78 88 80 89 81 90 82 91 83 92 60 93 61 94
REMARK SMILES IDX 69 95 62 96 64 97 70 98 63 99 65 100 66 101 67 102 68 103
REMARK H PARENT 90 56 58 67
REMARK Flexibility Score: inf
ROOT
ATOM      1  C   UNL A   1      43.726  24.212  28.246  1.00  0.00     0.274 C 
ENDROOT
BRANCH   1   2
ATOM      2  O   UNL A   1      43.769  24.805  29.557  1.00  0.00    -0.462 OA
BRANCH   2   3
ATOM      3  C   UNL A   1      44.154  24.082  30.634  1.00  0.00     0.307 C 
ATOM      4  O   UNL A   1      43.852  22.918  30.844  1.00  0.00    -0.252 OA
BRANCH   3   5
ATOM      5  C   UNL A   1      45.050  24.891  31.543  1.00  0.00     0.144 C 
BRANCH   5   6
ATOM      6  C   UNL A   1      44.193  25.558  32.621  1.00  0.00     0.139 C 
BRANCH   6   7
ATOM      7  N   UNL A   1      44.610  25.026  33.913  1.00  0.00    -0.292 N 
ATOM      8  C   UNL A   1      45.485  21.748  34.709  1.00  0.00     0.033 C 
ATOM      9  C   UNL A   1      45.279  23.062  34.895  1.00  0.00     0.081 C 
ATOM     10  S   UNL A   1      46.227  24.229  35.735  1.00  0.00    -0.054 SA
ATOM     11  C   UNL A   1      44.176  23.759  34.236  1.00  0.00     0.266 C 
ATOM     12  C   UNL A   1      45.626  25.526  34.698  1.00  0.00     0.148 C 
ATOM     13  O   UNL A   1      43.092  23.247  34.009  1.00  0.00    -0.268 OA
ATOM     14  S   UNL A   1      46.256  27.066  34.700  1.00  0.00    -0.052 S 
BRANCH   8  15
ATOM     15  C   UNL A   1      46.348  21.005  35.542  1.00  0.00     0.022 A 
ATOM     16  C   UNL A   1      47.742  20.884  35.775  1.00  0.00     0.100 A 
ATOM     17  N   UNL A   1      47.945  20.109  36.866  1.00  0.00    -0.167 NA
ATOM     18  N   UNL A   1      46.730  19.616  37.175  1.00  0.00    -0.240 N 
ATOM     19  C   UNL A   1      45.764  20.052  36.330  1.00  0.00     0.123 A 
BRANCH  16  20
ATOM     20  C   UNL A   1      48.894  21.385  35.011  1.00  0.00     0.006 A 
ATOM     21  C   UNL A   1      51.234  22.196  33.658  1.00  0.00     0.119 A 
ATOM     22  C   UNL A   1      50.798  22.898  34.778  1.00  0.00     0.047 A 
ATOM     23  C   UNL A   1      50.482  21.132  33.173  1.00  0.00     0.050 A 
ATOM     24  C   UNL A   1      49.635  22.492  35.458  1.00  0.00     0.014 A 
ATOM     25  C   UNL A   1      49.311  20.716  33.833  1.00  0.00    -0.038 A 
ATOM     26  C   UNL A   1      48.602  19.511  33.275  1.00  0.00     0.045 C 
BRANCH  21  27
ATOM     27  O   UNL A   1      52.355  22.543  32.953  1.00  0.00    -0.497 OA
ATOM     28  C   UNL A   1      53.545  22.057  33.580  1.00  0.00     0.278 C 
ENDBRANCH  21  27
ENDBRANCH  16  20
BRANCH  18  29
ATOM     29  C   UNL A   1      46.447  18.791  38.275  1.00  0.00     0.065 A 
ATOM     30  C   UNL A   1      45.314  17.983  38.263  1.00  0.00     0.028 A 
ATOM     31  C   UNL A   1      47.419  18.664  39.283  1.00  0.00     0.028 A 
ATOM     32  C   UNL A   1      45.188  17.000  39.245  1.00  0.00     0.002 A 
ATOM     33  C   UNL A   1      47.264  17.711  40.280  1.00  0.00     0.002 A 
ATOM     34  C   UNL A   1      46.157  16.866  40.247  1.00  0.00     0.000 A 
ENDBRANCH  18  29
ENDBRANCH   8  15
ENDBRANCH   6   7
ENDBRANCH   5   6
ENDBRANCH   3   5
ENDBRANCH   2   3
ENDBRANCH   1   2
BRANCH   1  35
ATOM     35  C   UNL A   1      42.641  24.592  27.208  1.00  0.00     0.275 C 
BRANCH  35  36
ATOM     36  O   UNL A   1      41.340  23.946  26.973  1.00  0.00    -0.458 OA
BRANCH  36  37
ATOM     37  C   UNL A   1      40.032  24.352  27.040  1.00  0.00     0.338 C 
ATOM     38  O   UNL A   1      39.145  23.773  26.480  1.00  0.00    -0.246 OA
BRANCH  37  39
ATOM     39  C   UNL A   1      39.809  25.630  27.746  1.00  0.00     0.060 A 
ATOM     40  C   UNL A   1      39.147  25.732  28.982  1.00  0.00     0.016 A 
ATOM     41  C   UNL A   1      40.378  26.742  27.170  1.00  0.00     0.016 A 
ATOM     42  C   UNL A   1      39.151  26.958  29.670  1.00  0.00     0.010 A 
ATOM     43  C   UNL A   1      40.653  27.813  27.971  1.00  0.00     0.010 A 
ATOM     44  C   UNL A   1      39.931  27.994  29.161  1.00  0.00    -0.014 A 
BRANCH  44  45
ATOM     45  C   UNL A   1      39.763  29.420  29.431  1.00  0.00     0.031 A 
ATOM     46  C   UNL A   1      38.686  30.280  28.954  1.00  0.00     0.074 A 
ATOM     47  C   UNL A   1      40.522  29.805  30.487  1.00  0.00     0.049 A 
ATOM     48  N   UNL A   1      38.782  31.564  28.999  1.00  0.00    -0.248 NA
ATOM     49  C   UNL A   1      37.409  29.803  28.449  1.00  0.00     0.031 C 
ATOM     50  C   UNL A   1      40.359  30.866  31.456  1.00  0.00     0.029 A 
ATOM     51  N   UNL A   1      41.687  29.155  30.902  1.00  0.00    -0.354 N 
ATOM     52  C   UNL A   1      37.518  32.074  28.834  1.00  0.00     0.074 A 
ATOM     53  C   UNL A   1      36.718  30.952  28.382  1.00  0.00     0.031 C 
ATOM     54  C   UNL A   1      41.489  30.943  32.189  1.00  0.00     0.029 A 
ATOM     55  C   UNL A   1      42.477  30.057  31.584  1.00  0.00     0.049 A 
ATOM     56  H   UNL A   1      41.907  28.210  30.737  1.00  0.00     0.167 HD
ATOM     57  C   UNL A   1      37.252  33.334  29.286  1.00  0.00     0.034 A 
ATOM     58  C   UNL A   1      43.711  30.358  31.087  1.00  0.00     0.034 A 
ATOM     59  C   UNL A   1      38.420  33.895  30.004  1.00  0.00     0.049 A 
ATOM     60  C   UNL A   1      43.735  31.803  30.623  1.00  0.00     0.074 A 
ATOM     61  C   UNL A   1      38.718  34.043  31.351  1.00  0.00     0.029 A 
ATOM     62  N   UNL A   1      39.618  34.120  29.331  1.00  0.00    -0.354 N 
ATOM     63  N   UNL A   1      42.753  32.653  30.750  1.00  0.00    -0.248 NA
ATOM     64  C   UNL A   1      44.842  32.345  29.851  1.00  0.00     0.031 C 
ATOM     65  C   UNL A   1      40.108  34.328  31.482  1.00  0.00     0.029 A 
ATOM     66  C   UNL A   1      40.662  34.386  30.216  1.00  0.00     0.049 A 
ATOM     67  H   UNL A   1      39.715  34.094  28.352  1.00  0.00     0.167 HD
ATOM     68  C   UNL A   1      42.965  33.730  29.928  1.00  0.00     0.074 A 
ATOM     69  C   UNL A   1      44.306  33.493  29.410  1.00  0.00     0.031 C 
ATOM     70  C   UNL A   1      41.998  34.676  29.683  1.00  0.00     0.034 A 
BRANCH  57  71
ATOM     71  C   UNL A   1      35.855  33.933  29.386  1.00  0.00     0.023 A 
ATOM     72  C   UNL A   1      35.106  34.053  28.193  1.00  0.00     0.012 A 
ATOM     73  C   UNL A   1      35.216  34.389  30.565  1.00  0.00     0.148 A 
ATOM     74  C   UNL A   1      33.857  34.679  28.141  1.00  0.00     0.002 A 
ATOM     75  C   UNL A   1      33.988  35.063  30.509  1.00  0.00     0.091 A 
ATOM     76  F   UNL A   1      35.758  34.112  31.757  1.00  0.00    -0.205 F 
ATOM     77  C   UNL A   1      33.310  35.215  29.294  1.00  0.00     0.022 A 
BRANCH  75  78
ATOM     78  S   UNL A   1      33.234  35.847  31.946  1.00  0.00     0.127 S 
ATOM     79  O   UNL A   1      32.396  34.770  32.482  1.00  0.00    -0.237 OA
ATOM     80  O   UNL A   1      34.392  36.177  32.773  1.00  0.00    -0.237 OA
ATOM     81  O   UNL A   1      32.479  36.982  31.428  1.00  0.00    -0.744 OA
ENDBRANCH  75  78
ENDBRANCH  57  71
BRANCH  58  82
ATOM     82  C   UNL A   1      44.341  29.200  30.325  1.00  0.00     0.023 A 
ATOM     83  C   UNL A   1      43.904  28.971  28.992  1.00  0.00     0.012 A 
ATOM     84  C   UNL A   1      45.581  28.648  30.706  1.00  0.00     0.148 A 
ATOM     85  C   UNL A   1      44.723  28.323  28.056  1.00  0.00     0.002 A 
ATOM     86  C   UNL A   1      46.388  27.998  29.768  1.00  0.00     0.091 A 
ATOM     87  F   UNL A   1      46.025  28.835  31.954  1.00  0.00    -0.205 F 
ATOM     88  C   UNL A   1      45.976  27.857  28.437  1.00  0.00     0.022 A 
BRANCH  86  89
ATOM     89  S   UNL A   1      48.047  27.477  30.233  1.00  0.00     0.127 S 
ATOM     90  O   UNL A   1      48.800  28.730  30.253  1.00  0.00    -0.237 OA
ATOM     91  O   UNL A   1      47.865  26.883  31.553  1.00  0.00    -0.237 OA
ATOM     92  O   UNL A   1      48.390  26.568  29.145  1.00  0.00    -0.744 OA
ENDBRANCH  86  89
ENDBRANCH  58  82
BRANCH  70  93
ATOM     93  C   UNL A   1      42.192  35.947  28.856  1.00  0.00     0.023 A 
ATOM     94  C   UNL A   1      41.798  36.053  27.511  1.00  0.00     0.012 A 
ATOM     95  C   UNL A   1      42.851  37.088  29.390  1.00  0.00     0.148 A 
ATOM     96  C   UNL A   1      41.886  37.248  26.789  1.00  0.00     0.002 A 
ATOM     97  C   UNL A   1      42.940  38.279  28.675  1.00  0.00     0.091 A 
ATOM     98  F   UNL A   1      43.485  37.010  30.565  1.00  0.00    -0.205 F 
ATOM     99  C   UNL A   1      42.428  38.373  27.383  1.00  0.00     0.022 A 
BRANCH  97 100
ATOM    100  S   UNL A   1      43.714  39.743  29.372  1.00  0.00     0.127 S 
ATOM    101  O   UNL A   1      45.125  39.495  29.078  1.00  0.00    -0.237 OA
ATOM    102  O   UNL A   1      43.106  40.816  28.585  1.00  0.00    -0.237 OA
ATOM    103  O   UNL A   1      43.351  39.752  30.782  1.00  0.00    -0.744 OA
ENDBRANCH  97 100
ENDBRANCH  70  93
ENDBRANCH  44  45
ENDBRANCH  37  39
ENDBRANCH  36  37
ENDBRANCH  35  36
ENDBRANCH   1  35
TORSDOF 20
ENDMDL
