MODEL 1
REMARK VINA RESULT:     -11.7      0.000      0.000
REMARK SMILES O=C(OCCOC(=O)c1ccccc1C(=O)OC[C@@H]1C[C@H]2CC[C@@H]1C2)c1ccc(-c2c3nc(c(-c4cccc(S(=O)(=O)[O-])c4F)c4ccc([nH]4)c(-c4cccc(S(=O)(=O)[O-])c4F)c4nc(c(-c5cccc(S(=O)(=O)[O-])c5F)c5ccc2[nH]5)C=C4)C=C3)cc1
REMARK SMILES IDX 5 1 4 2 3 3 2 4 1 5 26 6 27 7 88 8 28 9 87 10 29 11 30 12
REMARK SMILES IDX 31 13 81 14 32 15 86 16 80 17 82 18 33 19 85 20 79 21 78 22
REMARK SMILES IDX 34 24 66 25 46 26 65 27 47 28 50 29 64 30 83 31 48 32 49 33
REMARK SMILES IDX 63 35 84 36 51 37 35 38 36 39 44 40 37 41 39 42 45 43 38 44
REMARK SMILES IDX 40 45 41 46 42 47 43 48 67 49 68 50 76 51 69 52 71 53 77 54
REMARK SMILES IDX 70 55 72 56 73 57 74 58 75 59 52 60 53 61 61 62 54 63 56 64
REMARK SMILES IDX 62 65 55 66 57 67 58 68 59 69 60 70 6 71 7 72 8 73 9 74
REMARK SMILES IDX 10 75 14 76 11 77 13 78 12 79 15 80 16 81 17 82 18 83 19 84
REMARK SMILES IDX 20 85 24 86 21 87 23 88 25 89 22 90
REMARK H PARENT 82 23 50 34
REMARK Flexibility Score: inf
ROOT
ATOM      1  C   UNL A   1      31.981  29.917  27.074  1.00  0.00     0.275 C 
ENDROOT
BRANCH   1   2
ATOM      2  C   UNL A   1      32.468  31.157  26.332  1.00  0.00     0.275 C 
BRANCH   2   3
ATOM      3  O   UNL A   1      32.583  32.326  27.167  1.00  0.00    -0.458 OA
BRANCH   3   4
ATOM      4  C   UNL A   1      33.667  32.906  27.738  1.00  0.00     0.338 C 
ATOM      5  O   UNL A   1      33.707  34.137  27.756  1.00  0.00    -0.246 OA
BRANCH   4   6
ATOM      6  C   UNL A   1      34.837  32.168  28.330  1.00  0.00     0.060 A 
ATOM      7  C   UNL A   1      34.795  30.933  28.984  1.00  0.00     0.016 A 
ATOM      8  C   UNL A   1      36.094  32.795  28.215  1.00  0.00     0.016 A 
ATOM      9  C   UNL A   1      35.959  30.320  29.463  1.00  0.00     0.010 A 
ATOM     10  C   UNL A   1      37.263  32.189  28.692  1.00  0.00     0.010 A 
ATOM     11  C   UNL A   1      37.197  30.948  29.332  1.00  0.00    -0.014 A 
BRANCH  11  12
ATOM     12  C   UNL A   1      38.390  30.371  29.993  1.00  0.00     0.031 A 
ATOM     13  C   UNL A   1      38.757  30.860  31.355  1.00  0.00     0.074 A 
ATOM     14  C   UNL A   1      39.117  29.405  29.403  1.00  0.00     0.049 A 
ATOM     15  N   UNL A   1      39.708  30.441  32.142  1.00  0.00    -0.248 NA
ATOM     16  C   UNL A   1      37.923  31.934  31.921  1.00  0.00     0.031 C 
ATOM     17  C   UNL A   1      38.796  28.810  28.119  1.00  0.00     0.029 A 
ATOM     18  N   UNL A   1      40.272  28.768  29.776  1.00  0.00    -0.354 N 
ATOM     19  C   UNL A   1      39.579  31.183  33.304  1.00  0.00     0.074 A 
ATOM     20  C   UNL A   1      38.485  32.108  33.106  1.00  0.00     0.031 C 
ATOM     21  C   UNL A   1      39.768  27.961  27.751  1.00  0.00     0.029 A 
ATOM     22  C   UNL A   1      40.773  27.930  28.803  1.00  0.00     0.049 A 
ATOM     23  H   UNL A   1      40.700  28.896  30.652  1.00  0.00     0.167 HD
ATOM     24  C   UNL A   1      40.294  31.075  34.445  1.00  0.00     0.034 A 
ATOM     25  C   UNL A   1      41.916  27.218  28.769  1.00  0.00     0.034 A 
ATOM     26  C   UNL A   1      41.401  30.176  34.609  1.00  0.00     0.049 A 
ATOM     27  C   UNL A   1      42.759  27.194  30.013  1.00  0.00     0.074 A 
ATOM     28  C   UNL A   1      42.196  29.983  35.721  1.00  0.00     0.029 A 
ATOM     29  N   UNL A   1      41.889  29.341  33.613  1.00  0.00    -0.354 N 
ATOM     30  N   UNL A   1      42.547  27.804  31.155  1.00  0.00    -0.248 NA
ATOM     31  C   UNL A   1      43.951  26.338  29.999  1.00  0.00     0.031 C 
ATOM     32  C   UNL A   1      43.191  29.058  35.385  1.00  0.00     0.029 A 
ATOM     33  C   UNL A   1      42.993  28.648  34.074  1.00  0.00     0.049 A 
ATOM     34  H   UNL A   1      41.507  29.256  32.710  1.00  0.00     0.167 HD
ATOM     35  C   UNL A   1      43.545  27.365  32.013  1.00  0.00     0.074 A 
ATOM     36  C   UNL A   1      44.362  26.436  31.257  1.00  0.00     0.031 C 
ATOM     37  C   UNL A   1      43.764  27.700  33.309  1.00  0.00     0.034 A 
BRANCH  24  38
ATOM     38  C   UNL A   1      39.882  31.966  35.581  1.00  0.00     0.023 A 
ATOM     39  C   UNL A   1      40.552  33.192  35.786  1.00  0.00     0.012 A 
ATOM     40  C   UNL A   1      38.861  31.577  36.465  1.00  0.00     0.148 A 
ATOM     41  C   UNL A   1      40.239  33.995  36.881  1.00  0.00     0.002 A 
ATOM     42  C   UNL A   1      38.528  32.402  37.532  1.00  0.00     0.091 A 
ATOM     43  F   UNL A   1      38.262  30.394  36.268  1.00  0.00    -0.205 F 
ATOM     44  C   UNL A   1      39.223  33.603  37.749  1.00  0.00     0.022 A 
BRANCH  42  45
ATOM     45  S   UNL A   1      37.204  32.010  38.677  1.00  0.00     0.127 S 
ATOM     46  O   UNL A   1      37.026  30.578  38.444  1.00  0.00    -0.237 OA
ATOM     47  O   UNL A   1      37.807  32.349  39.967  1.00  0.00    -0.237 OA
ATOM     48  O   UNL A   1      36.077  32.849  38.294  1.00  0.00    -0.744 OA
ENDBRANCH  42  45
ENDBRANCH  24  38
BRANCH  25  49
ATOM     49  C   UNL A   1      42.282  26.428  27.558  1.00  0.00     0.023 A 
ATOM     50  C   UNL A   1      42.919  27.058  26.472  1.00  0.00     0.012 A 
ATOM     51  C   UNL A   1      42.011  25.046  27.483  1.00  0.00     0.148 A 
ATOM     52  C   UNL A   1      43.247  26.338  25.322  1.00  0.00     0.002 A 
ATOM     53  C   UNL A   1      42.373  24.325  26.348  1.00  0.00     0.091 A 
ATOM     54  F   UNL A   1      41.395  24.462  28.521  1.00  0.00    -0.205 F 
ATOM     55  C   UNL A   1      42.980  24.973  25.261  1.00  0.00     0.022 A 
BRANCH  53  56
ATOM     56  S   UNL A   1      42.134  22.549  26.213  1.00  0.00     0.127 S 
ATOM     57  O   UNL A   1      40.679  22.440  26.269  1.00  0.00    -0.237 OA
ATOM     58  O   UNL A   1      42.721  22.258  24.905  1.00  0.00    -0.237 OA
ATOM     59  O   UNL A   1      42.854  21.970  27.338  1.00  0.00    -0.744 OA
ENDBRANCH  53  56
ENDBRANCH  25  49
BRANCH  37  60
ATOM     60  C   UNL A   1      44.916  27.029  34.007  1.00  0.00     0.023 A 
ATOM     61  C   UNL A   1      46.206  27.585  33.927  1.00  0.00     0.012 A 
ATOM     62  C   UNL A   1      44.693  25.897  34.815  1.00  0.00     0.148 A 
ATOM     63  C   UNL A   1      47.267  27.006  34.620  1.00  0.00     0.002 A 
ATOM     64  C   UNL A   1      45.744  25.360  35.547  1.00  0.00     0.091 A 
ATOM     65  F   UNL A   1      43.460  25.372  34.857  1.00  0.00    -0.205 F 
ATOM     66  C   UNL A   1      47.033  25.905  35.441  1.00  0.00     0.022 A 
BRANCH  64  67
ATOM     67  S   UNL A   1      45.510  24.012  36.710  1.00  0.00     0.127 S 
ATOM     68  O   UNL A   1      45.037  22.941  35.833  1.00  0.00    -0.237 OA
ATOM     69  O   UNL A   1      46.862  23.819  37.235  1.00  0.00    -0.237 OA
ATOM     70  O   UNL A   1      44.545  24.490  37.690  1.00  0.00    -0.744 OA
ENDBRANCH  64  67
ENDBRANCH  37  60
ENDBRANCH  11  12
ENDBRANCH   4   6
ENDBRANCH   3   4
ENDBRANCH   2   3
ENDBRANCH   1   2
BRANCH   1  71
ATOM     71  O   UNL A   1      32.779  28.782  26.726  1.00  0.00    -0.458 OA
BRANCH  71  72
ATOM     72  C   UNL A   1      32.149  27.588  26.651  1.00  0.00     0.339 C 
ATOM     73  O   UNL A   1      31.121  27.260  27.217  1.00  0.00    -0.246 OA
BRANCH  72  74
ATOM     74  C   UNL A   1      32.824  26.758  25.643  1.00  0.00     0.074 A 
ATOM     75  C   UNL A   1      33.426  25.575  26.105  1.00  0.00     0.016 A 
ATOM     76  C   UNL A   1      32.930  27.115  24.295  1.00  0.00     0.074 A 
ATOM     77  C   UNL A   1      34.112  24.737  25.222  1.00  0.00     0.001 A 
ATOM     78  C   UNL A   1      33.671  26.285  23.432  1.00  0.00     0.016 A 
ATOM     79  C   UNL A   1      34.241  25.096  23.885  1.00  0.00     0.001 A 
BRANCH  76  80
ATOM     80  C   UNL A   1      32.289  28.289  23.658  1.00  0.00     0.339 C 
ATOM     81  O   UNL A   1      32.925  29.080  22.978  1.00  0.00    -0.246 OA
BRANCH  80  82
ATOM     82  O   UNL A   1      30.935  28.263  23.761  1.00  0.00    -0.462 OA
BRANCH  82  83
ATOM     83  C   UNL A   1      30.201  28.444  22.532  1.00  0.00     0.237 C 
BRANCH  83  84
ATOM     84  C   UNL A   1      29.661  29.864  22.421  1.00  0.00     0.030 C 
ATOM     85  C   UNL A   1      29.511  30.632  23.746  1.00  0.00     0.011 C 
ATOM     86  C   UNL A   1      28.238  29.943  21.811  1.00  0.00    -0.004 C 
ATOM     87  C   UNL A   1      28.169  31.355  23.530  1.00  0.00    -0.010 C 
ATOM     88  C   UNL A   1      28.153  31.305  21.105  1.00  0.00     0.004 C 
ATOM     89  C   UNL A   1      27.327  30.192  23.012  1.00  0.00     0.007 C 
ATOM     90  C   UNL A   1      28.257  32.280  22.291  1.00  0.00     0.004 C 
ENDBRANCH  83  84
ENDBRANCH  82  83
ENDBRANCH  80  82
ENDBRANCH  76  80
ENDBRANCH  72  74
ENDBRANCH  71  72
ENDBRANCH   1  71
TORSDOF 18
ENDMDL
MODEL 2
REMARK VINA RESULT:     -11.6      5.639     10.964
REMARK SMILES O=C(OCCOC(=O)c1ccccc1C(=O)OC[C@@H]1C[C@H]2CC[C@@H]1C2)c1ccc(-c2c3nc(c(-c4cccc(S(=O)(=O)[O-])c4F)c4ccc([nH]4)c(-c4cccc(S(=O)(=O)[O-])c4F)c4nc(c(-c5cccc(S(=O)(=O)[O-])c5F)c5ccc2[nH]5)C=C4)C=C3)cc1
REMARK SMILES IDX 5 1 4 2 3 3 2 4 1 5 26 6 27 7 88 8 28 9 87 10 29 11 30 12
REMARK SMILES IDX 31 13 81 14 32 15 86 16 80 17 82 18 33 19 85 20 79 21 78 22
REMARK SMILES IDX 34 24 66 25 46 26 65 27 47 28 50 29 64 30 83 31 48 32 49 33
REMARK SMILES IDX 63 35 84 36 51 37 35 38 36 39 44 40 37 41 39 42 45 43 38 44
REMARK SMILES IDX 40 45 41 46 42 47 43 48 67 49 68 50 76 51 69 52 71 53 77 54
REMARK SMILES IDX 70 55 72 56 73 57 74 58 75 59 52 60 53 61 61 62 54 63 56 64
REMARK SMILES IDX 62 65 55 66 57 67 58 68 59 69 60 70 6 71 7 72 8 73 9 74
REMARK SMILES IDX 10 75 14 76 11 77 13 78 12 79 15 80 16 81 17 82 18 83 19 84
REMARK SMILES IDX 20 85 24 86 21 87 23 88 25 89 22 90
REMARK H PARENT 82 23 50 34
REMARK Flexibility Score: inf
ROOT
ATOM      1  C   UNL A   1      36.674  22.187  24.232  1.00  0.00     0.275 C 
ENDROOT
BRANCH   1   2
ATOM      2  C   UNL A   1      36.969  21.183  25.342  1.00  0.00     0.275 C 
BRANCH   2   3
ATOM      3  O   UNL A   1      38.339  20.741  25.377  1.00  0.00    -0.458 OA
BRANCH   3   4
ATOM      4  C   UNL A   1      39.349  21.045  26.230  1.00  0.00     0.338 C 
ATOM      5  O   UNL A   1      39.943  20.106  26.761  1.00  0.00    -0.246 OA
BRANCH   4   6
ATOM      6  C   UNL A   1      39.787  22.437  26.598  1.00  0.00     0.060 A 
ATOM      7  C   UNL A   1      39.298  23.630  26.058  1.00  0.00     0.016 A 
ATOM      8  C   UNL A   1      40.793  22.536  27.579  1.00  0.00     0.016 A 
ATOM      9  C   UNL A   1      39.755  24.876  26.508  1.00  0.00     0.010 A 
ATOM     10  C   UNL A   1      41.256  23.777  28.032  1.00  0.00     0.010 A 
ATOM     11  C   UNL A   1      40.744  24.957  27.487  1.00  0.00    -0.014 A 
BRANCH  11  12
ATOM     12  C   UNL A   1      41.336  26.271  27.827  1.00  0.00     0.031 A 
ATOM     13  C   UNL A   1      42.759  26.529  27.454  1.00  0.00     0.074 A 
ATOM     14  C   UNL A   1      40.612  27.230  28.432  1.00  0.00     0.049 A 
ATOM     15  N   UNL A   1      43.449  27.627  27.586  1.00  0.00    -0.248 NA
ATOM     16  C   UNL A   1      43.488  25.421  26.815  1.00  0.00     0.031 C 
ATOM     17  C   UNL A   1      39.205  27.103  28.763  1.00  0.00     0.029 A 
ATOM     18  N   UNL A   1      40.943  28.477  28.894  1.00  0.00    -0.354 N 
ATOM     19  C   UNL A   1      44.688  27.353  27.031  1.00  0.00     0.074 A 
ATOM     20  C   UNL A   1      44.671  25.973  26.597  1.00  0.00     0.031 C 
ATOM     21  C   UNL A   1      38.799  28.178  29.458  1.00  0.00     0.029 A 
ATOM     22  C   UNL A   1      39.924  29.090  29.591  1.00  0.00     0.049 A 
ATOM     23  H   UNL A   1      41.822  28.893  28.743  1.00  0.00     0.167 HD
ATOM     24  C   UNL A   1      45.733  28.194  26.870  1.00  0.00     0.034 A 
ATOM     25  C   UNL A   1      39.904  30.259  30.260  1.00  0.00     0.034 A 
ATOM     26  C   UNL A   1      45.743  29.550  27.340  1.00  0.00     0.049 A 
ATOM     27  C   UNL A   1      41.120  31.138  30.161  1.00  0.00     0.074 A 
ATOM     28  C   UNL A   1      46.748  30.492  27.232  1.00  0.00     0.029 A 
ATOM     29  N   UNL A   1      44.705  30.147  28.042  1.00  0.00    -0.354 N 
ATOM     30  N   UNL A   1      42.240  30.914  29.515  1.00  0.00    -0.248 NA
ATOM     31  C   UNL A   1      41.052  32.452  30.813  1.00  0.00     0.031 C 
ATOM     32  C   UNL A   1      46.331  31.647  27.902  1.00  0.00     0.029 A 
ATOM     33  C   UNL A   1      45.052  31.437  28.397  1.00  0.00     0.049 A 
ATOM     34  H   UNL A   1      43.847  29.715  28.256  1.00  0.00     0.167 HD
ATOM     35  C   UNL A   1      42.989  32.076  29.635  1.00  0.00     0.074 A 
ATOM     36  C   UNL A   1      42.192  33.003  30.416  1.00  0.00     0.031 C 
ATOM     37  C   UNL A   1      44.222  32.351  29.142  1.00  0.00     0.034 A 
BRANCH  24  38
ATOM     38  C   UNL A   1      46.935  27.641  26.161  1.00  0.00     0.023 A 
ATOM     39  C   UNL A   1      47.054  27.793  24.763  1.00  0.00     0.012 A 
ATOM     40  C   UNL A   1      47.928  26.941  26.869  1.00  0.00     0.148 A 
ATOM     41  C   UNL A   1      48.121  27.218  24.076  1.00  0.00     0.002 A 
ATOM     42  C   UNL A   1      49.009  26.405  26.182  1.00  0.00     0.091 A 
ATOM     43  F   UNL A   1      47.777  26.783  28.192  1.00  0.00    -0.205 F 
ATOM     44  C   UNL A   1      49.101  26.530  24.786  1.00  0.00     0.022 A 
BRANCH  42  45
ATOM     45  S   UNL A   1      50.347  25.543  27.011  1.00  0.00     0.127 S 
ATOM     46  O   UNL A   1      51.258  25.276  25.900  1.00  0.00    -0.237 OA
ATOM     47  O   UNL A   1      50.818  26.552  27.960  1.00  0.00    -0.237 OA
ATOM     48  O   UNL A   1      49.750  24.365  27.623  1.00  0.00    -0.744 OA
ENDBRANCH  42  45
ENDBRANCH  24  38
BRANCH  25  49
ATOM     49  C   UNL A   1      38.687  30.685  31.008  1.00  0.00     0.023 A 
ATOM     50  C   UNL A   1      38.568  30.397  32.381  1.00  0.00     0.012 A 
ATOM     51  C   UNL A   1      37.647  31.388  30.364  1.00  0.00     0.148 A 
ATOM     52  C   UNL A   1      37.424  30.768  33.091  1.00  0.00     0.002 A 
ATOM     53  C   UNL A   1      36.525  31.788  31.085  1.00  0.00     0.091 A 
ATOM     54  F   UNL A   1      37.772  31.646  29.054  1.00  0.00    -0.205 F 
ATOM     55  C   UNL A   1      36.407  31.468  32.446  1.00  0.00     0.022 A 
BRANCH  53  56
ATOM     56  S   UNL A   1      35.200  32.757  30.354  1.00  0.00     0.127 S 
ATOM     57  O   UNL A   1      34.744  31.875  29.282  1.00  0.00    -0.237 OA
ATOM     58  O   UNL A   1      34.267  32.896  31.471  1.00  0.00    -0.237 OA
ATOM     59  O   UNL A   1      35.817  34.004  29.925  1.00  0.00    -0.744 OA
ENDBRANCH  53  56
ENDBRANCH  25  49
BRANCH  37  60
ATOM     60  C   UNL A   1      44.775  33.725  29.402  1.00  0.00     0.023 A 
ATOM     61  C   UNL A   1      45.469  33.988  30.598  1.00  0.00     0.012 A 
ATOM     62  C   UNL A   1      44.680  34.726  28.416  1.00  0.00     0.148 A 
ATOM     63  C   UNL A   1      46.039  35.241  30.820  1.00  0.00     0.002 A 
ATOM     64  C   UNL A   1      45.298  35.952  28.621  1.00  0.00     0.091 A 
ATOM     65  F   UNL A   1      43.994  34.458  27.295  1.00  0.00    -0.205 F 
ATOM     66  C   UNL A   1      45.967  36.215  29.827  1.00  0.00     0.022 A 
BRANCH  64  67
ATOM     67  S   UNL A   1      45.348  37.224  27.354  1.00  0.00     0.127 S 
ATOM     68  O   UNL A   1      43.926  37.456  27.110  1.00  0.00    -0.237 OA
ATOM     69  O   UNL A   1      46.036  38.318  28.042  1.00  0.00    -0.237 OA
ATOM     70  O   UNL A   1      46.090  36.651  26.239  1.00  0.00    -0.744 OA
ENDBRANCH  64  67
ENDBRANCH  37  60
ENDBRANCH  11  12
ENDBRANCH   4   6
ENDBRANCH   3   4
ENDBRANCH   2   3
ENDBRANCH   1   2
BRANCH   1  71
ATOM     71  O   UNL A   1      35.867  23.258  24.729  1.00  0.00    -0.458 OA
BRANCH  71  72
ATOM     72  C   UNL A   1      34.928  23.757  23.895  1.00  0.00     0.339 C 
ATOM     73  O   UNL A   1      35.032  23.949  22.696  1.00  0.00    -0.246 OA
BRANCH  72  74
ATOM     74  C   UNL A   1      33.667  23.907  24.636  1.00  0.00     0.074 A 
ATOM     75  C   UNL A   1      33.561  25.033  25.472  1.00  0.00     0.016 A 
ATOM     76  C   UNL A   1      32.625  22.977  24.583  1.00  0.00     0.074 A 
ATOM     77  C   UNL A   1      32.409  25.244  26.234  1.00  0.00     0.001 A 
ATOM     78  C   UNL A   1      31.495  23.179  25.399  1.00  0.00     0.016 A 
ATOM     79  C   UNL A   1      31.378  24.311  26.203  1.00  0.00     0.001 A 
BRANCH  76  80
ATOM     80  C   UNL A   1      32.570  21.789  23.698  1.00  0.00     0.339 C 
ATOM     81  O   UNL A   1      31.982  21.809  22.629  1.00  0.00    -0.246 OA
BRANCH  80  82
ATOM     82  O   UNL A   1      33.383  20.787  24.122  1.00  0.00    -0.462 OA
BRANCH  82  83
ATOM     83  C   UNL A   1      32.964  20.089  25.313  1.00  0.00     0.237 C 
BRANCH  83  84
ATOM     84  C   UNL A   1      33.401  18.631  25.275  1.00  0.00     0.030 C 
ATOM     85  C   UNL A   1      34.677  18.331  24.468  1.00  0.00     0.011 C 
ATOM     86  C   UNL A   1      32.355  17.683  24.634  1.00  0.00    -0.004 C 
ATOM     87  C   UNL A   1      34.292  17.018  23.764  1.00  0.00    -0.010 C 
ATOM     88  C   UNL A   1      32.553  16.315  25.302  1.00  0.00     0.004 C 
ATOM     89  C   UNL A   1      32.910  17.398  23.239  1.00  0.00     0.007 C 
ATOM     90  C   UNL A   1      33.961  15.928  24.814  1.00  0.00     0.004 C 
ENDBRANCH  83  84
ENDBRANCH  82  83
ENDBRANCH  80  82
ENDBRANCH  76  80
ENDBRANCH  72  74
ENDBRANCH  71  72
ENDBRANCH   1  71
TORSDOF 18
ENDMDL
MODEL 3
REMARK VINA RESULT:     -11.6      1.253      3.019
REMARK SMILES O=C(OCCOC(=O)c1ccccc1C(=O)OC[C@@H]1C[C@H]2CC[C@@H]1C2)c1ccc(-c2c3nc(c(-c4cccc(S(=O)(=O)[O-])c4F)c4ccc([nH]4)c(-c4cccc(S(=O)(=O)[O-])c4F)c4nc(c(-c5cccc(S(=O)(=O)[O-])c5F)c5ccc2[nH]5)C=C4)C=C3)cc1
REMARK SMILES IDX 5 1 4 2 3 3 2 4 1 5 26 6 27 7 88 8 28 9 87 10 29 11 30 12
REMARK SMILES IDX 31 13 81 14 32 15 86 16 80 17 82 18 33 19 85 20 79 21 78 22
REMARK SMILES IDX 34 24 66 25 46 26 65 27 47 28 50 29 64 30 83 31 48 32 49 33
REMARK SMILES IDX 63 35 84 36 51 37 35 38 36 39 44 40 37 41 39 42 45 43 38 44
REMARK SMILES IDX 40 45 41 46 42 47 43 48 67 49 68 50 76 51 69 52 71 53 77 54
REMARK SMILES IDX 70 55 72 56 73 57 74 58 75 59 52 60 53 61 61 62 54 63 56 64
REMARK SMILES IDX 62 65 55 66 57 67 58 68 59 69 60 70 6 71 7 72 8 73 9 74
REMARK SMILES IDX 10 75 14 76 11 77 13 78 12 79 15 80 16 81 17 82 18 83 19 84
REMARK SMILES IDX 20 85 24 86 21 87 23 88 25 89 22 90
REMARK H PARENT 82 23 50 34
REMARK Flexibility Score: inf
ROOT
ATOM      1  C   UNL A   1      32.583  31.005  26.673  1.00  0.00     0.275 C 
ENDROOT
BRANCH   1   2
ATOM      2  C   UNL A   1      31.804  32.263  27.046  1.00  0.00     0.275 C 
BRANCH   2   3
ATOM      3  O   UNL A   1      32.614  33.452  27.102  1.00  0.00    -0.458 OA
BRANCH   3   4
ATOM      4  C   UNL A   1      33.463  33.904  28.059  1.00  0.00     0.338 C 
ATOM      5  O   UNL A   1      33.315  35.064  28.444  1.00  0.00    -0.246 OA
BRANCH   4   6
ATOM      6  C   UNL A   1      34.586  33.111  28.670  1.00  0.00     0.060 A 
ATOM      7  C   UNL A   1      34.456  32.032  29.551  1.00  0.00     0.016 A 
ATOM      8  C   UNL A   1      35.892  33.505  28.319  1.00  0.00     0.016 A 
ATOM      9  C   UNL A   1      35.577  31.341  30.028  1.00  0.00     0.010 A 
ATOM     10  C   UNL A   1      37.018  32.819  28.793  1.00  0.00     0.010 A 
ATOM     11  C   UNL A   1      36.863  31.737  29.663  1.00  0.00    -0.014 A 
BRANCH  11  12
ATOM     12  C   UNL A   1      38.038  31.108  30.308  1.00  0.00     0.031 A 
ATOM     13  C   UNL A   1      38.408  31.538  31.690  1.00  0.00     0.074 A 
ATOM     14  C   UNL A   1      38.748  30.148  29.687  1.00  0.00     0.049 A 
ATOM     15  N   UNL A   1      39.344  31.068  32.466  1.00  0.00    -0.248 NA
ATOM     16  C   UNL A   1      37.595  32.608  32.291  1.00  0.00     0.031 C 
ATOM     17  C   UNL A   1      38.421  29.609  28.379  1.00  0.00     0.029 A 
ATOM     18  N   UNL A   1      39.885  29.471  30.042  1.00  0.00    -0.354 N 
ATOM     19  C   UNL A   1      39.225  31.769  33.654  1.00  0.00     0.074 A 
ATOM     20  C   UNL A   1      38.153  32.725  33.485  1.00  0.00     0.031 C 
ATOM     21  C   UNL A   1      39.376  28.752  27.986  1.00  0.00     0.029 A 
ATOM     22  C   UNL A   1      40.373  28.659  29.041  1.00  0.00     0.049 A 
ATOM     23  H   UNL A   1      40.310  29.557  30.925  1.00  0.00     0.167 HD
ATOM     24  C   UNL A   1      39.929  31.602  34.794  1.00  0.00     0.034 A 
ATOM     25  C   UNL A   1      41.500  27.923  28.987  1.00  0.00     0.034 A 
ATOM     26  C   UNL A   1      41.014  30.672  34.930  1.00  0.00     0.049 A 
ATOM     27  C   UNL A   1      42.334  27.833  30.234  1.00  0.00     0.074 A 
ATOM     28  C   UNL A   1      41.798  30.419  36.039  1.00  0.00     0.029 A 
ATOM     29  N   UNL A   1      41.490  29.864  33.907  1.00  0.00    -0.354 N 
ATOM     30  N   UNL A   1      42.128  28.405  31.397  1.00  0.00    -0.248 NA
ATOM     31  C   UNL A   1      43.507  26.951  30.194  1.00  0.00     0.031 C 
ATOM     32  C   UNL A   1      42.774  29.485  35.674  1.00  0.00     0.029 A 
ATOM     33  C   UNL A   1      42.575  29.129  34.348  1.00  0.00     0.049 A 
ATOM     34  H   UNL A   1      41.112  29.821  32.999  1.00  0.00     0.167 HD
ATOM     35  C   UNL A   1      43.111  27.912  32.243  1.00  0.00     0.074 A 
ATOM     36  C   UNL A   1      43.912  26.992  31.457  1.00  0.00     0.031 C 
ATOM     37  C   UNL A   1      43.329  28.192  33.552  1.00  0.00     0.034 A 
BRANCH  24  38
ATOM     38  C   UNL A   1      39.530  32.459  35.961  1.00  0.00     0.023 A 
ATOM     39  C   UNL A   1      40.161  33.706  36.159  1.00  0.00     0.012 A 
ATOM     40  C   UNL A   1      38.562  32.018  36.878  1.00  0.00     0.148 A 
ATOM     41  C   UNL A   1      39.862  34.480  37.279  1.00  0.00     0.002 A 
ATOM     42  C   UNL A   1      38.241  32.813  37.971  1.00  0.00     0.091 A 
ATOM     43  F   UNL A   1      38.000  30.816  36.685  1.00  0.00    -0.205 F 
ATOM     44  C   UNL A   1      38.899  34.037  38.180  1.00  0.00     0.022 A 
BRANCH  42  45
ATOM     45  S   UNL A   1      36.980  32.353  39.162  1.00  0.00     0.127 S 
ATOM     46  O   UNL A   1      37.258  30.931  39.350  1.00  0.00    -0.237 OA
ATOM     47  O   UNL A   1      37.320  33.199  40.307  1.00  0.00    -0.237 OA
ATOM     48  O   UNL A   1      35.703  32.662  38.536  1.00  0.00    -0.744 OA
ENDBRANCH  42  45
ENDBRANCH  24  38
BRANCH  25  49
ATOM     49  C   UNL A   1      41.856  27.170  27.750  1.00  0.00     0.023 A 
ATOM     50  C   UNL A   1      42.361  27.857  26.629  1.00  0.00     0.012 A 
ATOM     51  C   UNL A   1      41.705  25.769  27.682  1.00  0.00     0.148 A 
ATOM     52  C   UNL A   1      42.677  27.170  25.455  1.00  0.00     0.002 A 
ATOM     53  C   UNL A   1      42.056  25.086  26.521  1.00  0.00     0.091 A 
ATOM     54  F   UNL A   1      41.213  25.131  28.754  1.00  0.00    -0.205 F 
ATOM     55  C   UNL A   1      42.530  25.786  25.402  1.00  0.00     0.022 A 
BRANCH  53  56
ATOM     56  S   UNL A   1      41.969  23.295  26.390  1.00  0.00     0.127 S 
ATOM     57  O   UNL A   1      42.624  23.060  25.105  1.00  0.00    -0.237 OA
ATOM     58  O   UNL A   1      42.736  22.863  27.557  1.00  0.00    -0.237 OA
ATOM     59  O   UNL A   1      40.551  22.966  26.445  1.00  0.00    -0.744 OA
ENDBRANCH  53  56
ENDBRANCH  25  49
BRANCH  37  60
ATOM     60  C   UNL A   1      44.461  27.470  34.231  1.00  0.00     0.023 A 
ATOM     61  C   UNL A   1      45.756  28.021  34.216  1.00  0.00     0.012 A 
ATOM     62  C   UNL A   1      44.214  26.289  34.958  1.00  0.00     0.148 A 
ATOM     63  C   UNL A   1      46.797  27.391  34.895  1.00  0.00     0.002 A 
ATOM     64  C   UNL A   1      45.244  25.699  35.677  1.00  0.00     0.091 A 
ATOM     65  F   UNL A   1      42.977  25.771  34.938  1.00  0.00    -0.205 F 
ATOM     66  C   UNL A   1      46.538  26.241  35.636  1.00  0.00     0.022 A 
BRANCH  64  67
ATOM     67  S   UNL A   1      44.976  24.279  36.744  1.00  0.00     0.127 S 
ATOM     68  O   UNL A   1      46.322  24.039  37.264  1.00  0.00    -0.237 OA
ATOM     69  O   UNL A   1      44.027  24.806  37.726  1.00  0.00    -0.237 OA
ATOM     70  O   UNL A   1      44.438  23.229  35.890  1.00  0.00    -0.744 OA
ENDBRANCH  64  67
ENDBRANCH  37  60
ENDBRANCH  11  12
ENDBRANCH   4   6
ENDBRANCH   3   4
ENDBRANCH   2   3
ENDBRANCH   1   2
BRANCH   1  71
ATOM     71  O   UNL A   1      31.698  30.004  26.161  1.00  0.00    -0.458 OA
BRANCH  71  72
ATOM     72  C   UNL A   1      32.089  29.353  25.043  1.00  0.00     0.339 C 
ATOM     73  O   UNL A   1      33.172  29.423  24.489  1.00  0.00    -0.246 OA
BRANCH  72  74
ATOM     74  C   UNL A   1      31.036  28.403  24.654  1.00  0.00     0.074 A 
ATOM     75  C   UNL A   1      30.229  28.774  23.565  1.00  0.00     0.016 A 
ATOM     76  C   UNL A   1      30.784  27.209  25.336  1.00  0.00     0.074 A 
ATOM     77  C   UNL A   1      29.186  27.945  23.141  1.00  0.00     0.001 A 
ATOM     78  C   UNL A   1      29.695  26.414  24.928  1.00  0.00     0.016 A 
ATOM     79  C   UNL A   1      28.915  26.767  23.829  1.00  0.00     0.001 A 
BRANCH  76  80
ATOM     80  C   UNL A   1      31.593  26.661  26.450  1.00  0.00     0.339 C 
ATOM     81  O   UNL A   1      31.571  27.155  27.566  1.00  0.00    -0.246 OA
BRANCH  80  82
ATOM     82  O   UNL A   1      32.182  25.480  26.132  1.00  0.00    -0.462 OA
BRANCH  82  83
ATOM     83  C   UNL A   1      33.495  25.563  25.539  1.00  0.00     0.237 C 
BRANCH  83  84
ATOM     84  C   UNL A   1      33.602  24.664  24.315  1.00  0.00     0.030 C 
ATOM     85  C   UNL A   1      33.903  25.373  22.983  1.00  0.00     0.011 C 
ATOM     86  C   UNL A   1      32.301  23.879  24.004  1.00  0.00    -0.004 C 
ATOM     87  C   UNL A   1      32.982  24.609  22.015  1.00  0.00    -0.010 C 
ATOM     88  C   UNL A   1      32.743  22.578  23.319  1.00  0.00     0.004 C 
ATOM     89  C   UNL A   1      31.686  24.625  22.821  1.00  0.00     0.007 C 
ATOM     90  C   UNL A   1      33.350  23.104  22.006  1.00  0.00     0.004 C 
ENDBRANCH  83  84
ENDBRANCH  82  83
ENDBRANCH  80  82
ENDBRANCH  76  80
ENDBRANCH  72  74
ENDBRANCH  71  72
ENDBRANCH   1  71
TORSDOF 18
ENDMDL
