MODEL 1
REMARK VINA RESULT:     -12.2      0.000      0.000
REMARK SMILES CCC[C@@H]1CCc2nc3c(F)cccc3c(C(=O)OCCOC(=O)c3ccc(-c4c5nc(c(-c6cccc(S(=O)(=O)[O-])c6F)c6ccc([nH]6)c(-c6cccc(S(=O)(=O)[O-])c6F)c6nc(c(-c7cccc(S(=O)(=O)[O-])c7F)c7ccc4[nH]7)C=C6)C=C5)cc3)c2C1
REMARK SMILES IDX 21 1 20 2 19 3 17 4 18 5 16 6 4 7 5 8 89 9 6 10 88 11 7 12
REMARK SMILES IDX 8 13 15 14 9 15 14 16 10 17 13 18 11 19 12 20 3 21 2 22 1 23
REMARK SMILES IDX 22 24 23 25 24 26 25 27 26 28 87 29 27 30 86 31 28 32 29 33
REMARK SMILES IDX 30 34 80 35 31 36 85 37 79 38 81 39 32 40 84 41 78 42 77 43
REMARK SMILES IDX 33 45 65 46 45 47 64 48 46 49 49 50 63 51 82 52 47 53 48 54
REMARK SMILES IDX 62 56 83 57 50 58 34 59 35 60 43 61 36 62 38 63 44 64 37 65
REMARK SMILES IDX 39 66 40 67 41 68 42 69 66 70 67 71 75 72 68 73 70 74 76 75
REMARK SMILES IDX 69 76 71 77 72 78 73 79 74 80 51 81 52 82 60 83 53 84 55 85
REMARK SMILES IDX 61 86 54 87 56 88 57 89 58 90 59 91
REMARK H PARENT 81 44 49 55
REMARK Flexibility Score: inf
ROOT
ATOM      1  C   UNL A   1      32.300  30.420  26.014  1.00  0.00     0.275 C 
ENDROOT
BRANCH   1   2
ATOM      2  C   UNL A   1      33.092  29.293  25.346  1.00  0.00     0.275 C 
BRANCH   2   3
ATOM      3  O   UNL A   1      32.946  29.336  23.908  1.00  0.00    -0.458 OA
BRANCH   3   4
ATOM      4  C   UNL A   1      33.007  28.137  23.264  1.00  0.00     0.339 C 
ATOM      5  O   UNL A   1      33.772  27.838  22.365  1.00  0.00    -0.246 OA
BRANCH   4   6
ATOM      6  C   UNL A   1      31.974  27.207  23.798  1.00  0.00     0.074 A 
ATOM      7  C   UNL A   1      28.670  28.752  22.464  1.00  0.00    -0.006 C 
ATOM      8  C   UNL A   1      27.743  28.104  23.499  1.00  0.00     0.010 C 
ATOM      9  C   UNL A   1      30.101  28.805  23.028  1.00  0.00     0.042 C 
ATOM     10  C   UNL A   1      28.212  26.699  23.849  1.00  0.00     0.057 C 
ATOM     11  C   UNL A   1      30.604  27.500  23.608  1.00  0.00    -0.011 A 
ATOM     12  C   UNL A   1      29.689  26.587  24.117  1.00  0.00     0.045 A 
ATOM     13  N   UNL A   1      30.058  25.503  24.832  1.00  0.00    -0.249 NA
ATOM     14  C   UNL A   1      32.383  26.092  24.587  1.00  0.00     0.018 A 
ATOM     15  C   UNL A   1      31.354  25.280  25.101  1.00  0.00     0.107 A 
ATOM     16  C   UNL A   1      33.726  25.773  24.939  1.00  0.00     0.011 A 
ATOM     17  C   UNL A   1      31.694  24.223  25.946  1.00  0.00     0.149 A 
ATOM     18  C   UNL A   1      34.035  24.704  25.783  1.00  0.00     0.004 A 
ATOM     19  F   UNL A   1      30.728  23.457  26.480  1.00  0.00    -0.205 F 
ATOM     20  C   UNL A   1      33.009  23.931  26.296  1.00  0.00     0.041 A 
BRANCH   7  21
ATOM     21  C   UNL A   1      28.056  30.090  21.960  1.00  0.00     0.003 C 
BRANCH  21  22
ATOM     22  C   UNL A   1      28.819  31.417  22.044  1.00  0.00    -0.003 C 
ATOM     23  C   UNL A   1      28.520  32.364  23.196  1.00  0.00     0.004 C 
ENDBRANCH  21  22
ENDBRANCH   7  21
ENDBRANCH   4   6
ENDBRANCH   3   4
ENDBRANCH   2   3
ENDBRANCH   1   2
BRANCH   1  24
ATOM     24  O   UNL A   1      32.832  30.662  27.329  1.00  0.00    -0.458 OA
BRANCH  24  25
ATOM     25  C   UNL A   1      33.485  31.837  27.498  1.00  0.00     0.338 C 
ATOM     26  O   UNL A   1      33.025  32.960  27.433  1.00  0.00    -0.246 OA
BRANCH  25  27
ATOM     27  C   UNL A   1      34.809  31.517  28.058  1.00  0.00     0.060 A 
ATOM     28  C   UNL A   1      34.944  30.234  28.559  1.00  0.00     0.016 A 
ATOM     29  C   UNL A   1      35.877  32.413  28.135  1.00  0.00     0.016 A 
ATOM     30  C   UNL A   1      36.155  29.838  29.112  1.00  0.00     0.010 A 
ATOM     31  C   UNL A   1      37.099  32.001  28.719  1.00  0.00     0.010 A 
ATOM     32  C   UNL A   1      37.250  30.698  29.212  1.00  0.00    -0.014 A 
BRANCH  32  33
ATOM     33  C   UNL A   1      38.424  30.209  29.998  1.00  0.00     0.031 A 
ATOM     34  C   UNL A   1      39.418  29.297  29.325  1.00  0.00     0.074 A 
ATOM     35  C   UNL A   1      38.763  30.716  31.202  1.00  0.00     0.049 A 
ATOM     36  N   UNL A   1      40.495  28.744  29.818  1.00  0.00    -0.248 NA
ATOM     37  C   UNL A   1      39.186  29.004  27.901  1.00  0.00     0.031 C 
ATOM     38  C   UNL A   1      38.033  31.754  31.922  1.00  0.00     0.029 A 
ATOM     39  N   UNL A   1      39.852  30.457  32.010  1.00  0.00    -0.354 N 
ATOM     40  C   UNL A   1      41.030  27.980  28.791  1.00  0.00     0.074 A 
ATOM     41  C   UNL A   1      40.201  28.198  27.625  1.00  0.00     0.031 C 
ATOM     42  C   UNL A   1      38.712  32.074  33.039  1.00  0.00     0.029 A 
ATOM     43  C   UNL A   1      39.889  31.210  33.163  1.00  0.00     0.049 A 
ATOM     44  H   UNL A   1      40.542  29.792  31.782  1.00  0.00     0.167 HD
ATOM     45  C   UNL A   1      42.095  27.148  28.818  1.00  0.00     0.034 A 
ATOM     46  C   UNL A   1      40.742  31.189  34.212  1.00  0.00     0.034 A 
ATOM     47  C   UNL A   1      42.958  26.935  29.947  1.00  0.00     0.049 A 
ATOM     48  C   UNL A   1      41.868  30.184  34.264  1.00  0.00     0.074 A 
ATOM     49  C   UNL A   1      44.003  26.034  30.062  1.00  0.00     0.029 A 
ATOM     50  N   UNL A   1      42.892  27.627  31.141  1.00  0.00    -0.354 N 
ATOM     51  N   UNL A   1      42.300  29.379  33.326  1.00  0.00    -0.248 NA
ATOM     52  C   UNL A   1      42.611  30.066  35.533  1.00  0.00     0.031 C 
ATOM     53  C   UNL A   1      44.560  26.168  31.336  1.00  0.00     0.029 A 
ATOM     54  C   UNL A   1      43.875  27.170  32.002  1.00  0.00     0.049 A 
ATOM     55  H   UNL A   1      42.243  28.337  31.348  1.00  0.00     0.167 HD
ATOM     56  C   UNL A   1      43.352  28.660  33.889  1.00  0.00     0.074 A 
ATOM     57  C   UNL A   1      43.521  29.144  35.241  1.00  0.00     0.031 C 
ATOM     58  C   UNL A   1      44.088  27.668  33.333  1.00  0.00     0.034 A 
BRANCH  45  59
ATOM     59  C   UNL A   1      42.364  26.326  27.595  1.00  0.00     0.023 A 
ATOM     60  C   UNL A   1      43.153  26.843  26.552  1.00  0.00     0.012 A 
ATOM     61  C   UNL A   1      41.922  24.990  27.550  1.00  0.00     0.148 A 
ATOM     62  C   UNL A   1      43.502  26.031  25.474  1.00  0.00     0.002 A 
ATOM     63  C   UNL A   1      42.301  24.180  26.492  1.00  0.00     0.091 A 
ATOM     64  F   UNL A   1      41.157  24.539  28.555  1.00  0.00    -0.205 F 
ATOM     65  C   UNL A   1      43.090  24.699  25.451  1.00  0.00     0.022 A 
BRANCH  63  66
ATOM     66  S   UNL A   1      41.871  22.440  26.407  1.00  0.00     0.127 S 
ATOM     67  O   UNL A   1      40.412  22.502  26.329  1.00  0.00    -0.237 OA
ATOM     68  O   UNL A   1      42.533  22.021  25.172  1.00  0.00    -0.237 OA
ATOM     69  O   UNL A   1      42.398  21.832  27.621  1.00  0.00    -0.744 OA
ENDBRANCH  63  66
ENDBRANCH  45  59
BRANCH  46  70
ATOM     70  C   UNL A   1      40.547  32.129  35.358  1.00  0.00     0.023 A 
ATOM     71  C   UNL A   1      41.435  33.209  35.539  1.00  0.00     0.012 A 
ATOM     72  C   UNL A   1      39.493  31.947  36.274  1.00  0.00     0.148 A 
ATOM     73  C   UNL A   1      41.273  34.089  36.614  1.00  0.00     0.002 A 
ATOM     74  C   UNL A   1      39.304  32.858  37.305  1.00  0.00     0.091 A 
ATOM     75  F   UNL A   1      38.690  30.887  36.110  1.00  0.00    -0.205 F 
ATOM     76  C   UNL A   1      40.200  33.923  37.486  1.00  0.00     0.022 A 
BRANCH  74  77
ATOM     77  S   UNL A   1      37.887  32.784  38.405  1.00  0.00     0.127 S 
ATOM     78  O   UNL A   1      38.160  33.890  39.321  1.00  0.00    -0.237 OA
ATOM     79  O   UNL A   1      36.779  33.011  37.475  1.00  0.00    -0.237 OA
ATOM     80  O   UNL A   1      37.914  31.456  39.000  1.00  0.00    -0.744 OA
ENDBRANCH  74  77
ENDBRANCH  46  70
BRANCH  58  81
ATOM     81  C   UNL A   1      45.162  27.000  34.152  1.00  0.00     0.023 A 
ATOM     82  C   UNL A   1      46.452  27.564  34.192  1.00  0.00     0.012 A 
ATOM     83  C   UNL A   1      44.855  25.917  35.002  1.00  0.00     0.148 A 
ATOM     84  C   UNL A   1      47.421  27.062  35.062  1.00  0.00     0.002 A 
ATOM     85  C   UNL A   1      45.816  25.441  35.888  1.00  0.00     0.091 A 
ATOM     86  F   UNL A   1      43.620  25.397  34.950  1.00  0.00    -0.205 F 
ATOM     87  C   UNL A   1      47.099  26.010  35.918  1.00  0.00     0.022 A 
BRANCH  85  88
ATOM     88  S   UNL A   1      45.483  24.134  37.078  1.00  0.00     0.127 S 
ATOM     89  O   UNL A   1      44.245  24.605  37.698  1.00  0.00    -0.237 OA
ATOM     90  O   UNL A   1      45.325  22.964  36.214  1.00  0.00    -0.237 OA
ATOM     91  O   UNL A   1      46.638  24.089  37.965  1.00  0.00    -0.744 OA
ENDBRANCH  85  88
ENDBRANCH  58  81
ENDBRANCH  32  33
ENDBRANCH  25  27
ENDBRANCH  24  25
ENDBRANCH   1  24
TORSDOF 16
ENDMDL
MODEL 2
REMARK VINA RESULT:     -12.2      1.077      3.026
REMARK SMILES CCC[C@@H]1CCc2nc3c(F)cccc3c(C(=O)OCCOC(=O)c3ccc(-c4c5nc(c(-c6cccc(S(=O)(=O)[O-])c6F)c6ccc([nH]6)c(-c6cccc(S(=O)(=O)[O-])c6F)c6nc(c(-c7cccc(S(=O)(=O)[O-])c7F)c7ccc4[nH]7)C=C6)C=C5)cc3)c2C1
REMARK SMILES IDX 21 1 20 2 19 3 17 4 18 5 16 6 4 7 5 8 89 9 6 10 88 11 7 12
REMARK SMILES IDX 8 13 15 14 9 15 14 16 10 17 13 18 11 19 12 20 3 21 2 22 1 23
REMARK SMILES IDX 22 24 23 25 24 26 25 27 26 28 87 29 27 30 86 31 28 32 29 33
REMARK SMILES IDX 30 34 80 35 31 36 85 37 79 38 81 39 32 40 84 41 78 42 77 43
REMARK SMILES IDX 33 45 65 46 45 47 64 48 46 49 49 50 63 51 82 52 47 53 48 54
REMARK SMILES IDX 62 56 83 57 50 58 34 59 35 60 43 61 36 62 38 63 44 64 37 65
REMARK SMILES IDX 39 66 40 67 41 68 42 69 66 70 67 71 75 72 68 73 70 74 76 75
REMARK SMILES IDX 69 76 71 77 72 78 73 79 74 80 51 81 52 82 60 83 53 84 55 85
REMARK SMILES IDX 61 86 54 87 56 88 57 89 58 90 59 91
REMARK H PARENT 81 44 49 55
REMARK Flexibility Score: inf
ROOT
ATOM      1  C   UNL A   1      32.682  29.730  25.018  1.00  0.00     0.275 C 
ENDROOT
BRANCH   1   2
ATOM      2  C   UNL A   1      33.583  28.602  24.504  1.00  0.00     0.275 C 
BRANCH   2   3
ATOM      3  O   UNL A   1      33.694  28.641  23.063  1.00  0.00    -0.458 OA
BRANCH   3   4
ATOM      4  C   UNL A   1      33.223  27.550  22.398  1.00  0.00     0.339 C 
ATOM      5  O   UNL A   1      33.717  27.036  21.411  1.00  0.00    -0.246 OA
BRANCH   4   6
ATOM      6  C   UNL A   1      31.972  27.052  23.035  1.00  0.00     0.074 A 
ATOM      7  C   UNL A   1      33.130  23.744  24.709  1.00  0.00    -0.006 C 
ATOM      8  C   UNL A   1      31.743  23.097  24.797  1.00  0.00     0.010 C 
ATOM      9  C   UNL A   1      33.121  24.813  23.602  1.00  0.00     0.042 C 
ATOM     10  C   UNL A   1      30.671  24.138  25.091  1.00  0.00     0.057 C 
ATOM     11  C   UNL A   1      31.965  25.788  23.668  1.00  0.00    -0.011 A 
ATOM     12  C   UNL A   1      30.772  25.385  24.255  1.00  0.00     0.045 A 
ATOM     13  N   UNL A   1      29.636  26.109  24.173  1.00  0.00    -0.249 NA
ATOM     14  C   UNL A   1      30.773  27.811  22.899  1.00  0.00     0.018 A 
ATOM     15  C   UNL A   1      29.616  27.260  23.483  1.00  0.00     0.107 A 
ATOM     16  C   UNL A   1      30.642  29.035  22.181  1.00  0.00     0.011 A 
ATOM     17  C   UNL A   1      28.399  27.922  23.311  1.00  0.00     0.149 A 
ATOM     18  C   UNL A   1      29.411  29.676  22.032  1.00  0.00     0.004 A 
ATOM     19  F   UNL A   1      27.274  27.396  23.826  1.00  0.00    -0.205 F 
ATOM     20  C   UNL A   1      28.281  29.109  22.594  1.00  0.00     0.041 A 
BRANCH   7  21
ATOM     21  C   UNL A   1      34.228  22.645  24.626  1.00  0.00     0.003 C 
BRANCH  21  22
ATOM     22  C   UNL A   1      35.558  22.766  25.380  1.00  0.00    -0.003 C 
ATOM     23  C   UNL A   1      36.255  24.117  25.427  1.00  0.00     0.004 C 
ENDBRANCH  21  22
ENDBRANCH   7  21
ENDBRANCH   4   6
ENDBRANCH   3   4
ENDBRANCH   2   3
ENDBRANCH   1   2
BRANCH   1  24
ATOM     24  O   UNL A   1      32.794  29.814  26.450  1.00  0.00    -0.458 OA
BRANCH  24  25
ATOM     25  C   UNL A   1      33.151  31.022  26.948  1.00  0.00     0.338 C 
ATOM     26  O   UNL A   1      32.457  32.014  27.062  1.00  0.00    -0.246 OA
BRANCH  25  27
ATOM     27  C   UNL A   1      34.462  30.851  27.595  1.00  0.00     0.060 A 
ATOM     28  C   UNL A   1      34.788  29.549  27.934  1.00  0.00     0.016 A 
ATOM     29  C   UNL A   1      35.339  31.893  27.901  1.00  0.00     0.016 A 
ATOM     30  C   UNL A   1      36.003  29.286  28.553  1.00  0.00     0.010 A 
ATOM     31  C   UNL A   1      36.565  31.612  28.550  1.00  0.00     0.010 A 
ATOM     32  C   UNL A   1      36.912  30.294  28.879  1.00  0.00    -0.014 A 
BRANCH  32  33
ATOM     33  C   UNL A   1      38.089  29.900  29.712  1.00  0.00     0.031 A 
ATOM     34  C   UNL A   1      39.191  29.094  29.074  1.00  0.00     0.074 A 
ATOM     35  C   UNL A   1      38.327  30.415  30.937  1.00  0.00     0.049 A 
ATOM     36  N   UNL A   1      40.292  28.632  29.608  1.00  0.00    -0.248 NA
ATOM     37  C   UNL A   1      39.052  28.807  27.637  1.00  0.00     0.031 C 
ATOM     38  C   UNL A   1      37.473  31.369  31.637  1.00  0.00     0.029 A 
ATOM     39  N   UNL A   1      39.397  30.240  31.791  1.00  0.00    -0.354 N 
ATOM     40  C   UNL A   1      40.939  27.938  28.597  1.00  0.00     0.074 A 
ATOM     41  C   UNL A   1      40.147  28.100  27.397  1.00  0.00     0.031 C 
ATOM     42  C   UNL A   1      38.070  31.729  32.788  1.00  0.00     0.029 A 
ATOM     43  C   UNL A   1      39.314  30.973  32.955  1.00  0.00     0.049 A 
ATOM     44  H   UNL A   1      40.154  29.645  31.587  1.00  0.00     0.167 HD
ATOM     45  C   UNL A   1      42.073  27.205  28.662  1.00  0.00     0.034 A 
ATOM     46  C   UNL A   1      40.117  31.011  34.042  1.00  0.00     0.034 A 
ATOM     47  C   UNL A   1      42.900  27.051  29.826  1.00  0.00     0.049 A 
ATOM     48  C   UNL A   1      41.327  30.111  34.132  1.00  0.00     0.074 A 
ATOM     49  C   UNL A   1      44.017  26.246  29.978  1.00  0.00     0.029 A 
ATOM     50  N   UNL A   1      42.718  27.713  31.025  1.00  0.00    -0.354 N 
ATOM     51  N   UNL A   1      41.871  29.366  33.204  1.00  0.00    -0.248 NA
ATOM     52  C   UNL A   1      42.019  30.038  35.433  1.00  0.00     0.031 C 
ATOM     53  C   UNL A   1      44.502  26.408  31.278  1.00  0.00     0.029 A 
ATOM     54  C   UNL A   1      43.700  27.332  31.924  1.00  0.00     0.049 A 
ATOM     55  H   UNL A   1      41.998  28.358  31.212  1.00  0.00     0.167 HD
ATOM     56  C   UNL A   1      42.959  28.735  33.806  1.00  0.00     0.074 A 
ATOM     57  C   UNL A   1      43.022  29.208  35.170  1.00  0.00     0.031 C 
ATOM     58  C   UNL A   1      43.807  27.824  33.271  1.00  0.00     0.034 A 
BRANCH  45  59
ATOM     59  C   UNL A   1      42.471  26.433  27.442  1.00  0.00     0.023 A 
ATOM     60  C   UNL A   1      43.288  27.025  26.462  1.00  0.00     0.012 A 
ATOM     61  C   UNL A   1      42.120  25.073  27.341  1.00  0.00     0.148 A 
ATOM     62  C   UNL A   1      43.756  26.263  25.392  1.00  0.00     0.002 A 
ATOM     63  C   UNL A   1      42.616  24.315  26.292  1.00  0.00     0.091 A 
ATOM     64  F   UNL A   1      41.325  24.549  28.285  1.00  0.00    -0.205 F 
ATOM     65  C   UNL A   1      43.432  24.909  25.315  1.00  0.00     0.022 A 
BRANCH  63  66
ATOM     66  S   UNL A   1      42.305  22.554  26.143  1.00  0.00     0.127 S 
ATOM     67  O   UNL A   1      42.950  22.249  24.866  1.00  0.00    -0.237 OA
ATOM     68  O   UNL A   1      42.992  22.022  27.319  1.00  0.00    -0.237 OA
ATOM     69  O   UNL A   1      40.857  22.396  26.155  1.00  0.00    -0.744 OA
ENDBRANCH  63  66
ENDBRANCH  45  59
BRANCH  46  70
ATOM     70  C   UNL A   1      39.786  31.909  35.190  1.00  0.00     0.023 A 
ATOM     71  C   UNL A   1      40.321  33.212  35.240  1.00  0.00     0.012 A 
ATOM     72  C   UNL A   1      38.954  31.470  36.238  1.00  0.00     0.148 A 
ATOM     73  C   UNL A   1      40.031  34.059  36.313  1.00  0.00     0.002 A 
ATOM     74  C   UNL A   1      38.623  32.336  37.272  1.00  0.00     0.091 A 
ATOM     75  F   UNL A   1      38.495  30.212  36.195  1.00  0.00    -0.205 F 
ATOM     76  C   UNL A   1      39.171  33.627  37.320  1.00  0.00     0.022 A 
BRANCH  74  77
ATOM     77  S   UNL A   1      37.437  31.902  38.547  1.00  0.00     0.127 S 
ATOM     78  O   UNL A   1      38.205  32.146  39.767  1.00  0.00    -0.237 OA
ATOM     79  O   UNL A   1      36.363  32.861  38.291  1.00  0.00    -0.237 OA
ATOM     80  O   UNL A   1      37.079  30.512  38.300  1.00  0.00    -0.744 OA
ENDBRANCH  74  77
ENDBRANCH  46  70
BRANCH  58  81
ATOM     81  C   UNL A   1      44.899  27.241  34.130  1.00  0.00     0.023 A 
ATOM     82  C   UNL A   1      46.129  27.919  34.237  1.00  0.00     0.012 A 
ATOM     83  C   UNL A   1      44.654  26.120  34.949  1.00  0.00     0.148 A 
ATOM     84  C   UNL A   1      47.099  27.491  35.144  1.00  0.00     0.002 A 
ATOM     85  C   UNL A   1      45.614  25.717  35.873  1.00  0.00     0.091 A 
ATOM     86  F   UNL A   1      43.476  25.490  34.833  1.00  0.00    -0.205 F 
ATOM     87  C   UNL A   1      46.837  26.399  35.969  1.00  0.00     0.022 A 
BRANCH  85  88
ATOM     88  S   UNL A   1      45.349  24.364  37.027  1.00  0.00     0.127 S 
ATOM     89  O   UNL A   1      46.625  24.327  37.741  1.00  0.00    -0.237 OA
ATOM     90  O   UNL A   1      44.220  24.852  37.820  1.00  0.00    -0.237 OA
ATOM     91  O   UNL A   1      45.064  23.188  36.215  1.00  0.00    -0.744 OA
ENDBRANCH  85  88
ENDBRANCH  58  81
ENDBRANCH  32  33
ENDBRANCH  25  27
ENDBRANCH  24  25
ENDBRANCH   1  24
TORSDOF 16
ENDMDL
MODEL 3
REMARK VINA RESULT:     -12.0      5.441      8.561
REMARK SMILES CCC[C@@H]1CCc2nc3c(F)cccc3c(C(=O)OCCOC(=O)c3ccc(-c4c5nc(c(-c6cccc(S(=O)(=O)[O-])c6F)c6ccc([nH]6)c(-c6cccc(S(=O)(=O)[O-])c6F)c6nc(c(-c7cccc(S(=O)(=O)[O-])c7F)c7ccc4[nH]7)C=C6)C=C5)cc3)c2C1
REMARK SMILES IDX 21 1 20 2 19 3 17 4 18 5 16 6 4 7 5 8 89 9 6 10 88 11 7 12
REMARK SMILES IDX 8 13 15 14 9 15 14 16 10 17 13 18 11 19 12 20 3 21 2 22 1 23
REMARK SMILES IDX 22 24 23 25 24 26 25 27 26 28 87 29 27 30 86 31 28 32 29 33
REMARK SMILES IDX 30 34 80 35 31 36 85 37 79 38 81 39 32 40 84 41 78 42 77 43
REMARK SMILES IDX 33 45 65 46 45 47 64 48 46 49 49 50 63 51 82 52 47 53 48 54
REMARK SMILES IDX 62 56 83 57 50 58 34 59 35 60 43 61 36 62 38 63 44 64 37 65
REMARK SMILES IDX 39 66 40 67 41 68 42 69 66 70 67 71 75 72 68 73 70 74 76 75
REMARK SMILES IDX 69 76 71 77 72 78 73 79 74 80 51 81 52 82 60 83 53 84 55 85
REMARK SMILES IDX 61 86 54 87 56 88 57 89 58 90 59 91
REMARK H PARENT 81 44 49 55
REMARK Flexibility Score: inf
ROOT
ATOM      1  C   UNL A   1      37.545  20.454  24.866  1.00  0.00     0.275 C 
ENDROOT
BRANCH   1   2
ATOM      2  C   UNL A   1      36.559  21.604  24.635  1.00  0.00     0.275 C 
BRANCH   2   3
ATOM      3  O   UNL A   1      36.055  22.117  25.890  1.00  0.00    -0.458 OA
BRANCH   3   4
ATOM      4  C   UNL A   1      34.755  21.828  26.174  1.00  0.00     0.339 C 
ATOM      5  O   UNL A   1      34.325  21.392  27.228  1.00  0.00    -0.246 OA
BRANCH   4   6
ATOM      6  C   UNL A   1      33.891  22.101  24.993  1.00  0.00     0.074 A 
ATOM      7  C   UNL A   1      32.787  18.538  23.908  1.00  0.00    -0.006 C 
ATOM      8  C   UNL A   1      32.436  18.897  22.459  1.00  0.00     0.010 C 
ATOM      9  C   UNL A   1      33.777  19.579  24.462  1.00  0.00     0.042 C 
ATOM     10  C   UNL A   1      31.824  20.289  22.374  1.00  0.00     0.057 C 
ATOM     11  C   UNL A   1      33.373  21.021  24.242  1.00  0.00    -0.011 A 
ATOM     12  C   UNL A   1      32.562  21.339  23.159  1.00  0.00     0.045 A 
ATOM     13  N   UNL A   1      32.326  22.611  22.772  1.00  0.00    -0.249 NA
ATOM     14  C   UNL A   1      33.689  23.449  24.575  1.00  0.00     0.018 A 
ATOM     15  C   UNL A   1      32.901  23.634  23.423  1.00  0.00     0.107 A 
ATOM     16  C   UNL A   1      34.260  24.602  25.187  1.00  0.00     0.011 A 
ATOM     17  C   UNL A   1      32.738  24.927  22.923  1.00  0.00     0.149 A 
ATOM     18  C   UNL A   1      34.074  25.884  24.666  1.00  0.00     0.004 A 
ATOM     19  F   UNL A   1      32.023  25.126  21.803  1.00  0.00    -0.205 F 
ATOM     20  C   UNL A   1      33.315  26.044  23.521  1.00  0.00     0.041 A 
BRANCH   7  21
ATOM     21  C   UNL A   1      33.204  17.042  24.002  1.00  0.00     0.003 C 
BRANCH  21  22
ATOM     22  C   UNL A   1      33.762  16.433  25.294  1.00  0.00    -0.003 C 
ATOM     23  C   UNL A   1      35.168  15.852  25.284  1.00  0.00     0.004 C 
ENDBRANCH  21  22
ENDBRANCH   7  21
ENDBRANCH   4   6
ENDBRANCH   3   4
ENDBRANCH   2   3
ENDBRANCH   1   2
BRANCH   1  24
ATOM     24  O   UNL A   1      38.149  20.598  26.164  1.00  0.00    -0.458 OA
BRANCH  24  25
ATOM     25  C   UNL A   1      39.495  20.451  26.211  1.00  0.00     0.338 C 
ATOM     26  O   UNL A   1      40.169  19.592  25.677  1.00  0.00    -0.246 OA
BRANCH  25  27
ATOM     27  C   UNL A   1      40.043  21.685  26.799  1.00  0.00     0.060 A 
ATOM     28  C   UNL A   1      39.464  22.860  26.352  1.00  0.00     0.016 A 
ATOM     29  C   UNL A   1      41.092  21.729  27.719  1.00  0.00     0.016 A 
ATOM     30  C   UNL A   1      39.915  24.077  26.846  1.00  0.00     0.010 A 
ATOM     31  C   UNL A   1      41.554  22.978  28.198  1.00  0.00     0.010 A 
ATOM     32  C   UNL A   1      40.961  24.172  27.765  1.00  0.00    -0.014 A 
BRANCH  32  33
ATOM     33  C   UNL A   1      41.474  25.543  28.067  1.00  0.00     0.031 A 
ATOM     34  C   UNL A   1      42.785  25.975  27.464  1.00  0.00     0.074 A 
ATOM     35  C   UNL A   1      40.723  26.492  28.665  1.00  0.00     0.049 A 
ATOM     36  N   UNL A   1      43.424  27.108  27.603  1.00  0.00    -0.248 NA
ATOM     37  C   UNL A   1      43.440  25.021  26.555  1.00  0.00     0.031 C 
ATOM     38  C   UNL A   1      39.353  26.318  29.138  1.00  0.00     0.029 A 
ATOM     39  N   UNL A   1      40.998  27.819  28.929  1.00  0.00    -0.354 N 
ATOM     40  C   UNL A   1      44.589  26.977  26.862  1.00  0.00     0.074 A 
ATOM     41  C   UNL A   1      44.536  25.684  26.214  1.00  0.00     0.031 C 
ATOM     42  C   UNL A   1      38.893  27.499  29.592  1.00  0.00     0.029 A 
ATOM     43  C   UNL A   1      39.958  28.502  29.521  1.00  0.00     0.049 A 
ATOM     44  H   UNL A   1      41.861  28.241  28.714  1.00  0.00     0.167 HD
ATOM     45  C   UNL A   1      45.625  27.837  26.750  1.00  0.00     0.034 A 
ATOM     46  C   UNL A   1      39.875  29.770  29.983  1.00  0.00     0.034 A 
ATOM     47  C   UNL A   1      45.696  29.140  27.350  1.00  0.00     0.049 A 
ATOM     48  C   UNL A   1      41.078  30.683  29.935  1.00  0.00     0.074 A 
ATOM     49  C   UNL A   1      46.761  30.024  27.347  1.00  0.00     0.029 A 
ATOM     50  N   UNL A   1      44.670  29.752  28.045  1.00  0.00    -0.354 N 
ATOM     51  N   UNL A   1      42.224  30.506  29.327  1.00  0.00    -0.248 NA
ATOM     52  C   UNL A   1      40.984  31.963  30.662  1.00  0.00     0.031 C 
ATOM     53  C   UNL A   1      46.386  31.167  28.056  1.00  0.00     0.029 A 
ATOM     54  C   UNL A   1      45.079  31.002  28.479  1.00  0.00     0.049 A 
ATOM     55  H   UNL A   1      43.782  29.359  28.208  1.00  0.00     0.167 HD
ATOM     56  C   UNL A   1      42.984  31.642  29.601  1.00  0.00     0.074 A 
ATOM     57  C   UNL A   1      42.162  32.520  30.402  1.00  0.00     0.031 C 
ATOM     58  C   UNL A   1      44.262  31.909  29.238  1.00  0.00     0.034 A 
BRANCH  45  59
ATOM     59  C   UNL A   1      46.834  27.374  25.995  1.00  0.00     0.023 A 
ATOM     60  C   UNL A   1      46.991  27.704  24.637  1.00  0.00     0.012 A 
ATOM     61  C   UNL A   1      47.865  26.709  26.684  1.00  0.00     0.148 A 
ATOM     62  C   UNL A   1      48.173  27.377  23.974  1.00  0.00     0.002 A 
ATOM     63  C   UNL A   1      49.050  26.417  26.026  1.00  0.00     0.091 A 
ATOM     64  F   UNL A   1      47.671  26.395  27.973  1.00  0.00    -0.205 F 
ATOM     65  C   UNL A   1      49.205  26.748  24.670  1.00  0.00     0.022 A 
BRANCH  63  66
ATOM     66  S   UNL A   1      50.453  25.666  26.854  1.00  0.00     0.127 S 
ATOM     67  O   UNL A   1      51.403  25.524  25.751  1.00  0.00    -0.237 OA
ATOM     68  O   UNL A   1      50.807  26.685  27.841  1.00  0.00    -0.237 OA
ATOM     69  O   UNL A   1      49.969  24.412  27.416  1.00  0.00    -0.744 OA
ENDBRANCH  63  66
ENDBRANCH  45  59
BRANCH  46  70
ATOM     70  C   UNL A   1      38.605  30.266  30.595  1.00  0.00     0.023 A 
ATOM     71  C   UNL A   1      38.343  30.029  31.960  1.00  0.00     0.012 A 
ATOM     72  C   UNL A   1      37.651  30.959  29.825  1.00  0.00     0.148 A 
ATOM     73  C   UNL A   1      37.154  30.474  32.543  1.00  0.00     0.002 A 
ATOM     74  C   UNL A   1      36.498  31.449  30.424  1.00  0.00     0.091 A 
ATOM     75  F   UNL A   1      37.898  31.131  28.519  1.00  0.00    -0.205 F 
ATOM     76  C   UNL A   1      36.240  31.197  31.780  1.00  0.00     0.022 A 
BRANCH  74  77
ATOM     77  S   UNL A   1      35.323  32.484  29.545  1.00  0.00     0.127 S 
ATOM     78  O   UNL A   1      36.174  33.579  29.084  1.00  0.00    -0.237 OA
ATOM     79  O   UNL A   1      34.859  31.577  28.494  1.00  0.00    -0.237 OA
ATOM     80  O   UNL A   1      34.307  32.849  30.522  1.00  0.00    -0.744 OA
ENDBRANCH  74  77
ENDBRANCH  46  70
BRANCH  58  81
ATOM     81  C   UNL A   1      44.901  33.198  29.686  1.00  0.00     0.023 A 
ATOM     82  C   UNL A   1      45.691  33.208  30.851  1.00  0.00     0.012 A 
ATOM     83  C   UNL A   1      44.851  34.350  28.874  1.00  0.00     0.148 A 
ATOM     84  C   UNL A   1      46.423  34.344  31.203  1.00  0.00     0.002 A 
ATOM     85  C   UNL A   1      45.607  35.468  29.215  1.00  0.00     0.091 A 
ATOM     86  F   UNL A   1      44.094  34.318  27.768  1.00  0.00    -0.205 F 
ATOM     87  C   UNL A   1      46.390  35.467  30.380  1.00  0.00     0.022 A 
BRANCH  85  88
ATOM     88  S   UNL A   1      45.685  36.942  28.188  1.00  0.00     0.127 S 
ATOM     89  O   UNL A   1      45.997  36.374  26.876  1.00  0.00    -0.237 OA
ATOM     90  O   UNL A   1      44.329  37.477  28.313  1.00  0.00    -0.237 OA
ATOM     91  O   UNL A   1      46.729  37.780  28.761  1.00  0.00    -0.744 OA
ENDBRANCH  85  88
ENDBRANCH  58  81
ENDBRANCH  32  33
ENDBRANCH  25  27
ENDBRANCH  24  25
ENDBRANCH   1  24
TORSDOF 16
ENDMDL
