MODEL 1
REMARK VINA RESULT:     -10.7      0.000      0.000
REMARK SMILES O=C(CCC(=O)OCCOC(=O)c1ccc(-c2c3nc(c(-c4cccc(S(=O)(=O)[O-])c4F)c4ccc([nH]4)c(-c4cccc(S(=O)(=O)[O-])c4F)c4nc(c(-c5cccc(S(=O)(=O)[O-])c5F)c5ccc2[nH]5)C=C4)C=C3)cc1)Nc1ncccn1
REMARK SMILES IDX 8 1 7 2 5 3 6 4 4 5 3 6 2 7 1 8 76 9 77 11 78 12 82 13 79 14
REMARK SMILES IDX 81 15 80 16 9 17 10 18 11 19 12 20 13 21 14 22 75 23 15 24
REMARK SMILES IDX 74 25 16 26 17 27 18 28 68 29 19 30 73 31 67 32 69 33 20 34
REMARK SMILES IDX 72 35 66 36 65 37 21 39 53 40 33 41 52 42 34 43 37 44 51 45
REMARK SMILES IDX 70 46 35 47 36 48 50 50 71 51 38 52 22 53 23 54 31 55 24 56
REMARK SMILES IDX 26 57 32 58 25 59 27 60 28 61 29 62 30 63 54 64 55 65 63 66
REMARK SMILES IDX 56 67 58 68 64 69 57 70 59 71 60 72 61 73 62 74 39 75 40 76
REMARK SMILES IDX 48 77 41 78 43 79 49 80 42 81 44 82 45 83 46 84 47 85
REMARK H PARENT 76 10 69 38 37 49
REMARK Flexibility Score: inf
ROOT
ATOM      1  C   UNL A   1      32.130  28.305  25.362  1.00  0.00     0.274 C 
ENDROOT
BRANCH   1   2
ATOM      2  O   UNL A   1      31.085  27.396  25.772  1.00  0.00    -0.462 OA
BRANCH   2   3
ATOM      3  C   UNL A   1      31.082  26.143  25.250  1.00  0.00     0.306 C 
ATOM      4  O   UNL A   1      31.628  25.176  25.765  1.00  0.00    -0.252 OA
BRANCH   3   5
ATOM      5  C   UNL A   1      30.392  26.080  23.900  1.00  0.00     0.132 C 
BRANCH   5   6
ATOM      6  C   UNL A   1      29.159  26.968  23.722  1.00  0.00     0.112 C 
BRANCH   6   7
ATOM      7  C   UNL A   1      29.450  28.187  22.860  1.00  0.00     0.227 C 
ATOM      8  O   UNL A   1      30.584  28.411  22.454  1.00  0.00    -0.275 OA
ATOM      9  N   UNL A   1      28.352  28.988  22.717  1.00  0.00    -0.295 N 
ATOM     10  H   UNL A   1      27.489  28.613  23.006  1.00  0.00     0.173 HD
BRANCH   9  11
ATOM     11  C   UNL A   1      28.330  30.269  22.209  1.00  0.00     0.229 A 
ATOM     12  N   UNL A   1      28.034  30.317  20.898  1.00  0.00    -0.221 NA
ATOM     13  N   UNL A   1      28.537  31.340  22.980  1.00  0.00    -0.221 NA
ATOM     14  C   UNL A   1      27.843  31.538  20.371  1.00  0.00     0.117 A 
ATOM     15  C   UNL A   1      28.410  32.538  22.386  1.00  0.00     0.117 A 
ATOM     16  C   UNL A   1      28.030  32.700  21.075  1.00  0.00     0.040 A 
ENDBRANCH   9  11
ENDBRANCH   6   7
ENDBRANCH   5   6
ENDBRANCH   3   5
ENDBRANCH   2   3
ENDBRANCH   1   2
BRANCH   1  17
ATOM     17  C   UNL A   1      31.927  29.676  26.008  1.00  0.00     0.275 C 
BRANCH  17  18
ATOM     18  O   UNL A   1      33.150  30.431  25.973  1.00  0.00    -0.458 OA
BRANCH  18  19
ATOM     19  C   UNL A   1      33.325  31.295  27.000  1.00  0.00     0.338 C 
ATOM     20  O   UNL A   1      32.522  32.102  27.426  1.00  0.00    -0.246 OA
BRANCH  19  21
ATOM     21  C   UNL A   1      34.614  31.000  27.642  1.00  0.00     0.060 A 
ATOM     22  C   UNL A   1      35.560  32.023  27.755  1.00  0.00     0.016 A 
ATOM     23  C   UNL A   1      34.884  29.720  28.120  1.00  0.00     0.016 A 
ATOM     24  C   UNL A   1      36.784  31.772  28.369  1.00  0.00     0.010 A 
ATOM     25  C   UNL A   1      36.107  29.474  28.747  1.00  0.00     0.010 A 
ATOM     26  C   UNL A   1      37.061  30.498  28.880  1.00  0.00    -0.014 A 
BRANCH  26  27
ATOM     27  C   UNL A   1      38.333  30.237  29.593  1.00  0.00     0.031 A 
ATOM     28  C   UNL A   1      39.313  29.241  29.051  1.00  0.00     0.074 A 
ATOM     29  C   UNL A   1      38.567  30.853  30.768  1.00  0.00     0.049 A 
ATOM     30  N   UNL A   1      40.410  28.784  29.594  1.00  0.00    -0.248 NA
ATOM     31  C   UNL A   1      39.011  28.676  27.727  1.00  0.00     0.031 C 
ATOM     32  C   UNL A   1      37.677  31.831  31.396  1.00  0.00     0.029 A 
ATOM     33  N   UNL A   1      39.600  30.714  31.661  1.00  0.00    -0.354 N 
ATOM     34  C   UNL A   1      40.912  27.847  28.701  1.00  0.00     0.074 A 
ATOM     35  C   UNL A   1      39.995  27.799  27.581  1.00  0.00     0.031 C 
ATOM     36  C   UNL A   1      38.180  32.175  32.591  1.00  0.00     0.029 A 
ATOM     37  C   UNL A   1      39.399  31.407  32.831  1.00  0.00     0.049 A 
ATOM     38  H   UNL A   1      40.402  30.173  31.482  1.00  0.00     0.167 HD
ATOM     39  C   UNL A   1      42.039  27.100  28.804  1.00  0.00     0.034 A 
ATOM     40  C   UNL A   1      40.088  31.389  33.990  1.00  0.00     0.034 A 
ATOM     41  C   UNL A   1      42.946  27.164  29.920  1.00  0.00     0.049 A 
ATOM     42  C   UNL A   1      41.318  30.533  34.093  1.00  0.00     0.074 A 
ATOM     43  C   UNL A   1      44.146  26.497  30.091  1.00  0.00     0.029 A 
ATOM     44  N   UNL A   1      42.743  27.920  31.065  1.00  0.00    -0.354 N 
ATOM     45  N   UNL A   1      41.852  29.744  33.192  1.00  0.00    -0.248 NA
ATOM     46  C   UNL A   1      42.059  30.583  35.362  1.00  0.00     0.031 C 
ATOM     47  C   UNL A   1      44.647  26.817  31.359  1.00  0.00     0.029 A 
ATOM     48  C   UNL A   1      43.780  27.715  31.961  1.00  0.00     0.049 A 
ATOM     49  H   UNL A   1      41.974  28.515  31.220  1.00  0.00     0.167 HD
ATOM     50  C   UNL A   1      42.998  29.218  33.774  1.00  0.00     0.074 A 
ATOM     51  C   UNL A   1      43.097  29.799  35.099  1.00  0.00     0.031 C 
ATOM     52  C   UNL A   1      43.882  28.324  33.265  1.00  0.00     0.034 A 
BRANCH  39  53
ATOM     53  C   UNL A   1      42.349  26.151  27.676  1.00  0.00     0.023 A 
ATOM     54  C   UNL A   1      43.161  26.576  26.603  1.00  0.00     0.012 A 
ATOM     55  C   UNL A   1      41.861  24.830  27.690  1.00  0.00     0.148 A 
ATOM     56  C   UNL A   1      43.443  25.715  25.541  1.00  0.00     0.002 A 
ATOM     57  C   UNL A   1      42.184  23.964  26.651  1.00  0.00     0.091 A 
ATOM     58  F   UNL A   1      41.072  24.449  28.705  1.00  0.00    -0.205 F 
ATOM     59  C   UNL A   1      42.962  24.410  25.570  1.00  0.00     0.022 A 
BRANCH  57  60
ATOM     60  S   UNL A   1      41.677  22.241  26.637  1.00  0.00     0.127 S 
ATOM     61  O   UNL A   1      42.264  21.771  25.384  1.00  0.00    -0.237 OA
ATOM     62  O   UNL A   1      42.321  21.721  27.843  1.00  0.00    -0.237 OA
ATOM     63  O   UNL A   1      40.222  22.251  26.683  1.00  0.00    -0.744 OA
ENDBRANCH  57  60
ENDBRANCH  39  53
BRANCH  40  64
ATOM     64  C   UNL A   1      39.611  32.209  35.137  1.00  0.00     0.023 A 
ATOM     65  C   UNL A   1      39.796  33.603  35.124  1.00  0.00     0.012 A 
ATOM     66  C   UNL A   1      38.916  31.616  36.210  1.00  0.00     0.148 A 
ATOM     67  C   UNL A   1      39.314  34.391  36.170  1.00  0.00     0.002 A 
ATOM     68  C   UNL A   1      38.387  32.412  37.218  1.00  0.00     0.091 A 
ATOM     69  F   UNL A   1      38.762  30.284  36.207  1.00  0.00    -0.205 F 
ATOM     70  C   UNL A   1      38.599  33.799  37.208  1.00  0.00     0.022 A 
BRANCH  68  71
ATOM     71  S   UNL A   1      37.338  31.754  38.520  1.00  0.00     0.127 S 
ATOM     72  O   UNL A   1      38.192  31.901  39.695  1.00  0.00    -0.237 OA
ATOM     73  O   UNL A   1      36.194  32.664  38.471  1.00  0.00    -0.237 OA
ATOM     74  O   UNL A   1      37.035  30.383  38.130  1.00  0.00    -0.744 OA
ENDBRANCH  68  71
ENDBRANCH  40  64
BRANCH  52  75
ATOM     75  C   UNL A   1      45.049  27.924  34.132  1.00  0.00     0.023 A 
ATOM     76  C   UNL A   1      46.212  28.719  34.154  1.00  0.00     0.012 A 
ATOM     77  C   UNL A   1      44.961  26.803  34.981  1.00  0.00     0.148 A 
ATOM     78  C   UNL A   1      47.280  28.390  34.987  1.00  0.00     0.002 A 
ATOM     79  C   UNL A   1      46.009  26.510  35.845  1.00  0.00     0.091 A 
ATOM     80  F   UNL A   1      43.853  26.049  34.932  1.00  0.00    -0.205 F 
ATOM     81  C   UNL A   1      47.174  27.294  35.842  1.00  0.00     0.022 A 
BRANCH  79  82
ATOM     82  S   UNL A   1      45.928  25.178  37.048  1.00  0.00     0.127 S 
ATOM     83  O   UNL A   1      47.197  25.338  37.757  1.00  0.00    -0.237 OA
ATOM     84  O   UNL A   1      44.744  25.538  37.828  1.00  0.00    -0.237 OA
ATOM     85  O   UNL A   1      45.797  23.946  36.280  1.00  0.00    -0.744 OA
ENDBRANCH  79  82
ENDBRANCH  52  75
ENDBRANCH  26  27
ENDBRANCH  19  21
ENDBRANCH  18  19
ENDBRANCH  17  18
ENDBRANCH   1  17
TORSDOF 17
ENDMDL
MODEL 2
REMARK VINA RESULT:     -10.7      6.407     10.935
REMARK SMILES O=C(CCC(=O)OCCOC(=O)c1ccc(-c2c3nc(c(-c4cccc(S(=O)(=O)[O-])c4F)c4ccc([nH]4)c(-c4cccc(S(=O)(=O)[O-])c4F)c4nc(c(-c5cccc(S(=O)(=O)[O-])c5F)c5ccc2[nH]5)C=C4)C=C3)cc1)Nc1ncccn1
REMARK SMILES IDX 8 1 7 2 5 3 6 4 4 5 3 6 2 7 1 8 76 9 77 11 78 12 82 13 79 14
REMARK SMILES IDX 81 15 80 16 9 17 10 18 11 19 12 20 13 21 14 22 75 23 15 24
REMARK SMILES IDX 74 25 16 26 17 27 18 28 68 29 19 30 73 31 67 32 69 33 20 34
REMARK SMILES IDX 72 35 66 36 65 37 21 39 53 40 33 41 52 42 34 43 37 44 51 45
REMARK SMILES IDX 70 46 35 47 36 48 50 50 71 51 38 52 22 53 23 54 31 55 24 56
REMARK SMILES IDX 26 57 32 58 25 59 27 60 28 61 29 62 30 63 54 64 55 65 63 66
REMARK SMILES IDX 56 67 58 68 64 69 57 70 59 71 60 72 61 73 62 74 39 75 40 76
REMARK SMILES IDX 48 77 41 78 43 79 49 80 42 81 44 82 45 83 46 84 47 85
REMARK H PARENT 76 10 69 38 37 49
REMARK Flexibility Score: inf
ROOT
ATOM      1  C   UNL A   1      36.119  22.776  23.931  1.00  0.00     0.274 C 
ENDROOT
BRANCH   1   2
ATOM      2  O   UNL A   1      34.854  23.438  24.153  1.00  0.00    -0.462 OA
BRANCH   2   3
ATOM      3  C   UNL A   1      34.023  23.606  23.093  1.00  0.00     0.306 C 
ATOM      4  O   UNL A   1      33.918  24.642  22.451  1.00  0.00    -0.252 OA
BRANCH   3   5
ATOM      5  C   UNL A   1      33.165  22.381  22.830  1.00  0.00     0.132 C 
BRANCH   5   6
ATOM      6  C   UNL A   1      32.138  22.025  23.907  1.00  0.00     0.112 C 
BRANCH   6   7
ATOM      7  C   UNL A   1      32.531  20.780  24.686  1.00  0.00     0.227 C 
ATOM      8  O   UNL A   1      33.053  20.870  25.791  1.00  0.00    -0.275 OA
ATOM      9  N   UNL A   1      32.328  19.637  23.964  1.00  0.00    -0.295 N 
ATOM     10  H   UNL A   1      31.796  19.723  23.141  1.00  0.00     0.173 HD
BRANCH   9  11
ATOM     11  C   UNL A   1      32.793  18.377  24.272  1.00  0.00     0.229 A 
ATOM     12  N   UNL A   1      32.229  17.858  25.378  1.00  0.00    -0.221 NA
ATOM     13  N   UNL A   1      33.677  17.740  23.501  1.00  0.00    -0.221 NA
ATOM     14  C   UNL A   1      32.519  16.574  25.652  1.00  0.00     0.117 A 
ATOM     15  C   UNL A   1      33.992  16.485  23.862  1.00  0.00     0.117 A 
ATOM     16  C   UNL A   1      33.413  15.832  24.923  1.00  0.00     0.040 A 
ENDBRANCH   9  11
ENDBRANCH   6   7
ENDBRANCH   5   6
ENDBRANCH   3   5
ENDBRANCH   2   3
ENDBRANCH   1   2
BRANCH   1  17
ATOM     17  C   UNL A   1      36.204  21.497  24.766  1.00  0.00     0.275 C 
BRANCH  17  18
ATOM     18  O   UNL A   1      36.961  21.732  25.964  1.00  0.00    -0.458 OA
BRANCH  18  19
ATOM     19  C   UNL A   1      38.271  21.399  25.894  1.00  0.00     0.338 C 
ATOM     20  O   UNL A   1      38.745  20.372  25.448  1.00  0.00    -0.246 OA
BRANCH  19  21
ATOM     21  C   UNL A   1      39.070  22.560  26.310  1.00  0.00     0.060 A 
ATOM     22  C   UNL A   1      38.777  23.812  25.761  1.00  0.00     0.016 A 
ATOM     23  C   UNL A   1      40.108  22.407  27.228  1.00  0.00     0.016 A 
ATOM     24  C   UNL A   1      39.512  24.929  26.147  1.00  0.00     0.010 A 
ATOM     25  C   UNL A   1      40.835  23.531  27.623  1.00  0.00     0.010 A 
ATOM     26  C   UNL A   1      40.539  24.798  27.089  1.00  0.00    -0.014 A 
BRANCH  26  27
ATOM     27  C   UNL A   1      41.286  25.990  27.555  1.00  0.00     0.031 A 
ATOM     28  C   UNL A   1      40.596  27.042  28.369  1.00  0.00     0.074 A 
ATOM     29  C   UNL A   1      42.569  26.150  27.181  1.00  0.00     0.049 A 
ATOM     30  N   UNL A   1      41.040  28.209  28.756  1.00  0.00    -0.248 NA
ATOM     31  C   UNL A   1      39.219  26.748  28.794  1.00  0.00     0.031 C 
ATOM     32  C   UNL A   1      43.337  25.196  26.379  1.00  0.00     0.029 A 
ATOM     33  N   UNL A   1      43.438  27.191  27.390  1.00  0.00    -0.354 N 
ATOM     34  C   UNL A   1      39.989  28.809  29.435  1.00  0.00     0.074 A 
ATOM     35  C   UNL A   1      38.880  27.877  29.403  1.00  0.00     0.031 C 
ATOM     36  C   UNL A   1      44.548  25.712  26.128  1.00  0.00     0.029 A 
ATOM     37  C   UNL A   1      44.625  27.049  26.709  1.00  0.00     0.049 A 
ATOM     38  H   UNL A   1      43.234  27.962  27.966  1.00  0.00     0.167 HD
ATOM     39  C   UNL A   1      39.953  30.024  30.035  1.00  0.00     0.034 A 
ATOM     40  C   UNL A   1      45.640  27.916  26.528  1.00  0.00     0.034 A 
ATOM     41  C   UNL A   1      41.064  30.938  30.066  1.00  0.00     0.049 A 
ATOM     42  C   UNL A   1      45.570  29.269  27.179  1.00  0.00     0.074 A 
ATOM     43  C   UNL A   1      41.152  32.164  30.700  1.00  0.00     0.029 A 
ATOM     44  N   UNL A   1      42.273  30.739  29.414  1.00  0.00    -0.354 N 
ATOM     45  N   UNL A   1      44.618  29.776  27.924  1.00  0.00    -0.248 NA
ATOM     46  C   UNL A   1      46.723  30.160  26.987  1.00  0.00     0.031 C 
ATOM     47  C   UNL A   1      42.398  32.725  30.397  1.00  0.00     0.029 A 
ATOM     48  C   UNL A   1      43.103  31.831  29.607  1.00  0.00     0.049 A 
ATOM     49  H   UNL A   1      42.507  29.938  28.891  1.00  0.00     0.167 HD
ATOM     50  C   UNL A   1      45.061  31.036  28.307  1.00  0.00     0.074 A 
ATOM     51  C   UNL A   1      46.381  31.205  27.732  1.00  0.00     0.031 C 
ATOM     52  C   UNL A   1      44.428  31.974  29.055  1.00  0.00     0.034 A 
BRANCH  39  53
ATOM     53  C   UNL A   1      38.667  30.430  30.707  1.00  0.00     0.023 A 
ATOM     54  C   UNL A   1      38.442  30.089  32.057  1.00  0.00     0.012 A 
ATOM     55  C   UNL A   1      37.692  31.172  30.012  1.00  0.00     0.148 A 
ATOM     56  C   UNL A   1      37.249  30.441  32.690  1.00  0.00     0.002 A 
ATOM     57  C   UNL A   1      36.526  31.559  30.663  1.00  0.00     0.091 A 
ATOM     58  F   UNL A   1      37.912  31.468  28.723  1.00  0.00    -0.205 F 
ATOM     59  C   UNL A   1      36.297  31.182  31.996  1.00  0.00     0.022 A 
BRANCH  57  60
ATOM     60  S   UNL A   1      35.276  32.581  29.876  1.00  0.00     0.127 S 
ATOM     61  O   UNL A   1      36.080  33.690  29.365  1.00  0.00    -0.237 OA
ATOM     62  O   UNL A   1      34.750  31.686  28.845  1.00  0.00    -0.237 OA
ATOM     63  O   UNL A   1      34.324  32.927  30.922  1.00  0.00    -0.744 OA
ENDBRANCH  57  60
ENDBRANCH  39  53
BRANCH  40  64
ATOM     64  C   UNL A   1      46.801  27.517  25.685  1.00  0.00     0.023 A 
ATOM     65  C   UNL A   1      46.779  27.768  24.302  1.00  0.00     0.012 A 
ATOM     66  C   UNL A   1      47.954  26.950  26.265  1.00  0.00     0.148 A 
ATOM     67  C   UNL A   1      47.878  27.442  23.505  1.00  0.00     0.002 A 
ATOM     68  C   UNL A   1      49.066  26.683  25.477  1.00  0.00     0.091 A 
ATOM     69  F   UNL A   1      47.947  26.709  27.584  1.00  0.00    -0.205 F 
ATOM     70  C   UNL A   1      49.025  26.914  24.093  1.00  0.00     0.022 A 
BRANCH  68  71
ATOM     71  S   UNL A   1      50.630  26.131  26.168  1.00  0.00     0.127 S 
ATOM     72  O   UNL A   1      50.962  27.228  27.072  1.00  0.00    -0.237 OA
ATOM     73  O   UNL A   1      50.243  24.884  26.828  1.00  0.00    -0.237 OA
ATOM     74  O   UNL A   1      51.526  25.958  25.032  1.00  0.00    -0.744 OA
ENDBRANCH  68  71
ENDBRANCH  40  64
BRANCH  52  75
ATOM     75  C   UNL A   1      45.156  33.269  29.313  1.00  0.00     0.023 A 
ATOM     76  C   UNL A   1      46.010  33.383  30.427  1.00  0.00     0.012 A 
ATOM     77  C   UNL A   1      45.051  34.344  28.408  1.00  0.00     0.148 A 
ATOM     78  C   UNL A   1      46.728  34.556  30.653  1.00  0.00     0.002 A 
ATOM     79  C   UNL A   1      45.808  35.492  28.612  1.00  0.00     0.091 A 
ATOM     80  F   UNL A   1      44.220  34.222  27.363  1.00  0.00    -0.205 F 
ATOM     81  C   UNL A   1      46.638  35.605  29.740  1.00  0.00     0.022 A 
BRANCH  79  82
ATOM     82  S   UNL A   1      45.832  36.856  27.443  1.00  0.00     0.127 S 
ATOM     83  O   UNL A   1      46.751  37.789  28.092  1.00  0.00    -0.237 OA
ATOM     84  O   UNL A   1      46.361  36.219  26.236  1.00  0.00    -0.237 OA
ATOM     85  O   UNL A   1      44.454  37.317  27.331  1.00  0.00    -0.744 OA
ENDBRANCH  79  82
ENDBRANCH  52  75
ENDBRANCH  26  27
ENDBRANCH  19  21
ENDBRANCH  18  19
ENDBRANCH  17  18
ENDBRANCH   1  17
TORSDOF 17
ENDMDL
MODEL 3
REMARK VINA RESULT:     -10.6      2.646      4.201
REMARK SMILES O=C(CCC(=O)OCCOC(=O)c1ccc(-c2c3nc(c(-c4cccc(S(=O)(=O)[O-])c4F)c4ccc([nH]4)c(-c4cccc(S(=O)(=O)[O-])c4F)c4nc(c(-c5cccc(S(=O)(=O)[O-])c5F)c5ccc2[nH]5)C=C4)C=C3)cc1)Nc1ncccn1
REMARK SMILES IDX 8 1 7 2 5 3 6 4 4 5 3 6 2 7 1 8 76 9 77 11 78 12 82 13 79 14
REMARK SMILES IDX 81 15 80 16 9 17 10 18 11 19 12 20 13 21 14 22 75 23 15 24
REMARK SMILES IDX 74 25 16 26 17 27 18 28 68 29 19 30 73 31 67 32 69 33 20 34
REMARK SMILES IDX 72 35 66 36 65 37 21 39 53 40 33 41 52 42 34 43 37 44 51 45
REMARK SMILES IDX 70 46 35 47 36 48 50 50 71 51 38 52 22 53 23 54 31 55 24 56
REMARK SMILES IDX 26 57 32 58 25 59 27 60 28 61 29 62 30 63 54 64 55 65 63 66
REMARK SMILES IDX 56 67 58 68 64 69 57 70 59 71 60 72 61 73 62 74 39 75 40 76
REMARK SMILES IDX 48 77 41 78 43 79 49 80 42 81 44 82 45 83 46 84 47 85
REMARK H PARENT 76 10 69 38 37 49
REMARK Flexibility Score: inf
ROOT
ATOM      1  C   UNL A   1      31.568  29.182  24.441  1.00  0.00     0.274 C 
ENDROOT
BRANCH   1   2
ATOM      2  O   UNL A   1      30.748  28.064  24.847  1.00  0.00    -0.462 OA
BRANCH   2   3
ATOM      3  C   UNL A   1      31.335  27.056  25.541  1.00  0.00     0.306 C 
ATOM      4  O   UNL A   1      30.923  26.612  26.604  1.00  0.00    -0.252 OA
BRANCH   3   5
ATOM      5  C   UNL A   1      32.624  26.581  24.892  1.00  0.00     0.132 C 
BRANCH   5   6
ATOM      6  C   UNL A   1      33.657  25.939  25.819  1.00  0.00     0.112 C 
BRANCH   6   7
ATOM      7  C   UNL A   1      34.427  24.821  25.133  1.00  0.00     0.227 C 
ATOM      8  O   UNL A   1      34.444  24.730  23.911  1.00  0.00    -0.275 OA
ATOM      9  N   UNL A   1      34.961  23.940  26.030  1.00  0.00    -0.295 N 
ATOM     10  H   UNL A   1      34.958  24.213  26.976  1.00  0.00     0.173 HD
BRANCH   9  11
ATOM     11  C   UNL A   1      35.503  22.705  25.746  1.00  0.00     0.229 A 
ATOM     12  N   UNL A   1      34.590  21.717  25.720  1.00  0.00    -0.221 NA
ATOM     13  N   UNL A   1      36.801  22.546  25.477  1.00  0.00    -0.221 NA
ATOM     14  C   UNL A   1      35.020  20.515  25.298  1.00  0.00     0.117 A 
ATOM     15  C   UNL A   1      37.195  21.307  25.136  1.00  0.00     0.117 A 
ATOM     16  C   UNL A   1      36.331  20.247  24.998  1.00  0.00     0.040 A 
ENDBRANCH   9  11
ENDBRANCH   6   7
ENDBRANCH   5   6
ENDBRANCH   3   5
ENDBRANCH   2   3
ENDBRANCH   1   2
BRANCH   1  17
ATOM     17  C   UNL A   1      31.670  30.206  25.572  1.00  0.00     0.275 C 
BRANCH  17  18
ATOM     18  O   UNL A   1      33.044  30.405  25.943  1.00  0.00    -0.458 OA
BRANCH  18  19
ATOM     19  C   UNL A   1      33.253  31.323  26.916  1.00  0.00     0.338 C 
ATOM     20  O   UNL A   1      32.485  32.191  27.284  1.00  0.00    -0.246 OA
BRANCH  19  21
ATOM     21  C   UNL A   1      34.523  31.011  27.587  1.00  0.00     0.060 A 
ATOM     22  C   UNL A   1      35.445  32.040  27.797  1.00  0.00     0.016 A 
ATOM     23  C   UNL A   1      34.801  29.708  27.994  1.00  0.00     0.016 A 
ATOM     24  C   UNL A   1      36.650  31.773  28.440  1.00  0.00     0.010 A 
ATOM     25  C   UNL A   1      36.004  29.444  28.651  1.00  0.00     0.010 A 
ATOM     26  C   UNL A   1      36.933  30.475  28.882  1.00  0.00    -0.014 A 
BRANCH  26  27
ATOM     27  C   UNL A   1      38.184  30.191  29.625  1.00  0.00     0.031 A 
ATOM     28  C   UNL A   1      39.174  29.204  29.087  1.00  0.00     0.074 A 
ATOM     29  C   UNL A   1      38.386  30.778  30.819  1.00  0.00     0.049 A 
ATOM     30  N   UNL A   1      40.254  28.729  29.650  1.00  0.00    -0.248 NA
ATOM     31  C   UNL A   1      38.908  28.671  27.742  1.00  0.00     0.031 C 
ATOM     32  C   UNL A   1      37.482  31.745  31.445  1.00  0.00     0.029 A 
ATOM     33  N   UNL A   1      39.392  30.614  31.738  1.00  0.00    -0.354 N 
ATOM     34  C   UNL A   1      40.778  27.812  28.751  1.00  0.00     0.074 A 
ATOM     35  C   UNL A   1      39.893  27.793  27.604  1.00  0.00     0.031 C 
ATOM     36  C   UNL A   1      37.952  32.059  32.661  1.00  0.00     0.029 A 
ATOM     37  C   UNL A   1      39.161  31.280  32.918  1.00  0.00     0.049 A 
ATOM     38  H   UNL A   1      40.197  30.074  31.570  1.00  0.00     0.167 HD
ATOM     39  C   UNL A   1      41.898  27.058  28.868  1.00  0.00     0.034 A 
ATOM     40  C   UNL A   1      39.816  31.232  34.095  1.00  0.00     0.034 A 
ATOM     41  C   UNL A   1      42.774  27.091  30.010  1.00  0.00     0.049 A 
ATOM     42  C   UNL A   1      41.040  30.369  34.213  1.00  0.00     0.074 A 
ATOM     43  C   UNL A   1      43.966  26.415  30.200  1.00  0.00     0.029 A 
ATOM     44  N   UNL A   1      42.541  27.821  31.167  1.00  0.00    -0.354 N 
ATOM     45  N   UNL A   1      41.596  29.599  33.309  1.00  0.00    -0.248 NA
ATOM     46  C   UNL A   1      41.744  30.386  35.503  1.00  0.00     0.031 C 
ATOM     47  C   UNL A   1      44.432  26.704  31.488  1.00  0.00     0.029 A 
ATOM     48  C   UNL A   1      43.551  27.590  32.086  1.00  0.00     0.049 A 
ATOM     49  H   UNL A   1      41.770  28.416  31.313  1.00  0.00     0.167 HD
ATOM     50  C   UNL A   1      42.724  29.054  33.911  1.00  0.00     0.074 A 
ATOM     51  C   UNL A   1      42.787  29.604  35.251  1.00  0.00     0.031 C 
ATOM     52  C   UNL A   1      43.618  28.169  33.406  1.00  0.00     0.034 A 
BRANCH  39  53
ATOM     53  C   UNL A   1      42.237  26.134  27.727  1.00  0.00     0.023 A 
ATOM     54  C   UNL A   1      43.041  26.595  26.663  1.00  0.00     0.012 A 
ATOM     55  C   UNL A   1      41.784  24.800  27.719  1.00  0.00     0.148 A 
ATOM     56  C   UNL A   1      43.349  25.758  25.590  1.00  0.00     0.002 A 
ATOM     57  C   UNL A   1      42.133  23.959  26.669  1.00  0.00     0.091 A 
ATOM     58  F   UNL A   1      41.002  24.384  28.726  1.00  0.00    -0.205 F 
ATOM     59  C   UNL A   1      42.902  24.440  25.598  1.00  0.00     0.022 A 
BRANCH  57  60
ATOM     60  S   UNL A   1      41.671  22.223  26.628  1.00  0.00     0.127 S 
ATOM     61  O   UNL A   1      42.284  21.785  25.375  1.00  0.00    -0.237 OA
ATOM     62  O   UNL A   1      42.315  21.704  27.835  1.00  0.00    -0.237 OA
ATOM     63  O   UNL A   1      40.216  22.195  26.657  1.00  0.00    -0.744 OA
ENDBRANCH  57  60
ENDBRANCH  39  53
BRANCH  40  64
ATOM     64  C   UNL A   1      39.310  32.028  35.247  1.00  0.00     0.023 A 
ATOM     65  C   UNL A   1      38.418  31.441  36.164  1.00  0.00     0.012 A 
ATOM     66  C   UNL A   1      39.763  33.343  35.472  1.00  0.00     0.148 A 
ATOM     67  C   UNL A   1      37.971  32.158  37.274  1.00  0.00     0.002 A 
ATOM     68  C   UNL A   1      39.360  34.030  36.610  1.00  0.00     0.091 A 
ATOM     69  F   UNL A   1      40.602  33.886  34.578  1.00  0.00    -0.205 F 
ATOM     70  C   UNL A   1      38.451  33.445  37.505  1.00  0.00     0.022 A 
BRANCH  68  71
ATOM     71  S   UNL A   1      40.032  35.635  37.059  1.00  0.00     0.127 S 
ATOM     72  O   UNL A   1      39.653  36.450  35.908  1.00  0.00    -0.237 OA
ATOM     73  O   UNL A   1      39.301  35.931  38.291  1.00  0.00    -0.237 OA
ATOM     74  O   UNL A   1      41.462  35.429  37.241  1.00  0.00    -0.744 OA
ENDBRANCH  68  71
ENDBRANCH  40  64
BRANCH  52  75
ATOM     75  C   UNL A   1      44.758  27.743  34.296  1.00  0.00     0.023 A 
ATOM     76  C   UNL A   1      45.921  28.535  34.374  1.00  0.00     0.012 A 
ATOM     77  C   UNL A   1      44.644  26.601  35.113  1.00  0.00     0.148 A 
ATOM     78  C   UNL A   1      46.964  28.182  35.229  1.00  0.00     0.002 A 
ATOM     79  C   UNL A   1      45.665  26.282  36.000  1.00  0.00     0.091 A 
ATOM     80  F   UNL A   1      43.536  25.851  35.012  1.00  0.00    -0.205 F 
ATOM     81  C   UNL A   1      46.831  27.064  36.051  1.00  0.00     0.022 A 
BRANCH  79  82
ATOM     82  S   UNL A   1      45.547  24.920  37.165  1.00  0.00     0.127 S 
ATOM     83  O   UNL A   1      44.271  25.200  37.823  1.00  0.00    -0.237 OA
ATOM     84  O   UNL A   1      45.532  23.756  36.278  1.00  0.00    -0.237 OA
ATOM     85  O   UNL A   1      46.721  25.016  38.022  1.00  0.00    -0.744 OA
ENDBRANCH  79  82
ENDBRANCH  52  75
ENDBRANCH  26  27
ENDBRANCH  19  21
ENDBRANCH  18  19
ENDBRANCH  17  18
ENDBRANCH   1  17
TORSDOF 17
ENDMDL
