MODEL 1
REMARK VINA RESULT:     -11.5      0.000      0.000
REMARK SMILES Cc1c(C(=O)OCCOC(=O)c2ccc(-c3c4nc(c(-c5cccc(S(=O)(=O)[O-])c5F)c5ccc([nH]5)c(-c5cccc(S(=O)(=O)[O-])c5F)c5nc(c(-c6cccc(S(=O)(=O)[O-])c6F)c6ccc3[nH]6)C=C5)C=C4)cc2)sc2ncnc(NCc3cn4c(n3)SCC4)c12
REMARK SMILES IDX 7 1 6 2 4 3 5 4 3 5 1 6 2 7 91 8 75 9 76 10 80 11 77 12
REMARK SMILES IDX 79 13 78 14 81 15 82 17 83 18 84 19 87 20 85 21 86 22 90 23
REMARK SMILES IDX 88 24 89 25 8 26 9 27 10 28 11 29 12 30 13 31 74 32 14 33
REMARK SMILES IDX 73 34 15 35 16 36 17 37 67 38 18 39 72 40 66 41 68 42 19 43
REMARK SMILES IDX 71 44 65 45 64 46 20 48 52 49 32 50 51 51 33 52 36 53 50 54
REMARK SMILES IDX 69 55 34 56 35 57 49 59 70 60 37 61 21 62 22 63 30 64 23 65
REMARK SMILES IDX 25 66 31 67 24 68 26 69 27 70 28 71 29 72 53 73 54 74 62 75
REMARK SMILES IDX 55 76 57 77 63 78 56 79 58 80 59 81 60 82 61 83 38 84 39 85
REMARK SMILES IDX 47 86 40 87 42 88 48 89 41 90 43 91 44 92 45 93 46 94
REMARK H PARENT 81 16 68 47 36 58
REMARK Flexibility Score: inf
ROOT
ATOM      1  C   UNL A   1      33.124  32.323  27.441  1.00  0.00     0.275 C 
ENDROOT
BRANCH   1   2
ATOM      2  O   UNL A   1      32.414  31.200  26.895  1.00  0.00    -0.458 OA
BRANCH   2   3
ATOM      3  C   UNL A   1      33.190  30.136  26.546  1.00  0.00     0.348 C 
ATOM      4  O   UNL A   1      34.378  30.023  26.850  1.00  0.00    -0.245 OA
BRANCH   3   5
ATOM      5  C   UNL A   1      32.435  29.120  25.833  1.00  0.00     0.118 A 
ATOM      6  C   UNL A   1      31.577  27.940  27.875  1.00  0.00     0.047 C 
ATOM      7  C   UNL A   1      31.764  28.036  26.397  1.00  0.00    -0.012 A 
ATOM      8  C   UNL A   1      31.282  27.096  25.386  1.00  0.00     0.058 A 
ATOM      9  S   UNL A   1      32.287  29.155  24.144  1.00  0.00    -0.108 S 
ATOM     10  C   UNL A   1      31.467  27.666  24.126  1.00  0.00     0.129 A 
ATOM     11  C   UNL A   1      30.696  25.798  25.366  1.00  0.00     0.138 A 
ATOM     12  N   UNL A   1      31.107  27.165  22.933  1.00  0.00    -0.225 NA
ATOM     13  N   UNL A   1      30.326  25.282  24.163  1.00  0.00    -0.219 NA
ATOM     14  C   UNL A   1      30.517  25.983  23.044  1.00  0.00     0.225 A 
BRANCH  11  15
ATOM     15  N   UNL A   1      30.489  24.872  26.354  1.00  0.00    -0.364 N 
ATOM     16  H   UNL A   1      29.602  24.927  26.775  1.00  0.00     0.162 HD
BRANCH  15  17
ATOM     17  C   UNL A   1      31.329  23.831  26.891  1.00  0.00     0.172 C 
BRANCH  17  18
ATOM     18  C   UNL A   1      32.562  23.476  26.115  1.00  0.00     0.079 A 
ATOM     19  C   UNL A   1      32.797  22.348  25.337  1.00  0.00     0.113 A 
ATOM     20  N   UNL A   1      33.716  24.240  26.240  1.00  0.00    -0.226 NA
ATOM     21  N   UNL A   1      34.127  22.402  25.078  1.00  0.00    -0.325 N 
ATOM     22  C   UNL A   1      34.627  23.543  25.623  1.00  0.00     0.168 A 
ATOM     23  C   UNL A   1      35.095  21.375  24.737  1.00  0.00     0.135 C 
ATOM     24  S   UNL A   1      36.340  23.498  25.802  1.00  0.00    -0.086 SA
ATOM     25  C   UNL A   1      36.304  21.668  25.630  1.00  0.00     0.100 C 
ENDBRANCH  17  18
ENDBRANCH  15  17
ENDBRANCH  11  15
ENDBRANCH   3   5
ENDBRANCH   2   3
ENDBRANCH   1   2
BRANCH   1  26
ATOM     26  C   UNL A   1      32.188  33.498  27.706  1.00  0.00     0.275 C 
BRANCH  26  27
ATOM     27  O   UNL A   1      32.877  34.697  28.073  1.00  0.00    -0.458 OA
BRANCH  27  28
ATOM     28  C   UNL A   1      33.142  34.787  29.396  1.00  0.00     0.338 C 
ATOM     29  O   UNL A   1      32.451  35.338  30.236  1.00  0.00    -0.246 OA
BRANCH  28  30
ATOM     30  C   UNL A   1      34.502  34.308  29.681  1.00  0.00     0.060 A 
ATOM     31  C   UNL A   1      35.490  34.604  28.740  1.00  0.00     0.016 A 
ATOM     32  C   UNL A   1      34.739  33.399  30.725  1.00  0.00     0.016 A 
ATOM     33  C   UNL A   1      36.671  33.891  28.778  1.00  0.00     0.010 A 
ATOM     34  C   UNL A   1      35.930  32.697  30.768  1.00  0.00     0.010 A 
ATOM     35  C   UNL A   1      36.869  32.907  29.761  1.00  0.00    -0.014 A 
BRANCH  35  36
ATOM     36  C   UNL A   1      38.175  32.260  29.793  1.00  0.00     0.031 A 
ATOM     37  C   UNL A   1      38.086  30.865  29.294  1.00  0.00     0.074 A 
ATOM     38  C   UNL A   1      39.331  32.848  30.170  1.00  0.00     0.049 A 
ATOM     39  N   UNL A   1      38.076  29.785  30.005  1.00  0.00    -0.248 NA
ATOM     40  C   UNL A   1      37.715  30.650  27.885  1.00  0.00     0.031 C 
ATOM     41  C   UNL A   1      39.561  34.280  30.388  1.00  0.00     0.029 A 
ATOM     42  N   UNL A   1      40.581  32.315  30.334  1.00  0.00    -0.354 N 
ATOM     43  C   UNL A   1      38.050  28.752  29.074  1.00  0.00     0.074 A 
ATOM     44  C   UNL A   1      37.559  29.324  27.853  1.00  0.00     0.031 C 
ATOM     45  C   UNL A   1      40.892  34.525  30.382  1.00  0.00     0.029 A 
ATOM     46  C   UNL A   1      41.605  33.261  30.325  1.00  0.00     0.049 A 
ATOM     47  H   UNL A   1      40.742  31.350  30.447  1.00  0.00     0.167 HD
ATOM     48  C   UNL A   1      38.810  27.643  29.294  1.00  0.00     0.034 A 
ATOM     49  C   UNL A   1      42.937  33.019  30.221  1.00  0.00     0.034 A 
ATOM     50  C   UNL A   1      39.242  27.589  30.666  1.00  0.00     0.049 A 
ATOM     51  C   UNL A   1      43.174  31.635  30.680  1.00  0.00     0.074 A 
ATOM     52  C   UNL A   1      38.740  27.231  31.895  1.00  0.00     0.029 A 
ATOM     53  N   UNL A   1      40.366  28.336  30.885  1.00  0.00    -0.354 N 
ATOM     54  N   UNL A   1      43.018  31.255  31.917  1.00  0.00    -0.248 NA
ATOM     55  C   UNL A   1      43.293  30.567  29.692  1.00  0.00     0.031 C 
ATOM     56  C   UNL A   1      39.574  27.858  32.867  1.00  0.00     0.029 A 
ATOM     57  C   UNL A   1      40.602  28.526  32.212  1.00  0.00     0.049 A 
ATOM     58  H   UNL A   1      40.937  28.695  30.167  1.00  0.00     0.167 HD
ATOM     59  C   UNL A   1      42.566  29.957  31.795  1.00  0.00     0.074 A 
ATOM     60  C   UNL A   1      42.930  29.531  30.450  1.00  0.00     0.031 C 
ATOM     61  C   UNL A   1      41.610  29.471  32.631  1.00  0.00     0.034 A 
BRANCH  48  62
ATOM     62  C   UNL A   1      39.645  26.934  28.235  1.00  0.00     0.023 A 
ATOM     63  C   UNL A   1      39.612  25.519  28.250  1.00  0.00     0.012 A 
ATOM     64  C   UNL A   1      40.669  27.530  27.464  1.00  0.00     0.148 A 
ATOM     65  C   UNL A   1      40.571  24.746  27.584  1.00  0.00     0.002 A 
ATOM     66  C   UNL A   1      41.578  26.761  26.746  1.00  0.00     0.091 A 
ATOM     67  F   UNL A   1      40.865  28.847  27.508  1.00  0.00    -0.205 F 
ATOM     68  C   UNL A   1      41.553  25.368  26.826  1.00  0.00     0.022 A 
BRANCH  66  69
ATOM     69  S   UNL A   1      42.850  27.513  25.720  1.00  0.00     0.127 S 
ATOM     70  O   UNL A   1      43.637  28.234  26.715  1.00  0.00    -0.237 OA
ATOM     71  O   UNL A   1      43.497  26.331  25.149  1.00  0.00    -0.237 OA
ATOM     72  O   UNL A   1      42.141  28.335  24.748  1.00  0.00    -0.744 OA
ENDBRANCH  66  69
ENDBRANCH  48  62
BRANCH  49  73
ATOM     73  C   UNL A   1      44.020  33.774  29.538  1.00  0.00     0.023 A 
ATOM     74  C   UNL A   1      45.093  34.288  30.300  1.00  0.00     0.012 A 
ATOM     75  C   UNL A   1      44.184  33.685  28.139  1.00  0.00     0.148 A 
ATOM     76  C   UNL A   1      46.311  34.631  29.700  1.00  0.00     0.002 A 
ATOM     77  C   UNL A   1      45.399  34.020  27.548  1.00  0.00     0.091 A 
ATOM     78  F   UNL A   1      43.182  33.183  27.405  1.00  0.00    -0.205 F 
ATOM     79  C   UNL A   1      46.471  34.477  28.327  1.00  0.00     0.022 A 
BRANCH  77  80
ATOM     80  S   UNL A   1      45.704  33.799  25.789  1.00  0.00     0.127 S 
ATOM     81  O   UNL A   1      45.402  32.379  25.608  1.00  0.00    -0.237 OA
ATOM     82  O   UNL A   1      44.730  34.712  25.198  1.00  0.00    -0.237 OA
ATOM     83  O   UNL A   1      47.103  34.147  25.581  1.00  0.00    -0.744 OA
ENDBRANCH  77  80
ENDBRANCH  49  73
BRANCH  61  84
ATOM     84  C   UNL A   1      41.511  30.022  34.012  1.00  0.00     0.023 A 
ATOM     85  C   UNL A   1      42.349  29.641  35.073  1.00  0.00     0.012 A 
ATOM     86  C   UNL A   1      40.627  31.100  34.176  1.00  0.00     0.148 A 
ATOM     87  C   UNL A   1      42.313  30.350  36.279  1.00  0.00     0.002 A 
ATOM     88  C   UNL A   1      40.641  31.838  35.345  1.00  0.00     0.091 A 
ATOM     89  F   UNL A   1      39.816  31.412  33.153  1.00  0.00    -0.205 F 
ATOM     90  C   UNL A   1      41.478  31.463  36.406  1.00  0.00     0.022 A 
BRANCH  88  91
ATOM     91  S   UNL A   1      39.710  33.364  35.479  1.00  0.00     0.127 S 
ATOM     92  O   UNL A   1      40.137  33.869  36.782  1.00  0.00    -0.237 OA
ATOM     93  O   UNL A   1      40.201  34.129  34.332  1.00  0.00    -0.237 OA
ATOM     94  O   UNL A   1      38.305  32.988  35.383  1.00  0.00    -0.744 OA
ENDBRANCH  88  91
ENDBRANCH  61  84
ENDBRANCH  35  36
ENDBRANCH  28  30
ENDBRANCH  27  28
ENDBRANCH  26  27
ENDBRANCH   1  26
TORSDOF 17
ENDMDL
MODEL 2
REMARK VINA RESULT:     -11.4      3.966      9.365
REMARK SMILES Cc1c(C(=O)OCCOC(=O)c2ccc(-c3c4nc(c(-c5cccc(S(=O)(=O)[O-])c5F)c5ccc([nH]5)c(-c5cccc(S(=O)(=O)[O-])c5F)c5nc(c(-c6cccc(S(=O)(=O)[O-])c6F)c6ccc3[nH]6)C=C5)C=C4)cc2)sc2ncnc(NCc3cn4c(n3)SCC4)c12
REMARK SMILES IDX 7 1 6 2 4 3 5 4 3 5 1 6 2 7 91 8 75 9 76 10 80 11 77 12
REMARK SMILES IDX 79 13 78 14 81 15 82 17 83 18 84 19 87 20 85 21 86 22 90 23
REMARK SMILES IDX 88 24 89 25 8 26 9 27 10 28 11 29 12 30 13 31 74 32 14 33
REMARK SMILES IDX 73 34 15 35 16 36 17 37 67 38 18 39 72 40 66 41 68 42 19 43
REMARK SMILES IDX 71 44 65 45 64 46 20 48 52 49 32 50 51 51 33 52 36 53 50 54
REMARK SMILES IDX 69 55 34 56 35 57 49 59 70 60 37 61 21 62 22 63 30 64 23 65
REMARK SMILES IDX 25 66 31 67 24 68 26 69 27 70 28 71 29 72 53 73 54 74 62 75
REMARK SMILES IDX 55 76 57 77 63 78 56 79 58 80 59 81 60 82 61 83 38 84 39 85
REMARK SMILES IDX 47 86 40 87 42 88 48 89 41 90 43 91 44 92 45 93 46 94
REMARK H PARENT 81 16 68 47 36 58
REMARK Flexibility Score: inf
ROOT
ATOM      1  C   UNL A   1      38.254  19.942  24.928  1.00  0.00     0.275 C 
ENDROOT
BRANCH   1   2
ATOM      2  O   UNL A   1      37.238  20.594  25.708  1.00  0.00    -0.458 OA
BRANCH   2   3
ATOM      3  C   UNL A   1      37.240  21.955  25.644  1.00  0.00     0.348 C 
ATOM      4  O   UNL A   1      38.146  22.661  26.085  1.00  0.00    -0.245 OA
BRANCH   3   5
ATOM      5  C   UNL A   1      36.082  22.469  24.933  1.00  0.00     0.118 A 
ATOM      6  C   UNL A   1      34.527  22.445  26.903  1.00  0.00     0.047 C 
ATOM      7  C   UNL A   1      34.793  22.615  25.444  1.00  0.00    -0.012 A 
ATOM      8  C   UNL A   1      33.823  22.964  24.407  1.00  0.00     0.058 A 
ATOM      9  S   UNL A   1      36.191  22.971  23.317  1.00  0.00    -0.108 S 
ATOM     10  C   UNL A   1      34.515  23.245  23.228  1.00  0.00     0.129 A 
ATOM     11  C   UNL A   1      32.408  23.085  24.303  1.00  0.00     0.138 A 
ATOM     12  N   UNL A   1      34.011  23.664  22.056  1.00  0.00    -0.225 NA
ATOM     13  N   UNL A   1      31.887  23.510  23.120  1.00  0.00    -0.219 NA
ATOM     14  C   UNL A   1      32.692  23.798  22.097  1.00  0.00     0.225 A 
BRANCH  11  15
ATOM     15  N   UNL A   1      31.395  22.765  25.169  1.00  0.00    -0.364 N 
ATOM     16  H   UNL A   1      31.087  21.834  25.096  1.00  0.00     0.162 HD
BRANCH  15  17
ATOM     17  C   UNL A   1      30.698  23.537  26.167  1.00  0.00     0.172 C 
BRANCH  17  18
ATOM     18  C   UNL A   1      30.715  25.028  26.015  1.00  0.00     0.079 A 
ATOM     19  C   UNL A   1      30.146  25.799  25.008  1.00  0.00     0.113 A 
ATOM     20  N   UNL A   1      31.489  25.813  26.861  1.00  0.00    -0.226 NA
ATOM     21  N   UNL A   1      30.664  27.036  25.211  1.00  0.00    -0.325 N 
ATOM     22  C   UNL A   1      31.445  26.998  26.324  1.00  0.00     0.168 A 
ATOM     23  C   UNL A   1      30.867  28.165  24.322  1.00  0.00     0.135 C 
ATOM     24  S   UNL A   1      32.536  28.329  26.415  1.00  0.00    -0.086 SA
ATOM     25  C   UNL A   1      32.291  28.645  24.620  1.00  0.00     0.100 C 
ENDBRANCH  17  18
ENDBRANCH  15  17
ENDBRANCH  11  15
ENDBRANCH   3   5
ENDBRANCH   2   3
ENDBRANCH   1   2
BRANCH   1  26
ATOM     26  C   UNL A   1      39.469  19.589  25.780  1.00  0.00     0.275 C 
BRANCH  26  27
ATOM     27  O   UNL A   1      40.693  19.573  25.040  1.00  0.00    -0.458 OA
BRANCH  27  28
ATOM     28  C   UNL A   1      41.785  19.334  25.801  1.00  0.00     0.338 C 
ATOM     29  O   UNL A   1      42.297  18.248  26.008  1.00  0.00    -0.246 OA
BRANCH  28  30
ATOM     30  C   UNL A   1      42.171  20.545  26.540  1.00  0.00     0.060 A 
ATOM     31  C   UNL A   1      41.757  20.638  27.869  1.00  0.00     0.016 A 
ATOM     32  C   UNL A   1      42.721  21.649  25.868  1.00  0.00     0.016 A 
ATOM     33  C   UNL A   1      41.781  21.874  28.482  1.00  0.00     0.010 A 
ATOM     34  C   UNL A   1      42.756  22.884  26.491  1.00  0.00     0.010 A 
ATOM     35  C   UNL A   1      42.235  23.002  27.777  1.00  0.00    -0.014 A 
BRANCH  35  36
ATOM     36  C   UNL A   1      42.316  24.254  28.518  1.00  0.00     0.031 A 
ATOM     37  C   UNL A   1      41.161  25.131  28.201  1.00  0.00     0.074 A 
ATOM     38  C   UNL A   1      43.273  24.572  29.416  1.00  0.00     0.049 A 
ATOM     39  N   UNL A   1      41.159  26.160  27.419  1.00  0.00    -0.248 NA
ATOM     40  C   UNL A   1      39.813  24.678  28.587  1.00  0.00     0.031 C 
ATOM     41  C   UNL A   1      44.265  23.666  30.004  1.00  0.00     0.029 A 
ATOM     42  N   UNL A   1      43.501  25.743  30.087  1.00  0.00    -0.354 N 
ATOM     43  C   UNL A   1      39.869  26.671  27.512  1.00  0.00     0.074 A 
ATOM     44  C   UNL A   1      39.048  25.599  27.997  1.00  0.00     0.031 C 
ATOM     45  C   UNL A   1      44.791  24.237  31.113  1.00  0.00     0.029 A 
ATOM     46  C   UNL A   1      44.299  25.599  31.222  1.00  0.00     0.049 A 
ATOM     47  H   UNL A   1      43.135  26.609  29.794  1.00  0.00     0.167 HD
ATOM     48  C   UNL A   1      39.693  28.020  27.567  1.00  0.00     0.034 A 
ATOM     49  C   UNL A   1      44.492  26.517  32.204  1.00  0.00     0.034 A 
ATOM     50  C   UNL A   1      40.888  28.704  27.148  1.00  0.00     0.049 A 
ATOM     51  C   UNL A   1      44.204  27.847  31.631  1.00  0.00     0.074 A 
ATOM     52  C   UNL A   1      41.528  29.047  25.980  1.00  0.00     0.029 A 
ATOM     53  N   UNL A   1      41.793  28.836  28.165  1.00  0.00    -0.354 N 
ATOM     54  N   UNL A   1      44.943  28.407  30.715  1.00  0.00    -0.248 NA
ATOM     55  C   UNL A   1      42.894  28.452  31.853  1.00  0.00     0.031 C 
ATOM     56  C   UNL A   1      42.882  29.322  26.331  1.00  0.00     0.029 A 
ATOM     57  C   UNL A   1      43.020  29.208  27.710  1.00  0.00     0.049 A 
ATOM     58  H   UNL A   1      41.581  28.679  29.114  1.00  0.00     0.167 HD
ATOM     59  C   UNL A   1      44.030  29.110  29.957  1.00  0.00     0.074 A 
ATOM     60  C   UNL A   1      42.846  29.258  30.792  1.00  0.00     0.031 C 
ATOM     61  C   UNL A   1      44.154  29.178  28.605  1.00  0.00     0.034 A 
BRANCH  48  62
ATOM     62  C   UNL A   1      38.729  28.737  28.505  1.00  0.00     0.023 A 
ATOM     63  C   UNL A   1      37.931  29.755  27.931  1.00  0.00     0.012 A 
ATOM     64  C   UNL A   1      38.783  28.702  29.917  1.00  0.00     0.148 A 
ATOM     65  C   UNL A   1      37.271  30.712  28.713  1.00  0.00     0.002 A 
ATOM     66  C   UNL A   1      38.070  29.610  30.694  1.00  0.00     0.091 A 
ATOM     67  F   UNL A   1      39.620  27.874  30.539  1.00  0.00    -0.205 F 
ATOM     68  C   UNL A   1      37.337  30.636  30.096  1.00  0.00     0.022 A 
BRANCH  66  69
ATOM     69  S   UNL A   1      38.090  29.537  32.491  1.00  0.00     0.127 S 
ATOM     70  O   UNL A   1      39.516  29.662  32.771  1.00  0.00    -0.237 OA
ATOM     71  O   UNL A   1      37.281  30.706  32.835  1.00  0.00    -0.237 OA
ATOM     72  O   UNL A   1      37.479  28.262  32.843  1.00  0.00    -0.744 OA
ENDBRANCH  66  69
ENDBRANCH  48  62
BRANCH  49  73
ATOM     73  C   UNL A   1      44.669  26.358  33.671  1.00  0.00     0.023 A 
ATOM     74  C   UNL A   1      45.881  26.769  34.271  1.00  0.00     0.012 A 
ATOM     75  C   UNL A   1      43.554  26.146  34.510  1.00  0.00     0.148 A 
ATOM     76  C   UNL A   1      45.960  27.031  35.643  1.00  0.00     0.002 A 
ATOM     77  C   UNL A   1      43.635  26.416  35.874  1.00  0.00     0.091 A 
ATOM     78  F   UNL A   1      42.394  25.775  33.954  1.00  0.00    -0.205 F 
ATOM     79  C   UNL A   1      44.832  26.875  36.441  1.00  0.00     0.022 A 
BRANCH  77  80
ATOM     80  S   UNL A   1      42.210  26.291  36.963  1.00  0.00     0.127 S 
ATOM     81  O   UNL A   1      42.815  26.511  38.276  1.00  0.00    -0.237 OA
ATOM     82  O   UNL A   1      41.369  27.385  36.486  1.00  0.00    -0.237 OA
ATOM     83  O   UNL A   1      41.675  24.950  36.766  1.00  0.00    -0.744 OA
ENDBRANCH  77  80
ENDBRANCH  49  73
BRANCH  61  84
ATOM     84  C   UNL A   1      45.513  29.097  27.998  1.00  0.00     0.023 A 
ATOM     85  C   UNL A   1      46.426  30.164  27.967  1.00  0.00     0.012 A 
ATOM     86  C   UNL A   1      45.925  27.816  27.596  1.00  0.00     0.148 A 
ATOM     87  C   UNL A   1      47.745  29.940  27.556  1.00  0.00     0.002 A 
ATOM     88  C   UNL A   1      47.244  27.586  27.254  1.00  0.00     0.091 A 
ATOM     89  F   UNL A   1      45.014  26.829  27.606  1.00  0.00    -0.205 F 
ATOM     90  C   UNL A   1      48.160  28.648  27.224  1.00  0.00     0.022 A 
BRANCH  88  91
ATOM     91  S   UNL A   1      47.847  25.920  26.986  1.00  0.00     0.127 S 
ATOM     92  O   UNL A   1      47.141  25.531  25.768  1.00  0.00    -0.237 OA
ATOM     93  O   UNL A   1      49.286  26.134  26.822  1.00  0.00    -0.237 OA
ATOM     94  O   UNL A   1      47.493  25.167  28.184  1.00  0.00    -0.744 OA
ENDBRANCH  88  91
ENDBRANCH  61  84
ENDBRANCH  35  36
ENDBRANCH  28  30
ENDBRANCH  27  28
ENDBRANCH  26  27
ENDBRANCH   1  26
TORSDOF 17
ENDMDL
MODEL 3
REMARK VINA RESULT:     -11.1      3.223      7.627
REMARK SMILES Cc1c(C(=O)OCCOC(=O)c2ccc(-c3c4nc(c(-c5cccc(S(=O)(=O)[O-])c5F)c5ccc([nH]5)c(-c5cccc(S(=O)(=O)[O-])c5F)c5nc(c(-c6cccc(S(=O)(=O)[O-])c6F)c6ccc3[nH]6)C=C5)C=C4)cc2)sc2ncnc(NCc3cn4c(n3)SCC4)c12
REMARK SMILES IDX 7 1 6 2 4 3 5 4 3 5 1 6 2 7 91 8 75 9 76 10 80 11 77 12
REMARK SMILES IDX 79 13 78 14 81 15 82 17 83 18 84 19 87 20 85 21 86 22 90 23
REMARK SMILES IDX 88 24 89 25 8 26 9 27 10 28 11 29 12 30 13 31 74 32 14 33
REMARK SMILES IDX 73 34 15 35 16 36 17 37 67 38 18 39 72 40 66 41 68 42 19 43
REMARK SMILES IDX 71 44 65 45 64 46 20 48 52 49 32 50 51 51 33 52 36 53 50 54
REMARK SMILES IDX 69 55 34 56 35 57 49 59 70 60 37 61 21 62 22 63 30 64 23 65
REMARK SMILES IDX 25 66 31 67 24 68 26 69 27 70 28 71 29 72 53 73 54 74 62 75
REMARK SMILES IDX 55 76 57 77 63 78 56 79 58 80 59 81 60 82 61 83 38 84 39 85
REMARK SMILES IDX 47 86 40 87 42 88 48 89 41 90 43 91 44 92 45 93 46 94
REMARK H PARENT 81 16 68 47 36 58
REMARK Flexibility Score: inf
ROOT
ATOM      1  C   UNL A   1      36.013  20.707  25.124  1.00  0.00     0.275 C 
ENDROOT
BRANCH   1   2
ATOM      2  O   UNL A   1      35.094  21.751  24.763  1.00  0.00    -0.458 OA
BRANCH   2   3
ATOM      3  C   UNL A   1      33.822  21.340  24.497  1.00  0.00     0.348 C 
ATOM      4  O   UNL A   1      33.524  20.186  24.187  1.00  0.00    -0.245 OA
BRANCH   3   5
ATOM      5  C   UNL A   1      32.853  22.405  24.687  1.00  0.00     0.118 A 
ATOM      6  C   UNL A   1      33.323  23.586  22.523  1.00  0.00     0.047 C 
ATOM      7  C   UNL A   1      32.661  23.510  23.859  1.00  0.00    -0.012 A 
ATOM      8  C   UNL A   1      31.752  24.493  24.447  1.00  0.00     0.058 A 
ATOM      9  S   UNL A   1      31.799  22.411  26.016  1.00  0.00    -0.108 S 
ATOM     10  C   UNL A   1      31.183  23.939  25.595  1.00  0.00     0.129 A 
ATOM     11  C   UNL A   1      31.320  25.818  24.155  1.00  0.00     0.138 A 
ATOM     12  N   UNL A   1      30.253  24.481  26.398  1.00  0.00    -0.225 NA
ATOM     13  N   UNL A   1      30.377  26.375  24.962  1.00  0.00    -0.219 NA
ATOM     14  C   UNL A   1      29.884  25.688  25.993  1.00  0.00     0.225 A 
BRANCH  11  15
ATOM     15  N   UNL A   1      31.740  26.734  23.227  1.00  0.00    -0.364 N 
ATOM     16  H   UNL A   1      31.427  26.548  22.313  1.00  0.00     0.162 HD
BRANCH  15  17
ATOM     17  C   UNL A   1      32.553  27.918  23.340  1.00  0.00     0.172 C 
BRANCH  17  18
ATOM     18  C   UNL A   1      32.772  28.471  24.716  1.00  0.00     0.079 A 
ATOM     19  C   UNL A   1      32.101  29.515  25.343  1.00  0.00     0.113 A 
ATOM     20  N   UNL A   1      33.849  28.044  25.482  1.00  0.00    -0.226 NA
ATOM     21  N   UNL A   1      32.847  29.765  26.448  1.00  0.00    -0.325 N 
ATOM     22  C   UNL A   1      33.865  28.864  26.494  1.00  0.00     0.168 A 
ATOM     23  C   UNL A   1      33.001  30.951  27.271  1.00  0.00     0.135 C 
ATOM     24  S   UNL A   1      35.144  29.360  27.536  1.00  0.00    -0.086 SA
ATOM     25  C   UNL A   1      34.512  31.087  27.481  1.00  0.00     0.100 C 
ENDBRANCH  17  18
ENDBRANCH  15  17
ENDBRANCH  11  15
ENDBRANCH   3   5
ENDBRANCH   2   3
ENDBRANCH   1   2
BRANCH   1  26
ATOM     26  C   UNL A   1      37.456  21.115  24.849  1.00  0.00     0.275 C 
BRANCH  26  27
ATOM     27  O   UNL A   1      37.898  22.209  25.658  1.00  0.00    -0.458 OA
BRANCH  27  28
ATOM     28  C   UNL A   1      39.122  22.021  26.201  1.00  0.00     0.338 C 
ATOM     29  O   UNL A   1      39.760  20.982  26.202  1.00  0.00    -0.246 OA
BRANCH  28  30
ATOM     30  C   UNL A   1      39.517  23.193  26.994  1.00  0.00     0.060 A 
ATOM     31  C   UNL A   1      38.774  24.361  26.818  1.00  0.00     0.016 A 
ATOM     32  C   UNL A   1      40.726  23.200  27.711  1.00  0.00     0.016 A 
ATOM     33  C   UNL A   1      39.308  25.556  27.253  1.00  0.00     0.010 A 
ATOM     34  C   UNL A   1      41.252  24.399  28.159  1.00  0.00     0.010 A 
ATOM     35  C   UNL A   1      40.567  25.578  27.880  1.00  0.00    -0.014 A 
BRANCH  35  36
ATOM     36  C   UNL A   1      41.024  26.863  28.393  1.00  0.00     0.031 A 
ATOM     37  C   UNL A   1      42.372  27.193  27.866  1.00  0.00     0.074 A 
ATOM     38  C   UNL A   1      40.313  27.684  29.197  1.00  0.00     0.049 A 
ATOM     39  N   UNL A   1      43.498  27.092  28.494  1.00  0.00    -0.248 NA
ATOM     40  C   UNL A   1      42.520  27.415  26.417  1.00  0.00     0.031 C 
ATOM     41  C   UNL A   1      38.886  27.582  29.519  1.00  0.00     0.029 A 
ATOM     42  N   UNL A   1      40.678  28.850  29.813  1.00  0.00    -0.354 N 
ATOM     43  C   UNL A   1      44.444  27.583  27.600  1.00  0.00     0.074 A 
ATOM     44  C   UNL A   1      43.847  27.498  26.298  1.00  0.00     0.031 C 
ATOM     45  C   UNL A   1      38.458  28.761  30.028  1.00  0.00     0.029 A 
ATOM     46  C   UNL A   1      39.600  29.636  30.219  1.00  0.00     0.049 A 
ATOM     47  H   UNL A   1      41.617  29.110  29.957  1.00  0.00     0.167 HD
ATOM     48  C   UNL A   1      45.449  28.373  28.068  1.00  0.00     0.034 A 
ATOM     49  C   UNL A   1      39.644  30.931  30.626  1.00  0.00     0.034 A 
ATOM     50  C   UNL A   1      45.555  28.264  29.499  1.00  0.00     0.049 A 
ATOM     51  C   UNL A   1      41.014  31.198  31.108  1.00  0.00     0.074 A 
ATOM     52  C   UNL A   1      46.081  27.403  30.434  1.00  0.00     0.029 A 
ATOM     53  N   UNL A   1      44.679  29.088  30.148  1.00  0.00    -0.354 N 
ATOM     54  N   UNL A   1      41.514  30.655  32.182  1.00  0.00    -0.248 NA
ATOM     55  C   UNL A   1      41.970  31.849  30.217  1.00  0.00     0.031 C 
ATOM     56  C   UNL A   1      45.426  27.701  31.665  1.00  0.00     0.029 A 
ATOM     57  C   UNL A   1      44.569  28.777  31.469  1.00  0.00     0.049 A 
ATOM     58  H   UNL A   1      44.186  29.820  29.711  1.00  0.00     0.167 HD
ATOM     59  C   UNL A   1      42.847  30.496  31.867  1.00  0.00     0.074 A 
ATOM     60  C   UNL A   1      43.106  31.400  30.754  1.00  0.00     0.031 C 
ATOM     61  C   UNL A   1      43.529  29.389  32.263  1.00  0.00     0.034 A 
BRANCH  48  62
ATOM     62  C   UNL A   1      45.945  29.646  27.392  1.00  0.00     0.023 A 
ATOM     63  C   UNL A   1      47.343  29.870  27.419  1.00  0.00     0.012 A 
ATOM     64  C   UNL A   1      45.138  30.748  27.030  1.00  0.00     0.148 A 
ATOM     65  C   UNL A   1      47.897  31.129  27.156  1.00  0.00     0.002 A 
ATOM     66  C   UNL A   1      45.696  31.979  26.700  1.00  0.00     0.091 A 
ATOM     67  F   UNL A   1      43.812  30.670  27.119  1.00  0.00    -0.205 F 
ATOM     68  C   UNL A   1      47.074  32.183  26.791  1.00  0.00     0.022 A 
BRANCH  66  69
ATOM     69  S   UNL A   1      44.680  33.371  26.187  1.00  0.00     0.127 S 
ATOM     70  O   UNL A   1      45.695  34.353  25.820  1.00  0.00    -0.237 OA
ATOM     71  O   UNL A   1      43.938  32.790  25.068  1.00  0.00    -0.237 OA
ATOM     72  O   UNL A   1      43.856  33.707  27.341  1.00  0.00    -0.744 OA
ENDBRANCH  66  69
ENDBRANCH  48  62
BRANCH  49  73
ATOM     73  C   UNL A   1      38.691  32.054  30.426  1.00  0.00     0.023 A 
ATOM     74  C   UNL A   1      38.214  32.333  29.125  1.00  0.00     0.012 A 
ATOM     75  C   UNL A   1      37.992  32.606  31.520  1.00  0.00     0.148 A 
ATOM     76  C   UNL A   1      37.041  33.071  28.925  1.00  0.00     0.002 A 
ATOM     77  C   UNL A   1      36.822  33.333  31.316  1.00  0.00     0.091 A 
ATOM     78  F   UNL A   1      38.422  32.335  32.759  1.00  0.00    -0.205 F 
ATOM     79  C   UNL A   1      36.334  33.553  30.021  1.00  0.00     0.022 A 
BRANCH  77  80
ATOM     80  S   UNL A   1      35.822  33.944  32.680  1.00  0.00     0.127 S 
ATOM     81  O   UNL A   1      36.689  34.976  33.250  1.00  0.00    -0.237 OA
ATOM     82  O   UNL A   1      34.642  34.451  31.985  1.00  0.00    -0.237 OA
ATOM     83  O   UNL A   1      35.598  32.800  33.553  1.00  0.00    -0.744 OA
ENDBRANCH  77  80
ENDBRANCH  49  73
BRANCH  61  84
ATOM     84  C   UNL A   1      43.114  28.693  33.514  1.00  0.00     0.023 A 
ATOM     85  C   UNL A   1      42.255  27.582  33.548  1.00  0.00     0.012 A 
ATOM     86  C   UNL A   1      43.774  29.099  34.685  1.00  0.00     0.148 A 
ATOM     87  C   UNL A   1      42.078  26.874  34.742  1.00  0.00     0.002 A 
ATOM     88  C   UNL A   1      43.647  28.359  35.846  1.00  0.00     0.091 A 
ATOM     89  F   UNL A   1      44.558  30.187  34.622  1.00  0.00    -0.205 F 
ATOM     90  C   UNL A   1      42.793  27.247  35.883  1.00  0.00     0.022 A 
BRANCH  88  91
ATOM     91  S   UNL A   1      44.672  28.707  37.274  1.00  0.00     0.127 S 
ATOM     92  O   UNL A   1      44.153  29.999  37.716  1.00  0.00    -0.237 OA
ATOM     93  O   UNL A   1      44.362  27.583  38.159  1.00  0.00    -0.237 OA
ATOM     94  O   UNL A   1      46.047  28.717  36.789  1.00  0.00    -0.744 OA
ENDBRANCH  88  91
ENDBRANCH  61  84
ENDBRANCH  35  36
ENDBRANCH  28  30
ENDBRANCH  27  28
ENDBRANCH  26  27
ENDBRANCH   1  26
TORSDOF 17
ENDMDL
