MODEL 1
REMARK VINA RESULT:     -11.5      0.000      0.000
REMARK SMILES [NH3+]C[C@H]1CC[C@@H](C(=O)N[C@H](C(=O)OCCOC(=O)c2ccc(-c3c4nc(c(-c5cccc(S(=O)(=O)[O-])c5F)c5ccc([nH]5)c(-c5cccc(S(=O)(=O)[O-])c5F)c5nc(c(-c6cccc(S(=O)(=O)[O-])c6F)c6ccc3[nH]6)C=C5)C=C4)cc2)C2CCCCC2)O1
REMARK SMILES IDX 14 1 13 2 11 3 12 4 10 5 9 6 7 7 8 8 6 10 3 11 4 12 88 13
REMARK SMILES IDX 5 14 2 15 1 16 82 20 83 21 87 22 84 23 86 24 85 25 15 26
REMARK SMILES IDX 16 27 17 28 18 29 19 30 20 31 81 32 21 33 80 34 22 35 23 36
REMARK SMILES IDX 24 37 74 38 25 39 79 40 73 41 75 42 26 43 78 44 72 45 71 46
REMARK SMILES IDX 27 48 59 49 39 50 58 51 40 52 43 53 57 54 76 55 41 56 42 57
REMARK SMILES IDX 56 59 77 60 44 61 28 62 29 63 37 64 30 65 32 66 38 67 31 68
REMARK SMILES IDX 33 69 34 70 35 71 36 72 60 73 61 74 69 75 62 76 64 77 70 78
REMARK SMILES IDX 63 79 65 80 66 81 67 82 68 83 45 84 46 85 54 86 47 87 49 88
REMARK SMILES IDX 55 89 48 90 50 91 51 92 52 93 53 94
REMARK H PARENT 9 9 1 17 1 18 1 19 75 47 43 58
REMARK Flexibility Score: inf
ROOT
ATOM      1  C   UNL A   1      36.320  20.647  25.010  1.00  0.00     0.274 C 
ENDROOT
BRANCH   1   2
ATOM      2  O   UNL A   1      35.840  21.920  24.529  1.00  0.00    -0.461 OA
BRANCH   2   3
ATOM      3  C   UNL A   1      34.562  22.214  24.898  1.00  0.00     0.329 C 
ATOM      4  O   UNL A   1      34.271  22.818  25.925  1.00  0.00    -0.250 OA
BRANCH   3   5
ATOM      5  C   UNL A   1      33.515  21.633  23.918  1.00  0.00     0.195 C 
BRANCH   5   6
ATOM      6  N   UNL A   1      32.647  20.766  24.745  1.00  0.00    -0.340 N 
ATOM      7  C   UNL A   1      32.753  19.422  24.976  1.00  0.00     0.249 C 
ATOM      8  O   UNL A   1      32.000  18.901  25.798  1.00  0.00    -0.272 OA
ATOM      9  H   UNL A   1      31.893  21.216  25.188  1.00  0.00     0.164 HD
BRANCH   7  10
ATOM     10  C   UNL A   1      33.752  18.612  24.140  1.00  0.00     0.207 C 
ATOM     11  C   UNL A   1      34.433  16.374  24.213  1.00  0.00     0.174 C 
ATOM     12  C   UNL A   1      33.877  16.662  22.828  1.00  0.00     0.041 C 
ATOM     13  O   UNL A   1      34.509  17.646  24.878  1.00  0.00    -0.359 OA
ATOM     14  C   UNL A   1      32.986  17.850  23.070  1.00  0.00     0.045 C 
BRANCH  11  15
ATOM     15  C   UNL A   1      33.554  15.413  25.046  1.00  0.00     0.291 C 
BRANCH  15  16
ATOM     16  N   UNL A   1      32.950  16.082  26.208  1.00  0.00    -0.355 N 
ATOM     17  H   UNL A   1      32.532  16.963  25.914  1.00  0.00     0.344 HD
ATOM     18  H   UNL A   1      33.671  16.264  26.908  1.00  0.00     0.344 HD
ATOM     19  H   UNL A   1      32.232  15.480  26.610  1.00  0.00     0.344 HD
ENDBRANCH  15  16
ENDBRANCH  11  15
ENDBRANCH   7  10
ENDBRANCH   5   6
BRANCH   5  20
ATOM     20  C   UNL A   1      32.647  22.685  23.180  1.00  0.00     0.023 C 
ATOM     21  C   UNL A   1      31.435  23.167  23.998  1.00  0.00     0.006 C 
ATOM     22  C   UNL A   1      33.494  23.912  22.766  1.00  0.00     0.006 C 
ATOM     23  C   UNL A   1      30.610  24.205  23.237  1.00  0.00     0.000 C 
ATOM     24  C   UNL A   1      32.673  24.952  22.008  1.00  0.00     0.000 C 
ATOM     25  C   UNL A   1      31.453  25.396  22.802  1.00  0.00     0.000 C 
ENDBRANCH   5  20
ENDBRANCH   3   5
ENDBRANCH   2   3
ENDBRANCH   1   2
BRANCH   1  26
ATOM     26  C   UNL A   1      37.847  20.576  24.985  1.00  0.00     0.275 C 
BRANCH  26  27
ATOM     27  O   UNL A   1      38.417  21.689  25.694  1.00  0.00    -0.458 OA
BRANCH  27  28
ATOM     28  C   UNL A   1      39.517  21.427  26.430  1.00  0.00     0.338 C 
ATOM     29  O   UNL A   1      39.980  20.323  26.693  1.00  0.00    -0.246 OA
BRANCH  28  30
ATOM     30  C   UNL A   1      40.130  22.680  26.902  1.00  0.00     0.060 A 
ATOM     31  C   UNL A   1      41.113  22.672  27.894  1.00  0.00     0.016 A 
ATOM     32  C   UNL A   1      39.652  23.892  26.404  1.00  0.00     0.016 A 
ATOM     33  C   UNL A   1      41.575  23.868  28.437  1.00  0.00     0.010 A 
ATOM     34  C   UNL A   1      40.183  25.090  26.882  1.00  0.00     0.010 A 
ATOM     35  C   UNL A   1      41.138  25.092  27.913  1.00  0.00    -0.014 A 
BRANCH  35  36
ATOM     36  C   UNL A   1      41.719  26.377  28.381  1.00  0.00     0.031 A 
ATOM     37  C   UNL A   1      40.849  27.414  29.035  1.00  0.00     0.074 A 
ATOM     38  C   UNL A   1      43.013  26.645  28.115  1.00  0.00     0.049 A 
ATOM     39  N   UNL A   1      41.126  28.660  29.316  1.00  0.00    -0.248 NA
ATOM     40  C   UNL A   1      39.485  27.004  29.409  1.00  0.00     0.031 C 
ATOM     41  C   UNL A   1      43.950  25.725  27.462  1.00  0.00     0.029 A 
ATOM     42  N   UNL A   1      43.752  27.784  28.313  1.00  0.00    -0.354 N 
ATOM     43  C   UNL A   1      39.957  29.203  29.835  1.00  0.00     0.074 A 
ATOM     44  C   UNL A   1      38.970  28.144  29.850  1.00  0.00     0.031 C 
ATOM     45  C   UNL A   1      45.126  26.343  27.288  1.00  0.00     0.029 A 
ATOM     46  C   UNL A   1      45.010  27.719  27.757  1.00  0.00     0.049 A 
ATOM     47  H   UNL A   1      43.417  28.569  28.802  1.00  0.00     0.167 HD
ATOM     48  C   UNL A   1      39.734  30.467  30.264  1.00  0.00     0.034 A 
ATOM     49  C   UNL A   1      45.949  28.670  27.590  1.00  0.00     0.034 A 
ATOM     50  C   UNL A   1      40.741  31.493  30.311  1.00  0.00     0.049 A 
ATOM     51  C   UNL A   1      45.676  30.059  28.089  1.00  0.00     0.074 A 
ATOM     52  C   UNL A   1      40.643  32.769  30.838  1.00  0.00     0.029 A 
ATOM     53  N   UNL A   1      42.025  31.365  29.806  1.00  0.00    -0.354 N 
ATOM     54  N   UNL A   1      44.610  30.519  28.699  1.00  0.00    -0.248 NA
ATOM     55  C   UNL A   1      46.736  31.056  27.892  1.00  0.00     0.031 C 
ATOM     56  C   UNL A   1      41.865  33.420  30.636  1.00  0.00     0.029 A 
ATOM     57  C   UNL A   1      42.725  32.546  29.988  1.00  0.00     0.049 A 
ATOM     58  H   UNL A   1      42.388  30.554  29.382  1.00  0.00     0.167 HD
ATOM     59  C   UNL A   1      44.874  31.855  28.966  1.00  0.00     0.074 A 
ATOM     60  C   UNL A   1      46.213  32.123  28.483  1.00  0.00     0.031 C 
ATOM     61  C   UNL A   1      44.069  32.785  29.537  1.00  0.00     0.034 A 
BRANCH  48  62
ATOM     62  C   UNL A   1      38.358  30.818  30.760  1.00  0.00     0.023 A 
ATOM     63  C   UNL A   1      38.031  30.601  32.113  1.00  0.00     0.012 A 
ATOM     64  C   UNL A   1      37.429  31.456  29.915  1.00  0.00     0.148 A 
ATOM     65  C   UNL A   1      36.794  31.006  32.615  1.00  0.00     0.002 A 
ATOM     66  C   UNL A   1      36.210  31.884  30.430  1.00  0.00     0.091 A 
ATOM     67  F   UNL A   1      37.754  31.632  28.626  1.00  0.00    -0.205 F 
ATOM     68  C   UNL A   1      35.891  31.656  31.778  1.00  0.00     0.022 A 
BRANCH  66  69
ATOM     69  S   UNL A   1      35.006  32.786  29.448  1.00  0.00     0.127 S 
ATOM     70  O   UNL A   1      34.093  33.277  30.480  1.00  0.00    -0.237 OA
ATOM     71  O   UNL A   1      35.830  33.821  28.822  1.00  0.00    -0.237 OA
ATOM     72  O   UNL A   1      34.437  31.819  28.521  1.00  0.00    -0.744 OA
ENDBRANCH  66  69
ENDBRANCH  48  62
BRANCH  49  73
ATOM     73  C   UNL A   1      47.232  28.324  26.916  1.00  0.00     0.023 A 
ATOM     74  C   UNL A   1      48.393  28.148  27.690  1.00  0.00     0.012 A 
ATOM     75  C   UNL A   1      47.293  28.111  25.525  1.00  0.00     0.148 A 
ATOM     76  C   UNL A   1      49.597  27.778  27.088  1.00  0.00     0.002 A 
ATOM     77  C   UNL A   1      48.481  27.687  24.940  1.00  0.00     0.091 A 
ATOM     78  F   UNL A   1      46.184  28.310  24.796  1.00  0.00    -0.205 F 
ATOM     79  C   UNL A   1      49.637  27.533  25.717  1.00  0.00     0.022 A 
BRANCH  77  80
ATOM     80  S   UNL A   1      48.547  27.215  23.208  1.00  0.00     0.127 S 
ATOM     81  O   UNL A   1      48.133  25.816  23.259  1.00  0.00    -0.237 OA
ATOM     82  O   UNL A   1      47.574  28.120  22.593  1.00  0.00    -0.237 OA
ATOM     83  O   UNL A   1      49.925  27.468  22.806  1.00  0.00    -0.744 OA
ENDBRANCH  77  80
ENDBRANCH  49  73
BRANCH  61  84
ATOM     84  C   UNL A   1      44.611  34.182  29.662  1.00  0.00     0.023 A 
ATOM     85  C   UNL A   1      45.249  34.566  30.857  1.00  0.00     0.012 A 
ATOM     86  C   UNL A   1      44.550  35.087  28.584  1.00  0.00     0.148 A 
ATOM     87  C   UNL A   1      45.801  35.839  30.987  1.00  0.00     0.002 A 
ATOM     88  C   UNL A   1      45.136  36.341  28.709  1.00  0.00     0.091 A 
ATOM     89  F   UNL A   1      43.917  34.709  27.464  1.00  0.00    -0.205 F 
ATOM     90  C   UNL A   1      45.754  36.721  29.911  1.00  0.00     0.022 A 
BRANCH  88  91
ATOM     91  S   UNL A   1      45.194  37.507  27.344  1.00  0.00     0.127 S 
ATOM     92  O   UNL A   1      43.776  37.675  27.033  1.00  0.00    -0.237 OA
ATOM     93  O   UNL A   1      45.827  38.677  27.956  1.00  0.00    -0.237 OA
ATOM     94  O   UNL A   1      45.994  36.866  26.309  1.00  0.00    -0.744 OA
ENDBRANCH  88  91
ENDBRANCH  61  84
ENDBRANCH  35  36
ENDBRANCH  28  30
ENDBRANCH  27  28
ENDBRANCH  26  27
ENDBRANCH   1  26
TORSDOF 19
ENDMDL
MODEL 2
REMARK VINA RESULT:     -11.4      5.509     10.567
REMARK SMILES [NH3+]C[C@H]1CC[C@@H](C(=O)N[C@H](C(=O)OCCOC(=O)c2ccc(-c3c4nc(c(-c5cccc(S(=O)(=O)[O-])c5F)c5ccc([nH]5)c(-c5cccc(S(=O)(=O)[O-])c5F)c5nc(c(-c6cccc(S(=O)(=O)[O-])c6F)c6ccc3[nH]6)C=C5)C=C4)cc2)C2CCCCC2)O1
REMARK SMILES IDX 14 1 13 2 11 3 12 4 10 5 9 6 7 7 8 8 6 10 3 11 4 12 88 13
REMARK SMILES IDX 5 14 2 15 1 16 82 20 83 21 87 22 84 23 86 24 85 25 15 26
REMARK SMILES IDX 16 27 17 28 18 29 19 30 20 31 81 32 21 33 80 34 22 35 23 36
REMARK SMILES IDX 24 37 74 38 25 39 79 40 73 41 75 42 26 43 78 44 72 45 71 46
REMARK SMILES IDX 27 48 59 49 39 50 58 51 40 52 43 53 57 54 76 55 41 56 42 57
REMARK SMILES IDX 56 59 77 60 44 61 28 62 29 63 37 64 30 65 32 66 38 67 31 68
REMARK SMILES IDX 33 69 34 70 35 71 36 72 60 73 61 74 69 75 62 76 64 77 70 78
REMARK SMILES IDX 63 79 65 80 66 81 67 82 68 83 45 84 46 85 54 86 47 87 49 88
REMARK SMILES IDX 55 89 48 90 50 91 51 92 52 93 53 94
REMARK H PARENT 9 9 1 17 1 18 1 19 75 47 43 58
REMARK Flexibility Score: inf
ROOT
ATOM      1  C   UNL A   1      31.767  28.297  27.604  1.00  0.00     0.274 C 
ENDROOT
BRANCH   1   2
ATOM      2  O   UNL A   1      31.350  27.144  26.844  1.00  0.00    -0.461 OA
BRANCH   2   3
ATOM      3  C   UNL A   1      32.342  26.559  26.118  1.00  0.00     0.329 C 
ATOM      4  O   UNL A   1      33.515  26.521  26.474  1.00  0.00    -0.250 OA
BRANCH   3   5
ATOM      5  C   UNL A   1      31.840  26.019  24.757  1.00  0.00     0.195 C 
BRANCH   5   6
ATOM      6  N   UNL A   1      32.310  26.998  23.752  1.00  0.00    -0.340 N 
ATOM      7  C   UNL A   1      31.736  28.182  23.378  1.00  0.00     0.249 C 
ATOM      8  O   UNL A   1      32.350  28.921  22.608  1.00  0.00    -0.272 OA
ATOM      9  H   UNL A   1      33.148  26.766  23.291  1.00  0.00     0.164 HD
BRANCH   7  10
ATOM     10  C   UNL A   1      30.321  28.498  23.876  1.00  0.00     0.207 C 
ATOM     11  C   UNL A   1      28.677  29.992  23.135  1.00  0.00     0.174 C 
ATOM     12  C   UNL A   1      28.095  28.587  23.113  1.00  0.00     0.041 C 
ATOM     13  O   UNL A   1      29.949  29.880  23.795  1.00  0.00    -0.359 OA
ATOM     14  C   UNL A   1      29.323  27.723  23.029  1.00  0.00     0.045 C 
BRANCH  11  15
ATOM     15  C   UNL A   1      28.881  30.600  21.729  1.00  0.00     0.291 C 
BRANCH  15  16
ATOM     16  N   UNL A   1      30.265  30.443  21.254  1.00  0.00    -0.355 N 
ATOM     17  H   UNL A   1      30.877  30.250  22.046  1.00  0.00     0.344 HD
ATOM     18  H   UNL A   1      30.565  31.302  20.792  1.00  0.00     0.344 HD
ATOM     19  H   UNL A   1      30.310  29.669  20.592  1.00  0.00     0.344 HD
ENDBRANCH  15  16
ENDBRANCH  11  15
ENDBRANCH   7  10
ENDBRANCH   5   6
BRANCH   5  20
ATOM     20  C   UNL A   1      32.348  24.603  24.381  1.00  0.00     0.023 C 
ATOM     21  C   UNL A   1      31.443  23.469  24.895  1.00  0.00     0.006 C 
ATOM     22  C   UNL A   1      32.511  24.461  22.848  1.00  0.00     0.006 C 
ATOM     23  C   UNL A   1      31.975  22.091  24.499  1.00  0.00     0.000 C 
ATOM     24  C   UNL A   1      33.040  23.086  22.449  1.00  0.00     0.000 C 
ATOM     25  C   UNL A   1      32.166  21.965  22.993  1.00  0.00     0.000 C 
ENDBRANCH   5  20
ENDBRANCH   3   5
ENDBRANCH   2   3
ENDBRANCH   1   2
BRANCH   1  26
ATOM     26  C   UNL A   1      31.600  29.590  26.804  1.00  0.00     0.275 C 
BRANCH  26  27
ATOM     27  O   UNL A   1      32.880  30.088  26.377  1.00  0.00    -0.458 OA
BRANCH  27  28
ATOM     28  C   UNL A   1      33.296  31.234  26.957  1.00  0.00     0.338 C 
ATOM     29  O   UNL A   1      32.736  32.324  26.916  1.00  0.00    -0.246 OA
BRANCH  28  30
ATOM     30  C   UNL A   1      34.559  31.014  27.680  1.00  0.00     0.060 A 
ATOM     31  C   UNL A   1      35.464  32.058  27.882  1.00  0.00     0.016 A 
ATOM     32  C   UNL A   1      34.883  29.721  28.090  1.00  0.00     0.016 A 
ATOM     33  C   UNL A   1      36.719  31.806  28.433  1.00  0.00     0.010 A 
ATOM     34  C   UNL A   1      36.101  29.485  28.728  1.00  0.00     0.010 A 
ATOM     35  C   UNL A   1      37.038  30.520  28.892  1.00  0.00    -0.014 A 
BRANCH  35  36
ATOM     36  C   UNL A   1      38.313  30.258  29.608  1.00  0.00     0.031 A 
ATOM     37  C   UNL A   1      39.318  29.293  29.044  1.00  0.00     0.074 A 
ATOM     38  C   UNL A   1      38.509  30.813  30.820  1.00  0.00     0.049 A 
ATOM     39  N   UNL A   1      40.377  28.782  29.616  1.00  0.00    -0.248 NA
ATOM     40  C   UNL A   1      39.100  28.828  27.665  1.00  0.00     0.031 C 
ATOM     41  C   UNL A   1      37.591  31.747  31.480  1.00  0.00     0.029 A 
ATOM     42  N   UNL A   1      39.516  30.637  31.735  1.00  0.00    -0.354 N 
ATOM     43  C   UNL A   1      40.912  27.887  28.698  1.00  0.00     0.074 A 
ATOM     44  C   UNL A   1      40.073  27.939  27.520  1.00  0.00     0.031 C 
ATOM     45  C   UNL A   1      38.061  32.038  32.701  1.00  0.00     0.029 A 
ATOM     46  C   UNL A   1      39.276  31.266  32.936  1.00  0.00     0.049 A 
ATOM     47  H   UNL A   1      40.329  30.113  31.552  1.00  0.00     0.167 HD
ATOM     48  C   UNL A   1      42.008  27.102  28.828  1.00  0.00     0.034 A 
ATOM     49  C   UNL A   1      39.924  31.192  34.114  1.00  0.00     0.034 A 
ATOM     50  C   UNL A   1      42.875  27.110  29.975  1.00  0.00     0.049 A 
ATOM     51  C   UNL A   1      41.143  30.322  34.221  1.00  0.00     0.074 A 
ATOM     52  C   UNL A   1      44.072  26.439  30.151  1.00  0.00     0.029 A 
ATOM     53  N   UNL A   1      42.637  27.818  31.143  1.00  0.00    -0.354 N 
ATOM     54  N   UNL A   1      41.711  29.585  33.298  1.00  0.00    -0.248 NA
ATOM     55  C   UNL A   1      41.819  30.284  35.524  1.00  0.00     0.031 C 
ATOM     56  C   UNL A   1      44.550  26.727  31.435  1.00  0.00     0.029 A 
ATOM     57  C   UNL A   1      43.653  27.582  32.054  1.00  0.00     0.049 A 
ATOM     58  H   UNL A   1      41.861  28.403  31.301  1.00  0.00     0.167 HD
ATOM     59  C   UNL A   1      42.815  29.002  33.905  1.00  0.00     0.074 A 
ATOM     60  C   UNL A   1      42.857  29.498  35.265  1.00  0.00     0.031 C 
ATOM     61  C   UNL A   1      43.700  28.114  33.390  1.00  0.00     0.034 A 
BRANCH  48  62
ATOM     62  C   UNL A   1      42.367  26.188  27.689  1.00  0.00     0.023 A 
ATOM     63  C   UNL A   1      43.302  26.613  26.725  1.00  0.00     0.012 A 
ATOM     64  C   UNL A   1      41.859  24.875  27.632  1.00  0.00     0.148 A 
ATOM     65  C   UNL A   1      43.720  25.746  25.715  1.00  0.00     0.002 A 
ATOM     66  C   UNL A   1      42.304  24.007  26.640  1.00  0.00     0.091 A 
ATOM     67  F   UNL A   1      40.954  24.500  28.547  1.00  0.00    -0.205 F 
ATOM     68  C   UNL A   1      43.230  24.443  25.680  1.00  0.00     0.022 A 
BRANCH  66  69
ATOM     69  S   UNL A   1      41.780  22.291  26.547  1.00  0.00     0.127 S 
ATOM     70  O   UNL A   1      42.233  21.775  27.837  1.00  0.00    -0.237 OA
ATOM     71  O   UNL A   1      40.327  22.418  26.417  1.00  0.00    -0.237 OA
ATOM     72  O   UNL A   1      42.447  21.729  25.381  1.00  0.00    -0.744 OA
ENDBRANCH  66  69
ENDBRANCH  48  62
BRANCH  49  73
ATOM     73  C   UNL A   1      39.420  31.970  35.280  1.00  0.00     0.023 A 
ATOM     74  C   UNL A   1      38.600  31.336  36.231  1.00  0.00     0.012 A 
ATOM     75  C   UNL A   1      39.798  33.312  35.482  1.00  0.00     0.148 A 
ATOM     76  C   UNL A   1      38.153  32.030  37.356  1.00  0.00     0.002 A 
ATOM     77  C   UNL A   1      39.396  33.979  36.634  1.00  0.00     0.091 A 
ATOM     78  F   UNL A   1      40.557  33.911  34.553  1.00  0.00    -0.205 F 
ATOM     79  C   UNL A   1      38.563  33.345  37.566  1.00  0.00     0.022 A 
BRANCH  77  80
ATOM     80  S   UNL A   1      40.019  35.619  37.022  1.00  0.00     0.127 S 
ATOM     81  O   UNL A   1      39.348  35.907  38.286  1.00  0.00    -0.237 OA
ATOM     82  O   UNL A   1      41.462  35.394  37.130  1.00  0.00    -0.237 OA
ATOM     83  O   UNL A   1      39.634  36.442  35.883  1.00  0.00    -0.744 OA
ENDBRANCH  77  80
ENDBRANCH  49  73
BRANCH  61  84
ATOM     84  C   UNL A   1      44.785  27.613  34.303  1.00  0.00     0.023 A 
ATOM     85  C   UNL A   1      46.011  28.305  34.355  1.00  0.00     0.012 A 
ATOM     86  C   UNL A   1      44.572  26.510  35.151  1.00  0.00     0.148 A 
ATOM     87  C   UNL A   1      47.019  27.893  35.224  1.00  0.00     0.002 A 
ATOM     88  C   UNL A   1      45.569  26.129  36.042  1.00  0.00     0.091 A 
ATOM     89  F   UNL A   1      43.407  25.853  35.069  1.00  0.00    -0.205 F 
ATOM     90  C   UNL A   1      46.795  26.813  36.074  1.00  0.00     0.022 A 
BRANCH  88  91
ATOM     91  S   UNL A   1      45.332  24.802  37.229  1.00  0.00     0.127 S 
ATOM     92  O   UNL A   1      46.627  24.771  37.905  1.00  0.00    -0.237 OA
ATOM     93  O   UNL A   1      44.228  25.306  38.049  1.00  0.00    -0.237 OA
ATOM     94  O   UNL A   1      45.003  23.620  36.443  1.00  0.00    -0.744 OA
ENDBRANCH  88  91
ENDBRANCH  61  84
ENDBRANCH  35  36
ENDBRANCH  28  30
ENDBRANCH  27  28
ENDBRANCH  26  27
ENDBRANCH   1  26
TORSDOF 19
ENDMDL
MODEL 3
REMARK VINA RESULT:     -11.3      5.345     10.080
REMARK SMILES [NH3+]C[C@H]1CC[C@@H](C(=O)N[C@H](C(=O)OCCOC(=O)c2ccc(-c3c4nc(c(-c5cccc(S(=O)(=O)[O-])c5F)c5ccc([nH]5)c(-c5cccc(S(=O)(=O)[O-])c5F)c5nc(c(-c6cccc(S(=O)(=O)[O-])c6F)c6ccc3[nH]6)C=C5)C=C4)cc2)C2CCCCC2)O1
REMARK SMILES IDX 14 1 13 2 11 3 12 4 10 5 9 6 7 7 8 8 6 10 3 11 4 12 88 13
REMARK SMILES IDX 5 14 2 15 1 16 82 20 83 21 87 22 84 23 86 24 85 25 15 26
REMARK SMILES IDX 16 27 17 28 18 29 19 30 20 31 81 32 21 33 80 34 22 35 23 36
REMARK SMILES IDX 24 37 74 38 25 39 79 40 73 41 75 42 26 43 78 44 72 45 71 46
REMARK SMILES IDX 27 48 59 49 39 50 58 51 40 52 43 53 57 54 76 55 41 56 42 57
REMARK SMILES IDX 56 59 77 60 44 61 28 62 29 63 37 64 30 65 32 66 38 67 31 68
REMARK SMILES IDX 33 69 34 70 35 71 36 72 60 73 61 74 69 75 62 76 64 77 70 78
REMARK SMILES IDX 63 79 65 80 66 81 67 82 68 83 45 84 46 85 54 86 47 87 49 88
REMARK SMILES IDX 55 89 48 90 50 91 51 92 52 93 53 94
REMARK H PARENT 9 9 1 17 1 18 1 19 75 47 43 58
REMARK Flexibility Score: inf
ROOT
ATOM      1  C   UNL A   1      31.644  28.797  27.090  1.00  0.00     0.274 C 
ENDROOT
BRANCH   1   2
ATOM      2  O   UNL A   1      32.072  27.664  26.306  1.00  0.00    -0.461 OA
BRANCH   2   3
ATOM      3  C   UNL A   1      31.055  26.928  25.779  1.00  0.00     0.329 C 
ATOM      4  O   UNL A   1      30.353  26.166  26.436  1.00  0.00    -0.250 OA
BRANCH   3   5
ATOM      5  C   UNL A   1      30.935  27.098  24.246  1.00  0.00     0.195 C 
BRANCH   5   6
ATOM      6  N   UNL A   1      30.379  25.819  23.754  1.00  0.00    -0.340 N 
ATOM      7  C   UNL A   1      31.037  24.652  23.473  1.00  0.00     0.249 C 
ATOM      8  O   UNL A   1      30.376  23.653  23.190  1.00  0.00    -0.272 OA
ATOM      9  H   UNL A   1      29.406  25.804  23.609  1.00  0.00     0.164 HD
BRANCH   7  10
ATOM     10  C   UNL A   1      32.570  24.664  23.448  1.00  0.00     0.207 C 
ATOM     11  C   UNL A   1      34.184  23.359  24.530  1.00  0.00     0.174 C 
ATOM     12  C   UNL A   1      34.400  23.244  23.029  1.00  0.00     0.041 C 
ATOM     13  O   UNL A   1      33.194  24.387  24.707  1.00  0.00    -0.359 OA
ATOM     14  C   UNL A   1      33.049  23.599  22.473  1.00  0.00     0.045 C 
BRANCH  11  15
ATOM     15  C   UNL A   1      33.686  22.052  25.186  1.00  0.00     0.291 C 
BRANCH  15  16
ATOM     16  N   UNL A   1      32.567  22.288  26.111  1.00  0.00    -0.355 N 
ATOM     17  H   UNL A   1      32.924  22.385  27.061  1.00  0.00     0.344 HD
ATOM     18  H   UNL A   1      31.920  21.499  26.070  1.00  0.00     0.344 HD
ATOM     19  H   UNL A   1      32.079  23.142  25.841  1.00  0.00     0.344 HD
ENDBRANCH  15  16
ENDBRANCH  11  15
ENDBRANCH   7  10
ENDBRANCH   5   6
BRANCH   5  20
ATOM     20  C   UNL A   1      30.033  28.270  23.780  1.00  0.00     0.023 C 
ATOM     21  C   UNL A   1      30.631  29.083  22.618  1.00  0.00     0.006 C 
ATOM     22  C   UNL A   1      28.631  27.761  23.368  1.00  0.00     0.006 C 
ATOM     23  C   UNL A   1      29.710  30.225  22.187  1.00  0.00     0.000 C 
ATOM     24  C   UNL A   1      27.708  28.898  22.934  1.00  0.00     0.000 C 
ATOM     25  C   UNL A   1      28.321  29.725  21.813  1.00  0.00     0.000 C 
ENDBRANCH   5  20
ENDBRANCH   3   5
ENDBRANCH   2   3
ENDBRANCH   1   2
BRANCH   1  26
ATOM     26  C   UNL A   1      31.926  30.117  26.372  1.00  0.00     0.275 C 
BRANCH  26  27
ATOM     27  O   UNL A   1      33.324  30.444  26.447  1.00  0.00    -0.458 OA
BRANCH  27  28
ATOM     28  C   UNL A   1      33.659  31.439  27.296  1.00  0.00     0.338 C 
ATOM     29  O   UNL A   1      33.004  32.446  27.543  1.00  0.00    -0.246 OA
BRANCH  28  30
ATOM     30  C   UNL A   1      34.962  31.163  27.922  1.00  0.00     0.060 A 
ATOM     31  C   UNL A   1      35.936  32.159  28.026  1.00  0.00     0.016 A 
ATOM     32  C   UNL A   1      35.247  29.862  28.336  1.00  0.00     0.016 A 
ATOM     33  C   UNL A   1      37.215  31.847  28.482  1.00  0.00     0.010 A 
ATOM     34  C   UNL A   1      36.499  29.571  28.881  1.00  0.00     0.010 A 
ATOM     35  C   UNL A   1      37.500  30.555  28.945  1.00  0.00    -0.014 A 
BRANCH  35  36
ATOM     36  C   UNL A   1      38.812  30.236  29.564  1.00  0.00     0.031 A 
ATOM     37  C   UNL A   1      39.723  29.217  28.937  1.00  0.00     0.074 A 
ATOM     38  C   UNL A   1      39.128  30.792  30.751  1.00  0.00     0.049 A 
ATOM     39  N   UNL A   1      40.797  28.660  29.433  1.00  0.00    -0.248 NA
ATOM     40  C   UNL A   1      39.375  28.752  27.584  1.00  0.00     0.031 C 
ATOM     41  C   UNL A   1      38.311  31.776  31.468  1.00  0.00     0.029 A 
ATOM     42  N   UNL A   1      40.194  30.574  31.588  1.00  0.00    -0.354 N 
ATOM     43  C   UNL A   1      41.214  27.731  28.487  1.00  0.00     0.074 A 
ATOM     44  C   UNL A   1      40.290  27.814  27.377  1.00  0.00     0.031 C 
ATOM     45  C   UNL A   1      38.889  32.054  32.645  1.00  0.00     0.029 A 
ATOM     46  C   UNL A   1      40.078  31.225  32.795  1.00  0.00     0.049 A 
ATOM     47  H   UNL A   1      40.963  30.008  31.349  1.00  0.00     0.167 HD
ATOM     48  C   UNL A   1      42.277  26.894  28.542  1.00  0.00     0.034 A 
ATOM     49  C   UNL A   1      40.811  31.129  33.921  1.00  0.00     0.034 A 
ATOM     50  C   UNL A   1      43.230  26.869  29.619  1.00  0.00     0.049 A 
ATOM     51  C   UNL A   1      41.991  30.201  33.945  1.00  0.00     0.074 A 
ATOM     52  C   UNL A   1      44.403  26.140  29.711  1.00  0.00     0.029 A 
ATOM     53  N   UNL A   1      43.118  27.598  30.793  1.00  0.00    -0.354 N 
ATOM     54  N   UNL A   1      42.449  29.428  32.990  1.00  0.00    -0.248 NA
ATOM     55  C   UNL A   1      42.764  30.140  35.193  1.00  0.00     0.031 C 
ATOM     56  C   UNL A   1      44.993  26.416  30.950  1.00  0.00     0.029 A 
ATOM     57  C   UNL A   1      44.189  27.320  31.626  1.00  0.00     0.049 A 
ATOM     58  H   UNL A   1      42.386  28.222  31.002  1.00  0.00     0.167 HD
ATOM     59  C   UNL A   1      43.567  28.796  33.517  1.00  0.00     0.074 A 
ATOM     60  C   UNL A   1      43.738  29.302  34.864  1.00  0.00     0.031 C 
ATOM     61  C   UNL A   1      44.365  27.861  32.947  1.00  0.00     0.034 A 
BRANCH  48  62
ATOM     62  C   UNL A   1      42.502  25.953  27.390  1.00  0.00     0.023 A 
ATOM     63  C   UNL A   1      43.287  26.368  26.298  1.00  0.00     0.012 A 
ATOM     64  C   UNL A   1      42.024  24.628  27.440  1.00  0.00     0.148 A 
ATOM     65  C   UNL A   1      43.586  25.479  25.265  1.00  0.00     0.002 A 
ATOM     66  C   UNL A   1      42.352  23.740  26.421  1.00  0.00     0.091 A 
ATOM     67  F   UNL A   1      41.260  24.263  28.479  1.00  0.00    -0.205 F 
ATOM     68  C   UNL A   1      43.129  24.166  25.332  1.00  0.00     0.022 A 
BRANCH  66  69
ATOM     69  S   UNL A   1      41.864  22.012  26.447  1.00  0.00     0.127 S 
ATOM     70  O   UNL A   1      42.569  21.489  25.277  1.00  0.00    -0.237 OA
ATOM     71  O   UNL A   1      42.397  21.559  27.732  1.00  0.00    -0.237 OA
ATOM     72  O   UNL A   1      40.410  22.002  26.355  1.00  0.00    -0.744 OA
ENDBRANCH  66  69
ENDBRANCH  48  62
BRANCH  49  73
ATOM     73  C   UNL A   1      40.438  31.941  35.112  1.00  0.00     0.023 A 
ATOM     74  C   UNL A   1      41.038  33.199  35.307  1.00  0.00     0.012 A 
ATOM     75  C   UNL A   1      39.449  31.503  36.015  1.00  0.00     0.148 A 
ATOM     76  C   UNL A   1      40.670  33.999  36.390  1.00  0.00     0.002 A 
ATOM     77  C   UNL A   1      39.047  32.330  37.058  1.00  0.00     0.091 A 
ATOM     78  F   UNL A   1      38.906  30.291  35.832  1.00  0.00    -0.205 F 
ATOM     79  C   UNL A   1      39.665  33.572  37.256  1.00  0.00     0.022 A 
BRANCH  77  80
ATOM     80  S   UNL A   1      37.656  31.892  38.108  1.00  0.00     0.127 S 
ATOM     81  O   UNL A   1      38.208  32.096  39.443  1.00  0.00    -0.237 OA
ATOM     82  O   UNL A   1      36.638  32.865  37.710  1.00  0.00    -0.237 OA
ATOM     83  O   UNL A   1      37.335  30.517  37.744  1.00  0.00    -0.744 OA
ENDBRANCH  77  80
ENDBRANCH  49  73
BRANCH  61  84
ATOM     84  C   UNL A   1      45.492  27.315  33.780  1.00  0.00     0.023 A 
ATOM     85  C   UNL A   1      46.683  28.058  33.893  1.00  0.00     0.012 A 
ATOM     86  C   UNL A   1      45.351  26.113  34.499  1.00  0.00     0.148 A 
ATOM     87  C   UNL A   1      47.729  27.601  34.693  1.00  0.00     0.002 A 
ATOM     88  C   UNL A   1      46.383  25.683  35.325  1.00  0.00     0.091 A 
ATOM     89  F   UNL A   1      44.217  25.411  34.359  1.00  0.00    -0.205 F 
ATOM     90  C   UNL A   1      47.575  26.421  35.418  1.00  0.00     0.022 A 
BRANCH  88  91
ATOM     91  S   UNL A   1      46.235  24.220  36.356  1.00  0.00     0.127 S 
ATOM     92  O   UNL A   1      46.890  23.206  35.532  1.00  0.00    -0.237 OA
ATOM     93  O   UNL A   1      46.979  24.603  37.557  1.00  0.00    -0.237 OA
ATOM     94  O   UNL A   1      44.806  24.030  36.572  1.00  0.00    -0.744 OA
ENDBRANCH  88  91
ENDBRANCH  61  84
ENDBRANCH  35  36
ENDBRANCH  28  30
ENDBRANCH  27  28
ENDBRANCH  26  27
ENDBRANCH   1  26
TORSDOF 19
ENDMDL
