MODEL 1
REMARK VINA RESULT:     -11.4      0.000      0.000
REMARK SMILES Cc1noc(C)c1CNc1cnc(C(=O)OCCOC(=O)c2ccc(-c3c4nc(c(-c5cccc(S(=O)(=O)[O-])c5F)c5ccc([nH]5)c(-c5cccc(S(=O)(=O)[O-])c5F)c5nc(c(-c6cccc(S(=O)(=O)[O-])c6F)c6ccc3[nH]6)C=C5)C=C4)cc2)cn1
REMARK SMILES IDX 17 1 16 2 14 3 15 4 13 5 10 6 11 7 86 8 12 9 85 10 9 11 8 13
REMARK SMILES IDX 7 14 1 15 2 16 3 17 4 18 5 19 6 20 18 21 19 22 20 23 21 24
REMARK SMILES IDX 22 25 23 26 84 27 24 28 83 29 25 30 26 31 27 32 77 33 28 34
REMARK SMILES IDX 82 35 76 36 78 37 29 38 81 39 75 40 74 41 30 43 62 44 42 45
REMARK SMILES IDX 61 46 43 47 46 48 60 49 79 50 44 51 45 52 59 54 80 55 47 56
REMARK SMILES IDX 31 57 32 58 40 59 33 60 35 61 41 62 34 63 36 64 37 65 38 66
REMARK SMILES IDX 39 67 63 68 64 69 72 70 65 71 67 72 73 73 66 74 68 75 69 76
REMARK SMILES IDX 70 77 71 78 48 79 49 80 57 81 50 82 52 83 58 84 51 85 53 86
REMARK SMILES IDX 54 87 55 88 56 89
REMARK H PARENT 9 12 78 42 46 53
REMARK Flexibility Score: inf
ROOT
ATOM      1  C   UNL A   1      34.943  21.164  25.363  1.00  0.00     0.275 C 
ENDROOT
BRANCH   1   2
ATOM      2  O   UNL A   1      33.980  20.918  24.318  1.00  0.00    -0.457 OA
BRANCH   2   3
ATOM      3  C   UNL A   1      32.685  20.880  24.715  1.00  0.00     0.358 C 
ATOM      4  O   UNL A   1      32.095  19.904  25.158  1.00  0.00    -0.244 OA
BRANCH   3   5
ATOM      5  C   UNL A   1      32.044  22.210  24.632  1.00  0.00     0.166 A 
ATOM      6  C   UNL A   1      30.637  24.521  24.684  1.00  0.00     0.144 A 
ATOM      7  C   UNL A   1      30.981  23.877  23.490  1.00  0.00     0.158 A 
ATOM      8  N   UNL A   1      31.032  24.021  25.864  1.00  0.00    -0.235 NA
ATOM      9  N   UNL A   1      31.689  22.716  23.422  1.00  0.00    -0.244 NA
ATOM     10  C   UNL A   1      31.714  22.852  25.816  1.00  0.00     0.149 A 
BRANCH   6  11
ATOM     11  N   UNL A   1      29.835  25.638  24.775  1.00  0.00    -0.365 N 
ATOM     12  H   UNL A   1      28.928  25.584  25.155  1.00  0.00     0.162 HD
BRANCH  11  13
ATOM     13  C   UNL A   1      30.374  26.896  24.294  1.00  0.00     0.156 C 
BRANCH  13  14
ATOM     14  C   UNL A   1      31.789  27.175  24.674  1.00  0.00     0.037 A 
ATOM     15  C   UNL A   1      31.586  27.822  27.211  1.00  0.00     0.071 C 
ATOM     16  C   UNL A   1      32.306  27.595  25.934  1.00  0.00     0.086 A 
ATOM     17  N   UNL A   1      33.632  27.775  25.880  1.00  0.00    -0.085 NA
ATOM     18  O   UNL A   1      34.007  27.446  24.596  1.00  0.00    -0.361 OA
ATOM     19  C   UNL A   1      32.912  27.083  23.881  1.00  0.00     0.138 A 
ATOM     20  C   UNL A   1      33.149  26.682  22.483  1.00  0.00     0.091 C 
ENDBRANCH  13  14
ENDBRANCH  11  13
ENDBRANCH   6  11
ENDBRANCH   3   5
ENDBRANCH   2   3
ENDBRANCH   1   2
BRANCH   1  21
ATOM     21  C   UNL A   1      36.326  20.611  25.004  1.00  0.00     0.275 C 
BRANCH  21  22
ATOM     22  O   UNL A   1      37.348  21.621  25.101  1.00  0.00    -0.458 OA
BRANCH  22  23
ATOM     23  C   UNL A   1      38.472  21.235  25.743  1.00  0.00     0.338 C 
ATOM     24  O   UNL A   1      38.999  20.136  25.716  1.00  0.00    -0.246 OA
BRANCH  23  25
ATOM     25  C   UNL A   1      39.080  22.376  26.442  1.00  0.00     0.060 A 
ATOM     26  C   UNL A   1      38.628  23.654  26.129  1.00  0.00     0.016 A 
ATOM     27  C   UNL A   1      40.202  22.205  27.248  1.00  0.00     0.016 A 
ATOM     28  C   UNL A   1      39.364  24.771  26.509  1.00  0.00     0.010 A 
ATOM     29  C   UNL A   1      40.872  23.335  27.731  1.00  0.00     0.010 A 
ATOM     30  C   UNL A   1      40.485  24.630  27.334  1.00  0.00    -0.014 A 
BRANCH  30  31
ATOM     31  C   UNL A   1      41.258  25.821  27.786  1.00  0.00     0.031 A 
ATOM     32  C   UNL A   1      40.583  26.889  28.606  1.00  0.00     0.074 A 
ATOM     33  C   UNL A   1      42.548  25.974  27.419  1.00  0.00     0.049 A 
ATOM     34  N   UNL A   1      40.982  28.107  28.864  1.00  0.00    -0.248 NA
ATOM     35  C   UNL A   1      39.277  26.550  29.196  1.00  0.00     0.031 C 
ATOM     36  C   UNL A   1      43.333  25.006  26.650  1.00  0.00     0.029 A 
ATOM     37  N   UNL A   1      43.418  27.020  27.616  1.00  0.00    -0.354 N 
ATOM     38  C   UNL A   1      39.941  28.708  29.562  1.00  0.00     0.074 A 
ATOM     39  C   UNL A   1      38.903  27.712  29.715  1.00  0.00     0.031 C 
ATOM     40  C   UNL A   1      44.560  25.501  26.434  1.00  0.00     0.029 A 
ATOM     41  C   UNL A   1      44.621  26.856  26.965  1.00  0.00     0.049 A 
ATOM     42  H   UNL A   1      43.202  27.807  28.165  1.00  0.00     0.167 HD
ATOM     43  C   UNL A   1      39.861  29.977  30.030  1.00  0.00     0.034 A 
ATOM     44  C   UNL A   1      45.637  27.717  26.759  1.00  0.00     0.034 A 
ATOM     45  C   UNL A   1      40.935  30.929  29.952  1.00  0.00     0.049 A 
ATOM     46  C   UNL A   1      45.534  29.110  27.310  1.00  0.00     0.074 A 
ATOM     47  C   UNL A   1      40.974  32.222  30.444  1.00  0.00     0.029 A 
ATOM     48  N   UNL A   1      42.165  30.688  29.360  1.00  0.00    -0.354 N 
ATOM     49  N   UNL A   1      44.559  29.651  28.000  1.00  0.00    -0.248 NA
ATOM     50  C   UNL A   1      46.669  30.011  27.067  1.00  0.00     0.031 C 
ATOM     51  C   UNL A   1      42.225  32.766  30.141  1.00  0.00     0.029 A 
ATOM     52  C   UNL A   1      42.971  31.807  29.475  1.00  0.00     0.049 A 
ATOM     53  H   UNL A   1      42.426  29.847  28.921  1.00  0.00     0.167 HD
ATOM     54  C   UNL A   1      44.975  30.942  28.299  1.00  0.00     0.074 A 
ATOM     55  C   UNL A   1      46.297  31.099  27.729  1.00  0.00     0.031 C 
ATOM     56  C   UNL A   1      44.313  31.917  28.967  1.00  0.00     0.034 A 
BRANCH  43  57
ATOM     57  C   UNL A   1      38.580  30.416  30.687  1.00  0.00     0.023 A 
ATOM     58  C   UNL A   1      38.403  30.235  32.072  1.00  0.00     0.012 A 
ATOM     59  C   UNL A   1      37.592  31.095  29.945  1.00  0.00     0.148 A 
ATOM     60  C   UNL A   1      37.251  30.705  32.705  1.00  0.00     0.002 A 
ATOM     61  C   UNL A   1      36.467  31.594  30.590  1.00  0.00     0.091 A 
ATOM     62  F   UNL A   1      37.772  31.239  28.624  1.00  0.00    -0.205 F 
ATOM     63  C   UNL A   1      36.291  31.394  31.968  1.00  0.00     0.022 A 
BRANCH  61  64
ATOM     64  S   UNL A   1      35.212  32.561  29.739  1.00  0.00     0.127 S 
ATOM     65  O   UNL A   1      34.695  31.591  28.774  1.00  0.00    -0.237 OA
ATOM     66  O   UNL A   1      34.289  32.894  30.824  1.00  0.00    -0.237 OA
ATOM     67  O   UNL A   1      35.908  33.705  29.164  1.00  0.00    -0.744 OA
ENDBRANCH  61  64
ENDBRANCH  43  57
BRANCH  44  68
ATOM     68  C   UNL A   1      46.834  27.276  25.987  1.00  0.00     0.023 A 
ATOM     69  C   UNL A   1      46.909  27.548  24.609  1.00  0.00     0.012 A 
ATOM     70  C   UNL A   1      47.921  26.641  26.621  1.00  0.00     0.148 A 
ATOM     71  C   UNL A   1      48.035  27.179  23.872  1.00  0.00     0.002 A 
ATOM     72  C   UNL A   1      49.065  26.333  25.894  1.00  0.00     0.091 A 
ATOM     73  F   UNL A   1      47.825  26.367  27.930  1.00  0.00    -0.205 F 
ATOM     74  C   UNL A   1      49.119  26.586  24.515  1.00  0.00     0.022 A 
BRANCH  72  75
ATOM     75  S   UNL A   1      50.553  25.714  26.690  1.00  0.00     0.127 S 
ATOM     76  O   UNL A   1      50.088  24.453  27.258  1.00  0.00    -0.237 OA
ATOM     77  O   UNL A   1      51.475  25.579  25.560  1.00  0.00    -0.237 OA
ATOM     78  O   UNL A   1      50.935  26.748  27.644  1.00  0.00    -0.744 OA
ENDBRANCH  72  75
ENDBRANCH  44  68
BRANCH  56  79
ATOM     79  C   UNL A   1      45.016  33.230  29.170  1.00  0.00     0.023 A 
ATOM     80  C   UNL A   1      45.845  33.410  30.293  1.00  0.00     0.012 A 
ATOM     81  C   UNL A   1      44.940  34.238  28.190  1.00  0.00     0.148 A 
ATOM     82  C   UNL A   1      46.580  34.584  30.444  1.00  0.00     0.002 A 
ATOM     83  C   UNL A   1      45.708  35.387  28.326  1.00  0.00     0.091 A 
ATOM     84  F   UNL A   1      44.128  34.048  27.139  1.00  0.00    -0.205 F 
ATOM     85  C   UNL A   1      46.523  35.565  29.456  1.00  0.00     0.022 A 
BRANCH  83  86
ATOM     86  S   UNL A   1      45.769  36.661  27.062  1.00  0.00     0.127 S 
ATOM     87  O   UNL A   1      46.294  35.920  25.917  1.00  0.00    -0.237 OA
ATOM     88  O   UNL A   1      44.363  37.049  26.944  1.00  0.00    -0.237 OA
ATOM     89  O   UNL A   1      46.641  37.704  27.583  1.00  0.00    -0.744 OA
ENDBRANCH  83  86
ENDBRANCH  56  79
ENDBRANCH  30  31
ENDBRANCH  23  25
ENDBRANCH  22  23
ENDBRANCH  21  22
ENDBRANCH   1  21
TORSDOF 17
ENDMDL
MODEL 2
REMARK VINA RESULT:     -11.2      4.919     10.052
REMARK SMILES Cc1noc(C)c1CNc1cnc(C(=O)OCCOC(=O)c2ccc(-c3c4nc(c(-c5cccc(S(=O)(=O)[O-])c5F)c5ccc([nH]5)c(-c5cccc(S(=O)(=O)[O-])c5F)c5nc(c(-c6cccc(S(=O)(=O)[O-])c6F)c6ccc3[nH]6)C=C5)C=C4)cc2)cn1
REMARK SMILES IDX 17 1 16 2 14 3 15 4 13 5 10 6 11 7 86 8 12 9 85 10 9 11 8 13
REMARK SMILES IDX 7 14 1 15 2 16 3 17 4 18 5 19 6 20 18 21 19 22 20 23 21 24
REMARK SMILES IDX 22 25 23 26 84 27 24 28 83 29 25 30 26 31 27 32 77 33 28 34
REMARK SMILES IDX 82 35 76 36 78 37 29 38 81 39 75 40 74 41 30 43 62 44 42 45
REMARK SMILES IDX 61 46 43 47 46 48 60 49 79 50 44 51 45 52 59 54 80 55 47 56
REMARK SMILES IDX 31 57 32 58 40 59 33 60 35 61 41 62 34 63 36 64 37 65 38 66
REMARK SMILES IDX 39 67 63 68 64 69 72 70 65 71 67 72 73 73 66 74 68 75 69 76
REMARK SMILES IDX 70 77 71 78 48 79 49 80 57 81 50 82 52 83 58 84 51 85 53 86
REMARK SMILES IDX 54 87 55 88 56 89
REMARK H PARENT 9 12 78 42 46 53
REMARK Flexibility Score: inf
ROOT
ATOM      1  C   UNL A   1      30.982  29.620  24.529  1.00  0.00     0.275 C 
ENDROOT
BRANCH   1   2
ATOM      2  O   UNL A   1      31.801  29.082  23.471  1.00  0.00    -0.457 OA
BRANCH   2   3
ATOM      3  C   UNL A   1      31.224  28.113  22.721  1.00  0.00     0.358 C 
ATOM      4  O   UNL A   1      30.236  28.243  22.012  1.00  0.00    -0.244 OA
BRANCH   3   5
ATOM      5  C   UNL A   1      31.981  26.844  22.783  1.00  0.00     0.166 A 
ATOM      6  C   UNL A   1      33.624  24.704  22.998  1.00  0.00     0.144 A 
ATOM      7  C   UNL A   1      32.930  25.004  21.820  1.00  0.00     0.158 A 
ATOM      8  N   UNL A   1      33.466  25.464  24.091  1.00  0.00    -0.235 NA
ATOM      9  N   UNL A   1      32.094  26.068  21.673  1.00  0.00    -0.244 NA
ATOM     10  C   UNL A   1      32.658  26.542  23.955  1.00  0.00     0.149 A 
BRANCH   6  11
ATOM     11  N   UNL A   1      34.551  23.694  23.132  1.00  0.00    -0.365 N 
ATOM     12  H   UNL A   1      35.017  23.322  22.347  1.00  0.00     0.162 HD
BRANCH  11  13
ATOM     13  C   UNL A   1      34.820  23.198  24.469  1.00  0.00     0.156 C 
BRANCH  13  14
ATOM     14  C   UNL A   1      34.304  21.830  24.760  1.00  0.00     0.037 A 
ATOM     15  C   UNL A   1      31.703  22.185  24.765  1.00  0.00     0.071 C 
ATOM     16  C   UNL A   1      32.953  21.400  24.906  1.00  0.00     0.086 A 
ATOM     17  N   UNL A   1      32.887  20.095  25.199  1.00  0.00    -0.085 NA
ATOM     18  O   UNL A   1      34.189  19.644  25.217  1.00  0.00    -0.361 OA
ATOM     19  C   UNL A   1      35.031  20.673  24.949  1.00  0.00     0.138 A 
ATOM     20  C   UNL A   1      36.468  20.349  24.913  1.00  0.00     0.091 C 
ENDBRANCH  13  14
ENDBRANCH  11  13
ENDBRANCH   6  11
ENDBRANCH   3   5
ENDBRANCH   2   3
ENDBRANCH   1   2
BRANCH   1  21
ATOM     21  C   UNL A   1      31.684  29.541  25.888  1.00  0.00     0.275 C 
BRANCH  21  22
ATOM     22  O   UNL A   1      32.988  30.151  25.854  1.00  0.00    -0.458 OA
BRANCH  22  23
ATOM     23  C   UNL A   1      33.246  31.005  26.869  1.00  0.00     0.338 C 
ATOM     24  O   UNL A   1      32.468  31.780  27.399  1.00  0.00    -0.246 OA
BRANCH  23  25
ATOM     25  C   UNL A   1      34.619  30.820  27.357  1.00  0.00     0.060 A 
ATOM     26  C   UNL A   1      35.046  29.526  27.642  1.00  0.00     0.016 A 
ATOM     27  C   UNL A   1      35.406  31.913  27.708  1.00  0.00     0.016 A 
ATOM     28  C   UNL A   1      36.198  29.317  28.393  1.00  0.00     0.010 A 
ATOM     29  C   UNL A   1      36.626  31.693  28.357  1.00  0.00     0.010 A 
ATOM     30  C   UNL A   1      37.017  30.396  28.743  1.00  0.00    -0.014 A 
BRANCH  30  31
ATOM     31  C   UNL A   1      38.277  30.183  29.509  1.00  0.00     0.031 A 
ATOM     32  C   UNL A   1      39.353  29.286  28.954  1.00  0.00     0.074 A 
ATOM     33  C   UNL A   1      38.438  30.747  30.724  1.00  0.00     0.049 A 
ATOM     34  N   UNL A   1      40.382  28.758  29.563  1.00  0.00    -0.248 NA
ATOM     35  C   UNL A   1      39.245  28.920  27.531  1.00  0.00     0.031 C 
ATOM     36  C   UNL A   1      37.490  31.658  31.370  1.00  0.00     0.029 A 
ATOM     37  N   UNL A   1      39.444  30.611  31.651  1.00  0.00    -0.354 N 
ATOM     38  C   UNL A   1      40.988  27.925  28.629  1.00  0.00     0.074 A 
ATOM     39  C   UNL A   1      40.231  28.041  27.402  1.00  0.00     0.031 C 
ATOM     40  C   UNL A   1      37.952  31.993  32.583  1.00  0.00     0.029 A 
ATOM     41  C   UNL A   1      39.179  31.251  32.842  1.00  0.00     0.049 A 
ATOM     42  H   UNL A   1      40.272  30.106  31.480  1.00  0.00     0.167 HD
ATOM     43  C   UNL A   1      42.078  27.135  28.786  1.00  0.00     0.034 A 
ATOM     44  C   UNL A   1      39.809  31.198  34.031  1.00  0.00     0.034 A 
ATOM     45  C   UNL A   1      42.876  27.097  29.981  1.00  0.00     0.049 A 
ATOM     46  C   UNL A   1      41.030  30.334  34.171  1.00  0.00     0.074 A 
ATOM     47  C   UNL A   1      44.030  26.372  30.221  1.00  0.00     0.029 A 
ATOM     48  N   UNL A   1      42.615  27.827  31.130  1.00  0.00    -0.354 N 
ATOM     49  N   UNL A   1      41.612  29.582  33.268  1.00  0.00    -0.248 NA
ATOM     50  C   UNL A   1      41.688  30.315  35.484  1.00  0.00     0.031 C 
ATOM     51  C   UNL A   1      44.462  26.657  31.519  1.00  0.00     0.029 A 
ATOM     52  C   UNL A   1      43.586  27.572  32.081  1.00  0.00     0.049 A 
ATOM     53  H   UNL A   1      41.851  28.437  31.251  1.00  0.00     0.167 HD
ATOM     54  C   UNL A   1      42.720  29.025  33.894  1.00  0.00     0.074 A 
ATOM     55  C   UNL A   1      42.737  29.538  35.248  1.00  0.00     0.031 C 
ATOM     56  C   UNL A   1      43.628  28.151  33.398  1.00  0.00     0.034 A 
BRANCH  43  57
ATOM     57  C   UNL A   1      42.492  26.254  27.638  1.00  0.00     0.023 A 
ATOM     58  C   UNL A   1      43.444  26.714  26.708  1.00  0.00     0.012 A 
ATOM     59  C   UNL A   1      42.006  24.934  27.537  1.00  0.00     0.148 A 
ATOM     60  C   UNL A   1      43.891  25.879  25.682  1.00  0.00     0.002 A 
ATOM     61  C   UNL A   1      42.486  24.098  26.536  1.00  0.00     0.091 A 
ATOM     62  F   UNL A   1      41.086  24.524  28.421  1.00  0.00    -0.205 F 
ATOM     63  C   UNL A   1      43.422  24.570  25.604  1.00  0.00     0.022 A 
BRANCH  61  64
ATOM     64  S   UNL A   1      41.999  22.372  26.401  1.00  0.00     0.127 S 
ATOM     65  O   UNL A   1      42.721  21.955  25.200  1.00  0.00    -0.237 OA
ATOM     66  O   UNL A   1      42.514  21.807  27.649  1.00  0.00    -0.237 OA
ATOM     67  O   UNL A   1      40.546  22.372  26.290  1.00  0.00    -0.744 OA
ENDBRANCH  61  64
ENDBRANCH  43  57
BRANCH  44  68
ATOM     68  C   UNL A   1      39.285  31.989  35.181  1.00  0.00     0.023 A 
ATOM     69  C   UNL A   1      38.387  31.388  36.083  1.00  0.00     0.012 A 
ATOM     70  C   UNL A   1      39.713  33.311  35.417  1.00  0.00     0.148 A 
ATOM     71  C   UNL A   1      37.911  32.096  37.188  1.00  0.00     0.002 A 
ATOM     72  C   UNL A   1      39.284  33.987  36.553  1.00  0.00     0.091 A 
ATOM     73  F   UNL A   1      40.548  33.878  34.535  1.00  0.00    -0.205 F 
ATOM     74  C   UNL A   1      38.370  33.388  37.432  1.00  0.00     0.022 A 
BRANCH  72  75
ATOM     75  S   UNL A   1      39.956  35.591  37.009  1.00  0.00     0.127 S 
ATOM     76  O   UNL A   1      39.274  35.855  38.272  1.00  0.00    -0.237 OA
ATOM     77  O   UNL A   1      41.386  35.304  37.130  1.00  0.00    -0.237 OA
ATOM     78  O   UNL A   1      39.621  36.475  35.900  1.00  0.00    -0.744 OA
ENDBRANCH  72  75
ENDBRANCH  44  68
BRANCH  56  79
ATOM     79  C   UNL A   1      44.755  27.725  34.298  1.00  0.00     0.023 A 
ATOM     80  C   UNL A   1      45.944  28.476  34.331  1.00  0.00     0.012 A 
ATOM     81  C   UNL A   1      44.586  26.646  35.187  1.00  0.00     0.148 A 
ATOM     82  C   UNL A   1      46.957  28.152  35.231  1.00  0.00     0.002 A 
ATOM     83  C   UNL A   1      45.583  26.354  36.109  1.00  0.00     0.091 A 
ATOM     84  F   UNL A   1      43.450  25.935  35.122  1.00  0.00    -0.205 F 
ATOM     85  C   UNL A   1      46.772  27.102  36.127  1.00  0.00     0.022 A 
BRANCH  83  86
ATOM     86  S   UNL A   1      45.395  25.081  37.362  1.00  0.00     0.127 S 
ATOM     87  O   UNL A   1      45.291  23.873  36.546  1.00  0.00    -0.237 OA
ATOM     88  O   UNL A   1      46.642  25.202  38.117  1.00  0.00    -0.237 OA
ATOM     89  O   UNL A   1      44.198  25.430  38.114  1.00  0.00    -0.744 OA
ENDBRANCH  83  86
ENDBRANCH  56  79
ENDBRANCH  30  31
ENDBRANCH  23  25
ENDBRANCH  22  23
ENDBRANCH  21  22
ENDBRANCH   1  21
TORSDOF 17
ENDMDL
MODEL 3
REMARK VINA RESULT:     -11.2      1.427      2.037
REMARK SMILES Cc1noc(C)c1CNc1cnc(C(=O)OCCOC(=O)c2ccc(-c3c4nc(c(-c5cccc(S(=O)(=O)[O-])c5F)c5ccc([nH]5)c(-c5cccc(S(=O)(=O)[O-])c5F)c5nc(c(-c6cccc(S(=O)(=O)[O-])c6F)c6ccc3[nH]6)C=C5)C=C4)cc2)cn1
REMARK SMILES IDX 17 1 16 2 14 3 15 4 13 5 10 6 11 7 86 8 12 9 85 10 9 11 8 13
REMARK SMILES IDX 7 14 1 15 2 16 3 17 4 18 5 19 6 20 18 21 19 22 20 23 21 24
REMARK SMILES IDX 22 25 23 26 84 27 24 28 83 29 25 30 26 31 27 32 77 33 28 34
REMARK SMILES IDX 82 35 76 36 78 37 29 38 81 39 75 40 74 41 30 43 62 44 42 45
REMARK SMILES IDX 61 46 43 47 46 48 60 49 79 50 44 51 45 52 59 54 80 55 47 56
REMARK SMILES IDX 31 57 32 58 40 59 33 60 35 61 41 62 34 63 36 64 37 65 38 66
REMARK SMILES IDX 39 67 63 68 64 69 72 70 65 71 67 72 73 73 66 74 68 75 69 76
REMARK SMILES IDX 70 77 71 78 48 79 49 80 57 81 50 82 52 83 58 84 51 85 53 86
REMARK SMILES IDX 54 87 55 88 56 89
REMARK H PARENT 9 12 78 42 46 53
REMARK Flexibility Score: inf
ROOT
ATOM      1  C   UNL A   1      35.186  21.567  25.662  1.00  0.00     0.275 C 
ENDROOT
BRANCH   1   2
ATOM      2  O   UNL A   1      34.842  22.727  24.878  1.00  0.00    -0.457 OA
BRANCH   2   3
ATOM      3  C   UNL A   1      33.524  22.871  24.597  1.00  0.00     0.358 C 
ATOM      4  O   UNL A   1      32.694  21.973  24.556  1.00  0.00    -0.244 OA
BRANCH   3   5
ATOM      5  C   UNL A   1      33.152  24.290  24.412  1.00  0.00     0.166 A 
ATOM      6  C   UNL A   1      32.155  26.790  24.127  1.00  0.00     0.144 A 
ATOM      7  C   UNL A   1      32.961  26.186  23.155  1.00  0.00     0.158 A 
ATOM      8  N   UNL A   1      31.874  26.148  25.271  1.00  0.00    -0.235 NA
ATOM      9  N   UNL A   1      33.482  24.933  23.263  1.00  0.00    -0.244 NA
ATOM     10  C   UNL A   1      32.363  24.890  25.383  1.00  0.00     0.149 A 
BRANCH   6  11
ATOM     11  N   UNL A   1      31.536  28.012  23.990  1.00  0.00    -0.365 N 
ATOM     12  H   UNL A   1      31.568  28.684  24.710  1.00  0.00     0.162 HD
BRANCH  11  13
ATOM     13  C   UNL A   1      30.834  28.278  22.747  1.00  0.00     0.156 C 
BRANCH  13  14
ATOM     14  C   UNL A   1      29.370  28.523  22.878  1.00  0.00     0.037 A 
ATOM     15  C   UNL A   1      29.089  30.905  21.810  1.00  0.00     0.071 C 
ATOM     16  C   UNL A   1      28.621  29.671  22.487  1.00  0.00     0.086 A 
ATOM     17  N   UNL A   1      27.325  29.536  22.797  1.00  0.00    -0.085 NA
ATOM     18  O   UNL A   1      27.200  28.286  23.364  1.00  0.00    -0.361 OA
ATOM     19  C   UNL A   1      28.414  27.681  23.405  1.00  0.00     0.138 A 
ATOM     20  C   UNL A   1      28.447  26.321  23.971  1.00  0.00     0.091 C 
ENDBRANCH  13  14
ENDBRANCH  11  13
ENDBRANCH   6  11
ENDBRANCH   3   5
ENDBRANCH   2   3
ENDBRANCH   1   2
BRANCH   1  21
ATOM     21  C   UNL A   1      36.301  20.746  25.005  1.00  0.00     0.275 C 
BRANCH  21  22
ATOM     22  O   UNL A   1      37.519  21.504  24.875  1.00  0.00    -0.458 OA
BRANCH  22  23
ATOM     23  C   UNL A   1      38.541  21.079  25.649  1.00  0.00     0.338 C 
ATOM     24  O   UNL A   1      38.996  19.950  25.719  1.00  0.00    -0.246 OA
BRANCH  23  25
ATOM     25  C   UNL A   1      39.143  22.210  26.369  1.00  0.00     0.060 A 
ATOM     26  C   UNL A   1      38.653  23.487  26.112  1.00  0.00     0.016 A 
ATOM     27  C   UNL A   1      40.291  22.039  27.137  1.00  0.00     0.016 A 
ATOM     28  C   UNL A   1      39.374  24.608  26.509  1.00  0.00     0.010 A 
ATOM     29  C   UNL A   1      40.948  23.167  27.639  1.00  0.00     0.010 A 
ATOM     30  C   UNL A   1      40.521  24.466  27.298  1.00  0.00    -0.014 A 
BRANCH  30  31
ATOM     31  C   UNL A   1      41.280  25.659  27.768  1.00  0.00     0.031 A 
ATOM     32  C   UNL A   1      40.589  26.712  28.594  1.00  0.00     0.074 A 
ATOM     33  C   UNL A   1      42.571  25.828  27.412  1.00  0.00     0.049 A 
ATOM     34  N   UNL A   1      40.975  27.930  28.868  1.00  0.00    -0.248 NA
ATOM     35  C   UNL A   1      39.282  26.354  29.171  1.00  0.00     0.031 C 
ATOM     36  C   UNL A   1      43.370  24.876  26.638  1.00  0.00     0.029 A 
ATOM     37  N   UNL A   1      43.430  26.879  27.626  1.00  0.00    -0.354 N 
ATOM     38  C   UNL A   1      39.923  28.514  29.565  1.00  0.00     0.074 A 
ATOM     39  C   UNL A   1      38.893  27.507  29.700  1.00  0.00     0.031 C 
ATOM     40  C   UNL A   1      44.594  25.384  26.437  1.00  0.00     0.029 A 
ATOM     41  C   UNL A   1      44.639  26.734  26.983  1.00  0.00     0.049 A 
ATOM     42  H   UNL A   1      43.203  27.658  28.183  1.00  0.00     0.167 HD
ATOM     43  C   UNL A   1      39.828  29.777  30.046  1.00  0.00     0.034 A 
ATOM     44  C   UNL A   1      45.648  27.606  26.793  1.00  0.00     0.034 A 
ATOM     45  C   UNL A   1      40.894  30.740  29.986  1.00  0.00     0.049 A 
ATOM     46  C   UNL A   1      45.528  28.993  27.359  1.00  0.00     0.074 A 
ATOM     47  C   UNL A   1      40.917  32.028  30.492  1.00  0.00     0.029 A 
ATOM     48  N   UNL A   1      42.130  30.517  29.400  1.00  0.00    -0.354 N 
ATOM     49  N   UNL A   1      44.543  29.517  28.048  1.00  0.00    -0.248 NA
ATOM     50  C   UNL A   1      46.657  29.906  27.133  1.00  0.00     0.031 C 
ATOM     51  C   UNL A   1      42.165  32.587  30.205  1.00  0.00     0.029 A 
ATOM     52  C   UNL A   1      42.924  31.642  29.534  1.00  0.00     0.049 A 
ATOM     53  H   UNL A   1      42.402  29.683  28.955  1.00  0.00     0.167 HD
ATOM     54  C   UNL A   1      44.945  30.808  28.363  1.00  0.00     0.074 A 
ATOM     55  C   UNL A   1      46.269  30.983  27.804  1.00  0.00     0.031 C 
ATOM     56  C   UNL A   1      44.269  31.770  29.037  1.00  0.00     0.034 A 
BRANCH  43  57
ATOM     57  C   UNL A   1      38.538  30.197  30.698  1.00  0.00     0.023 A 
ATOM     58  C   UNL A   1      38.323  29.933  32.064  1.00  0.00     0.012 A 
ATOM     59  C   UNL A   1      37.580  30.939  29.977  1.00  0.00     0.148 A 
ATOM     60  C   UNL A   1      37.163  30.383  32.698  1.00  0.00     0.002 A 
ATOM     61  C   UNL A   1      36.447  31.417  30.624  1.00  0.00     0.091 A 
ATOM     62  F   UNL A   1      37.796  31.162  28.673  1.00  0.00    -0.205 F 
ATOM     63  C   UNL A   1      36.234  31.134  31.982  1.00  0.00     0.022 A 
BRANCH  61  64
ATOM     64  S   UNL A   1      35.231  32.457  29.806  1.00  0.00     0.127 S 
ATOM     65  O   UNL A   1      34.301  32.739  30.899  1.00  0.00    -0.237 OA
ATOM     66  O   UNL A   1      36.038  33.602  29.382  1.00  0.00    -0.237 OA
ATOM     67  O   UNL A   1      34.689  31.660  28.714  1.00  0.00    -0.744 OA
ENDBRANCH  61  64
ENDBRANCH  43  57
BRANCH  44  68
ATOM     68  C   UNL A   1      46.855  27.185  26.026  1.00  0.00     0.023 A 
ATOM     69  C   UNL A   1      46.937  27.473  24.651  1.00  0.00     0.012 A 
ATOM     70  C   UNL A   1      47.943  26.553  26.661  1.00  0.00     0.148 A 
ATOM     71  C   UNL A   1      48.073  27.122  23.919  1.00  0.00     0.002 A 
ATOM     72  C   UNL A   1      49.095  26.264  25.938  1.00  0.00     0.091 A 
ATOM     73  F   UNL A   1      47.840  26.263  27.965  1.00  0.00    -0.205 F 
ATOM     74  C   UNL A   1      49.157  26.532  24.563  1.00  0.00     0.022 A 
BRANCH  72  75
ATOM     75  S   UNL A   1      50.583  25.649  26.739  1.00  0.00     0.127 S 
ATOM     76  O   UNL A   1      51.497  25.510  25.609  1.00  0.00    -0.237 OA
ATOM     77  O   UNL A   1      50.909  26.737  27.664  1.00  0.00    -0.237 OA
ATOM     78  O   UNL A   1      50.180  24.413  27.397  1.00  0.00    -0.744 OA
ENDBRANCH  72  75
ENDBRANCH  44  68
BRANCH  56  79
ATOM     79  C   UNL A   1      44.958  33.087  29.259  1.00  0.00     0.023 A 
ATOM     80  C   UNL A   1      45.788  33.258  30.382  1.00  0.00     0.012 A 
ATOM     81  C   UNL A   1      44.868  34.110  28.295  1.00  0.00     0.148 A 
ATOM     82  C   UNL A   1      46.511  34.438  30.551  1.00  0.00     0.002 A 
ATOM     83  C   UNL A   1      45.624  35.265  28.448  1.00  0.00     0.091 A 
ATOM     84  F   UNL A   1      44.055  33.928  27.244  1.00  0.00    -0.205 F 
ATOM     85  C   UNL A   1      46.440  35.433  29.579  1.00  0.00     0.022 A 
BRANCH  83  86
ATOM     86  S   UNL A   1      45.667  36.560  27.205  1.00  0.00     0.127 S 
ATOM     87  O   UNL A   1      46.546  37.546  27.831  1.00  0.00    -0.237 OA
ATOM     88  O   UNL A   1      46.249  35.867  26.055  1.00  0.00    -0.237 OA
ATOM     89  O   UNL A   1      44.287  36.986  27.018  1.00  0.00    -0.744 OA
ENDBRANCH  83  86
ENDBRANCH  56  79
ENDBRANCH  30  31
ENDBRANCH  23  25
ENDBRANCH  22  23
ENDBRANCH  21  22
ENDBRANCH   1  21
TORSDOF 17
ENDMDL
