MODEL 1
REMARK VINA RESULT:     -12.3      0.000      0.000
REMARK SMILES O=C(OCCOC(=O)[C@H]1C[C@@H](O)CN1C(=O)c1cc(F)c(F)cc1Cl)c1ccc(-c2c3nc(c(-c4cccc(S(=O)(=O)[O-])c4F)c4ccc([nH]4)c(-c4cccc(S(=O)(=O)[O-])c4F)c4nc(c(-c5cccc(S(=O)(=O)[O-])c5F)c5ccc2[nH]5)C=C4)C=C3)cc1
REMARK SMILES IDX 4 1 3 2 2 3 1 4 26 5 27 6 88 7 28 8 87 9 29 10 30 11 31 12
REMARK SMILES IDX 81 13 32 14 86 15 80 16 82 17 33 18 85 19 79 20 78 21 34 23
REMARK SMILES IDX 66 24 46 25 65 26 47 27 50 28 64 29 83 30 48 31 49 32 63 34
REMARK SMILES IDX 84 35 51 36 35 37 36 38 44 39 37 40 39 41 45 42 38 43 40 44
REMARK SMILES IDX 41 45 42 46 43 47 67 48 68 49 76 50 69 51 71 52 77 53 70 54
REMARK SMILES IDX 72 55 73 56 74 57 75 58 52 59 53 60 61 61 54 62 56 63 62 64
REMARK SMILES IDX 55 65 57 66 58 67 59 68 60 69 5 70 6 71 7 72 8 73 9 74 10 75
REMARK SMILES IDX 14 76 11 77 13 78 15 79 16 80 17 81 18 82 24 83 19 84 23 85
REMARK SMILES IDX 25 86 20 87 21 88 22 89 12 90
REMARK H PARENT 82 22 50 33 12 91
REMARK Flexibility Score: inf
ROOT
ATOM      1  C   UNL A   1      31.402  28.298  26.244  1.00  0.00     0.275 C 
ENDROOT
BRANCH   1   2
ATOM      2  O   UNL A   1      31.685  29.372  27.180  1.00  0.00    -0.458 OA
BRANCH   2   3
ATOM      3  C   UNL A   1      32.413  30.520  27.093  1.00  0.00     0.338 C 
ATOM      4  O   UNL A   1      31.823  31.546  26.753  1.00  0.00    -0.246 OA
BRANCH   3   5
ATOM      5  C   UNL A   1      33.907  30.608  27.237  1.00  0.00     0.060 A 
ATOM      6  C   UNL A   1      34.710  29.477  27.033  1.00  0.00     0.016 A 
ATOM      7  C   UNL A   1      34.589  31.716  27.639  1.00  0.00     0.016 A 
ATOM      8  C   UNL A   1      36.067  29.391  27.504  1.00  0.00     0.010 A 
ATOM      9  C   UNL A   1      35.912  31.603  28.130  1.00  0.00     0.010 A 
ATOM     10  C   UNL A   1      36.696  30.416  28.238  1.00  0.00    -0.014 A 
BRANCH  10  11
ATOM     11  C   UNL A   1      38.182  30.160  28.957  1.00  0.00     0.031 A 
ATOM     12  C   UNL A   1      39.621  29.314  28.535  1.00  0.00     0.074 A 
ATOM     13  C   UNL A   1      38.300  30.758  30.156  1.00  0.00     0.049 A 
ATOM     14  N   UNL A   1      40.585  28.833  29.336  1.00  0.00    -0.248 NA
ATOM     15  C   UNL A   1      40.007  28.936  27.157  1.00  0.00     0.031 C 
ATOM     16  C   UNL A   1      37.314  31.659  30.740  1.00  0.00     0.029 A 
ATOM     17  N   UNL A   1      39.301  30.688  31.092  1.00  0.00    -0.354 N 
ATOM     18  C   UNL A   1      41.495  28.055  28.541  1.00  0.00     0.074 A 
ATOM     19  C   UNL A   1      41.131  28.257  27.196  1.00  0.00     0.031 C 
ATOM     20  C   UNL A   1      37.776  32.107  31.909  1.00  0.00     0.029 A 
ATOM     21  C   UNL A   1      39.002  31.388  32.232  1.00  0.00     0.049 A 
ATOM     22  H   UNL A   1      40.139  30.189  30.960  1.00  0.00     0.167 HD
ATOM     23  C   UNL A   1      42.451  27.126  28.829  1.00  0.00     0.034 A 
ATOM     24  C   UNL A   1      39.570  31.400  33.450  1.00  0.00     0.034 A 
ATOM     25  C   UNL A   1      42.977  26.976  30.141  1.00  0.00     0.049 A 
ATOM     26  C   UNL A   1      40.739  30.529  33.768  1.00  0.00     0.074 A 
ATOM     27  C   UNL A   1      43.982  26.139  30.587  1.00  0.00     0.029 A 
ATOM     28  N   UNL A   1      42.588  27.768  31.193  1.00  0.00    -0.354 N 
ATOM     29  N   UNL A   1      41.370  29.671  33.008  1.00  0.00    -0.248 NA
ATOM     30  C   UNL A   1      41.273  30.642  35.132  1.00  0.00     0.031 C 
ATOM     31  C   UNL A   1      44.224  26.452  31.923  1.00  0.00     0.029 A 
ATOM     32  C   UNL A   1      43.386  27.497  32.273  1.00  0.00     0.049 A 
ATOM     33  H   UNL A   1      41.854  28.423  31.173  1.00  0.00     0.167 HD
ATOM     34  C   UNL A   1      42.397  29.164  33.796  1.00  0.00     0.074 A 
ATOM     35  C   UNL A   1      42.309  29.816  35.082  1.00  0.00     0.031 C 
ATOM     36  C   UNL A   1      43.326  28.229  33.495  1.00  0.00     0.034 A 
BRANCH  23  37
ATOM     37  C   UNL A   1      43.028  26.168  27.761  1.00  0.00     0.023 A 
ATOM     38  C   UNL A   1      44.189  26.484  27.030  1.00  0.00     0.012 A 
ATOM     39  C   UNL A   1      42.493  24.859  27.608  1.00  0.00     0.148 A 
ATOM     40  C   UNL A   1      44.779  25.549  26.164  1.00  0.00     0.002 A 
ATOM     41  C   UNL A   1      43.102  23.920  26.772  1.00  0.00     0.091 A 
ATOM     42  F   UNL A   1      41.423  24.520  28.336  1.00  0.00    -0.205 F 
ATOM     43  C   UNL A   1      44.244  24.268  26.043  1.00  0.00     0.022 A 
BRANCH  41  44
ATOM     44  S   UNL A   1      42.537  22.213  26.628  1.00  0.00     0.127 S 
ATOM     45  O   UNL A   1      41.253  22.376  25.948  1.00  0.00    -0.237 OA
ATOM     46  O   UNL A   1      43.588  21.614  25.808  1.00  0.00    -0.237 OA
ATOM     47  O   UNL A   1      42.446  21.703  27.990  1.00  0.00    -0.744 OA
ENDBRANCH  41  44
ENDBRANCH  23  37
BRANCH  24  48
ATOM     48  C   UNL A   1      38.977  32.313  34.459  1.00  0.00     0.023 A 
ATOM     49  C   UNL A   1      37.925  31.836  35.258  1.00  0.00     0.012 A 
ATOM     50  C   UNL A   1      39.583  33.550  34.753  1.00  0.00     0.148 A 
ATOM     51  C   UNL A   1      37.494  32.574  36.356  1.00  0.00     0.002 A 
ATOM     52  C   UNL A   1      39.190  34.249  35.883  1.00  0.00     0.091 A 
ATOM     53  F   UNL A   1      40.594  33.963  33.975  1.00  0.00    -0.205 F 
ATOM     54  C   UNL A   1      38.138  33.767  36.682  1.00  0.00     0.022 A 
BRANCH  52  55
ATOM     55  S   UNL A   1      40.078  35.689  36.480  1.00  0.00     0.127 S 
ATOM     56  O   UNL A   1      39.749  36.684  35.469  1.00  0.00    -0.237 OA
ATOM     57  O   UNL A   1      39.466  35.904  37.789  1.00  0.00    -0.237 OA
ATOM     58  O   UNL A   1      41.485  35.286  36.540  1.00  0.00    -0.744 OA
ENDBRANCH  52  55
ENDBRANCH  24  48
BRANCH  36  59
ATOM     59  C   UNL A   1      44.386  27.924  34.496  1.00  0.00     0.023 A 
ATOM     60  C   UNL A   1      45.603  28.624  34.456  1.00  0.00     0.012 A 
ATOM     61  C   UNL A   1      44.105  27.039  35.554  1.00  0.00     0.148 A 
ATOM     62  C   UNL A   1      46.551  28.422  35.453  1.00  0.00     0.002 A 
ATOM     63  C   UNL A   1      45.042  26.867  36.558  1.00  0.00     0.091 A 
ATOM     64  F   UNL A   1      42.926  26.400  35.558  1.00  0.00    -0.205 F 
ATOM     65  C   UNL A   1      46.268  27.552  36.506  1.00  0.00     0.022 A 
BRANCH  63  66
ATOM     66  S   UNL A   1      44.732  25.823  37.983  1.00  0.00     0.127 S 
ATOM     67  O   UNL A   1      44.573  24.512  37.357  1.00  0.00    -0.237 OA
ATOM     68  O   UNL A   1      45.962  25.985  38.759  1.00  0.00    -0.237 OA
ATOM     69  O   UNL A   1      43.537  26.355  38.624  1.00  0.00    -0.744 OA
ENDBRANCH  63  66
ENDBRANCH  36  59
ENDBRANCH  10  11
ENDBRANCH   3   5
ENDBRANCH   2   3
ENDBRANCH   1   2
BRANCH   1  70
ATOM     70  C   UNL A   1      32.184  27.019  26.519  1.00  0.00     0.274 C 
BRANCH  70  71
ATOM     71  O   UNL A   1      31.294  25.979  26.902  1.00  0.00    -0.461 OA
BRANCH  71  72
ATOM     72  C   UNL A   1      31.745  24.723  26.711  1.00  0.00     0.329 C 
ATOM     73  O   UNL A   1      31.370  23.736  27.340  1.00  0.00    -0.250 OA
BRANCH  72  74
ATOM     74  C   UNL A   1      32.729  24.605  25.558  1.00  0.00     0.198 C 
ATOM     75  C   UNL A   1      33.873  23.721  26.160  1.00  0.00     0.071 C 
ATOM     76  N   UNL A   1      32.395  24.067  24.223  1.00  0.00    -0.322 N 
ATOM     77  C   UNL A   1      34.496  22.905  25.064  1.00  0.00     0.136 C 
ATOM     78  C   UNL A   1      33.707  23.321  23.834  1.00  0.00     0.152 C 
BRANCH  76  79
ATOM     79  C   UNL A   1      31.166  24.744  23.516  1.00  0.00     0.256 C 
ATOM     80  O   UNL A   1      30.308  23.946  23.101  1.00  0.00    -0.269 OA
BRANCH  79  81
ATOM     81  C   UNL A   1      30.679  26.314  23.204  1.00  0.00     0.061 A 
ATOM     82  C   UNL A   1      29.419  26.967  23.454  1.00  0.00     0.057 A 
ATOM     83  C   UNL A   1      31.627  27.260  22.740  1.00  0.00     0.056 A 
ATOM     84  C   UNL A   1      29.055  28.268  23.058  1.00  0.00     0.159 A 
ATOM     85  C   UNL A   1      31.264  28.592  22.347  1.00  0.00     0.063 A 
ATOM     86  Cl  UNL A   1      33.300  26.866  22.554  1.00  0.00    -0.083 Cl
ATOM     87  F   UNL A   1      27.799  28.687  23.281  1.00  0.00    -0.204 F 
ATOM     88  C   UNL A   1      29.967  29.068  22.450  1.00  0.00     0.160 A 
ATOM     89  F   UNL A   1      29.618  30.283  22.009  1.00  0.00    -0.204 F 
ENDBRANCH  79  81
ENDBRANCH  76  79
BRANCH  77  90
ATOM     90  O   UNL A   1      34.504  21.523  25.370  1.00  0.00    -0.391 OA
ATOM     91  H   UNL A   1      35.065  21.054  24.732  1.00  0.00     0.211 HD
ENDBRANCH  77  90
ENDBRANCH  72  74
ENDBRANCH  71  72
ENDBRANCH  70  71
ENDBRANCH   1  70
TORSDOF 17
ENDMDL
MODEL 2
REMARK VINA RESULT:     -12.0      4.998      9.912
REMARK SMILES O=C(OCCOC(=O)[C@H]1C[C@@H](O)CN1C(=O)c1cc(F)c(F)cc1Cl)c1ccc(-c2c3nc(c(-c4cccc(S(=O)(=O)[O-])c4F)c4ccc([nH]4)c(-c4cccc(S(=O)(=O)[O-])c4F)c4nc(c(-c5cccc(S(=O)(=O)[O-])c5F)c5ccc2[nH]5)C=C4)C=C3)cc1
REMARK SMILES IDX 4 1 3 2 2 3 1 4 26 5 27 6 88 7 28 8 87 9 29 10 30 11 31 12
REMARK SMILES IDX 81 13 32 14 86 15 80 16 82 17 33 18 85 19 79 20 78 21 34 23
REMARK SMILES IDX 66 24 46 25 65 26 47 27 50 28 64 29 83 30 48 31 49 32 63 34
REMARK SMILES IDX 84 35 51 36 35 37 36 38 44 39 37 40 39 41 45 42 38 43 40 44
REMARK SMILES IDX 41 45 42 46 43 47 67 48 68 49 76 50 69 51 71 52 77 53 70 54
REMARK SMILES IDX 72 55 73 56 74 57 75 58 52 59 53 60 61 61 54 62 56 63 62 64
REMARK SMILES IDX 55 65 57 66 58 67 59 68 60 69 5 70 6 71 7 72 8 73 9 74 10 75
REMARK SMILES IDX 14 76 11 77 13 78 15 79 16 80 17 81 18 82 24 83 19 84 23 85
REMARK SMILES IDX 25 86 20 87 21 88 22 89 12 90
REMARK H PARENT 82 22 50 33 12 91
REMARK Flexibility Score: inf
ROOT
ATOM      1  C   UNL A   1      36.627  22.985  23.187  1.00  0.00     0.275 C 
ENDROOT
BRANCH   1   2
ATOM      2  O   UNL A   1      36.839  21.757  23.932  1.00  0.00    -0.458 OA
BRANCH   2   3
ATOM      3  C   UNL A   1      37.802  21.348  24.806  1.00  0.00     0.338 C 
ATOM      4  O   UNL A   1      38.142  20.165  24.768  1.00  0.00    -0.246 OA
BRANCH   3   5
ATOM      5  C   UNL A   1      38.378  22.189  25.911  1.00  0.00     0.060 A 
ATOM      6  C   UNL A   1      37.736  23.366  26.319  1.00  0.00     0.016 A 
ATOM      7  C   UNL A   1      39.563  21.949  26.538  1.00  0.00     0.016 A 
ATOM      8  C   UNL A   1      38.399  24.389  27.084  1.00  0.00     0.010 A 
ATOM      9  C   UNL A   1      40.214  22.979  27.257  1.00  0.00     0.010 A 
ATOM     10  C   UNL A   1      39.755  24.316  27.460  1.00  0.00    -0.014 A 
BRANCH  10  11
ATOM     11  C   UNL A   1      40.524  25.634  28.136  1.00  0.00     0.031 A 
ATOM     12  C   UNL A   1      40.082  26.883  29.237  1.00  0.00     0.074 A 
ATOM     13  C   UNL A   1      41.802  25.764  27.739  1.00  0.00     0.049 A 
ATOM     14  N   UNL A   1      40.623  28.101  29.396  1.00  0.00    -0.248 NA
ATOM     15  C   UNL A   1      38.952  26.809  30.191  1.00  0.00     0.031 C 
ATOM     16  C   UNL A   1      42.523  24.799  26.917  1.00  0.00     0.029 A 
ATOM     17  N   UNL A   1      42.712  26.764  27.974  1.00  0.00    -0.354 N 
ATOM     18  C   UNL A   1      39.807  28.848  30.314  1.00  0.00     0.074 A 
ATOM     19  C   UNL A   1      38.862  27.948  30.840  1.00  0.00     0.031 C 
ATOM     20  C   UNL A   1      43.779  25.218  26.758  1.00  0.00     0.029 A 
ATOM     21  C   UNL A   1      43.897  26.560  27.316  1.00  0.00     0.049 A 
ATOM     22  H   UNL A   1      42.532  27.542  28.550  1.00  0.00     0.167 HD
ATOM     23  C   UNL A   1      39.693  30.172  30.619  1.00  0.00     0.034 A 
ATOM     24  C   UNL A   1      44.942  27.372  27.082  1.00  0.00     0.034 A 
ATOM     25  C   UNL A   1      40.692  31.114  30.254  1.00  0.00     0.049 A 
ATOM     26  C   UNL A   1      44.945  28.787  27.554  1.00  0.00     0.074 A 
ATOM     27  C   UNL A   1      40.763  32.465  30.536  1.00  0.00     0.029 A 
ATOM     28  N   UNL A   1      41.846  30.757  29.601  1.00  0.00    -0.354 N 
ATOM     29  N   UNL A   1      44.026  29.448  28.212  1.00  0.00    -0.248 NA
ATOM     30  C   UNL A   1      46.150  29.566  27.243  1.00  0.00     0.031 C 
ATOM     31  C   UNL A   1      41.995  32.924  30.074  1.00  0.00     0.029 A 
ATOM     32  C   UNL A   1      42.677  31.845  29.539  1.00  0.00     0.049 A 
ATOM     33  H   UNL A   1      42.044  29.865  29.237  1.00  0.00     0.167 HD
ATOM     34  C   UNL A   1      44.560  30.715  28.420  1.00  0.00     0.074 A 
ATOM     35  C   UNL A   1      45.879  30.724  27.829  1.00  0.00     0.031 C 
ATOM     36  C   UNL A   1      44.007  31.787  29.030  1.00  0.00     0.034 A 
BRANCH  23  37
ATOM     37  C   UNL A   1      38.473  30.748  31.377  1.00  0.00     0.023 A 
ATOM     38  C   UNL A   1      38.459  30.867  32.780  1.00  0.00     0.012 A 
ATOM     39  C   UNL A   1      37.394  31.333  30.659  1.00  0.00     0.148 A 
ATOM     40  C   UNL A   1      37.405  31.516  33.443  1.00  0.00     0.002 A 
ATOM     41  C   UNL A   1      36.365  32.008  31.320  1.00  0.00     0.091 A 
ATOM     42  F   UNL A   1      37.416  31.281  29.322  1.00  0.00    -0.205 F 
ATOM     43  C   UNL A   1      36.366  32.093  32.716  1.00  0.00     0.022 A 
BRANCH  41  44
ATOM     44  S   UNL A   1      35.034  32.867  30.457  1.00  0.00     0.127 S 
ATOM     45  O   UNL A   1      34.074  33.099  31.535  1.00  0.00    -0.237 OA
ATOM     46  O   UNL A   1      35.711  34.070  29.976  1.00  0.00    -0.237 OA
ATOM     47  O   UNL A   1      34.575  31.956  29.416  1.00  0.00    -0.744 OA
ENDBRANCH  41  44
ENDBRANCH  23  37
BRANCH  24  48
ATOM     48  C   UNL A   1      46.086  26.795  26.333  1.00  0.00     0.023 A 
ATOM     49  C   UNL A   1      46.140  26.986  24.942  1.00  0.00     0.012 A 
ATOM     50  C   UNL A   1      47.192  26.251  27.015  1.00  0.00     0.148 A 
ATOM     51  C   UNL A   1      47.295  26.659  24.237  1.00  0.00     0.002 A 
ATOM     52  C   UNL A   1      48.359  25.986  26.316  1.00  0.00     0.091 A 
ATOM     53  F   UNL A   1      47.106  26.098  28.344  1.00  0.00    -0.205 F 
ATOM     54  C   UNL A   1      48.410  26.181  24.924  1.00  0.00     0.022 A 
BRANCH  52  55
ATOM     55  S   UNL A   1      49.892  25.545  27.138  1.00  0.00     0.127 S 
ATOM     56  O   UNL A   1      49.557  24.256  27.724  1.00  0.00    -0.237 OA
ATOM     57  O   UNL A   1      50.834  25.498  26.021  1.00  0.00    -0.237 OA
ATOM     58  O   UNL A   1      50.152  26.628  28.090  1.00  0.00    -0.744 OA
ENDBRANCH  52  55
ENDBRANCH  24  48
BRANCH  36  59
ATOM     59  C   UNL A   1      44.832  33.015  29.205  1.00  0.00     0.023 A 
ATOM     60  C   UNL A   1      45.697  33.121  30.307  1.00  0.00     0.012 A 
ATOM     61  C   UNL A   1      44.839  33.994  28.194  1.00  0.00     0.148 A 
ATOM     62  C   UNL A   1      46.548  34.216  30.416  1.00  0.00     0.002 A 
ATOM     63  C   UNL A   1      45.712  35.064  28.294  1.00  0.00     0.091 A 
ATOM     64  F   UNL A   1      44.005  33.847  27.154  1.00  0.00    -0.205 F 
ATOM     65  C   UNL A   1      46.561  35.180  29.407  1.00  0.00     0.022 A 
BRANCH  63  66
ATOM     66  S   UNL A   1      45.844  36.311  27.012  1.00  0.00     0.127 S 
ATOM     67  O   UNL A   1      46.926  37.148  27.527  1.00  0.00    -0.237 OA
ATOM     68  O   UNL A   1      46.194  35.512  25.838  1.00  0.00    -0.237 OA
ATOM     69  O   UNL A   1      44.540  36.957  26.939  1.00  0.00    -0.744 OA
ENDBRANCH  63  66
ENDBRANCH  36  59
ENDBRANCH  10  11
ENDBRANCH   3   5
ENDBRANCH   2   3
ENDBRANCH   1   2
BRANCH   1  70
ATOM     70  C   UNL A   1      35.351  23.725  23.570  1.00  0.00     0.274 C 
BRANCH  70  71
ATOM     71  O   UNL A   1      34.425  23.684  22.493  1.00  0.00    -0.461 OA
BRANCH  71  72
ATOM     72  C   UNL A   1      33.468  24.634  22.507  1.00  0.00     0.329 C 
ATOM     73  O   UNL A   1      32.694  24.869  21.581  1.00  0.00    -0.250 OA
BRANCH  72  74
ATOM     74  C   UNL A   1      33.362  25.363  23.837  1.00  0.00     0.198 C 
ATOM     75  C   UNL A   1      33.522  26.866  23.430  1.00  0.00     0.071 C 
ATOM     76  N   UNL A   1      32.210  25.263  24.758  1.00  0.00    -0.322 N 
ATOM     77  C   UNL A   1      32.737  27.722  24.381  1.00  0.00     0.136 C 
ATOM     78  C   UNL A   1      32.125  26.709  25.333  1.00  0.00     0.152 C 
BRANCH  76  79
ATOM     79  C   UNL A   1      31.806  23.801  25.169  1.00  0.00     0.256 C 
ATOM     80  O   UNL A   1      30.753  23.724  25.826  1.00  0.00    -0.269 OA
BRANCH  79  81
ATOM     81  C   UNL A   1      32.425  22.269  24.908  1.00  0.00     0.061 A 
ATOM     82  C   UNL A   1      32.179  21.332  23.841  1.00  0.00     0.057 A 
ATOM     83  C   UNL A   1      33.458  21.781  25.747  1.00  0.00     0.056 A 
ATOM     84  C   UNL A   1      32.661  20.013  23.755  1.00  0.00     0.159 A 
ATOM     85  C   UNL A   1      33.962  20.440  25.656  1.00  0.00     0.063 A 
ATOM     86  Cl  UNL A   1      34.160  22.750  26.995  1.00  0.00    -0.083 Cl
ATOM     87  F   UNL A   1      32.250  19.236  22.739  1.00  0.00    -0.204 F 
ATOM     88  C   UNL A   1      33.515  19.543  24.700  1.00  0.00     0.160 A 
ATOM     89  F   UNL A   1      33.930  18.271  24.668  1.00  0.00    -0.204 F 
ENDBRANCH  79  81
ENDBRANCH  76  79
BRANCH  77  90
ATOM     90  O   UNL A   1      31.833  28.577  23.704  1.00  0.00    -0.391 OA
ATOM     91  H   UNL A   1      31.509  28.135  22.904  1.00  0.00     0.211 HD
ENDBRANCH  77  90
ENDBRANCH  72  74
ENDBRANCH  71  72
ENDBRANCH  70  71
ENDBRANCH   1  70
TORSDOF 17
ENDMDL
MODEL 3
REMARK VINA RESULT:     -11.8      5.441     10.165
REMARK SMILES O=C(OCCOC(=O)[C@H]1C[C@@H](O)CN1C(=O)c1cc(F)c(F)cc1Cl)c1ccc(-c2c3nc(c(-c4cccc(S(=O)(=O)[O-])c4F)c4ccc([nH]4)c(-c4cccc(S(=O)(=O)[O-])c4F)c4nc(c(-c5cccc(S(=O)(=O)[O-])c5F)c5ccc2[nH]5)C=C4)C=C3)cc1
REMARK SMILES IDX 4 1 3 2 2 3 1 4 26 5 27 6 88 7 28 8 87 9 29 10 30 11 31 12
REMARK SMILES IDX 81 13 32 14 86 15 80 16 82 17 33 18 85 19 79 20 78 21 34 23
REMARK SMILES IDX 66 24 46 25 65 26 47 27 50 28 64 29 83 30 48 31 49 32 63 34
REMARK SMILES IDX 84 35 51 36 35 37 36 38 44 39 37 40 39 41 45 42 38 43 40 44
REMARK SMILES IDX 41 45 42 46 43 47 67 48 68 49 76 50 69 51 71 52 77 53 70 54
REMARK SMILES IDX 72 55 73 56 74 57 75 58 52 59 53 60 61 61 54 62 56 63 62 64
REMARK SMILES IDX 55 65 57 66 58 67 59 68 60 69 5 70 6 71 7 72 8 73 9 74 10 75
REMARK SMILES IDX 14 76 11 77 13 78 15 79 16 80 17 81 18 82 24 83 19 84 23 85
REMARK SMILES IDX 25 86 20 87 21 88 22 89 12 90
REMARK H PARENT 82 22 50 33 12 91
REMARK Flexibility Score: inf
ROOT
ATOM      1  C   UNL A   1      36.922  21.175  25.441  1.00  0.00     0.275 C 
ENDROOT
BRANCH   1   2
ATOM      2  O   UNL A   1      38.268  21.587  25.081  1.00  0.00    -0.458 OA
BRANCH   2   3
ATOM      3  C   UNL A   1      39.416  21.757  25.794  1.00  0.00     0.338 C 
ATOM      4  O   UNL A   1      40.308  20.921  25.648  1.00  0.00    -0.246 OA
BRANCH   3   5
ATOM      5  C   UNL A   1      39.626  22.802  26.854  1.00  0.00     0.060 A 
ATOM      6  C   UNL A   1      38.813  23.943  26.902  1.00  0.00     0.016 A 
ATOM      7  C   UNL A   1      40.628  22.787  27.778  1.00  0.00     0.016 A 
ATOM      8  C   UNL A   1      39.180  25.130  27.628  1.00  0.00     0.010 A 
ATOM      9  C   UNL A   1      40.993  23.974  28.456  1.00  0.00     0.010 A 
ATOM     10  C   UNL A   1      40.397  25.264  28.325  1.00  0.00    -0.014 A 
BRANCH  10  11
ATOM     11  C   UNL A   1      40.866  26.743  28.944  1.00  0.00     0.031 A 
ATOM     12  C   UNL A   1      40.088  28.015  29.807  1.00  0.00     0.074 A 
ATOM     13  C   UNL A   1      42.164  27.019  28.731  1.00  0.00     0.049 A 
ATOM     14  N   UNL A   1      40.433  29.309  29.896  1.00  0.00    -0.248 NA
ATOM     15  C   UNL A   1      38.836  27.870  30.583  1.00  0.00     0.031 C 
ATOM     16  C   UNL A   1      43.130  26.095  28.148  1.00  0.00     0.029 A 
ATOM     17  N   UNL A   1      42.884  28.161  28.976  1.00  0.00    -0.354 N 
ATOM     18  C   UNL A   1      39.387  30.015  30.584  1.00  0.00     0.074 A 
ATOM     19  C   UNL A   1      38.492  29.041  31.068  1.00  0.00     0.031 C 
ATOM     20  C   UNL A   1      44.330  26.677  28.130  1.00  0.00     0.029 A 
ATOM     21  C   UNL A   1      44.178  28.070  28.534  1.00  0.00     0.049 A 
ATOM     22  H   UNL A   1      42.512  28.957  29.421  1.00  0.00     0.167 HD
ATOM     23  C   UNL A   1      39.052  31.331  30.707  1.00  0.00     0.034 A 
ATOM     24  C   UNL A   1      45.133  29.000  28.362  1.00  0.00     0.034 A 
ATOM     25  C   UNL A   1      39.967  32.369  30.383  1.00  0.00     0.049 A 
ATOM     26  C   UNL A   1      44.873  30.440  28.654  1.00  0.00     0.074 A 
ATOM     27  C   UNL A   1      39.814  33.737  30.508  1.00  0.00     0.029 A 
ATOM     28  N   UNL A   1      41.250  32.124  29.959  1.00  0.00    -0.354 N 
ATOM     29  N   UNL A   1      43.781  31.020  29.082  1.00  0.00    -0.248 NA
ATOM     30  C   UNL A   1      46.003  31.354  28.435  1.00  0.00     0.031 C 
ATOM     31  C   UNL A   1      41.035  34.325  30.183  1.00  0.00     0.029 A 
ATOM     32  C   UNL A   1      41.931  33.311  29.891  1.00  0.00     0.049 A 
ATOM     33  H   UNL A   1      41.619  31.239  29.740  1.00  0.00     0.167 HD
ATOM     34  C   UNL A   1      44.104  32.366  29.212  1.00  0.00     0.074 A 
ATOM     35  C   UNL A   1      45.489  32.511  28.830  1.00  0.00     0.031 C 
ATOM     36  C   UNL A   1      43.323  33.400  29.598  1.00  0.00     0.034 A 
BRANCH  23  37
ATOM     37  C   UNL A   1      37.659  31.793  31.197  1.00  0.00     0.023 A 
ATOM     38  C   UNL A   1      37.330  31.831  32.566  1.00  0.00     0.012 A 
ATOM     39  C   UNL A   1      36.727  32.355  30.282  1.00  0.00     0.148 A 
ATOM     40  C   UNL A   1      36.114  32.380  33.004  1.00  0.00     0.002 A 
ATOM     41  C   UNL A   1      35.535  32.932  30.725  1.00  0.00     0.091 A 
ATOM     42  F   UNL A   1      37.046  32.380  28.983  1.00  0.00    -0.205 F 
ATOM     43  C   UNL A   1      35.223  32.938  32.089  1.00  0.00     0.022 A 
BRANCH  41  44
ATOM     44  S   UNL A   1      34.371  33.762  29.625  1.00  0.00     0.127 S 
ATOM     45  O   UNL A   1      35.247  34.669  28.885  1.00  0.00    -0.237 OA
ATOM     46  O   UNL A   1      33.846  32.646  28.840  1.00  0.00    -0.237 OA
ATOM     47  O   UNL A   1      33.400  34.422  30.490  1.00  0.00    -0.744 OA
ENDBRANCH  41  44
ENDBRANCH  23  37
BRANCH  24  48
ATOM     48  C   UNL A   1      46.450  28.527  27.868  1.00  0.00     0.023 A 
ATOM     49  C   UNL A   1      47.417  28.133  28.808  1.00  0.00     0.012 A 
ATOM     50  C   UNL A   1      46.658  28.282  26.496  1.00  0.00     0.148 A 
ATOM     51  C   UNL A   1      48.572  27.480  28.390  1.00  0.00     0.002 A 
ATOM     52  C   UNL A   1      47.781  27.576  26.094  1.00  0.00     0.091 A 
ATOM     53  F   UNL A   1      45.706  28.660  25.632  1.00  0.00    -0.205 F 
ATOM     54  C   UNL A   1      48.745  27.182  27.039  1.00  0.00     0.022 A 
BRANCH  52  55
ATOM     55  S   UNL A   1      47.996  26.990  24.412  1.00  0.00     0.127 S 
ATOM     56  O   UNL A   1      49.376  26.527  24.430  1.00  0.00    -0.237 OA
ATOM     57  O   UNL A   1      46.985  25.940  24.323  1.00  0.00    -0.237 OA
ATOM     58  O   UNL A   1      47.727  28.148  23.556  1.00  0.00    -0.744 OA
ENDBRANCH  52  55
ENDBRANCH  24  48
BRANCH  36  59
ATOM     59  C   UNL A   1      43.941  34.747  29.745  1.00  0.00     0.023 A 
ATOM     60  C   UNL A   1      44.550  35.105  30.959  1.00  0.00     0.012 A 
ATOM     61  C   UNL A   1      44.029  35.594  28.625  1.00  0.00     0.148 A 
ATOM     62  C   UNL A   1      45.223  36.318  31.065  1.00  0.00     0.002 A 
ATOM     63  C   UNL A   1      44.727  36.785  28.729  1.00  0.00     0.091 A 
ATOM     64  F   UNL A   1      43.442  35.208  27.482  1.00  0.00    -0.205 F 
ATOM     65  C   UNL A   1      45.318  37.151  29.950  1.00  0.00     0.022 A 
BRANCH  63  66
ATOM     66  S   UNL A   1      44.959  37.882  27.330  1.00  0.00     0.127 S 
ATOM     67  O   UNL A   1      45.525  39.065  27.975  1.00  0.00    -0.237 OA
ATOM     68  O   UNL A   1      45.897  37.130  26.498  1.00  0.00    -0.237 OA
ATOM     69  O   UNL A   1      43.640  38.068  26.738  1.00  0.00    -0.744 OA
ENDBRANCH  63  66
ENDBRANCH  36  59
ENDBRANCH  10  11
ENDBRANCH   3   5
ENDBRANCH   2   3
ENDBRANCH   1   2
BRANCH   1  70
ATOM     70  C   UNL A   1      35.826  21.961  24.731  1.00  0.00     0.274 C 
BRANCH  70  71
ATOM     71  O   UNL A   1      35.602  23.194  25.401  1.00  0.00    -0.461 OA
BRANCH  71  72
ATOM     72  C   UNL A   1      34.475  23.263  26.139  1.00  0.00     0.329 C 
ATOM     73  O   UNL A   1      34.406  23.024  27.343  1.00  0.00    -0.250 OA
BRANCH  72  74
ATOM     74  C   UNL A   1      33.270  23.756  25.355  1.00  0.00     0.198 C 
ATOM     75  C   UNL A   1      33.811  25.044  24.648  1.00  0.00     0.071 C 
ATOM     76  N   UNL A   1      32.542  22.956  24.347  1.00  0.00    -0.322 N 
ATOM     77  C   UNL A   1      33.100  25.224  23.338  1.00  0.00     0.136 C 
ATOM     78  C   UNL A   1      32.153  24.037  23.293  1.00  0.00     0.152 C 
BRANCH  76  79
ATOM     79  C   UNL A   1      32.041  21.551  24.840  1.00  0.00     0.256 C 
ATOM     80  O   UNL A   1      31.103  21.597  25.655  1.00  0.00    -0.269 OA
BRANCH  79  81
ATOM     81  C   UNL A   1      32.430  19.957  24.511  1.00  0.00     0.061 A 
ATOM     82  C   UNL A   1      32.691  18.857  25.404  1.00  0.00     0.057 A 
ATOM     83  C   UNL A   1      32.392  19.493  23.173  1.00  0.00     0.056 A 
ATOM     84  C   UNL A   1      33.122  17.567  25.041  1.00  0.00     0.159 A 
ATOM     85  C   UNL A   1      32.817  18.173  22.799  1.00  0.00     0.063 A 
ATOM     86  Cl  UNL A   1      31.883  20.502  21.864  1.00  0.00    -0.083 Cl
ATOM     87  F   UNL A   1      33.421  16.686  26.010  1.00  0.00    -0.204 F 
ATOM     88  C   UNL A   1      33.239  17.238  23.730  1.00  0.00     0.160 A 
ATOM     89  F   UNL A   1      33.709  16.037  23.371  1.00  0.00    -0.204 F 
ENDBRANCH  79  81
ENDBRANCH  76  79
BRANCH  77  90
ATOM     90  O   UNL A   1      34.004  25.349  22.255  1.00  0.00    -0.391 OA
ATOM     91  H   UNL A   1      33.852  26.194  21.803  1.00  0.00     0.211 HD
ENDBRANCH  77  90
ENDBRANCH  72  74
ENDBRANCH  71  72
ENDBRANCH  70  71
ENDBRANCH   1  70
TORSDOF 17
ENDMDL
