MODEL 1
REMARK VINA RESULT:     -12.1      0.000      0.000
REMARK SMILES CCc1cccc(CC)c1NC(=O)C[C@@](C)(C(=O)OCCOC(=O)c1ccc(-c2c3nc(c(-c4cccc(S(=O)(=O)[O-])c4F)c4ccc([nH]4)c(-c4cccc(S(=O)(=O)[O-])c4F)c4nc(c(-c5cccc(S(=O)(=O)[O-])c5F)c5ccc2[nH]5)C=C4)C=C3)cc1)c1ccccc1
REMARK SMILES IDX 20 1 19 2 17 3 18 4 15 5 16 6 14 7 12 8 11 9 13 11 10 12
REMARK SMILES IDX 3 13 4 14 5 15 7 16 6 17 2 18 1 19 8 20 9 21 88 22 89 23
REMARK SMILES IDX 93 24 90 25 92 26 91 27 21 28 22 29 23 30 24 31 25 32 26 33
REMARK SMILES IDX 87 34 27 35 86 36 28 37 29 38 30 39 80 40 31 41 85 42 79 43
REMARK SMILES IDX 81 44 32 45 84 46 78 47 77 48 33 50 65 51 45 52 64 53 46 54
REMARK SMILES IDX 49 55 63 56 82 57 47 58 48 59 62 61 83 62 50 63 34 64 35 65
REMARK SMILES IDX 43 66 36 67 38 68 44 69 37 70 39 71 40 72 41 73 42 74 66 75
REMARK SMILES IDX 67 76 75 77 68 78 70 79 76 80 69 81 71 82 72 83 73 84 74 85
REMARK SMILES IDX 51 86 52 87 60 88 53 89 55 90 61 91 54 92 56 93 57 94 58 95
REMARK SMILES IDX 59 96
REMARK H PARENT 11 10 81 49 49 60
REMARK Flexibility Score: inf
ROOT
ATOM      1  C   UNL A   1      35.323  21.110  24.734  1.00  0.00     0.274 C 
ENDROOT
BRANCH   1   2
ATOM      2  O   UNL A   1      34.230  22.042  24.564  1.00  0.00    -0.461 OA
BRANCH   2   3
ATOM      3  C   UNL A   1      34.503  23.251  23.981  1.00  0.00     0.316 C 
ATOM      4  O   UNL A   1      35.280  23.382  23.042  1.00  0.00    -0.251 OA
BRANCH   3   5
ATOM      5  C   UNL A   1      33.791  24.435  24.692  1.00  0.00     0.099 C 
ATOM      6  C   UNL A   1      34.702  24.795  25.896  1.00  0.00     0.029 C 
BRANCH   5   7
ATOM      7  C   UNL A   1      32.423  23.897  25.210  1.00  0.00     0.123 C 
BRANCH   7   8
ATOM      8  C   UNL A   1      31.745  24.585  26.353  1.00  0.00     0.225 C 
ATOM      9  N   UNL A   1      31.127  25.783  26.345  1.00  0.00    -0.326 N 
ATOM     10  H   UNL A   1      30.702  25.895  27.225  1.00  0.00     0.169 HD
ATOM     11  O   UNL A   1      31.709  23.997  27.445  1.00  0.00    -0.275 OA
BRANCH   9  12
ATOM     12  C   UNL A   1      30.838  26.944  25.592  1.00  0.00     0.047 A 
ATOM     13  C   UNL A   1      31.543  28.103  26.067  1.00  0.00    -0.024 A 
ATOM     14  C   UNL A   1      31.518  29.313  25.345  1.00  0.00     0.006 A 
ATOM     15  C   UNL A   1      30.789  29.426  24.180  1.00  0.00     0.001 A 
ATOM     16  C   UNL A   1      30.027  27.095  24.440  1.00  0.00    -0.024 A 
ATOM     17  C   UNL A   1      30.052  28.338  23.748  1.00  0.00     0.006 A 
BRANCH  13  18
ATOM     18  C   UNL A   1      32.212  28.180  27.442  1.00  0.00     0.034 C 
ATOM     19  C   UNL A   1      33.631  28.731  27.484  1.00  0.00     0.009 C 
ENDBRANCH  13  18
BRANCH  16  20
ATOM     20  C   UNL A   1      29.117  26.095  23.768  1.00  0.00     0.034 C 
ATOM     21  C   UNL A   1      29.886  24.936  23.118  1.00  0.00     0.009 C 
ENDBRANCH  16  20
ENDBRANCH   9  12
ENDBRANCH   7   8
ENDBRANCH   5   7
BRANCH   5  22
ATOM     22  C   UNL A   1      33.713  25.689  23.777  1.00  0.00    -0.030 A 
ATOM     23  C   UNL A   1      33.111  25.683  22.505  1.00  0.00     0.005 A 
ATOM     24  C   UNL A   1      34.239  26.930  24.208  1.00  0.00     0.005 A 
ATOM     25  C   UNL A   1      32.990  26.858  21.744  1.00  0.00     0.000 A 
ATOM     26  C   UNL A   1      34.104  28.104  23.458  1.00  0.00     0.000 A 
ATOM     27  C   UNL A   1      33.473  28.069  22.225  1.00  0.00     0.000 A 
ENDBRANCH   5  22
ENDBRANCH   3   5
ENDBRANCH   2   3
ENDBRANCH   1   2
BRANCH   1  28
ATOM     28  C   UNL A   1      36.255  21.562  25.852  1.00  0.00     0.275 C 
BRANCH  28  29
ATOM     29  O   UNL A   1      37.436  22.076  25.234  1.00  0.00    -0.458 OA
BRANCH  29  30
ATOM     30  C   UNL A   1      38.604  21.672  25.765  1.00  0.00     0.338 C 
ATOM     31  O   UNL A   1      39.179  20.601  25.569  1.00  0.00    -0.246 OA
BRANCH  30  32
ATOM     32  C   UNL A   1      39.174  22.787  26.533  1.00  0.00     0.060 A 
ATOM     33  C   UNL A   1      38.722  24.080  26.272  1.00  0.00     0.016 A 
ATOM     34  C   UNL A   1      40.236  22.587  27.408  1.00  0.00     0.016 A 
ATOM     35  C   UNL A   1      39.399  25.174  26.788  1.00  0.00     0.010 A 
ATOM     36  C   UNL A   1      40.843  23.694  28.012  1.00  0.00     0.010 A 
ATOM     37  C   UNL A   1      40.472  25.009  27.665  1.00  0.00    -0.014 A 
BRANCH  37  38
ATOM     38  C   UNL A   1      41.263  26.182  28.140  1.00  0.00     0.031 A 
ATOM     39  C   UNL A   1      40.587  27.221  28.998  1.00  0.00     0.074 A 
ATOM     40  C   UNL A   1      42.568  26.344  27.833  1.00  0.00     0.049 A 
ATOM     41  N   UNL A   1      40.936  28.460  29.223  1.00  0.00    -0.248 NA
ATOM     42  C   UNL A   1      39.332  26.824  29.662  1.00  0.00     0.031 C 
ATOM     43  C   UNL A   1      43.395  25.402  27.079  1.00  0.00     0.029 A 
ATOM     44  N   UNL A   1      43.426  27.384  28.110  1.00  0.00    -0.354 N 
ATOM     45  C   UNL A   1      39.876  29.027  29.921  1.00  0.00     0.074 A 
ATOM     46  C   UNL A   1      38.900  27.982  30.141  1.00  0.00     0.031 C 
ATOM     47  C   UNL A   1      44.641  25.886  26.978  1.00  0.00     0.029 A 
ATOM     48  C   UNL A   1      44.672  27.228  27.543  1.00  0.00     0.049 A 
ATOM     49  H   UNL A   1      43.175  28.161  28.659  1.00  0.00     0.167 HD
ATOM     50  C   UNL A   1      39.729  30.311  30.324  1.00  0.00     0.034 A 
ATOM     51  C   UNL A   1      45.699  28.092  27.415  1.00  0.00     0.034 A 
ATOM     52  C   UNL A   1      40.765  31.301  30.233  1.00  0.00     0.049 A 
ATOM     53  C   UNL A   1      45.542  29.494  27.933  1.00  0.00     0.074 A 
ATOM     54  C   UNL A   1      40.739  32.617  30.664  1.00  0.00     0.029 A 
ATOM     55  N   UNL A   1      42.028  31.076  29.709  1.00  0.00    -0.354 N 
ATOM     56  N   UNL A   1      44.524  30.033  28.558  1.00  0.00    -0.248 NA
ATOM     57  C   UNL A   1      46.670  30.412  27.717  1.00  0.00     0.031 C 
ATOM     58  C   UNL A   1      41.991  33.184  30.405  1.00  0.00     0.029 A 
ATOM     59  C   UNL A   1      42.794  32.222  29.816  1.00  0.00     0.049 A 
ATOM     60  H   UNL A   1      42.333  30.226  29.317  1.00  0.00     0.167 HD
ATOM     61  C   UNL A   1      44.885  31.351  28.807  1.00  0.00     0.074 A 
ATOM     62  C   UNL A   1      46.234  31.518  28.306  1.00  0.00     0.031 C 
ATOM     63  C   UNL A   1      44.154  32.347  29.364  1.00  0.00     0.034 A 
BRANCH  50  64
ATOM     64  C   UNL A   1      38.405  30.726  30.902  1.00  0.00     0.023 A 
ATOM     65  C   UNL A   1      38.130  30.524  32.267  1.00  0.00     0.012 A 
ATOM     66  C   UNL A   1      37.464  31.399  30.095  1.00  0.00     0.148 A 
ATOM     67  C   UNL A   1      36.929  30.971  32.818  1.00  0.00     0.002 A 
ATOM     68  C   UNL A   1      36.288  31.876  30.660  1.00  0.00     0.091 A 
ATOM     69  F   UNL A   1      37.737  31.556  28.792  1.00  0.00    -0.205 F 
ATOM     70  C   UNL A   1      36.015  31.657  32.019  1.00  0.00     0.022 A 
BRANCH  68  71
ATOM     71  S   UNL A   1      35.090  32.839  29.728  1.00  0.00     0.127 S 
ATOM     72  O   UNL A   1      35.941  33.867  29.130  1.00  0.00    -0.237 OA
ATOM     73  O   UNL A   1      34.570  31.852  28.782  1.00  0.00    -0.237 OA
ATOM     74  O   UNL A   1      34.117  33.319  30.699  1.00  0.00    -0.744 OA
ENDBRANCH  68  71
ENDBRANCH  50  64
BRANCH  51  75
ATOM     75  C   UNL A   1      46.952  27.658  26.730  1.00  0.00     0.023 A 
ATOM     76  C   UNL A   1      47.922  26.936  27.450  1.00  0.00     0.012 A 
ATOM     77  C   UNL A   1      47.162  27.902  25.359  1.00  0.00     0.148 A 
ATOM     78  C   UNL A   1      49.081  26.477  26.819  1.00  0.00     0.002 A 
ATOM     79  C   UNL A   1      48.280  27.377  24.721  1.00  0.00     0.091 A 
ATOM     80  F   UNL A   1      46.252  28.625  24.688  1.00  0.00    -0.205 F 
ATOM     81  C   UNL A   1      49.251  26.680  25.451  1.00  0.00     0.022 A 
BRANCH  79  82
ATOM     82  S   UNL A   1      48.442  27.451  22.932  1.00  0.00     0.127 S 
ATOM     83  O   UNL A   1      47.293  28.268  22.556  1.00  0.00    -0.237 OA
ATOM     84  O   UNL A   1      49.743  28.100  22.758  1.00  0.00    -0.237 OA
ATOM     85  O   UNL A   1      48.418  26.058  22.503  1.00  0.00    -0.744 OA
ENDBRANCH  79  82
ENDBRANCH  51  75
BRANCH  63  86
ATOM     86  C   UNL A   1      44.798  33.701  29.473  1.00  0.00     0.023 A 
ATOM     87  C   UNL A   1      45.537  34.020  30.629  1.00  0.00     0.012 A 
ATOM     88  C   UNL A   1      44.735  34.622  28.411  1.00  0.00     0.148 A 
ATOM     89  C   UNL A   1      46.188  35.247  30.734  1.00  0.00     0.002 A 
ATOM     90  C   UNL A   1      45.418  35.828  28.508  1.00  0.00     0.091 A 
ATOM     91  F   UNL A   1      44.006  34.306  27.331  1.00  0.00    -0.205 F 
ATOM     92  C   UNL A   1      46.138  36.145  29.671  1.00  0.00     0.022 A 
BRANCH  90  93
ATOM     93  S   UNL A   1      45.469  37.002  27.149  1.00  0.00     0.127 S 
ATOM     94  O   UNL A   1      46.029  36.189  26.072  1.00  0.00    -0.237 OA
ATOM     95  O   UNL A   1      44.058  37.353  26.980  1.00  0.00    -0.237 OA
ATOM     96  O   UNL A   1      46.306  38.101  27.612  1.00  0.00    -0.744 OA
ENDBRANCH  90  93
ENDBRANCH  63  86
ENDBRANCH  37  38
ENDBRANCH  30  32
ENDBRANCH  29  30
ENDBRANCH  28  29
ENDBRANCH   1  28
TORSDOF 20
ENDMDL
MODEL 2
REMARK VINA RESULT:     -11.6      0.976      7.382
REMARK SMILES CCc1cccc(CC)c1NC(=O)C[C@@](C)(C(=O)OCCOC(=O)c1ccc(-c2c3nc(c(-c4cccc(S(=O)(=O)[O-])c4F)c4ccc([nH]4)c(-c4cccc(S(=O)(=O)[O-])c4F)c4nc(c(-c5cccc(S(=O)(=O)[O-])c5F)c5ccc2[nH]5)C=C4)C=C3)cc1)c1ccccc1
REMARK SMILES IDX 20 1 19 2 17 3 18 4 15 5 16 6 14 7 12 8 11 9 13 11 10 12
REMARK SMILES IDX 3 13 4 14 5 15 7 16 6 17 2 18 1 19 8 20 9 21 88 22 89 23
REMARK SMILES IDX 93 24 90 25 92 26 91 27 21 28 22 29 23 30 24 31 25 32 26 33
REMARK SMILES IDX 87 34 27 35 86 36 28 37 29 38 30 39 80 40 31 41 85 42 79 43
REMARK SMILES IDX 81 44 32 45 84 46 78 47 77 48 33 50 65 51 45 52 64 53 46 54
REMARK SMILES IDX 49 55 63 56 82 57 47 58 48 59 62 61 83 62 50 63 34 64 35 65
REMARK SMILES IDX 43 66 36 67 38 68 44 69 37 70 39 71 40 72 41 73 42 74 66 75
REMARK SMILES IDX 67 76 75 77 68 78 70 79 76 80 69 81 71 82 72 83 73 84 74 85
REMARK SMILES IDX 51 86 52 87 60 88 53 89 55 90 61 91 54 92 56 93 57 94 58 95
REMARK SMILES IDX 59 96
REMARK H PARENT 11 10 81 49 49 60
REMARK Flexibility Score: inf
ROOT
ATOM      1  C   UNL A   1      35.569  21.508  25.774  1.00  0.00     0.274 C 
ENDROOT
BRANCH   1   2
ATOM      2  O   UNL A   1      35.240  22.605  24.889  1.00  0.00    -0.461 OA
BRANCH   2   3
ATOM      3  C   UNL A   1      33.973  22.653  24.372  1.00  0.00     0.316 C 
ATOM      4  O   UNL A   1      33.522  21.794  23.623  1.00  0.00    -0.251 OA
BRANCH   3   5
ATOM      5  C   UNL A   1      33.211  23.947  24.769  1.00  0.00     0.099 C 
ATOM      6  C   UNL A   1      34.073  24.605  25.879  1.00  0.00     0.029 C 
BRANCH   5   7
ATOM      7  C   UNL A   1      31.839  23.503  25.361  1.00  0.00     0.123 C 
BRANCH   7   8
ATOM      8  C   UNL A   1      31.186  24.341  26.415  1.00  0.00     0.225 C 
ATOM      9  N   UNL A   1      30.739  25.608  26.302  1.00  0.00    -0.326 N 
ATOM     10  H   UNL A   1      30.275  25.827  27.141  1.00  0.00     0.169 HD
ATOM     11  O   UNL A   1      30.995  23.828  27.529  1.00  0.00    -0.275 OA
BRANCH   9  12
ATOM     12  C   UNL A   1      30.663  26.752  25.473  1.00  0.00     0.047 A 
ATOM     13  C   UNL A   1      31.602  27.773  25.851  1.00  0.00    -0.024 A 
ATOM     14  C   UNL A   1      31.796  28.912  25.044  1.00  0.00     0.006 A 
ATOM     15  C   UNL A   1      31.066  29.093  23.889  1.00  0.00     0.001 A 
ATOM     16  C   UNL A   1      29.861  26.987  24.329  1.00  0.00    -0.024 A 
ATOM     17  C   UNL A   1      30.112  28.151  23.550  1.00  0.00     0.006 A 
BRANCH  13  18
ATOM     18  C   UNL A   1      32.319  27.804  27.202  1.00  0.00     0.034 C 
ATOM     19  C   UNL A   1      33.665  28.514  27.248  1.00  0.00     0.009 C 
ENDBRANCH  13  18
BRANCH  16  20
ATOM     20  C   UNL A   1      28.747  26.149  23.749  1.00  0.00     0.034 C 
ATOM     21  C   UNL A   1      27.359  26.762  23.986  1.00  0.00     0.009 C 
ENDBRANCH  16  20
ENDBRANCH   9  12
ENDBRANCH   7   8
ENDBRANCH   5   7
BRANCH   5  22
ATOM     22  C   UNL A   1      33.134  24.952  23.584  1.00  0.00    -0.030 A 
ATOM     23  C   UNL A   1      32.260  24.796  22.493  1.00  0.00     0.005 A 
ATOM     24  C   UNL A   1      33.948  26.110  23.568  1.00  0.00     0.005 A 
ATOM     25  C   UNL A   1      32.165  25.769  21.483  1.00  0.00     0.000 A 
ATOM     26  C   UNL A   1      33.841  27.088  22.571  1.00  0.00     0.000 A 
ATOM     27  C   UNL A   1      32.943  26.919  21.529  1.00  0.00     0.000 A 
ENDBRANCH   5  22
ENDBRANCH   3   5
ENDBRANCH   2   3
ENDBRANCH   1   2
BRANCH   1  28
ATOM     28  C   UNL A   1      36.653  20.626  25.167  1.00  0.00     0.275 C 
BRANCH  28  29
ATOM     29  O   UNL A   1      37.808  21.447  24.979  1.00  0.00    -0.458 OA
BRANCH  29  30
ATOM     30  C   UNL A   1      38.851  21.193  25.789  1.00  0.00     0.338 C 
ATOM     31  O   UNL A   1      39.421  20.113  25.951  1.00  0.00    -0.246 OA
BRANCH  30  32
ATOM     32  C   UNL A   1      39.307  22.463  26.371  1.00  0.00     0.060 A 
ATOM     33  C   UNL A   1      38.569  23.618  26.115  1.00  0.00     0.016 A 
ATOM     34  C   UNL A   1      40.517  22.548  27.049  1.00  0.00     0.016 A 
ATOM     35  C   UNL A   1      39.090  24.864  26.431  1.00  0.00     0.010 A 
ATOM     36  C   UNL A   1      40.982  23.802  27.463  1.00  0.00     0.010 A 
ATOM     37  C   UNL A   1      40.305  24.985  27.107  1.00  0.00    -0.014 A 
BRANCH  37  38
ATOM     38  C   UNL A   1      40.913  26.325  27.357  1.00  0.00     0.031 A 
ATOM     39  C   UNL A   1      42.287  26.618  26.811  1.00  0.00     0.074 A 
ATOM     40  C   UNL A   1      40.274  27.289  28.053  1.00  0.00     0.049 A 
ATOM     41  N   UNL A   1      43.148  27.528  27.183  1.00  0.00    -0.248 NA
ATOM     42  C   UNL A   1      42.773  25.747  25.725  1.00  0.00     0.031 C 
ATOM     43  C   UNL A   1      38.915  27.203  28.588  1.00  0.00     0.029 A 
ATOM     44  N   UNL A   1      40.701  28.537  28.446  1.00  0.00    -0.354 N 
ATOM     45  C   UNL A   1      44.318  27.244  26.490  1.00  0.00     0.074 A 
ATOM     46  C   UNL A   1      44.041  26.119  25.625  1.00  0.00     0.031 C 
ATOM     47  C   UNL A   1      38.607  28.351  29.209  1.00  0.00     0.029 A 
ATOM     48  C   UNL A   1      39.787  29.204  29.233  1.00  0.00     0.049 A 
ATOM     49  H   UNL A   1      41.572  28.917  28.190  1.00  0.00     0.167 HD
ATOM     50  C   UNL A   1      45.519  27.861  26.585  1.00  0.00     0.034 A 
ATOM     51  C   UNL A   1      39.904  30.332  29.961  1.00  0.00     0.034 A 
ATOM     52  C   UNL A   1      45.741  29.068  27.332  1.00  0.00     0.049 A 
ATOM     53  C   UNL A   1      41.228  31.043  29.998  1.00  0.00     0.074 A 
ATOM     54  C   UNL A   1      46.907  29.805  27.448  1.00  0.00     0.029 A 
ATOM     55  N   UNL A   1      44.770  29.736  28.060  1.00  0.00    -0.354 N 
ATOM     56  N   UNL A   1      42.340  30.747  29.370  1.00  0.00    -0.248 NA
ATOM     57  C   UNL A   1      41.319  32.234  30.853  1.00  0.00     0.031 C 
ATOM     58  C   UNL A   1      46.636  30.925  28.242  1.00  0.00     0.029 A 
ATOM     59  C   UNL A   1      45.303  30.883  28.617  1.00  0.00     0.049 A 
ATOM     60  H   UNL A   1      43.837  29.436  28.164  1.00  0.00     0.167 HD
ATOM     61  C   UNL A   1      43.262  31.712  29.755  1.00  0.00     0.074 A 
ATOM     62  C   UNL A   1      42.567  32.628  30.635  1.00  0.00     0.031 C 
ATOM     63  C   UNL A   1      44.576  31.811  29.441  1.00  0.00     0.034 A 
BRANCH  50  64
ATOM     64  C   UNL A   1      46.690  27.251  25.866  1.00  0.00     0.023 A 
ATOM     65  C   UNL A   1      47.385  26.166  26.431  1.00  0.00     0.012 A 
ATOM     66  C   UNL A   1      47.043  27.709  24.579  1.00  0.00     0.148 A 
ATOM     67  C   UNL A   1      48.427  25.556  25.733  1.00  0.00     0.002 A 
ATOM     68  C   UNL A   1      48.056  27.071  23.875  1.00  0.00     0.091 A 
ATOM     69  F   UNL A   1      46.383  28.761  24.073  1.00  0.00    -0.205 F 
ATOM     70  C   UNL A   1      48.754  25.999  24.453  1.00  0.00     0.022 A 
BRANCH  68  71
ATOM     71  S   UNL A   1      48.491  27.520  22.190  1.00  0.00     0.127 S 
ATOM     72  O   UNL A   1      49.671  28.356  22.403  1.00  0.00    -0.237 OA
ATOM     73  O   UNL A   1      48.768  26.217  21.584  1.00  0.00    -0.237 OA
ATOM     74  O   UNL A   1      47.328  28.206  21.645  1.00  0.00    -0.744 OA
ENDBRANCH  68  71
ENDBRANCH  50  64
BRANCH  51  75
ATOM     75  C   UNL A   1      38.739  30.831  30.748  1.00  0.00     0.023 A 
ATOM     76  C   UNL A   1      38.700  30.620  32.139  1.00  0.00     0.012 A 
ATOM     77  C   UNL A   1      37.701  31.564  30.140  1.00  0.00     0.148 A 
ATOM     78  C   UNL A   1      37.644  31.119  32.905  1.00  0.00     0.002 A 
ATOM     79  C   UNL A   1      36.694  32.123  30.920  1.00  0.00     0.091 A 
ATOM     80  F   UNL A   1      37.724  31.727  28.809  1.00  0.00    -0.205 F 
ATOM     81  C   UNL A   1      36.652  31.887  32.300  1.00  0.00     0.022 A 
BRANCH  79  82
ATOM     82  S   UNL A   1      35.508  33.272  30.210  1.00  0.00     0.127 S 
ATOM     83  O   UNL A   1      34.602  32.375  29.499  1.00  0.00    -0.237 OA
ATOM     84  O   UNL A   1      34.936  33.911  31.397  1.00  0.00    -0.237 OA
ATOM     85  O   UNL A   1      36.312  34.169  29.389  1.00  0.00    -0.744 OA
ENDBRANCH  79  82
ENDBRANCH  51  75
BRANCH  63  86
ATOM     86  C   UNL A   1      45.348  32.954  30.041  1.00  0.00     0.023 A 
ATOM     87  C   UNL A   1      46.037  32.757  31.254  1.00  0.00     0.012 A 
ATOM     88  C   UNL A   1      45.452  34.188  29.374  1.00  0.00     0.148 A 
ATOM     89  C   UNL A   1      46.803  33.782  31.805  1.00  0.00     0.002 A 
ATOM     90  C   UNL A   1      46.248  35.193  29.910  1.00  0.00     0.091 A 
ATOM     91  F   UNL A   1      44.769  34.361  28.233  1.00  0.00    -0.205 F 
ATOM     92  C   UNL A   1      46.917  34.994  31.129  1.00  0.00     0.022 A 
BRANCH  90  93
ATOM     93  S   UNL A   1      46.512  36.752  29.059  1.00  0.00     0.127 S 
ATOM     94  O   UNL A   1      45.258  37.454  29.324  1.00  0.00    -0.237 OA
ATOM     95  O   UNL A   1      47.677  37.301  29.756  1.00  0.00    -0.237 OA
ATOM     96  O   UNL A   1      46.759  36.403  27.667  1.00  0.00    -0.744 OA
ENDBRANCH  90  93
ENDBRANCH  63  86
ENDBRANCH  37  38
ENDBRANCH  30  32
ENDBRANCH  29  30
ENDBRANCH  28  29
ENDBRANCH   1  28
TORSDOF 20
ENDMDL
MODEL 3
REMARK VINA RESULT:     -11.3      4.928      9.621
REMARK SMILES CCc1cccc(CC)c1NC(=O)C[C@@](C)(C(=O)OCCOC(=O)c1ccc(-c2c3nc(c(-c4cccc(S(=O)(=O)[O-])c4F)c4ccc([nH]4)c(-c4cccc(S(=O)(=O)[O-])c4F)c4nc(c(-c5cccc(S(=O)(=O)[O-])c5F)c5ccc2[nH]5)C=C4)C=C3)cc1)c1ccccc1
REMARK SMILES IDX 20 1 19 2 17 3 18 4 15 5 16 6 14 7 12 8 11 9 13 11 10 12
REMARK SMILES IDX 3 13 4 14 5 15 7 16 6 17 2 18 1 19 8 20 9 21 88 22 89 23
REMARK SMILES IDX 93 24 90 25 92 26 91 27 21 28 22 29 23 30 24 31 25 32 26 33
REMARK SMILES IDX 87 34 27 35 86 36 28 37 29 38 30 39 80 40 31 41 85 42 79 43
REMARK SMILES IDX 81 44 32 45 84 46 78 47 77 48 33 50 65 51 45 52 64 53 46 54
REMARK SMILES IDX 49 55 63 56 82 57 47 58 48 59 62 61 83 62 50 63 34 64 35 65
REMARK SMILES IDX 43 66 36 67 38 68 44 69 37 70 39 71 40 72 41 73 42 74 66 75
REMARK SMILES IDX 67 76 75 77 68 78 70 79 76 80 69 81 71 82 72 83 73 84 74 85
REMARK SMILES IDX 51 86 52 87 60 88 53 89 55 90 61 91 54 92 56 93 57 94 58 95
REMARK SMILES IDX 59 96
REMARK H PARENT 11 10 81 49 49 60
REMARK Flexibility Score: inf
ROOT
ATOM      1  C   UNL A   1      31.093  27.532  26.900  1.00  0.00     0.274 C 
ENDROOT
BRANCH   1   2
ATOM      2  O   UNL A   1      32.018  26.758  26.099  1.00  0.00    -0.461 OA
BRANCH   2   3
ATOM      3  C   UNL A   1      31.577  25.570  25.580  1.00  0.00     0.316 C 
ATOM      4  O   UNL A   1      31.408  24.564  26.259  1.00  0.00    -0.251 OA
BRANCH   3   5
ATOM      5  C   UNL A   1      31.400  25.618  24.037  1.00  0.00     0.099 C 
ATOM      6  C   UNL A   1      30.721  24.274  23.661  1.00  0.00     0.029 C 
BRANCH   5   7
ATOM      7  C   UNL A   1      32.829  25.676  23.418  1.00  0.00     0.123 C 
BRANCH   7   8
ATOM      8  C   UNL A   1      33.445  24.429  22.866  1.00  0.00     0.225 C 
ATOM      9  N   UNL A   1      33.753  23.298  23.531  1.00  0.00    -0.326 N 
ATOM     10  H   UNL A   1      34.046  22.640  22.860  1.00  0.00     0.169 HD
ATOM     11  O   UNL A   1      33.689  24.392  21.650  1.00  0.00    -0.275 OA
BRANCH   9  12
ATOM     12  C   UNL A   1      33.828  22.667  24.794  1.00  0.00     0.047 A 
ATOM     13  C   UNL A   1      34.851  23.227  25.633  1.00  0.00    -0.024 A 
ATOM     14  C   UNL A   1      34.967  22.849  26.986  1.00  0.00     0.006 A 
ATOM     15  C   UNL A   1      34.120  21.907  27.531  1.00  0.00     0.001 A 
ATOM     16  C   UNL A   1      33.018  21.641  25.341  1.00  0.00    -0.024 A 
ATOM     17  C   UNL A   1      33.174  21.311  26.717  1.00  0.00     0.006 A 
BRANCH  13  18
ATOM     18  C   UNL A   1      35.981  24.116  25.109  1.00  0.00     0.034 C 
ATOM     19  C   UNL A   1      37.340  23.965  25.781  1.00  0.00     0.009 C 
ENDBRANCH  13  18
BRANCH  16  20
ATOM     20  C   UNL A   1      31.936  20.818  24.684  1.00  0.00     0.034 C 
ATOM     21  C   UNL A   1      32.490  19.832  23.646  1.00  0.00     0.009 C 
ENDBRANCH  16  20
ENDBRANCH   9  12
ENDBRANCH   7   8
ENDBRANCH   5   7
BRANCH   5  22
ATOM     22  C   UNL A   1      30.438  26.761  23.607  1.00  0.00    -0.030 A 
ATOM     23  C   UNL A   1      30.862  27.910  22.914  1.00  0.00     0.005 A 
ATOM     24  C   UNL A   1      29.052  26.679  23.883  1.00  0.00     0.005 A 
ATOM     25  C   UNL A   1      29.947  28.882  22.473  1.00  0.00     0.000 A 
ATOM     26  C   UNL A   1      28.138  27.638  23.430  1.00  0.00     0.000 A 
ATOM     27  C   UNL A   1      28.586  28.739  22.718  1.00  0.00     0.000 A 
ENDBRANCH   5  22
ENDBRANCH   3   5
ENDBRANCH   2   3
ENDBRANCH   1   2
BRANCH   1  28
ATOM     28  C   UNL A   1      31.801  28.705  27.567  1.00  0.00     0.275 C 
BRANCH  28  29
ATOM     29  O   UNL A   1      32.485  29.424  26.538  1.00  0.00    -0.458 OA
BRANCH  29  30
ATOM     30  C   UNL A   1      32.884  30.669  26.854  1.00  0.00     0.338 C 
ATOM     31  O   UNL A   1      32.192  31.687  26.879  1.00  0.00    -0.246 OA
BRANCH  30  32
ATOM     32  C   UNL A   1      34.280  30.608  27.307  1.00  0.00     0.060 A 
ATOM     33  C   UNL A   1      34.900  29.362  27.399  1.00  0.00     0.016 A 
ATOM     34  C   UNL A   1      34.936  31.744  27.766  1.00  0.00     0.016 A 
ATOM     35  C   UNL A   1      36.117  29.233  28.049  1.00  0.00     0.010 A 
ATOM     36  C   UNL A   1      36.215  31.619  28.321  1.00  0.00     0.010 A 
ATOM     37  C   UNL A   1      36.800  30.354  28.526  1.00  0.00    -0.014 A 
BRANCH  37  38
ATOM     38  C   UNL A   1      38.060  30.207  29.314  1.00  0.00     0.031 A 
ATOM     39  C   UNL A   1      39.197  29.405  28.733  1.00  0.00     0.074 A 
ATOM     40  C   UNL A   1      38.220  30.772  30.529  1.00  0.00     0.049 A 
ATOM     41  N   UNL A   1      40.209  28.846  29.342  1.00  0.00    -0.248 NA
ATOM     42  C   UNL A   1      39.172  29.170  27.278  1.00  0.00     0.031 C 
ATOM     43  C   UNL A   1      37.255  31.639  31.206  1.00  0.00     0.029 A 
ATOM     44  N   UNL A   1      39.262  30.683  31.424  1.00  0.00    -0.354 N 
ATOM     45  C   UNL A   1      40.848  28.076  28.378  1.00  0.00     0.074 A 
ATOM     46  C   UNL A   1      40.151  28.289  27.129  1.00  0.00     0.031 C 
ATOM     47  C   UNL A   1      37.756  32.026  32.388  1.00  0.00     0.029 A 
ATOM     48  C   UNL A   1      39.017  31.333  32.613  1.00  0.00     0.049 A 
ATOM     49  H   UNL A   1      40.100  30.203  31.232  1.00  0.00     0.167 HD
ATOM     50  C   UNL A   1      41.911  27.252  28.533  1.00  0.00     0.034 A 
ATOM     51  C   UNL A   1      39.684  31.313  33.785  1.00  0.00     0.034 A 
ATOM     52  C   UNL A   1      42.685  27.164  29.740  1.00  0.00     0.049 A 
ATOM     53  C   UNL A   1      40.904  30.445  33.916  1.00  0.00     0.074 A 
ATOM     54  C   UNL A   1      43.815  26.403  29.983  1.00  0.00     0.029 A 
ATOM     55  N   UNL A   1      42.433  27.889  30.894  1.00  0.00    -0.354 N 
ATOM     56  N   UNL A   1      41.480  29.691  33.012  1.00  0.00    -0.248 NA
ATOM     57  C   UNL A   1      41.559  30.414  35.231  1.00  0.00     0.031 C 
ATOM     58  C   UNL A   1      44.250  26.674  31.285  1.00  0.00     0.029 A 
ATOM     59  C   UNL A   1      43.392  27.604  31.848  1.00  0.00     0.049 A 
ATOM     60  H   UNL A   1      41.681  28.513  31.016  1.00  0.00     0.167 HD
ATOM     61  C   UNL A   1      42.562  29.094  33.648  1.00  0.00     0.074 A 
ATOM     62  C   UNL A   1      42.588  29.609  35.000  1.00  0.00     0.031 C 
ATOM     63  C   UNL A   1      43.432  28.174  33.169  1.00  0.00     0.034 A 
BRANCH  50  64
ATOM     64  C   UNL A   1      42.307  26.379  27.375  1.00  0.00     0.023 A 
ATOM     65  C   UNL A   1      43.146  26.879  26.362  1.00  0.00     0.012 A 
ATOM     66  C   UNL A   1      41.908  25.027  27.344  1.00  0.00     0.148 A 
ATOM     67  C   UNL A   1      43.568  26.049  25.324  1.00  0.00     0.002 A 
ATOM     68  C   UNL A   1      42.366  24.197  26.328  1.00  0.00     0.091 A 
ATOM     69  F   UNL A   1      41.088  24.581  28.306  1.00  0.00    -0.205 F 
ATOM     70  C   UNL A   1      43.190  24.707  25.314  1.00  0.00     0.022 A 
BRANCH  68  71
ATOM     71  S   UNL A   1      41.996  22.439  26.278  1.00  0.00     0.127 S 
ATOM     72  O   UNL A   1      40.545  22.448  26.092  1.00  0.00    -0.237 OA
ATOM     73  O   UNL A   1      42.757  21.996  25.110  1.00  0.00    -0.237 OA
ATOM     74  O   UNL A   1      42.460  21.894  27.546  1.00  0.00    -0.744 OA
ENDBRANCH  68  71
ENDBRANCH  50  64
BRANCH  51  75
ATOM     75  C   UNL A   1      39.179  32.113  34.939  1.00  0.00     0.023 A 
ATOM     76  C   UNL A   1      38.274  31.530  35.845  1.00  0.00     0.012 A 
ATOM     77  C   UNL A   1      39.634  33.424  35.179  1.00  0.00     0.148 A 
ATOM     78  C   UNL A   1      37.824  32.241  36.959  1.00  0.00     0.002 A 
ATOM     79  C   UNL A   1      39.241  34.098  36.330  1.00  0.00     0.091 A 
ATOM     80  F   UNL A   1      40.465  33.989  34.290  1.00  0.00    -0.205 F 
ATOM     81  C   UNL A   1      38.323  33.517  37.213  1.00  0.00     0.022 A 
BRANCH  79  82
ATOM     82  S   UNL A   1      40.003  35.659  36.791  1.00  0.00     0.127 S 
ATOM     83  O   UNL A   1      39.371  35.941  38.075  1.00  0.00    -0.237 OA
ATOM     84  O   UNL A   1      41.423  35.309  36.867  1.00  0.00    -0.237 OA
ATOM     85  O   UNL A   1      39.679  36.564  35.694  1.00  0.00    -0.744 OA
ENDBRANCH  79  82
ENDBRANCH  51  75
BRANCH  63  86
ATOM     86  C   UNL A   1      44.494  27.671  34.106  1.00  0.00     0.023 A 
ATOM     87  C   UNL A   1      45.735  28.335  34.160  1.00  0.00     0.012 A 
ATOM     88  C   UNL A   1      44.241  26.598  34.980  1.00  0.00     0.148 A 
ATOM     89  C   UNL A   1      46.718  27.923  35.058  1.00  0.00     0.002 A 
ATOM     90  C   UNL A   1      45.211  26.217  35.899  1.00  0.00     0.091 A 
ATOM     91  F   UNL A   1      43.061  25.966  34.896  1.00  0.00    -0.205 F 
ATOM     92  C   UNL A   1      46.452  26.873  35.934  1.00  0.00     0.022 A 
BRANCH  90  93
ATOM     93  S   UNL A   1      44.916  24.928  37.115  1.00  0.00     0.127 S 
ATOM     94  O   UNL A   1      44.982  23.721  36.294  1.00  0.00    -0.237 OA
ATOM     95  O   UNL A   1      46.037  25.101  38.040  1.00  0.00    -0.237 OA
ATOM     96  O   UNL A   1      43.613  25.227  37.695  1.00  0.00    -0.744 OA
ENDBRANCH  90  93
ENDBRANCH  63  86
ENDBRANCH  37  38
ENDBRANCH  30  32
ENDBRANCH  29  30
ENDBRANCH  28  29
ENDBRANCH   1  28
TORSDOF 20
ENDMDL
