MODEL 1
REMARK VINA RESULT:     -10.3      0.000      0.000
REMARK SMILES CC[C@H](CCO)CNc1cc(C(=O)OCCOC(=O)c2ccc(-c3c4nc(c(-c5cccc(S(=O)(=O)[O-])c5F)c5ccc([nH]5)c(-c5cccc(S(=O)(=O)[O-])c5F)c5nc(c(-c6cccc(S(=O)(=O)[O-])c6F)c6ccc3[nH]6)C=C5)C=C4)cc2)ccn1
REMARK SMILES IDX 14 1 12 2 13 3 11 4 9 5 10 6 85 7 84 8 83 9 8 10 7 12 3 13
REMARK SMILES IDX 2 14 1 15 4 16 5 17 6 18 15 20 16 21 17 22 18 23 19 24 20 25
REMARK SMILES IDX 21 26 82 27 22 28 81 29 23 30 24 31 25 32 75 33 26 34 80 35
REMARK SMILES IDX 74 36 76 37 27 38 79 39 73 40 72 41 28 43 60 44 40 45 59 46
REMARK SMILES IDX 41 47 44 48 58 49 77 50 42 51 43 52 57 54 78 55 45 56 29 57
REMARK SMILES IDX 30 58 38 59 31 60 33 61 39 62 32 63 34 64 35 65 36 66 37 67
REMARK SMILES IDX 61 68 62 69 70 70 63 71 65 72 71 73 64 74 66 75 67 76 68 77
REMARK SMILES IDX 69 78 46 79 47 80 55 81 48 82 50 83 56 84 49 85 51 86 52 87
REMARK SMILES IDX 53 88 54 89
REMARK H PARENT 8 11 6 19 76 42 44 53
REMARK Flexibility Score: inf
ROOT
ATOM      1  O   UNL A   1      35.201  22.605  24.918  1.00  0.00    -0.458 OA
ENDROOT
BRANCH   1   2
ATOM      2  C   UNL A   1      34.754  23.191  23.776  1.00  0.00     0.338 C 
ATOM      3  O   UNL A   1      35.351  23.282  22.723  1.00  0.00    -0.246 OA
BRANCH   2   4
ATOM      4  C   UNL A   1      33.358  23.657  23.959  1.00  0.00     0.065 A 
ATOM      5  C   UNL A   1      31.754  25.122  24.952  1.00  0.00     0.126 A 
ATOM      6  C   UNL A   1      33.072  24.723  24.804  1.00  0.00     0.062 A 
ATOM      7  N   UNL A   1      30.730  24.482  24.348  1.00  0.00    -0.240 NA
ATOM      8  C   UNL A   1      31.031  23.452  23.526  1.00  0.00     0.114 A 
ATOM      9  C   UNL A   1      32.321  23.038  23.265  1.00  0.00     0.036 A 
BRANCH   5  10
ATOM     10  N   UNL A   1      31.420  26.235  25.702  1.00  0.00    -0.370 N 
ATOM     11  H   UNL A   1      31.450  26.208  26.686  1.00  0.00     0.162 HD
BRANCH  10  12
ATOM     12  C   UNL A   1      31.025  27.445  25.002  1.00  0.00     0.118 C 
BRANCH  12  13
ATOM     13  C   UNL A   1      31.716  27.584  23.620  1.00  0.00     0.010 C 
BRANCH  13  14
ATOM     14  C   UNL A   1      32.817  28.679  23.727  1.00  0.00     0.002 C 
ATOM     15  C   UNL A   1      32.828  29.509  25.006  1.00  0.00     0.004 C 
ENDBRANCH  13  14
BRANCH  13  16
ATOM     16  C   UNL A   1      30.720  27.857  22.462  1.00  0.00     0.033 C 
BRANCH  16  17
ATOM     17  C   UNL A   1      30.114  29.261  22.438  1.00  0.00     0.156 C 
BRANCH  17  18
ATOM     18  O   UNL A   1      30.581  30.016  21.336  1.00  0.00    -0.396 OA
ATOM     19  H   UNL A   1      29.922  29.991  20.624  1.00  0.00     0.210 HD
ENDBRANCH  17  18
ENDBRANCH  16  17
ENDBRANCH  13  16
ENDBRANCH  12  13
ENDBRANCH  10  12
ENDBRANCH   5  10
ENDBRANCH   2   4
ENDBRANCH   1   2
BRANCH   1  20
ATOM     20  C   UNL A   1      35.090  21.170  25.001  1.00  0.00     0.275 C 
BRANCH  20  21
ATOM     21  C   UNL A   1      36.467  20.504  24.985  1.00  0.00     0.275 C 
BRANCH  21  22
ATOM     22  O   UNL A   1      37.512  21.488  25.090  1.00  0.00    -0.458 OA
BRANCH  22  23
ATOM     23  C   UNL A   1      38.620  21.074  25.744  1.00  0.00     0.338 C 
ATOM     24  O   UNL A   1      39.139  19.972  25.702  1.00  0.00    -0.246 OA
BRANCH  23  25
ATOM     25  C   UNL A   1      39.239  22.210  26.439  1.00  0.00     0.060 A 
ATOM     26  C   UNL A   1      38.761  23.477  26.127  1.00  0.00     0.016 A 
ATOM     27  C   UNL A   1      40.364  22.064  27.244  1.00  0.00     0.016 A 
ATOM     28  C   UNL A   1      39.454  24.613  26.522  1.00  0.00     0.010 A 
ATOM     29  C   UNL A   1      41.006  23.213  27.728  1.00  0.00     0.010 A 
ATOM     30  C   UNL A   1      40.583  24.499  27.339  1.00  0.00    -0.014 A 
BRANCH  30  31
ATOM     31  C   UNL A   1      41.323  25.724  27.756  1.00  0.00     0.031 A 
ATOM     32  C   UNL A   1      40.637  26.779  28.585  1.00  0.00     0.074 A 
ATOM     33  C   UNL A   1      42.612  25.892  27.397  1.00  0.00     0.049 A 
ATOM     34  N   UNL A   1      41.055  27.974  28.913  1.00  0.00    -0.248 NA
ATOM     35  C   UNL A   1      39.296  26.453  29.101  1.00  0.00     0.031 C 
ATOM     36  C   UNL A   1      43.407  24.939  26.619  1.00  0.00     0.029 A 
ATOM     37  N   UNL A   1      43.482  26.931  27.628  1.00  0.00    -0.354 N 
ATOM     38  C   UNL A   1      40.005  28.572  29.601  1.00  0.00     0.074 A 
ATOM     39  C   UNL A   1      38.931  27.602  29.653  1.00  0.00     0.031 C 
ATOM     40  C   UNL A   1      44.644  25.429  26.447  1.00  0.00     0.029 A 
ATOM     41  C   UNL A   1      44.706  26.766  27.022  1.00  0.00     0.049 A 
ATOM     42  H   UNL A   1      43.250  27.717  28.174  1.00  0.00     0.167 HD
ATOM     43  C   UNL A   1      39.943  29.811  30.142  1.00  0.00     0.034 A 
ATOM     44  C   UNL A   1      45.746  27.612  26.889  1.00  0.00     0.034 A 
ATOM     45  C   UNL A   1      41.037  30.747  30.140  1.00  0.00     0.049 A 
ATOM     46  C   UNL A   1      45.648  28.985  27.491  1.00  0.00     0.074 A 
ATOM     47  C   UNL A   1      41.090  32.008  30.706  1.00  0.00     0.029 A 
ATOM     48  N   UNL A   1      42.270  30.524  29.546  1.00  0.00    -0.354 N 
ATOM     49  N   UNL A   1      44.666  29.514  28.181  1.00  0.00    -0.248 NA
ATOM     50  C   UNL A   1      46.804  29.872  27.311  1.00  0.00     0.031 C 
ATOM     51  C   UNL A   1      42.344  32.561  30.427  1.00  0.00     0.029 A 
ATOM     52  C   UNL A   1      43.087  31.629  29.721  1.00  0.00     0.049 A 
ATOM     53  H   UNL A   1      42.526  29.701  29.070  1.00  0.00     0.167 HD
ATOM     54  C   UNL A   1      45.097  30.784  28.542  1.00  0.00     0.074 A 
ATOM     55  C   UNL A   1      46.439  30.935  28.016  1.00  0.00     0.031 C 
ATOM     56  C   UNL A   1      44.437  31.745  29.235  1.00  0.00     0.034 A 
BRANCH  43  57
ATOM     57  C   UNL A   1      38.647  30.237  30.786  1.00  0.00     0.023 A 
ATOM     58  C   UNL A   1      38.387  29.920  32.135  1.00  0.00     0.012 A 
ATOM     59  C   UNL A   1      37.709  31.004  30.066  1.00  0.00     0.148 A 
ATOM     60  C   UNL A   1      37.200  30.327  32.743  1.00  0.00     0.002 A 
ATOM     61  C   UNL A   1      36.551  31.448  30.693  1.00  0.00     0.091 A 
ATOM     62  F   UNL A   1      37.964  31.281  28.779  1.00  0.00    -0.205 F 
ATOM     63  C   UNL A   1      36.289  31.100  32.028  1.00  0.00     0.022 A 
BRANCH  61  64
ATOM     64  S   UNL A   1      35.357  32.517  29.881  1.00  0.00     0.127 S 
ATOM     65  O   UNL A   1      34.877  31.656  28.801  1.00  0.00    -0.237 OA
ATOM     66  O   UNL A   1      34.384  32.756  30.947  1.00  0.00    -0.237 OA
ATOM     67  O   UNL A   1      36.096  33.697  29.456  1.00  0.00    -0.744 OA
ENDBRANCH  61  64
ENDBRANCH  43  57
BRANCH  44  68
ATOM     68  C   UNL A   1      46.966  27.183  26.147  1.00  0.00     0.023 A 
ATOM     69  C   UNL A   1      47.082  27.465  24.772  1.00  0.00     0.012 A 
ATOM     70  C   UNL A   1      48.025  26.522  26.803  1.00  0.00     0.148 A 
ATOM     71  C   UNL A   1      48.217  27.075  24.060  1.00  0.00     0.002 A 
ATOM     72  C   UNL A   1      49.178  26.194  26.102  1.00  0.00     0.091 A 
ATOM     73  F   UNL A   1      47.889  26.246  28.108  1.00  0.00    -0.205 F 
ATOM     74  C   UNL A   1      49.269  26.452  24.727  1.00  0.00     0.022 A 
BRANCH  72  75
ATOM     75  S   UNL A   1      50.635  25.519  26.908  1.00  0.00     0.127 S 
ATOM     76  O   UNL A   1      51.103  26.663  27.685  1.00  0.00    -0.237 OA
ATOM     77  O   UNL A   1      50.062  24.429  27.701  1.00  0.00    -0.237 OA
ATOM     78  O   UNL A   1      51.512  25.080  25.832  1.00  0.00    -0.744 OA
ENDBRANCH  72  75
ENDBRANCH  44  68
BRANCH  56  79
ATOM     79  C   UNL A   1      45.172  33.031  29.510  1.00  0.00     0.023 A 
ATOM     80  C   UNL A   1      45.953  33.163  30.674  1.00  0.00     0.012 A 
ATOM     81  C   UNL A   1      45.136  34.085  28.576  1.00  0.00     0.148 A 
ATOM     82  C   UNL A   1      46.659  34.339  30.923  1.00  0.00     0.002 A 
ATOM     83  C   UNL A   1      45.883  35.234  28.805  1.00  0.00     0.091 A 
ATOM     84  F   UNL A   1      44.370  33.947  27.484  1.00  0.00    -0.205 F 
ATOM     85  C   UNL A   1      46.633  35.368  29.984  1.00  0.00     0.022 A 
BRANCH  83  86
ATOM     86  S   UNL A   1      45.990  36.568  27.607  1.00  0.00     0.127 S 
ATOM     87  O   UNL A   1      46.637  35.903  26.478  1.00  0.00    -0.237 OA
ATOM     88  O   UNL A   1      44.583  36.904  27.394  1.00  0.00    -0.237 OA
ATOM     89  O   UNL A   1      46.773  37.619  28.244  1.00  0.00    -0.744 OA
ENDBRANCH  83  86
ENDBRANCH  56  79
ENDBRANCH  30  31
ENDBRANCH  23  25
ENDBRANCH  22  23
ENDBRANCH  21  22
ENDBRANCH  20  21
ENDBRANCH   1  20
TORSDOF 21
ENDMDL
MODEL 2
REMARK VINA RESULT:     -10.2      1.101      8.023
REMARK SMILES CC[C@H](CCO)CNc1cc(C(=O)OCCOC(=O)c2ccc(-c3c4nc(c(-c5cccc(S(=O)(=O)[O-])c5F)c5ccc([nH]5)c(-c5cccc(S(=O)(=O)[O-])c5F)c5nc(c(-c6cccc(S(=O)(=O)[O-])c6F)c6ccc3[nH]6)C=C5)C=C4)cc2)ccn1
REMARK SMILES IDX 14 1 12 2 13 3 11 4 9 5 10 6 85 7 84 8 83 9 8 10 7 12 3 13
REMARK SMILES IDX 2 14 1 15 4 16 5 17 6 18 15 20 16 21 17 22 18 23 19 24 20 25
REMARK SMILES IDX 21 26 82 27 22 28 81 29 23 30 24 31 25 32 75 33 26 34 80 35
REMARK SMILES IDX 74 36 76 37 27 38 79 39 73 40 72 41 28 43 60 44 40 45 59 46
REMARK SMILES IDX 41 47 44 48 58 49 77 50 42 51 43 52 57 54 78 55 45 56 29 57
REMARK SMILES IDX 30 58 38 59 31 60 33 61 39 62 32 63 34 64 35 65 36 66 37 67
REMARK SMILES IDX 61 68 62 69 70 70 63 71 65 72 71 73 64 74 66 75 67 76 68 77
REMARK SMILES IDX 69 78 46 79 47 80 55 81 48 82 50 83 56 84 49 85 51 86 52 87
REMARK SMILES IDX 53 88 54 89
REMARK H PARENT 8 11 6 19 76 42 44 53
REMARK Flexibility Score: inf
ROOT
ATOM      1  O   UNL A   1      35.471  21.570  25.576  1.00  0.00    -0.458 OA
ENDROOT
BRANCH   1   2
ATOM      2  C   UNL A   1      34.940  22.539  24.785  1.00  0.00     0.338 C 
ATOM      3  O   UNL A   1      35.253  22.798  23.642  1.00  0.00    -0.246 OA
BRANCH   2   4
ATOM      4  C   UNL A   1      33.832  23.221  25.497  1.00  0.00     0.065 A 
ATOM      5  C   UNL A   1      32.764  25.201  26.299  1.00  0.00     0.126 A 
ATOM      6  C   UNL A   1      33.814  24.605  25.620  1.00  0.00     0.062 A 
ATOM      7  N   UNL A   1      31.783  24.486  26.890  1.00  0.00    -0.240 NA
ATOM      8  C   UNL A   1      31.817  23.142  26.753  1.00  0.00     0.114 A 
ATOM      9  C   UNL A   1      32.784  22.474  26.031  1.00  0.00     0.036 A 
BRANCH   5  10
ATOM     10  N   UNL A   1      32.642  26.577  26.370  1.00  0.00    -0.370 N 
ATOM     11  H   UNL A   1      33.401  27.136  26.654  1.00  0.00     0.162 HD
BRANCH  10  12
ATOM     12  C   UNL A   1      31.368  27.176  26.013  1.00  0.00     0.118 C 
BRANCH  12  13
ATOM     13  C   UNL A   1      30.993  26.933  24.527  1.00  0.00     0.010 C 
BRANCH  13  14
ATOM     14  C   UNL A   1      30.934  28.309  23.802  1.00  0.00     0.002 C 
ATOM     15  C   UNL A   1      31.017  29.548  24.686  1.00  0.00     0.004 C 
ENDBRANCH  13  14
BRANCH  13  16
ATOM     16  C   UNL A   1      29.686  26.115  24.353  1.00  0.00     0.033 C 
BRANCH  16  17
ATOM     17  C   UNL A   1      28.503  26.888  23.766  1.00  0.00     0.156 C 
BRANCH  17  18
ATOM     18  O   UNL A   1      27.268  26.269  24.069  1.00  0.00    -0.396 OA
ATOM     19  H   UNL A   1      27.005  26.496  24.975  1.00  0.00     0.210 HD
ENDBRANCH  17  18
ENDBRANCH  16  17
ENDBRANCH  13  16
ENDBRANCH  12  13
ENDBRANCH  10  12
ENDBRANCH   5  10
ENDBRANCH   2   4
ENDBRANCH   1   2
BRANCH   1  20
ATOM     20  C   UNL A   1      35.735  20.295  24.956  1.00  0.00     0.275 C 
BRANCH  20  21
ATOM     21  C   UNL A   1      37.230  19.971  24.968  1.00  0.00     0.275 C 
BRANCH  21  22
ATOM     22  O   UNL A   1      38.007  21.150  25.248  1.00  0.00    -0.458 OA
BRANCH  22  23
ATOM     23  C   UNL A   1      39.126  20.935  25.975  1.00  0.00     0.338 C 
ATOM     24  O   UNL A   1      39.760  19.898  26.073  1.00  0.00    -0.246 OA
BRANCH  23  25
ATOM     25  C   UNL A   1      39.592  22.201  26.554  1.00  0.00     0.060 A 
ATOM     26  C   UNL A   1      38.967  23.363  26.116  1.00  0.00     0.016 A 
ATOM     27  C   UNL A   1      40.713  22.275  27.373  1.00  0.00     0.016 A 
ATOM     28  C   UNL A   1      39.511  24.609  26.397  1.00  0.00     0.010 A 
ATOM     29  C   UNL A   1      41.203  23.536  27.742  1.00  0.00     0.010 A 
ATOM     30  C   UNL A   1      40.632  24.716  27.225  1.00  0.00    -0.014 A 
BRANCH  30  31
ATOM     31  C   UNL A   1      41.211  26.057  27.519  1.00  0.00     0.031 A 
ATOM     32  C   UNL A   1      42.606  26.397  27.065  1.00  0.00     0.074 A 
ATOM     33  C   UNL A   1      40.486  26.976  28.190  1.00  0.00     0.049 A 
ATOM     34  N   UNL A   1      43.339  27.441  27.355  1.00  0.00    -0.248 NA
ATOM     35  C   UNL A   1      43.273  25.427  26.179  1.00  0.00     0.031 C 
ATOM     36  C   UNL A   1      39.112  26.791  28.665  1.00  0.00     0.029 A 
ATOM     37  N   UNL A   1      40.805  28.248  28.601  1.00  0.00    -0.354 N 
ATOM     38  C   UNL A   1      44.576  27.218  26.758  1.00  0.00     0.074 A 
ATOM     39  C   UNL A   1      44.491  25.943  26.079  1.00  0.00     0.031 C 
ATOM     40  C   UNL A   1      38.705  27.906  29.290  1.00  0.00     0.029 A 
ATOM     41  C   UNL A   1      39.813  28.850  29.341  1.00  0.00     0.049 A 
ATOM     42  H   UNL A   1      41.662  28.685  28.388  1.00  0.00     0.167 HD
ATOM     43  C   UNL A   1      45.677  28.006  26.771  1.00  0.00     0.034 A 
ATOM     44  C   UNL A   1      39.807  30.006  30.033  1.00  0.00     0.034 A 
ATOM     45  C   UNL A   1      45.733  29.302  27.396  1.00  0.00     0.049 A 
ATOM     46  C   UNL A   1      41.045  30.857  30.039  1.00  0.00     0.074 A 
ATOM     47  C   UNL A   1      46.787  30.198  27.422  1.00  0.00     0.029 A 
ATOM     48  N   UNL A   1      44.694  29.887  28.103  1.00  0.00    -0.354 N 
ATOM     49  N   UNL A   1      42.187  30.654  29.428  1.00  0.00    -0.248 NA
ATOM     50  C   UNL A   1      40.991  32.102  30.815  1.00  0.00     0.031 C 
ATOM     51  C   UNL A   1      46.396  31.312  28.171  1.00  0.00     0.029 A 
ATOM     52  C   UNL A   1      45.084  31.128  28.579  1.00  0.00     0.049 A 
ATOM     53  H   UNL A   1      43.809  29.480  28.245  1.00  0.00     0.167 HD
ATOM     54  C   UNL A   1      42.976  31.759  29.721  1.00  0.00     0.074 A 
ATOM     55  C   UNL A   1      42.173  32.639  30.545  1.00  0.00     0.031 C 
ATOM     56  C   UNL A   1      44.257  32.015  29.355  1.00  0.00     0.034 A 
BRANCH  43  57
ATOM     57  C   UNL A   1      46.921  27.494  26.089  1.00  0.00     0.023 A 
ATOM     58  C   UNL A   1      47.153  27.780  24.729  1.00  0.00     0.012 A 
ATOM     59  C   UNL A   1      47.889  26.773  26.817  1.00  0.00     0.148 A 
ATOM     60  C   UNL A   1      48.310  27.326  24.095  1.00  0.00     0.002 A 
ATOM     61  C   UNL A   1      49.062  26.366  26.192  1.00  0.00     0.091 A 
ATOM     62  F   UNL A   1      47.643  26.493  28.105  1.00  0.00    -0.205 F 
ATOM     63  C   UNL A   1      49.269  26.631  24.829  1.00  0.00     0.022 A 
BRANCH  61  64
ATOM     64  S   UNL A   1      50.393  25.538  27.071  1.00  0.00     0.127 S 
ATOM     65  O   UNL A   1      51.364  25.322  25.999  1.00  0.00    -0.237 OA
ATOM     66  O   UNL A   1      50.786  26.547  28.054  1.00  0.00    -0.237 OA
ATOM     67  O   UNL A   1      49.811  24.330  27.638  1.00  0.00    -0.744 OA
ENDBRANCH  61  64
ENDBRANCH  43  57
BRANCH  44  68
ATOM     68  C   UNL A   1      38.586  30.419  30.784  1.00  0.00     0.023 A 
ATOM     69  C   UNL A   1      38.456  30.078  32.144  1.00  0.00     0.012 A 
ATOM     70  C   UNL A   1      37.568  31.171  30.165  1.00  0.00     0.148 A 
ATOM     71  C   UNL A   1      37.323  30.457  32.865  1.00  0.00     0.002 A 
ATOM     72  C   UNL A   1      36.474  31.600  30.905  1.00  0.00     0.091 A 
ATOM     73  F   UNL A   1      37.701  31.471  28.865  1.00  0.00    -0.205 F 
ATOM     74  C   UNL A   1      36.340  31.228  32.250  1.00  0.00     0.022 A 
BRANCH  72  75
ATOM     75  S   UNL A   1      35.233  32.712  30.233  1.00  0.00     0.127 S 
ATOM     76  O   UNL A   1      36.044  33.860  29.836  1.00  0.00    -0.237 OA
ATOM     77  O   UNL A   1      34.694  31.925  29.123  1.00  0.00    -0.237 OA
ATOM     78  O   UNL A   1      34.288  32.948  31.316  1.00  0.00    -0.744 OA
ENDBRANCH  72  75
ENDBRANCH  44  68
BRANCH  56  79
ATOM     79  C   UNL A   1      44.857  33.323  29.799  1.00  0.00     0.023 A 
ATOM     80  C   UNL A   1      45.587  33.393  31.002  1.00  0.00     0.012 A 
ATOM     81  C   UNL A   1      44.751  34.468  28.985  1.00  0.00     0.148 A 
ATOM     82  C   UNL A   1      46.170  34.593  31.406  1.00  0.00     0.002 A 
ATOM     83  C   UNL A   1      45.379  35.646  29.368  1.00  0.00     0.091 A 
ATOM     84  F   UNL A   1      44.035  34.385  27.854  1.00  0.00    -0.205 F 
ATOM     85  C   UNL A   1      46.076  35.715  30.585  1.00  0.00     0.022 A 
BRANCH  83  86
ATOM     86  S   UNL A   1      45.396  37.111  28.329  1.00  0.00     0.127 S 
ATOM     87  O   UNL A   1      46.418  36.764  27.342  1.00  0.00    -0.237 OA
ATOM     88  O   UNL A   1      44.029  37.137  27.809  1.00  0.00    -0.237 OA
ATOM     89  O   UNL A   1      45.730  38.224  29.207  1.00  0.00    -0.744 OA
ENDBRANCH  83  86
ENDBRANCH  56  79
ENDBRANCH  30  31
ENDBRANCH  23  25
ENDBRANCH  22  23
ENDBRANCH  21  22
ENDBRANCH  20  21
ENDBRANCH   1  20
TORSDOF 21
ENDMDL
MODEL 3
REMARK VINA RESULT:     -10.1      4.800      9.929
REMARK SMILES CC[C@H](CCO)CNc1cc(C(=O)OCCOC(=O)c2ccc(-c3c4nc(c(-c5cccc(S(=O)(=O)[O-])c5F)c5ccc([nH]5)c(-c5cccc(S(=O)(=O)[O-])c5F)c5nc(c(-c6cccc(S(=O)(=O)[O-])c6F)c6ccc3[nH]6)C=C5)C=C4)cc2)ccn1
REMARK SMILES IDX 14 1 12 2 13 3 11 4 9 5 10 6 85 7 84 8 83 9 8 10 7 12 3 13
REMARK SMILES IDX 2 14 1 15 4 16 5 17 6 18 15 20 16 21 17 22 18 23 19 24 20 25
REMARK SMILES IDX 21 26 82 27 22 28 81 29 23 30 24 31 25 32 75 33 26 34 80 35
REMARK SMILES IDX 74 36 76 37 27 38 79 39 73 40 72 41 28 43 60 44 40 45 59 46
REMARK SMILES IDX 41 47 44 48 58 49 77 50 42 51 43 52 57 54 78 55 45 56 29 57
REMARK SMILES IDX 30 58 38 59 31 60 33 61 39 62 32 63 34 64 35 65 36 66 37 67
REMARK SMILES IDX 61 68 62 69 70 70 63 71 65 72 71 73 64 74 66 75 67 76 68 77
REMARK SMILES IDX 69 78 46 79 47 80 55 81 48 82 50 83 56 84 49 85 51 86 52 87
REMARK SMILES IDX 53 88 54 89
REMARK H PARENT 8 11 6 19 76 42 44 53
REMARK Flexibility Score: inf
ROOT
ATOM      1  O   UNL A   1      31.211  27.893  25.134  1.00  0.00    -0.458 OA
ENDROOT
BRANCH   1   2
ATOM      2  C   UNL A   1      30.645  27.106  24.181  1.00  0.00     0.338 C 
ATOM      3  O   UNL A   1      29.467  27.037  23.899  1.00  0.00    -0.246 OA
BRANCH   2   4
ATOM      4  C   UNL A   1      31.699  26.366  23.446  1.00  0.00     0.065 A 
ATOM      5  C   UNL A   1      33.696  25.056  23.405  1.00  0.00     0.126 A 
ATOM      6  C   UNL A   1      32.728  25.730  24.131  1.00  0.00     0.062 A 
ATOM      7  N   UNL A   1      33.708  25.036  22.055  1.00  0.00    -0.240 NA
ATOM      8  C   UNL A   1      32.695  25.655  21.409  1.00  0.00     0.114 A 
ATOM      9  C   UNL A   1      31.652  26.285  22.056  1.00  0.00     0.036 A 
BRANCH   5  10
ATOM     10  N   UNL A   1      34.687  24.325  24.034  1.00  0.00    -0.370 N 
ATOM     11  H   UNL A   1      35.419  24.777  24.515  1.00  0.00     0.162 HD
BRANCH  10  12
ATOM     12  C   UNL A   1      34.623  22.876  23.968  1.00  0.00     0.118 C 
BRANCH  12  13
ATOM     13  C   UNL A   1      33.260  22.319  24.457  1.00  0.00     0.010 C 
BRANCH  13  14
ATOM     14  C   UNL A   1      33.251  22.332  26.013  1.00  0.00     0.002 C 
ATOM     15  C   UNL A   1      34.463  21.719  26.705  1.00  0.00     0.004 C 
ENDBRANCH  13  14
BRANCH  13  16
ATOM     16  C   UNL A   1      32.926  20.920  23.875  1.00  0.00     0.033 C 
BRANCH  16  17
ATOM     17  C   UNL A   1      32.159  20.928  22.551  1.00  0.00     0.156 C 
BRANCH  17  18
ATOM     18  O   UNL A   1      31.504  22.163  22.330  1.00  0.00    -0.396 OA
ATOM     19  H   UNL A   1      31.215  22.532  23.180  1.00  0.00     0.210 HD
ENDBRANCH  17  18
ENDBRANCH  16  17
ENDBRANCH  13  16
ENDBRANCH  12  13
ENDBRANCH  10  12
ENDBRANCH   5  10
ENDBRANCH   2   4
ENDBRANCH   1   2
BRANCH   1  20
ATOM     20  C   UNL A   1      31.193  29.316  24.899  1.00  0.00     0.275 C 
BRANCH  20  21
ATOM     21  C   UNL A   1      32.504  29.969  25.342  1.00  0.00     0.275 C 
BRANCH  21  22
ATOM     22  O   UNL A   1      32.502  30.205  26.761  1.00  0.00    -0.458 OA
BRANCH  22  23
ATOM     23  C   UNL A   1      33.059  31.376  27.145  1.00  0.00     0.338 C 
ATOM     24  O   UNL A   1      32.514  32.463  27.234  1.00  0.00    -0.246 OA
BRANCH  23  25
ATOM     25  C   UNL A   1      34.436  31.145  27.599  1.00  0.00     0.060 A 
ATOM     26  C   UNL A   1      34.773  29.844  27.955  1.00  0.00     0.016 A 
ATOM     27  C   UNL A   1      35.325  32.188  27.833  1.00  0.00     0.016 A 
ATOM     28  C   UNL A   1      35.950  29.580  28.642  1.00  0.00     0.010 A 
ATOM     29  C   UNL A   1      36.559  31.906  28.436  1.00  0.00     0.010 A 
ATOM     30  C   UNL A   1      36.868  30.606  28.883  1.00  0.00    -0.014 A 
BRANCH  30  31
ATOM     31  C   UNL A   1      38.128  30.314  29.625  1.00  0.00     0.031 A 
ATOM     32  C   UNL A   1      39.181  29.429  29.011  1.00  0.00     0.074 A 
ATOM     33  C   UNL A   1      38.333  30.846  30.847  1.00  0.00     0.049 A 
ATOM     34  N   UNL A   1      40.263  28.934  29.553  1.00  0.00    -0.248 NA
ATOM     35  C   UNL A   1      38.983  29.035  27.605  1.00  0.00     0.031 C 
ATOM     36  C   UNL A   1      37.410  31.741  31.550  1.00  0.00     0.029 A 
ATOM     37  N   UNL A   1      39.380  30.701  31.727  1.00  0.00    -0.354 N 
ATOM     38  C   UNL A   1      40.832  28.109  28.588  1.00  0.00     0.074 A 
ATOM     39  C   UNL A   1      39.979  28.179  27.420  1.00  0.00     0.031 C 
ATOM     40  C   UNL A   1      37.934  32.073  32.739  1.00  0.00     0.029 A 
ATOM     41  C   UNL A   1      39.183  31.347  32.925  1.00  0.00     0.049 A 
ATOM     42  H   UNL A   1      40.193  30.184  31.518  1.00  0.00     0.167 HD
ATOM     43  C   UNL A   1      41.962  27.367  28.666  1.00  0.00     0.034 A 
ATOM     44  C   UNL A   1      39.892  31.318  34.071  1.00  0.00     0.034 A 
ATOM     45  C   UNL A   1      42.838  27.352  29.808  1.00  0.00     0.049 A 
ATOM     46  C   UNL A   1      41.136  30.479  34.133  1.00  0.00     0.074 A 
ATOM     47  C   UNL A   1      44.032  26.671  29.966  1.00  0.00     0.029 A 
ATOM     48  N   UNL A   1      42.617  28.049  30.987  1.00  0.00    -0.354 N 
ATOM     49  N   UNL A   1      41.685  29.746  33.195  1.00  0.00    -0.248 NA
ATOM     50  C   UNL A   1      41.869  30.474  35.407  1.00  0.00     0.031 C 
ATOM     51  C   UNL A   1      44.518  26.932  31.251  1.00  0.00     0.029 A 
ATOM     52  C   UNL A   1      43.646  27.806  31.881  1.00  0.00     0.049 A 
ATOM     53  H   UNL A   1      41.842  28.630  31.161  1.00  0.00     0.167 HD
ATOM     54  C   UNL A   1      42.841  29.216  33.754  1.00  0.00     0.074 A 
ATOM     55  C   UNL A   1      42.927  29.733  35.105  1.00  0.00     0.031 C 
ATOM     56  C   UNL A   1      43.744  28.367  33.204  1.00  0.00     0.034 A 
BRANCH  43  57
ATOM     57  C   UNL A   1      42.324  26.504  27.484  1.00  0.00     0.023 A 
ATOM     58  C   UNL A   1      43.049  27.047  26.404  1.00  0.00     0.012 A 
ATOM     59  C   UNL A   1      41.991  25.134  27.471  1.00  0.00     0.148 A 
ATOM     60  C   UNL A   1      43.404  26.250  25.315  1.00  0.00     0.002 A 
ATOM     61  C   UNL A   1      42.391  24.335  26.406  1.00  0.00     0.091 A 
ATOM     62  F   UNL A   1      41.284  24.639  28.497  1.00  0.00    -0.205 F 
ATOM     63  C   UNL A   1      43.086  24.894  25.322  1.00  0.00     0.022 A 
BRANCH  61  64
ATOM     64  S   UNL A   1      42.101  22.563  26.361  1.00  0.00     0.127 S 
ATOM     65  O   UNL A   1      42.783  22.184  25.123  1.00  0.00    -0.237 OA
ATOM     66  O   UNL A   1      42.764  22.111  27.584  1.00  0.00    -0.237 OA
ATOM     67  O   UNL A   1      40.656  22.390  26.353  1.00  0.00    -0.744 OA
ENDBRANCH  61  64
ENDBRANCH  43  57
BRANCH  44  68
ATOM     68  C   UNL A   1      39.434  32.105  35.251  1.00  0.00     0.023 A 
ATOM     69  C   UNL A   1      38.592  31.502  36.207  1.00  0.00     0.012 A 
ATOM     70  C   UNL A   1      39.850  33.437  35.447  1.00  0.00     0.148 A 
ATOM     71  C   UNL A   1      38.155  32.220  37.320  1.00  0.00     0.002 A 
ATOM     72  C   UNL A   1      39.462  34.124  36.590  1.00  0.00     0.091 A 
ATOM     73  F   UNL A   1      40.636  34.000  34.518  1.00  0.00    -0.205 F 
ATOM     74  C   UNL A   1      38.599  33.525  37.519  1.00  0.00     0.022 A 
BRANCH  72  75
ATOM     75  S   UNL A   1      40.100  35.754  36.996  1.00  0.00     0.127 S 
ATOM     76  O   UNL A   1      39.691  36.534  35.831  1.00  0.00    -0.237 OA
ATOM     77  O   UNL A   1      39.374  36.062  38.229  1.00  0.00    -0.237 OA
ATOM     78  O   UNL A   1      41.535  35.582  37.172  1.00  0.00    -0.744 OA
ENDBRANCH  72  75
ENDBRANCH  44  68
BRANCH  56  79
ATOM     79  C   UNL A   1      44.933  27.978  34.043  1.00  0.00     0.023 A 
ATOM     80  C   UNL A   1      46.112  28.747  33.994  1.00  0.00     0.012 A 
ATOM     81  C   UNL A   1      44.853  26.886  34.928  1.00  0.00     0.148 A 
ATOM     82  C   UNL A   1      47.208  28.411  34.788  1.00  0.00     0.002 A 
ATOM     83  C   UNL A   1      45.929  26.589  35.755  1.00  0.00     0.091 A 
ATOM     84  F   UNL A   1      43.728  26.156  34.945  1.00  0.00    -0.205 F 
ATOM     85  C   UNL A   1      47.113  27.341  35.676  1.00  0.00     0.022 A 
BRANCH  83  86
ATOM     86  S   UNL A   1      45.861  25.294  36.997  1.00  0.00     0.127 S 
ATOM     87  O   UNL A   1      45.750  24.093  36.170  1.00  0.00    -0.237 OA
ATOM     88  O   UNL A   1      47.147  25.450  37.676  1.00  0.00    -0.237 OA
ATOM     89  O   UNL A   1      44.700  25.591  37.825  1.00  0.00    -0.744 OA
ENDBRANCH  83  86
ENDBRANCH  56  79
ENDBRANCH  30  31
ENDBRANCH  23  25
ENDBRANCH  22  23
ENDBRANCH  21  22
ENDBRANCH  20  21
ENDBRANCH   1  20
TORSDOF 21
ENDMDL
