MODEL 1
REMARK VINA RESULT:     -11.2      0.000      0.000
REMARK SMILES CCC1(CC)CCN(c2ccc(/C=C/C(=O)OCCOC(=O)c3ccc(-c4c5nc(c(-c6cccc(S(=O)(=O)[O-])c6F)c6ccc([nH]6)c(-c6cccc(S(=O)(=O)[O-])c6F)c6nc(c(-c7cccc(S(=O)(=O)[O-])c7F)c7ccc4[nH]7)C=C6)C=C5)cc3)cc2F)C1
REMARK SMILES IDX 18 1 17 2 15 3 16 4 14 5 13 6 12 7 9 8 10 9 87 10 11 11
REMARK SMILES IDX 86 12 88 13 8 14 3 15 6 16 89 17 7 18 2 19 1 20 4 21 5 22
REMARK SMILES IDX 19 23 20 24 21 25 22 26 23 27 24 28 85 29 25 30 84 31 26 32
REMARK SMILES IDX 27 33 28 34 78 35 29 36 83 37 77 38 79 39 30 40 82 41 76 42
REMARK SMILES IDX 75 43 31 45 63 46 43 47 62 48 44 49 47 50 61 51 80 52 45 53
REMARK SMILES IDX 46 54 60 56 81 57 48 58 32 59 33 60 41 61 34 62 36 63 42 64
REMARK SMILES IDX 35 65 37 66 38 67 39 68 40 69 64 70 65 71 73 72 66 73 68 74
REMARK SMILES IDX 74 75 67 76 69 77 70 78 71 79 72 80 49 81 50 82 58 83 51 84
REMARK SMILES IDX 53 85 59 86 52 87 54 88 55 89 56 90 57 91
REMARK H PARENT 79 44 47 55
REMARK Flexibility Score: inf
ROOT
ATOM      1  C   UNL A   1      34.102  34.891  31.188  1.00  0.00     0.275 C 
ENDROOT
BRANCH   1   2
ATOM      2  O   UNL A   1      33.171  34.933  30.090  1.00  0.00    -0.459 OA
BRANCH   2   3
ATOM      3  C   UNL A   1      33.726  34.886  28.856  1.00  0.00     0.330 C 
ATOM      4  O   UNL A   1      34.389  35.767  28.328  1.00  0.00    -0.247 OA
BRANCH   3   5
ATOM      5  C   UNL A   1      33.495  33.598  28.171  1.00  0.00     0.094 C 
ATOM      6  C   UNL A   1      34.140  32.447  28.415  1.00  0.00     0.016 C 
BRANCH   6   7
ATOM      7  C   UNL A   1      33.870  31.236  27.628  1.00  0.00    -0.022 A 
ATOM      8  C   UNL A   1      33.350  28.930  26.039  1.00  0.00     0.073 A 
ATOM      9  C   UNL A   1      34.521  29.039  26.795  1.00  0.00     0.029 A 
ATOM     10  C   UNL A   1      32.425  29.984  26.149  1.00  0.00     0.147 A 
ATOM     11  C   UNL A   1      34.785  30.177  27.573  1.00  0.00     0.010 A 
ATOM     12  C   UNL A   1      32.669  31.115  26.933  1.00  0.00     0.049 A 
ATOM     13  F   UNL A   1      31.243  29.914  25.512  1.00  0.00    -0.205 F 
BRANCH   8  14
ATOM     14  N   UNL A   1      33.154  27.827  25.236  1.00  0.00    -0.369 N 
ATOM     15  C   UNL A   1      31.973  26.106  24.078  1.00  0.00    -0.011 C 
ATOM     16  C   UNL A   1      32.928  26.848  23.116  1.00  0.00     0.030 C 
ATOM     17  C   UNL A   1      31.898  27.080  25.284  1.00  0.00     0.123 C 
ATOM     18  C   UNL A   1      33.891  27.626  24.001  1.00  0.00     0.117 C 
BRANCH  15  19
ATOM     19  C   UNL A   1      32.498  24.688  24.454  1.00  0.00     0.005 C 
ATOM     20  C   UNL A   1      33.402  23.967  23.465  1.00  0.00     0.004 C 
ENDBRANCH  15  19
BRANCH  15  21
ATOM     21  C   UNL A   1      30.566  25.967  23.429  1.00  0.00     0.005 C 
ATOM     22  C   UNL A   1      29.396  26.023  24.406  1.00  0.00     0.004 C 
ENDBRANCH  15  21
ENDBRANCH   8  14
ENDBRANCH   6   7
ENDBRANCH   3   5
ENDBRANCH   2   3
ENDBRANCH   1   2
BRANCH   1  23
ATOM     23  C   UNL A   1      33.717  33.810  32.204  1.00  0.00     0.275 C 
BRANCH  23  24
ATOM     24  O   UNL A   1      34.476  32.601  32.020  1.00  0.00    -0.458 OA
BRANCH  24  25
ATOM     25  C   UNL A   1      35.558  32.472  32.828  1.00  0.00     0.338 C 
ATOM     26  O   UNL A   1      35.613  32.705  34.023  1.00  0.00    -0.246 OA
BRANCH  25  27
ATOM     27  C   UNL A   1      36.677  31.881  32.074  1.00  0.00     0.060 A 
ATOM     28  C   UNL A   1      37.598  31.097  32.775  1.00  0.00     0.016 A 
ATOM     29  C   UNL A   1      36.861  32.144  30.715  1.00  0.00     0.016 A 
ATOM     30  C   UNL A   1      38.709  30.571  32.119  1.00  0.00     0.010 A 
ATOM     31  C   UNL A   1      37.979  31.615  30.058  1.00  0.00     0.010 A 
ATOM     32  C   UNL A   1      38.914  30.833  30.758  1.00  0.00    -0.014 A 
BRANCH  32  33
ATOM     33  C   UNL A   1      40.109  30.283  30.069  1.00  0.00     0.031 A 
ATOM     34  C   UNL A   1      41.363  31.101  29.949  1.00  0.00     0.074 A 
ATOM     35  C   UNL A   1      40.056  29.047  29.535  1.00  0.00     0.049 A 
ATOM     36  N   UNL A   1      42.486  30.801  29.349  1.00  0.00    -0.248 NA
ATOM     37  C   UNL A   1      41.358  32.429  30.584  1.00  0.00     0.031 C 
ATOM     38  C   UNL A   1      38.891  28.164  29.577  1.00  0.00     0.029 A 
ATOM     39  N   UNL A   1      40.995  28.332  28.834  1.00  0.00    -0.354 N 
ATOM     40  C   UNL A   1      43.309  31.909  29.501  1.00  0.00     0.074 A 
ATOM     41  C   UNL A   1      42.559  32.891  30.256  1.00  0.00     0.031 C 
ATOM     42  C   UNL A   1      39.175  27.034  28.907  1.00  0.00     0.029 A 
ATOM     43  C   UNL A   1      40.529  27.125  28.367  1.00  0.00     0.049 A 
ATOM     44  H   UNL A   1      41.914  28.652  28.679  1.00  0.00     0.167 HD
ATOM     45  C   UNL A   1      44.576  32.086  29.062  1.00  0.00     0.034 A 
ATOM     46  C   UNL A   1      41.115  26.206  27.572  1.00  0.00     0.034 A 
ATOM     47  C   UNL A   1      45.334  31.093  28.347  1.00  0.00     0.049 A 
ATOM     48  C   UNL A   1      42.532  26.424  27.114  1.00  0.00     0.074 A 
ATOM     49  C   UNL A   1      46.649  31.167  27.916  1.00  0.00     0.029 A 
ATOM     50  N   UNL A   1      44.854  29.855  27.952  1.00  0.00    -0.354 N 
ATOM     51  N   UNL A   1      43.337  27.424  27.376  1.00  0.00    -0.248 NA
ATOM     52  C   UNL A   1      43.135  25.375  26.278  1.00  0.00     0.031 C 
ATOM     53  C   UNL A   1      46.955  29.981  27.243  1.00  0.00     0.029 A 
ATOM     54  C   UNL A   1      45.840  29.161  27.275  1.00  0.00     0.049 A 
ATOM     55  H   UNL A   1      43.944  29.521  28.127  1.00  0.00     0.167 HD
ATOM     56  C   UNL A   1      44.546  27.114  26.762  1.00  0.00     0.074 A 
ATOM     57  C   UNL A   1      44.377  25.820  26.136  1.00  0.00     0.031 C 
ATOM     58  C   UNL A   1      45.685  27.846  26.708  1.00  0.00     0.034 A 
BRANCH  45  59
ATOM     59  C   UNL A   1      45.269  33.385  29.370  1.00  0.00     0.023 A 
ATOM     60  C   UNL A   1      46.083  33.480  30.516  1.00  0.00     0.012 A 
ATOM     61  C   UNL A   1      45.231  34.455  28.454  1.00  0.00     0.148 A 
ATOM     62  C   UNL A   1      46.847  34.623  30.749  1.00  0.00     0.002 A 
ATOM     63  C   UNL A   1      46.023  35.576  28.674  1.00  0.00     0.091 A 
ATOM     64  F   UNL A   1      44.439  34.345  27.378  1.00  0.00    -0.205 F 
ATOM     65  C   UNL A   1      46.828  35.663  29.822  1.00  0.00     0.022 A 
BRANCH  63  66
ATOM     66  S   UNL A   1      46.135  36.935  27.504  1.00  0.00     0.127 S 
ATOM     67  O   UNL A   1      47.087  37.821  28.172  1.00  0.00    -0.237 OA
ATOM     68  O   UNL A   1      46.654  36.269  26.310  1.00  0.00    -0.237 OA
ATOM     69  O   UNL A   1      44.785  37.466  27.372  1.00  0.00    -0.744 OA
ENDBRANCH  63  66
ENDBRANCH  45  59
BRANCH  46  70
ATOM     70  C   UNL A   1      40.366  24.974  27.194  1.00  0.00     0.023 A 
ATOM     71  C   UNL A   1      39.114  25.088  26.560  1.00  0.00     0.012 A 
ATOM     72  C   UNL A   1      40.907  23.694  27.423  1.00  0.00     0.148 A 
ATOM     73  C   UNL A   1      38.404  23.948  26.179  1.00  0.00     0.002 A 
ATOM     74  C   UNL A   1      40.222  22.565  26.989  1.00  0.00     0.091 A 
ATOM     75  F   UNL A   1      42.086  23.603  28.053  1.00  0.00    -0.205 F 
ATOM     76  C   UNL A   1      38.963  22.687  26.381  1.00  0.00     0.022 A 
BRANCH  74  77
ATOM     77  S   UNL A   1      40.941  20.920  27.080  1.00  0.00     0.127 S 
ATOM     78  O   UNL A   1      40.046  20.153  26.218  1.00  0.00    -0.237 OA
ATOM     79  O   UNL A   1      42.282  21.140  26.536  1.00  0.00    -0.237 OA
ATOM     80  O   UNL A   1      40.923  20.569  28.494  1.00  0.00    -0.744 OA
ENDBRANCH  74  77
ENDBRANCH  46  70
BRANCH  58  81
ATOM     81  C   UNL A   1      46.863  27.271  25.965  1.00  0.00     0.023 A 
ATOM     82  C   UNL A   1      46.969  27.463  24.574  1.00  0.00     0.012 A 
ATOM     83  C   UNL A   1      47.918  26.645  26.660  1.00  0.00     0.148 A 
ATOM     84  C   UNL A   1      48.096  27.022  23.882  1.00  0.00     0.002 A 
ATOM     85  C   UNL A   1      49.058  26.250  25.970  1.00  0.00     0.091 A 
ATOM     86  F   UNL A   1      47.790  26.454  27.981  1.00  0.00    -0.205 F 
ATOM     87  C   UNL A   1      49.145  26.430  24.581  1.00  0.00     0.022 A 
BRANCH  85  88
ATOM     88  S   UNL A   1      50.497  25.571  26.806  1.00  0.00     0.127 S 
ATOM     89  O   UNL A   1      50.848  26.653  27.723  1.00  0.00    -0.237 OA
ATOM     90  O   UNL A   1      49.949  24.378  27.454  1.00  0.00    -0.237 OA
ATOM     91  O   UNL A   1      51.471  25.292  25.759  1.00  0.00    -0.744 OA
ENDBRANCH  85  88
ENDBRANCH  58  81
ENDBRANCH  32  33
ENDBRANCH  25  27
ENDBRANCH  24  25
ENDBRANCH  23  24
ENDBRANCH   1  23
TORSDOF 18
ENDMDL
MODEL 2
REMARK VINA RESULT:     -11.1      5.215      7.535
REMARK SMILES CCC1(CC)CCN(c2ccc(/C=C/C(=O)OCCOC(=O)c3ccc(-c4c5nc(c(-c6cccc(S(=O)(=O)[O-])c6F)c6ccc([nH]6)c(-c6cccc(S(=O)(=O)[O-])c6F)c6nc(c(-c7cccc(S(=O)(=O)[O-])c7F)c7ccc4[nH]7)C=C6)C=C5)cc3)cc2F)C1
REMARK SMILES IDX 18 1 17 2 15 3 16 4 14 5 13 6 12 7 9 8 10 9 87 10 11 11
REMARK SMILES IDX 86 12 88 13 8 14 3 15 6 16 89 17 7 18 2 19 1 20 4 21 5 22
REMARK SMILES IDX 19 23 20 24 21 25 22 26 23 27 24 28 85 29 25 30 84 31 26 32
REMARK SMILES IDX 27 33 28 34 78 35 29 36 83 37 77 38 79 39 30 40 82 41 76 42
REMARK SMILES IDX 75 43 31 45 63 46 43 47 62 48 44 49 47 50 61 51 80 52 45 53
REMARK SMILES IDX 46 54 60 56 81 57 48 58 32 59 33 60 41 61 34 62 36 63 42 64
REMARK SMILES IDX 35 65 37 66 38 67 39 68 40 69 64 70 65 71 73 72 66 73 68 74
REMARK SMILES IDX 74 75 67 76 69 77 70 78 71 79 72 80 49 81 50 82 58 83 51 84
REMARK SMILES IDX 53 85 59 86 52 87 54 88 55 89 56 90 57 91
REMARK H PARENT 79 44 47 55
REMARK Flexibility Score: inf
ROOT
ATOM      1  C   UNL A   1      31.246  30.142  24.895  1.00  0.00     0.275 C 
ENDROOT
BRANCH   1   2
ATOM      2  O   UNL A   1      30.582  28.866  24.813  1.00  0.00    -0.459 OA
BRANCH   2   3
ATOM      3  C   UNL A   1      30.705  28.222  23.629  1.00  0.00     0.330 C 
ATOM      4  O   UNL A   1      30.510  28.704  22.523  1.00  0.00    -0.247 OA
BRANCH   3   5
ATOM      5  C   UNL A   1      31.160  26.825  23.778  1.00  0.00     0.094 C 
ATOM      6  C   UNL A   1      30.852  25.999  24.790  1.00  0.00     0.016 C 
BRANCH   6   7
ATOM      7  C   UNL A   1      31.413  24.643  24.868  1.00  0.00    -0.022 A 
ATOM      8  C   UNL A   1      32.437  21.991  25.054  1.00  0.00     0.073 A 
ATOM      9  C   UNL A   1      32.141  22.568  23.815  1.00  0.00     0.029 A 
ATOM     10  C   UNL A   1      32.257  22.803  26.189  1.00  0.00     0.147 A 
ATOM     11  C   UNL A   1      31.629  23.871  23.719  1.00  0.00     0.010 A 
ATOM     12  C   UNL A   1      31.764  24.108  26.105  1.00  0.00     0.049 A 
ATOM     13  F   UNL A   1      32.592  22.344  27.407  1.00  0.00    -0.205 F 
BRANCH   8  14
ATOM     14  N   UNL A   1      32.876  20.686  25.114  1.00  0.00    -0.369 N 
ATOM     15  C   UNL A   1      33.084  18.385  24.515  1.00  0.00    -0.011 C 
ATOM     16  C   UNL A   1      34.479  19.038  24.646  1.00  0.00     0.030 C 
ATOM     17  C   UNL A   1      32.149  19.620  24.426  1.00  0.00     0.123 C 
ATOM     18  C   UNL A   1      34.259  20.345  25.395  1.00  0.00     0.117 C 
BRANCH  15  19
ATOM     19  C   UNL A   1      32.760  17.443  25.713  1.00  0.00     0.005 C 
ATOM     20  C   UNL A   1      32.549  15.962  25.431  1.00  0.00     0.004 C 
ENDBRANCH  15  19
BRANCH  15  21
ATOM     21  C   UNL A   1      33.002  17.568  23.194  1.00  0.00     0.005 C 
ATOM     22  C   UNL A   1      32.263  18.261  22.053  1.00  0.00     0.004 C 
ENDBRANCH  15  21
ENDBRANCH   8  14
ENDBRANCH   6   7
ENDBRANCH   3   5
ENDBRANCH   2   3
ENDBRANCH   1   2
BRANCH   1  23
ATOM     23  C   UNL A   1      31.778  30.404  26.308  1.00  0.00     0.275 C 
BRANCH  23  24
ATOM     24  O   UNL A   1      33.193  30.664  26.314  1.00  0.00    -0.458 OA
BRANCH  24  25
ATOM     25  C   UNL A   1      33.608  31.570  27.233  1.00  0.00     0.338 C 
ATOM     26  O   UNL A   1      33.013  32.569  27.600  1.00  0.00    -0.246 OA
BRANCH  25  27
ATOM     27  C   UNL A   1      34.869  31.118  27.847  1.00  0.00     0.060 A 
ATOM     28  C   UNL A   1      34.953  29.789  28.270  1.00  0.00     0.016 A 
ATOM     29  C   UNL A   1      35.931  31.999  28.066  1.00  0.00     0.016 A 
ATOM     30  C   UNL A   1      36.100  29.332  28.915  1.00  0.00     0.010 A 
ATOM     31  C   UNL A   1      37.082  31.539  28.715  1.00  0.00     0.010 A 
ATOM     32  C   UNL A   1      37.171  30.205  29.152  1.00  0.00    -0.014 A 
BRANCH  32  33
ATOM     33  C   UNL A   1      38.384  29.717  29.854  1.00  0.00     0.031 A 
ATOM     34  C   UNL A   1      38.743  30.248  31.213  1.00  0.00     0.074 A 
ATOM     35  C   UNL A   1      39.173  28.802  29.257  1.00  0.00     0.049 A 
ATOM     36  N   UNL A   1      39.783  29.968  31.956  1.00  0.00    -0.248 NA
ATOM     37  C   UNL A   1      37.817  31.220  31.817  1.00  0.00     0.031 C 
ATOM     38  C   UNL A   1      38.935  28.223  27.935  1.00  0.00     0.029 A 
ATOM     39  N   UNL A   1      40.345  28.221  29.672  1.00  0.00    -0.354 N 
ATOM     40  C   UNL A   1      39.658  30.750  33.097  1.00  0.00     0.074 A 
ATOM     41  C   UNL A   1      38.437  31.515  32.953  1.00  0.00     0.031 C 
ATOM     42  C   UNL A   1      39.943  27.387  27.637  1.00  0.00     0.029 A 
ATOM     43  C   UNL A   1      40.911  27.393  28.731  1.00  0.00     0.049 A 
ATOM     44  H   UNL A   1      40.744  28.381  30.559  1.00  0.00     0.167 HD
ATOM     45  C   UNL A   1      40.480  30.814  34.170  1.00  0.00     0.034 A 
ATOM     46  C   UNL A   1      42.087  26.733  28.736  1.00  0.00     0.034 A 
ATOM     47  C   UNL A   1      41.672  30.022  34.329  1.00  0.00     0.049 A 
ATOM     48  C   UNL A   1      42.971  26.811  29.951  1.00  0.00     0.074 A 
ATOM     49  C   UNL A   1      42.532  29.981  35.414  1.00  0.00     0.029 A 
ATOM     50  N   UNL A   1      42.176  29.143  33.385  1.00  0.00    -0.354 N 
ATOM     51  N   UNL A   1      42.773  27.458  31.073  1.00  0.00    -0.248 NA
ATOM     52  C   UNL A   1      44.226  26.044  29.918  1.00  0.00     0.031 C 
ATOM     53  C   UNL A   1      43.567  29.090  35.117  1.00  0.00     0.029 A 
ATOM     54  C   UNL A   1      43.339  28.561  33.858  1.00  0.00     0.049 A 
ATOM     55  H   UNL A   1      41.767  28.960  32.508  1.00  0.00     0.167 HD
ATOM     56  C   UNL A   1      43.859  27.157  31.886  1.00  0.00     0.074 A 
ATOM     57  C   UNL A   1      44.702  26.248  31.139  1.00  0.00     0.031 C 
ATOM     58  C   UNL A   1      44.141  27.609  33.133  1.00  0.00     0.034 A 
BRANCH  45  59
ATOM     59  C   UNL A   1      40.116  31.738  35.300  1.00  0.00     0.023 A 
ATOM     60  C   UNL A   1      40.617  33.055  35.303  1.00  0.00     0.012 A 
ATOM     61  C   UNL A   1      39.170  31.351  36.271  1.00  0.00     0.148 A 
ATOM     62  C   UNL A   1      40.184  33.974  36.259  1.00  0.00     0.002 A 
ATOM     63  C   UNL A   1      38.717  32.282  37.197  1.00  0.00     0.091 A 
ATOM     64  F   UNL A   1      38.720  30.089  36.253  1.00  0.00    -0.205 F 
ATOM     65  C   UNL A   1      39.225  33.592  37.195  1.00  0.00     0.022 A 
BRANCH  63  66
ATOM     66  S   UNL A   1      37.426  31.918  38.392  1.00  0.00     0.127 S 
ATOM     67  O   UNL A   1      36.422  32.926  38.058  1.00  0.00    -0.237 OA
ATOM     68  O   UNL A   1      37.057  30.548  38.037  1.00  0.00    -0.237 OA
ATOM     69  O   UNL A   1      38.038  32.068  39.705  1.00  0.00    -0.744 OA
ENDBRANCH  63  66
ENDBRANCH  45  59
BRANCH  46  70
ATOM     70  C   UNL A   1      42.473  25.907  27.556  1.00  0.00     0.023 A 
ATOM     71  C   UNL A   1      43.309  26.456  26.565  1.00  0.00     0.012 A 
ATOM     72  C   UNL A   1      42.049  24.569  27.433  1.00  0.00     0.148 A 
ATOM     73  C   UNL A   1      43.698  25.695  25.462  1.00  0.00     0.002 A 
ATOM     74  C   UNL A   1      42.488  23.799  26.363  1.00  0.00     0.091 A 
ATOM     75  F   UNL A   1      41.231  24.071  28.371  1.00  0.00    -0.205 F 
ATOM     76  C   UNL A   1      43.300  24.363  25.368  1.00  0.00     0.022 A 
BRANCH  74  77
ATOM     77  S   UNL A   1      42.139  22.040  26.250  1.00  0.00     0.127 S 
ATOM     78  O   UNL A   1      42.923  21.653  25.080  1.00  0.00    -0.237 OA
ATOM     79  O   UNL A   1      42.651  21.541  27.526  1.00  0.00    -0.237 OA
ATOM     80  O   UNL A   1      40.691  21.942  26.110  1.00  0.00    -0.744 OA
ENDBRANCH  74  77
ENDBRANCH  46  70
BRANCH  58  81
ATOM     81  C   UNL A   1      45.402  27.121  33.797  1.00  0.00     0.023 A 
ATOM     82  C   UNL A   1      46.580  27.888  33.700  1.00  0.00     0.012 A 
ATOM     83  C   UNL A   1      45.390  25.970  34.609  1.00  0.00     0.148 A 
ATOM     84  C   UNL A   1      47.732  27.504  34.384  1.00  0.00     0.002 A 
ATOM     85  C   UNL A   1      46.530  25.619  35.325  1.00  0.00     0.091 A 
ATOM     86  F   UNL A   1      44.265  25.243  34.674  1.00  0.00    -0.205 F 
ATOM     87  C   UNL A   1      47.704  26.381  35.206  1.00  0.00     0.022 A 
BRANCH  85  88
ATOM     88  S   UNL A   1      46.549  24.247  36.484  1.00  0.00     0.127 S 
ATOM     89  O   UNL A   1      45.891  23.195  35.713  1.00  0.00    -0.237 OA
ATOM     90  O   UNL A   1      47.982  24.039  36.701  1.00  0.00    -0.237 OA
ATOM     91  O   UNL A   1      45.825  24.710  37.661  1.00  0.00    -0.744 OA
ENDBRANCH  85  88
ENDBRANCH  58  81
ENDBRANCH  32  33
ENDBRANCH  25  27
ENDBRANCH  24  25
ENDBRANCH  23  24
ENDBRANCH   1  23
TORSDOF 18
ENDMDL
MODEL 3
REMARK VINA RESULT:     -11.0      5.003      7.108
REMARK SMILES CCC1(CC)CCN(c2ccc(/C=C/C(=O)OCCOC(=O)c3ccc(-c4c5nc(c(-c6cccc(S(=O)(=O)[O-])c6F)c6ccc([nH]6)c(-c6cccc(S(=O)(=O)[O-])c6F)c6nc(c(-c7cccc(S(=O)(=O)[O-])c7F)c7ccc4[nH]7)C=C6)C=C5)cc3)cc2F)C1
REMARK SMILES IDX 18 1 17 2 15 3 16 4 14 5 13 6 12 7 9 8 10 9 87 10 11 11
REMARK SMILES IDX 86 12 88 13 8 14 3 15 6 16 89 17 7 18 2 19 1 20 4 21 5 22
REMARK SMILES IDX 19 23 20 24 21 25 22 26 23 27 24 28 85 29 25 30 84 31 26 32
REMARK SMILES IDX 27 33 28 34 78 35 29 36 83 37 77 38 79 39 30 40 82 41 76 42
REMARK SMILES IDX 75 43 31 45 63 46 43 47 62 48 44 49 47 50 61 51 80 52 45 53
REMARK SMILES IDX 46 54 60 56 81 57 48 58 32 59 33 60 41 61 34 62 36 63 42 64
REMARK SMILES IDX 35 65 37 66 38 67 39 68 40 69 64 70 65 71 73 72 66 73 68 74
REMARK SMILES IDX 74 75 67 76 69 77 70 78 71 79 72 80 49 81 50 82 58 83 51 84
REMARK SMILES IDX 53 85 59 86 52 87 54 88 55 89 56 90 57 91
REMARK H PARENT 79 44 47 55
REMARK Flexibility Score: inf
ROOT
ATOM      1  C   UNL A   1      31.009  31.507  26.095  1.00  0.00     0.275 C 
ENDROOT
BRANCH   1   2
ATOM      2  O   UNL A   1      30.247  31.984  24.970  1.00  0.00    -0.459 OA
BRANCH   2   3
ATOM      3  C   UNL A   1      29.862  31.036  24.084  1.00  0.00     0.330 C 
ATOM      4  O   UNL A   1      29.055  31.180  23.178  1.00  0.00    -0.247 OA
BRANCH   3   5
ATOM      5  C   UNL A   1      30.564  29.751  24.278  1.00  0.00     0.094 C 
ATOM      6  C   UNL A   1      30.274  28.593  23.663  1.00  0.00     0.016 C 
BRANCH   6   7
ATOM      7  C   UNL A   1      31.003  27.357  23.978  1.00  0.00    -0.022 A 
ATOM      8  C   UNL A   1      32.382  24.958  24.656  1.00  0.00     0.073 A 
ATOM      9  C   UNL A   1      31.435  24.983  23.627  1.00  0.00     0.029 A 
ATOM     10  C   UNL A   1      32.655  26.182  25.294  1.00  0.00     0.147 A 
ATOM     11  C   UNL A   1      30.748  26.160  23.295  1.00  0.00     0.010 A 
ATOM     12  C   UNL A   1      31.989  27.365  24.962  1.00  0.00     0.049 A 
ATOM     13  F   UNL A   1      33.607  26.252  26.241  1.00  0.00    -0.205 F 
BRANCH   8  14
ATOM     14  N   UNL A   1      32.990  23.769  24.998  1.00  0.00    -0.369 N 
ATOM     15  C   UNL A   1      34.621  22.026  24.985  1.00  0.00    -0.011 C 
ATOM     16  C   UNL A   1      34.342  22.495  26.431  1.00  0.00     0.030 C 
ATOM     17  C   UNL A   1      34.020  23.183  24.142  1.00  0.00     0.123 C 
ATOM     18  C   UNL A   1      33.047  23.293  26.369  1.00  0.00     0.117 C 
BRANCH  15  19
ATOM     19  C   UNL A   1      33.983  20.638  24.681  1.00  0.00     0.005 C 
ATOM     20  C   UNL A   1      32.646  20.601  23.954  1.00  0.00     0.004 C 
ENDBRANCH  15  19
BRANCH  15  21
ATOM     21  C   UNL A   1      36.155  21.941  24.740  1.00  0.00     0.005 C 
ATOM     22  C   UNL A   1      36.645  22.638  23.475  1.00  0.00     0.004 C 
ENDBRANCH  15  21
ENDBRANCH   8  14
ENDBRANCH   6   7
ENDBRANCH   3   5
ENDBRANCH   2   3
ENDBRANCH   1   2
BRANCH   1  23
ATOM     23  C   UNL A   1      31.830  32.634  26.732  1.00  0.00     0.275 C 
BRANCH  23  24
ATOM     24  O   UNL A   1      32.994  32.136  27.414  1.00  0.00    -0.458 OA
BRANCH  24  25
ATOM     25  C   UNL A   1      33.958  33.058  27.656  1.00  0.00     0.338 C 
ATOM     26  O   UNL A   1      33.868  34.267  27.521  1.00  0.00    -0.246 OA
BRANCH  25  27
ATOM     27  C   UNL A   1      35.144  32.403  28.236  1.00  0.00     0.060 A 
ATOM     28  C   UNL A   1      34.993  31.110  28.747  1.00  0.00     0.016 A 
ATOM     29  C   UNL A   1      36.367  33.067  28.340  1.00  0.00     0.016 A 
ATOM     30  C   UNL A   1      36.068  30.474  29.364  1.00  0.00     0.010 A 
ATOM     31  C   UNL A   1      37.446  32.427  28.963  1.00  0.00     0.010 A 
ATOM     32  C   UNL A   1      37.301  31.131  29.487  1.00  0.00    -0.014 A 
BRANCH  32  33
ATOM     33  C   UNL A   1      38.438  30.454  30.160  1.00  0.00     0.031 A 
ATOM     34  C   UNL A   1      38.821  30.826  31.565  1.00  0.00     0.074 A 
ATOM     35  C   UNL A   1      39.136  29.512  29.497  1.00  0.00     0.049 A 
ATOM     36  N   UNL A   1      39.806  30.371  32.295  1.00  0.00    -0.248 NA
ATOM     37  C   UNL A   1      37.992  31.839  32.238  1.00  0.00     0.031 C 
ATOM     38  C   UNL A   1      38.867  29.077  28.127  1.00  0.00     0.029 A 
ATOM     39  N   UNL A   1      40.228  28.772  29.876  1.00  0.00    -0.354 N 
ATOM     40  C   UNL A   1      39.741  31.063  33.498  1.00  0.00     0.074 A 
ATOM     41  C   UNL A   1      38.614  31.967  33.403  1.00  0.00     0.031 C 
ATOM     42  C   UNL A   1      39.785  28.163  27.771  1.00  0.00     0.029 A 
ATOM     43  C   UNL A   1      40.723  27.969  28.874  1.00  0.00     0.049 A 
ATOM     44  H   UNL A   1      40.622  28.812  30.779  1.00  0.00     0.167 HD
ATOM     45  C   UNL A   1      40.539  30.944  34.583  1.00  0.00     0.034 A 
ATOM     46  C   UNL A   1      41.820  27.186  28.838  1.00  0.00     0.034 A 
ATOM     47  C   UNL A   1      41.635  30.016  34.690  1.00  0.00     0.049 A 
ATOM     48  C   UNL A   1      42.678  27.064  30.068  1.00  0.00     0.074 A 
ATOM     49  C   UNL A   1      42.460  29.788  35.778  1.00  0.00     0.029 A 
ATOM     50  N   UNL A   1      42.062  29.170  33.680  1.00  0.00    -0.354 N 
ATOM     51  N   UNL A   1      42.525  27.631  31.239  1.00  0.00    -0.248 NA
ATOM     52  C   UNL A   1      43.843  26.168  29.986  1.00  0.00     0.031 C 
ATOM     53  C   UNL A   1      43.399  28.818  35.419  1.00  0.00     0.029 A 
ATOM     54  C   UNL A   1      43.144  28.425  34.116  1.00  0.00     0.049 A 
ATOM     55  H   UNL A   1      41.656  29.108  32.785  1.00  0.00     0.167 HD
ATOM     56  C   UNL A   1      43.554  27.144  32.038  1.00  0.00     0.074 A 
ATOM     57  C   UNL A   1      44.310  26.214  31.226  1.00  0.00     0.031 C 
ATOM     58  C   UNL A   1      43.854  27.456  33.323  1.00  0.00     0.034 A 
BRANCH  45  59
ATOM     59  C   UNL A   1      40.252  31.804  35.784  1.00  0.00     0.023 A 
ATOM     60  C   UNL A   1      41.059  32.931  36.035  1.00  0.00     0.012 A 
ATOM     61  C   UNL A   1      39.105  31.581  36.571  1.00  0.00     0.148 A 
ATOM     62  C   UNL A   1      40.731  33.823  37.056  1.00  0.00     0.002 A 
ATOM     63  C   UNL A   1      38.764  32.493  37.562  1.00  0.00     0.091 A 
ATOM     64  F   UNL A   1      38.362  30.494  36.320  1.00  0.00    -0.205 F 
ATOM     65  C   UNL A   1      39.577  33.612  37.808  1.00  0.00     0.022 A 
BRANCH  63  66
ATOM     66  S   UNL A   1      37.259  32.360  38.534  1.00  0.00     0.127 S 
ATOM     67  O   UNL A   1      37.635  33.063  39.759  1.00  0.00    -0.237 OA
ATOM     68  O   UNL A   1      36.290  33.068  37.697  1.00  0.00    -0.237 OA
ATOM     69  O   UNL A   1      37.005  30.935  38.693  1.00  0.00    -0.744 OA
ENDBRANCH  63  66
ENDBRANCH  45  59
BRANCH  46  70
ATOM     70  C   UNL A   1      42.141  26.425  27.597  1.00  0.00     0.023 A 
ATOM     71  C   UNL A   1      42.813  27.068  26.541  1.00  0.00     0.012 A 
ATOM     72  C   UNL A   1      41.820  25.059  27.477  1.00  0.00     0.148 A 
ATOM     73  C   UNL A   1      43.141  26.371  25.377  1.00  0.00     0.002 A 
ATOM     74  C   UNL A   1      42.201  24.355  26.340  1.00  0.00     0.091 A 
ATOM     75  F   UNL A   1      41.155  24.469  28.480  1.00  0.00    -0.205 F 
ATOM     76  C   UNL A   1      42.848  25.012  25.282  1.00  0.00     0.022 A 
BRANCH  74  77
ATOM     77  S   UNL A   1      41.991  22.576  26.206  1.00  0.00     0.127 S 
ATOM     78  O   UNL A   1      42.629  22.105  27.432  1.00  0.00    -0.237 OA
ATOM     79  O   UNL A   1      40.535  22.439  26.177  1.00  0.00    -0.237 OA
ATOM     80  O   UNL A   1      42.649  22.202  24.960  1.00  0.00    -0.744 OA
ENDBRANCH  74  77
ENDBRANCH  46  70
BRANCH  58  81
ATOM     81  C   UNL A   1      45.039  26.778  33.959  1.00  0.00     0.023 A 
ATOM     82  C   UNL A   1      46.308  27.385  33.889  1.00  0.00     0.012 A 
ATOM     83  C   UNL A   1      44.875  25.605  34.723  1.00  0.00     0.148 A 
ATOM     84  C   UNL A   1      47.399  26.823  34.550  1.00  0.00     0.002 A 
ATOM     85  C   UNL A   1      45.957  25.077  35.417  1.00  0.00     0.091 A 
ATOM     86  F   UNL A   1      43.663  25.031  34.763  1.00  0.00    -0.205 F 
ATOM     87  C   UNL A   1      47.222  25.680  35.325  1.00  0.00     0.022 A 
BRANCH  85  88
ATOM     88  S   UNL A   1      45.794  23.666  36.518  1.00  0.00     0.127 S 
ATOM     89  O   UNL A   1      47.172  23.473  36.963  1.00  0.00    -0.237 OA
ATOM     90  O   UNL A   1      44.886  24.174  37.547  1.00  0.00    -0.237 OA
ATOM     91  O   UNL A   1      45.239  22.590  35.707  1.00  0.00    -0.744 OA
ENDBRANCH  85  88
ENDBRANCH  58  81
ENDBRANCH  32  33
ENDBRANCH  25  27
ENDBRANCH  24  25
ENDBRANCH  23  24
ENDBRANCH   1  23
TORSDOF 18
ENDMDL
