MODEL 1
REMARK VINA RESULT:     -12.7      0.000      0.000
REMARK SMILES Cc1cc(C)c2c(c1)C=C(C(=O)OCCOC(=O)c1ccc(-c3c4nc(c(-c5cccc(S(=O)(=O)[O-])c5F)c5ccc([nH]5)c(-c5cccc(S(=O)(=O)[O-])c5F)c5nc(c(-c6cccc(S(=O)(=O)[O-])c6F)c6ccc3[nH]6)C=C5)C=C4)cc1)[C@@H](C(F)(F)F)O2
REMARK SMILES IDX 15 1 14 2 13 3 11 4 12 5 10 6 1 7 2 8 3 9 8 10 4 11 7 12
REMARK SMILES IDX 5 13 6 14 9 15 87 16 82 17 83 18 84 19 85 20 86 21 16 22
REMARK SMILES IDX 17 23 18 24 19 25 20 26 81 27 21 28 80 29 22 30 23 31 24 32
REMARK SMILES IDX 74 33 25 34 79 35 73 36 75 37 26 38 78 39 72 40 71 41 27 43
REMARK SMILES IDX 59 44 39 45 58 46 40 47 43 48 57 49 76 50 41 51 42 52 56 54
REMARK SMILES IDX 77 55 44 56 28 57 29 58 37 59 30 60 32 61 38 62 31 63 33 64
REMARK SMILES IDX 34 65 35 66 36 67 60 68 61 69 69 70 62 71 64 72 70 73 63 74
REMARK SMILES IDX 65 75 66 76 67 77 68 78 45 79 46 80 54 81 47 82 49 83 55 84
REMARK SMILES IDX 48 85 50 86 51 87 52 88 53 89
REMARK H PARENT 75 42 43 53
REMARK Flexibility Score: inf
ROOT
ATOM      1  C   UNL A   1      36.745  20.415  24.862  1.00  0.00     0.275 C 
ENDROOT
BRANCH   1   2
ATOM      2  C   UNL A   1      35.383  21.102  24.771  1.00  0.00     0.275 C 
BRANCH   2   3
ATOM      3  O   UNL A   1      35.515  22.540  24.819  1.00  0.00    -0.459 OA
BRANCH   3   4
ATOM      4  C   UNL A   1      35.336  23.178  23.639  1.00  0.00     0.338 C 
ATOM      5  O   UNL A   1      35.906  22.935  22.587  1.00  0.00    -0.246 OA
BRANCH   4   6
ATOM      6  C   UNL A   1      34.327  24.243  23.770  1.00  0.00     0.087 C 
ATOM      7  C   UNL A   1      32.753  28.903  27.472  1.00  0.00     0.044 C 
ATOM      8  C   UNL A   1      32.603  27.958  26.314  1.00  0.00    -0.050 A 
ATOM      9  C   UNL A   1      31.410  27.894  25.585  1.00  0.00     0.010 A 
ATOM     10  C   UNL A   1      33.632  27.070  25.998  1.00  0.00     0.015 A 
ATOM     11  C   UNL A   1      31.249  26.974  24.532  1.00  0.00    -0.008 A 
ATOM     12  C   UNL A   1      33.476  26.139  24.963  1.00  0.00     0.018 A 
ATOM     13  C   UNL A   1      29.958  26.925  23.770  1.00  0.00     0.048 C 
ATOM     14  C   UNL A   1      32.297  26.094  24.222  1.00  0.00     0.130 A 
ATOM     15  C   UNL A   1      34.529  25.183  24.698  1.00  0.00     0.027 C 
ATOM     16  O   UNL A   1      32.105  25.221  23.183  1.00  0.00    -0.475 OA
ATOM     17  C   UNL A   1      33.057  24.139  22.981  1.00  0.00     0.316 C 
BRANCH  17  18
ATOM     18  C   UNL A   1      32.348  22.800  23.236  1.00  0.00     0.430 C 
ATOM     19  F   UNL A   1      31.020  22.889  22.972  1.00  0.00    -0.167 F 
ATOM     20  F   UNL A   1      32.829  21.820  22.432  1.00  0.00    -0.167 F 
ATOM     21  F   UNL A   1      32.479  22.379  24.513  1.00  0.00    -0.167 F 
ENDBRANCH  17  18
ENDBRANCH   4   6
ENDBRANCH   3   4
ENDBRANCH   2   3
ENDBRANCH   1   2
BRANCH   1  22
ATOM     22  O   UNL A   1      37.796  21.394  24.951  1.00  0.00    -0.458 OA
BRANCH  22  23
ATOM     23  C   UNL A   1      38.826  21.058  25.759  1.00  0.00     0.338 C 
ATOM     24  O   UNL A   1      39.354  19.965  25.869  1.00  0.00    -0.246 OA
BRANCH  23  25
ATOM     25  C   UNL A   1      39.324  22.248  26.464  1.00  0.00     0.060 A 
ATOM     26  C   UNL A   1      38.771  23.480  26.143  1.00  0.00     0.016 A 
ATOM     27  C   UNL A   1      40.459  22.182  27.267  1.00  0.00     0.016 A 
ATOM     28  C   UNL A   1      39.452  24.652  26.459  1.00  0.00     0.010 A 
ATOM     29  C   UNL A   1      41.042  23.369  27.732  1.00  0.00     0.010 A 
ATOM     30  C   UNL A   1      40.586  24.622  27.282  1.00  0.00    -0.014 A 
BRANCH  30  31
ATOM     31  C   UNL A   1      41.283  25.894  27.645  1.00  0.00     0.031 A 
ATOM     32  C   UNL A   1      40.594  26.935  28.496  1.00  0.00     0.074 A 
ATOM     33  C   UNL A   1      42.549  26.113  27.228  1.00  0.00     0.049 A 
ATOM     34  N   UNL A   1      40.985  28.150  28.792  1.00  0.00    -0.248 NA
ATOM     35  C   UNL A   1      39.290  26.577  29.081  1.00  0.00     0.031 C 
ATOM     36  C   UNL A   1      43.347  25.189  26.417  1.00  0.00     0.029 A 
ATOM     37  N   UNL A   1      43.396  27.177  27.429  1.00  0.00    -0.354 N 
ATOM     38  C   UNL A   1      39.950  28.720  29.526  1.00  0.00     0.074 A 
ATOM     39  C   UNL A   1      38.909  27.721  29.631  1.00  0.00     0.031 C 
ATOM     40  C   UNL A   1      44.576  25.692  26.243  1.00  0.00     0.029 A 
ATOM     41  C   UNL A   1      44.626  27.025  26.827  1.00  0.00     0.049 A 
ATOM     42  H   UNL A   1      43.148  27.972  27.955  1.00  0.00     0.167 HD
ATOM     43  C   UNL A   1      39.879  29.956  30.078  1.00  0.00     0.034 A 
ATOM     44  C   UNL A   1      45.668  27.872  26.711  1.00  0.00     0.034 A 
ATOM     45  C   UNL A   1      40.951  30.916  30.038  1.00  0.00     0.049 A 
ATOM     46  C   UNL A   1      45.556  29.242  27.316  1.00  0.00     0.074 A 
ATOM     47  C   UNL A   1      40.989  32.181  30.597  1.00  0.00     0.029 A 
ATOM     48  N   UNL A   1      42.176  30.714  29.421  1.00  0.00    -0.354 N 
ATOM     49  N   UNL A   1      44.581  29.749  28.031  1.00  0.00    -0.248 NA
ATOM     50  C   UNL A   1      46.686  30.158  27.104  1.00  0.00     0.031 C 
ATOM     51  C   UNL A   1      42.227  32.754  30.297  1.00  0.00     0.029 A 
ATOM     52  C   UNL A   1      42.974  31.835  29.578  1.00  0.00     0.049 A 
ATOM     53  H   UNL A   1      42.440  29.896  28.941  1.00  0.00     0.167 HD
ATOM     54  C   UNL A   1      44.984  31.034  28.368  1.00  0.00     0.074 A 
ATOM     55  C   UNL A   1      46.308  31.217  27.806  1.00  0.00     0.031 C 
ATOM     56  C   UNL A   1      44.310  31.984  29.058  1.00  0.00     0.034 A 
BRANCH  43  57
ATOM     57  C   UNL A   1      38.619  30.343  30.812  1.00  0.00     0.023 A 
ATOM     58  C   UNL A   1      38.502  30.080  32.191  1.00  0.00     0.012 A 
ATOM     59  C   UNL A   1      37.593  31.056  30.157  1.00  0.00     0.148 A 
ATOM     60  C   UNL A   1      37.376  30.496  32.901  1.00  0.00     0.002 A 
ATOM     61  C   UNL A   1      36.495  31.508  30.882  1.00  0.00     0.091 A 
ATOM     62  F   UNL A   1      37.713  31.286  28.842  1.00  0.00    -0.205 F 
ATOM     63  C   UNL A   1      36.380  31.219  32.251  1.00  0.00     0.022 A 
BRANCH  61  64
ATOM     64  S   UNL A   1      35.201  32.527  30.161  1.00  0.00     0.127 S 
ATOM     65  O   UNL A   1      34.306  32.716  31.301  1.00  0.00    -0.237 OA
ATOM     66  O   UNL A   1      35.940  33.724  29.761  1.00  0.00    -0.237 OA
ATOM     67  O   UNL A   1      34.646  31.754  29.058  1.00  0.00    -0.744 OA
ENDBRANCH  61  64
ENDBRANCH  43  57
BRANCH  44  68
ATOM     68  C   UNL A   1      46.909  27.434  26.007  1.00  0.00     0.023 A 
ATOM     69  C   UNL A   1      47.826  26.602  26.678  1.00  0.00     0.012 A 
ATOM     70  C   UNL A   1      47.157  27.780  24.662  1.00  0.00     0.148 A 
ATOM     71  C   UNL A   1      48.971  26.136  26.030  1.00  0.00     0.002 A 
ATOM     72  C   UNL A   1      48.264  27.257  24.003  1.00  0.00     0.091 A 
ATOM     73  F   UNL A   1      46.286  28.589  24.044  1.00  0.00    -0.205 F 
ATOM     74  C   UNL A   1      49.182  26.450  24.690  1.00  0.00     0.022 A 
BRANCH  72  75
ATOM     75  S   UNL A   1      48.529  27.480  22.240  1.00  0.00     0.127 S 
ATOM     76  O   UNL A   1      49.773  28.245  22.218  1.00  0.00    -0.237 OA
ATOM     77  O   UNL A   1      48.649  26.097  21.776  1.00  0.00    -0.237 OA
ATOM     78  O   UNL A   1      47.349  28.177  21.748  1.00  0.00    -0.744 OA
ENDBRANCH  72  75
ENDBRANCH  44  68
BRANCH  56  79
ATOM     79  C   UNL A   1      44.985  33.314  29.270  1.00  0.00     0.023 A 
ATOM     80  C   UNL A   1      45.811  33.502  30.395  1.00  0.00     0.012 A 
ATOM     81  C   UNL A   1      44.896  34.329  28.297  1.00  0.00     0.148 A 
ATOM     82  C   UNL A   1      46.525  34.687  30.558  1.00  0.00     0.002 A 
ATOM     83  C   UNL A   1      45.652  35.486  28.439  1.00  0.00     0.091 A 
ATOM     84  F   UNL A   1      44.091  34.134  27.242  1.00  0.00    -0.205 F 
ATOM     85  C   UNL A   1      46.458  35.671  29.574  1.00  0.00     0.022 A 
BRANCH  83  86
ATOM     86  S   UNL A   1      45.718  36.761  27.175  1.00  0.00     0.127 S 
ATOM     87  O   UNL A   1      46.609  37.743  27.790  1.00  0.00    -0.237 OA
ATOM     88  O   UNL A   1      46.293  36.039  26.040  1.00  0.00    -0.237 OA
ATOM     89  O   UNL A   1      44.344  37.207  26.980  1.00  0.00    -0.744 OA
ENDBRANCH  83  86
ENDBRANCH  56  79
ENDBRANCH  30  31
ENDBRANCH  23  25
ENDBRANCH  22  23
ENDBRANCH   1  22
TORSDOF 15
ENDMDL
MODEL 2
REMARK VINA RESULT:     -12.6      1.317      1.538
REMARK SMILES Cc1cc(C)c2c(c1)C=C(C(=O)OCCOC(=O)c1ccc(-c3c4nc(c(-c5cccc(S(=O)(=O)[O-])c5F)c5ccc([nH]5)c(-c5cccc(S(=O)(=O)[O-])c5F)c5nc(c(-c6cccc(S(=O)(=O)[O-])c6F)c6ccc3[nH]6)C=C5)C=C4)cc1)[C@@H](C(F)(F)F)O2
REMARK SMILES IDX 15 1 14 2 13 3 11 4 12 5 10 6 1 7 2 8 3 9 8 10 4 11 7 12
REMARK SMILES IDX 5 13 6 14 9 15 87 16 82 17 83 18 84 19 85 20 86 21 16 22
REMARK SMILES IDX 17 23 18 24 19 25 20 26 81 27 21 28 80 29 22 30 23 31 24 32
REMARK SMILES IDX 74 33 25 34 79 35 73 36 75 37 26 38 78 39 72 40 71 41 27 43
REMARK SMILES IDX 59 44 39 45 58 46 40 47 43 48 57 49 76 50 41 51 42 52 56 54
REMARK SMILES IDX 77 55 44 56 28 57 29 58 37 59 30 60 32 61 38 62 31 63 33 64
REMARK SMILES IDX 34 65 35 66 36 67 60 68 61 69 69 70 62 71 64 72 70 73 63 74
REMARK SMILES IDX 65 75 66 76 67 77 68 78 45 79 46 80 54 81 47 82 49 83 55 84
REMARK SMILES IDX 48 85 50 86 51 87 52 88 53 89
REMARK H PARENT 75 42 43 53
REMARK Flexibility Score: inf
ROOT
ATOM      1  C   UNL A   1      36.530  20.404  25.028  1.00  0.00     0.275 C 
ENDROOT
BRANCH   1   2
ATOM      2  C   UNL A   1      35.188  21.119  24.869  1.00  0.00     0.275 C 
BRANCH   2   3
ATOM      3  O   UNL A   1      35.345  22.554  24.930  1.00  0.00    -0.459 OA
BRANCH   3   4
ATOM      4  C   UNL A   1      35.214  23.202  23.750  1.00  0.00     0.338 C 
ATOM      5  O   UNL A   1      35.808  22.952  22.713  1.00  0.00    -0.246 OA
BRANCH   4   6
ATOM      6  C   UNL A   1      34.226  24.289  23.859  1.00  0.00     0.087 C 
ATOM      7  C   UNL A   1      32.784  29.092  27.429  1.00  0.00     0.044 C 
ATOM      8  C   UNL A   1      32.603  28.114  26.304  1.00  0.00    -0.050 A 
ATOM      9  C   UNL A   1      31.399  28.049  25.591  1.00  0.00     0.010 A 
ATOM     10  C   UNL A   1      33.611  27.197  26.004  1.00  0.00     0.015 A 
ATOM     11  C   UNL A   1      31.209  27.099  24.570  1.00  0.00    -0.008 A 
ATOM     12  C   UNL A   1      33.425  26.237  25.001  1.00  0.00     0.018 A 
ATOM     13  C   UNL A   1      29.907  27.050  23.827  1.00  0.00     0.048 C 
ATOM     14  C   UNL A   1      32.236  26.191  24.277  1.00  0.00     0.130 A 
ATOM     15  C   UNL A   1      34.457  25.254  24.754  1.00  0.00     0.027 C 
ATOM     16  O   UNL A   1      32.016  25.289  23.268  1.00  0.00    -0.475 OA
ATOM     17  C   UNL A   1      32.945  24.184  23.089  1.00  0.00     0.316 C 
BRANCH  17  18
ATOM     18  C   UNL A   1      32.215  22.867  23.395  1.00  0.00     0.430 C 
ATOM     19  F   UNL A   1      32.293  22.558  24.714  1.00  0.00    -0.167 F 
ATOM     20  F   UNL A   1      30.894  22.949  23.102  1.00  0.00    -0.167 F 
ATOM     21  F   UNL A   1      32.720  21.821  22.705  1.00  0.00    -0.167 F 
ENDBRANCH  17  18
ENDBRANCH   4   6
ENDBRANCH   3   4
ENDBRANCH   2   3
ENDBRANCH   1   2
BRANCH   1  22
ATOM     22  O   UNL A   1      37.611  21.353  24.990  1.00  0.00    -0.458 OA
BRANCH  22  23
ATOM     23  C   UNL A   1      38.700  21.010  25.713  1.00  0.00     0.338 C 
ATOM     24  O   UNL A   1      39.249  19.922  25.753  1.00  0.00    -0.246 OA
BRANCH  23  25
ATOM     25  C   UNL A   1      39.232  22.188  26.414  1.00  0.00     0.060 A 
ATOM     26  C   UNL A   1      38.682  23.429  26.125  1.00  0.00     0.016 A 
ATOM     27  C   UNL A   1      40.390  22.101  27.182  1.00  0.00     0.016 A 
ATOM     28  C   UNL A   1      39.384  24.589  26.432  1.00  0.00     0.010 A 
ATOM     29  C   UNL A   1      41.000  23.277  27.641  1.00  0.00     0.010 A 
ATOM     30  C   UNL A   1      40.543  24.539  27.219  1.00  0.00    -0.014 A 
BRANCH  30  31
ATOM     31  C   UNL A   1      41.264  25.800  27.575  1.00  0.00     0.031 A 
ATOM     32  C   UNL A   1      40.592  26.862  28.414  1.00  0.00     0.074 A 
ATOM     33  C   UNL A   1      42.535  25.991  27.161  1.00  0.00     0.049 A 
ATOM     34  N   UNL A   1      41.006  28.071  28.700  1.00  0.00    -0.248 NA
ATOM     35  C   UNL A   1      39.279  26.535  28.996  1.00  0.00     0.031 C 
ATOM     36  C   UNL A   1      43.318  25.043  26.361  1.00  0.00     0.029 A 
ATOM     37  N   UNL A   1      43.403  27.039  27.356  1.00  0.00    -0.354 N 
ATOM     38  C   UNL A   1      39.980  28.668  29.426  1.00  0.00     0.074 A 
ATOM     39  C   UNL A   1      38.919  27.692  29.535  1.00  0.00     0.031 C 
ATOM     40  C   UNL A   1      44.557  25.520  26.188  1.00  0.00     0.029 A 
ATOM     41  C   UNL A   1      44.632  26.857  26.760  1.00  0.00     0.049 A 
ATOM     42  H   UNL A   1      43.169  27.843  27.874  1.00  0.00     0.167 HD
ATOM     43  C   UNL A   1      39.932  29.910  29.967  1.00  0.00     0.034 A 
ATOM     44  C   UNL A   1      45.691  27.682  26.642  1.00  0.00     0.034 A 
ATOM     45  C   UNL A   1      41.023  30.848  29.923  1.00  0.00     0.049 A 
ATOM     46  C   UNL A   1      45.604  29.059  27.235  1.00  0.00     0.074 A 
ATOM     47  C   UNL A   1      41.084  32.117  30.471  1.00  0.00     0.029 A 
ATOM     48  N   UNL A   1      42.246  30.617  29.312  1.00  0.00    -0.354 N 
ATOM     49  N   UNL A   1      44.637  29.591  27.941  1.00  0.00    -0.248 NA
ATOM     50  C   UNL A   1      46.753  29.951  27.019  1.00  0.00     0.031 C 
ATOM     51  C   UNL A   1      42.335  32.662  30.171  1.00  0.00     0.029 A 
ATOM     52  C   UNL A   1      43.065  31.723  29.463  1.00  0.00     0.049 A 
ATOM     53  H   UNL A   1      42.495  29.790  28.841  1.00  0.00     0.167 HD
ATOM     54  C   UNL A   1      45.064  30.872  28.268  1.00  0.00     0.074 A 
ATOM     55  C   UNL A   1      46.394  31.023  27.711  1.00  0.00     0.031 C 
ATOM     56  C   UNL A   1      44.406  31.841  28.948  1.00  0.00     0.034 A 
BRANCH  43  57
ATOM     57  C   UNL A   1      38.676  30.329  30.692  1.00  0.00     0.023 A 
ATOM     58  C   UNL A   1      38.563  30.112  32.080  1.00  0.00     0.012 A 
ATOM     59  C   UNL A   1      37.652  31.026  30.018  1.00  0.00     0.148 A 
ATOM     60  C   UNL A   1      37.442  30.557  32.780  1.00  0.00     0.002 A 
ATOM     61  C   UNL A   1      36.560  31.508  30.731  1.00  0.00     0.091 A 
ATOM     62  F   UNL A   1      37.769  31.212  28.695  1.00  0.00    -0.205 F 
ATOM     63  C   UNL A   1      36.448  31.265  32.109  1.00  0.00     0.022 A 
BRANCH  61  64
ATOM     64  S   UNL A   1      35.269  32.510  29.982  1.00  0.00     0.127 S 
ATOM     65  O   UNL A   1      34.363  32.715  31.111  1.00  0.00    -0.237 OA
ATOM     66  O   UNL A   1      36.008  33.703  29.569  1.00  0.00    -0.237 OA
ATOM     67  O   UNL A   1      34.726  31.717  28.887  1.00  0.00    -0.744 OA
ENDBRANCH  61  64
ENDBRANCH  43  57
BRANCH  44  68
ATOM     68  C   UNL A   1      46.926  27.213  25.946  1.00  0.00     0.023 A 
ATOM     69  C   UNL A   1      47.083  27.471  24.571  1.00  0.00     0.012 A 
ATOM     70  C   UNL A   1      47.969  26.572  26.645  1.00  0.00     0.148 A 
ATOM     71  C   UNL A   1      48.247  27.089  23.903  1.00  0.00     0.002 A 
ATOM     72  C   UNL A   1      49.153  26.255  25.988  1.00  0.00     0.091 A 
ATOM     73  F   UNL A   1      47.796  26.314  27.949  1.00  0.00    -0.205 F 
ATOM     74  C   UNL A   1      49.288  26.496  24.613  1.00  0.00     0.022 A 
BRANCH  72  75
ATOM     75  S   UNL A   1      50.600  25.634  26.855  1.00  0.00     0.127 S 
ATOM     76  O   UNL A   1      50.924  26.753  27.736  1.00  0.00    -0.237 OA
ATOM     77  O   UNL A   1      50.062  24.453  27.531  1.00  0.00    -0.237 OA
ATOM     78  O   UNL A   1      51.582  25.338  25.822  1.00  0.00    -0.744 OA
ENDBRANCH  72  75
ENDBRANCH  44  68
BRANCH  56  79
ATOM     79  C   UNL A   1      45.107  33.158  29.152  1.00  0.00     0.023 A 
ATOM     80  C   UNL A   1      46.000  33.310  30.229  1.00  0.00     0.012 A 
ATOM     81  C   UNL A   1      44.971  34.198  28.210  1.00  0.00     0.148 A 
ATOM     82  C   UNL A   1      46.735  34.485  30.378  1.00  0.00     0.002 A 
ATOM     83  C   UNL A   1      45.747  35.344  28.335  1.00  0.00     0.091 A 
ATOM     84  F   UNL A   1      44.102  34.037  27.201  1.00  0.00    -0.205 F 
ATOM     85  C   UNL A   1      46.620  35.494  29.424  1.00  0.00     0.022 A 
BRANCH  83  86
ATOM     86  S   UNL A   1      45.750  36.649  27.101  1.00  0.00     0.127 S 
ATOM     87  O   UNL A   1      46.551  37.680  27.760  1.00  0.00    -0.237 OA
ATOM     88  O   UNL A   1      46.407  35.998  25.967  1.00  0.00    -0.237 OA
ATOM     89  O   UNL A   1      44.353  36.998  26.877  1.00  0.00    -0.744 OA
ENDBRANCH  83  86
ENDBRANCH  56  79
ENDBRANCH  30  31
ENDBRANCH  23  25
ENDBRANCH  22  23
ENDBRANCH   1  22
TORSDOF 15
ENDMDL
MODEL 3
REMARK VINA RESULT:     -12.6      5.126     10.049
REMARK SMILES Cc1cc(C)c2c(c1)C=C(C(=O)OCCOC(=O)c1ccc(-c3c4nc(c(-c5cccc(S(=O)(=O)[O-])c5F)c5ccc([nH]5)c(-c5cccc(S(=O)(=O)[O-])c5F)c5nc(c(-c6cccc(S(=O)(=O)[O-])c6F)c6ccc3[nH]6)C=C5)C=C4)cc1)[C@@H](C(F)(F)F)O2
REMARK SMILES IDX 15 1 14 2 13 3 11 4 12 5 10 6 1 7 2 8 3 9 8 10 4 11 7 12
REMARK SMILES IDX 5 13 6 14 9 15 87 16 82 17 83 18 84 19 85 20 86 21 16 22
REMARK SMILES IDX 17 23 18 24 19 25 20 26 81 27 21 28 80 29 22 30 23 31 24 32
REMARK SMILES IDX 74 33 25 34 79 35 73 36 75 37 26 38 78 39 72 40 71 41 27 43
REMARK SMILES IDX 59 44 39 45 58 46 40 47 43 48 57 49 76 50 41 51 42 52 56 54
REMARK SMILES IDX 77 55 44 56 28 57 29 58 37 59 30 60 32 61 38 62 31 63 33 64
REMARK SMILES IDX 34 65 35 66 36 67 60 68 61 69 69 70 62 71 64 72 70 73 63 74
REMARK SMILES IDX 65 75 66 76 67 77 68 78 45 79 46 80 54 81 47 82 49 83 55 84
REMARK SMILES IDX 48 85 50 86 51 87 52 88 53 89
REMARK H PARENT 75 42 43 53
REMARK Flexibility Score: inf
ROOT
ATOM      1  C   UNL A   1      31.504  30.367  25.577  1.00  0.00     0.275 C 
ENDROOT
BRANCH   1   2
ATOM      2  C   UNL A   1      31.436  28.967  24.966  1.00  0.00     0.275 C 
BRANCH   2   3
ATOM      3  O   UNL A   1      32.317  28.050  25.651  1.00  0.00    -0.459 OA
BRANCH   3   4
ATOM      4  C   UNL A   1      31.701  27.084  26.370  1.00  0.00     0.338 C 
ATOM      5  O   UNL A   1      30.865  27.249  27.244  1.00  0.00    -0.246 OA
BRANCH   4   6
ATOM      6  C   UNL A   1      32.171  25.749  25.960  1.00  0.00     0.087 C 
ATOM      7  C   UNL A   1      37.364  22.677  24.743  1.00  0.00     0.044 C 
ATOM      8  C   UNL A   1      35.879  22.880  24.839  1.00  0.00    -0.050 A 
ATOM      9  C   UNL A   1      34.987  21.961  24.272  1.00  0.00     0.010 A 
ATOM     10  C   UNL A   1      35.368  24.037  25.429  1.00  0.00     0.015 A 
ATOM     11  C   UNL A   1      33.597  22.175  24.317  1.00  0.00    -0.008 A 
ATOM     12  C   UNL A   1      33.987  24.267  25.463  1.00  0.00     0.018 A 
ATOM     13  C   UNL A   1      32.665  21.175  23.698  1.00  0.00     0.048 C 
ATOM     14  C   UNL A   1      33.100  23.339  24.921  1.00  0.00     0.130 A 
ATOM     15  C   UNL A   1      33.483  25.504  26.019  1.00  0.00     0.027 C 
ATOM     16  O   UNL A   1      31.739  23.504  24.954  1.00  0.00    -0.475 OA
ATOM     17  C   UNL A   1      31.191  24.793  25.350  1.00  0.00     0.316 C 
BRANCH  17  18
ATOM     18  C   UNL A   1      30.475  25.420  24.144  1.00  0.00     0.430 C 
ATOM     19  F   UNL A   1      31.336  26.138  23.380  1.00  0.00    -0.167 F 
ATOM     20  F   UNL A   1      29.946  24.472  23.330  1.00  0.00    -0.167 F 
ATOM     21  F   UNL A   1      29.471  26.247  24.509  1.00  0.00    -0.167 F 
ENDBRANCH  17  18
ENDBRANCH   4   6
ENDBRANCH   3   4
ENDBRANCH   2   3
ENDBRANCH   1   2
BRANCH   1  22
ATOM     22  O   UNL A   1      32.243  30.339  26.811  1.00  0.00    -0.458 OA
BRANCH  22  23
ATOM     23  C   UNL A   1      32.899  31.482  27.113  1.00  0.00     0.338 C 
ATOM     24  O   UNL A   1      32.442  32.612  27.139  1.00  0.00    -0.246 OA
BRANCH  23  25
ATOM     25  C   UNL A   1      34.280  31.180  27.516  1.00  0.00     0.060 A 
ATOM     26  C   UNL A   1      34.619  29.856  27.758  1.00  0.00     0.016 A 
ATOM     27  C   UNL A   1      35.166  32.200  27.854  1.00  0.00     0.016 A 
ATOM     28  C   UNL A   1      35.750  29.555  28.511  1.00  0.00     0.010 A 
ATOM     29  C   UNL A   1      36.389  31.875  28.456  1.00  0.00     0.010 A 
ATOM     30  C   UNL A   1      36.672  30.554  28.851  1.00  0.00    -0.014 A 
BRANCH  30  31
ATOM     31  C   UNL A   1      37.903  30.207  29.626  1.00  0.00     0.031 A 
ATOM     32  C   UNL A   1      38.975  29.333  29.018  1.00  0.00     0.074 A 
ATOM     33  C   UNL A   1      38.074  30.691  30.875  1.00  0.00     0.049 A 
ATOM     34  N   UNL A   1      40.036  28.814  29.585  1.00  0.00    -0.248 NA
ATOM     35  C   UNL A   1      38.835  28.980  27.594  1.00  0.00     0.031 C 
ATOM     36  C   UNL A   1      37.132  31.563  31.583  1.00  0.00     0.029 A 
ATOM     37  N   UNL A   1      39.100  30.529  31.775  1.00  0.00    -0.354 N 
ATOM     38  C   UNL A   1      40.641  28.020  28.615  1.00  0.00     0.074 A 
ATOM     39  C   UNL A   1      39.830  28.121  27.423  1.00  0.00     0.031 C 
ATOM     40  C   UNL A   1      37.646  31.906  32.771  1.00  0.00     0.029 A 
ATOM     41  C   UNL A   1      38.900  31.191  32.967  1.00  0.00     0.049 A 
ATOM     42  H   UNL A   1      39.903  29.991  31.586  1.00  0.00     0.167 HD
ATOM     43  C   UNL A   1      41.779  27.288  28.704  1.00  0.00     0.034 A 
ATOM     44  C   UNL A   1      39.612  31.195  34.111  1.00  0.00     0.034 A 
ATOM     45  C   UNL A   1      42.624  27.257  29.869  1.00  0.00     0.049 A 
ATOM     46  C   UNL A   1      40.858  30.361  34.188  1.00  0.00     0.074 A 
ATOM     47  C   UNL A   1      43.815  26.573  30.045  1.00  0.00     0.029 A 
ATOM     48  N   UNL A   1      42.381  27.946  31.047  1.00  0.00    -0.354 N 
ATOM     49  N   UNL A   1      41.427  29.643  33.252  1.00  0.00    -0.248 NA
ATOM     50  C   UNL A   1      41.564  30.337  35.478  1.00  0.00     0.031 C 
ATOM     51  C   UNL A   1      44.279  26.830  31.337  1.00  0.00     0.029 A 
ATOM     52  C   UNL A   1      43.395  27.697  31.957  1.00  0.00     0.049 A 
ATOM     53  H   UNL A   1      41.603  28.525  31.213  1.00  0.00     0.167 HD
ATOM     54  C   UNL A   1      42.565  29.095  33.829  1.00  0.00     0.074 A 
ATOM     55  C   UNL A   1      42.623  29.592  35.190  1.00  0.00     0.031 C 
ATOM     56  C   UNL A   1      43.466  28.240  33.290  1.00  0.00     0.034 A 
BRANCH  43  57
ATOM     57  C   UNL A   1      42.211  26.485  27.502  1.00  0.00     0.023 A 
ATOM     58  C   UNL A   1      43.013  27.084  26.510  1.00  0.00     0.012 A 
ATOM     59  C   UNL A   1      41.907  25.111  27.405  1.00  0.00     0.148 A 
ATOM     60  C   UNL A   1      43.483  26.339  25.429  1.00  0.00     0.002 A 
ATOM     61  C   UNL A   1      42.419  24.363  26.349  1.00  0.00     0.091 A 
ATOM     62  F   UNL A   1      41.132  24.560  28.350  1.00  0.00    -0.205 F 
ATOM     63  C   UNL A   1      43.197  24.978  25.355  1.00  0.00     0.022 A 
BRANCH  61  64
ATOM     64  S   UNL A   1      42.186  22.587  26.209  1.00  0.00     0.127 S 
ATOM     65  O   UNL A   1      40.728  22.480  26.209  1.00  0.00    -0.237 OA
ATOM     66  O   UNL A   1      42.819  22.295  24.923  1.00  0.00    -0.237 OA
ATOM     67  O   UNL A   1      42.851  21.999  27.365  1.00  0.00    -0.744 OA
ENDBRANCH  61  64
ENDBRANCH  43  57
BRANCH  44  68
ATOM     68  C   UNL A   1      39.165  32.032  35.263  1.00  0.00     0.023 A 
ATOM     69  C   UNL A   1      38.315  31.471  36.235  1.00  0.00     0.012 A 
ATOM     70  C   UNL A   1      39.624  33.354  35.438  1.00  0.00     0.148 A 
ATOM     71  C   UNL A   1      37.919  32.212  37.349  1.00  0.00     0.002 A 
ATOM     72  C   UNL A   1      39.281  34.064  36.583  1.00  0.00     0.091 A 
ATOM     73  F   UNL A   1      40.415  33.881  34.493  1.00  0.00    -0.205 F 
ATOM     74  C   UNL A   1      38.414  33.501  37.532  1.00  0.00     0.022 A 
BRANCH  72  75
ATOM     75  S   UNL A   1      39.995  35.665  36.976  1.00  0.00     0.127 S 
ATOM     76  O   UNL A   1      39.348  35.978  38.247  1.00  0.00    -0.237 OA
ATOM     77  O   UNL A   1      41.420  35.343  37.071  1.00  0.00    -0.237 OA
ATOM     78  O   UNL A   1      39.651  36.535  35.860  1.00  0.00    -0.744 OA
ENDBRANCH  72  75
ENDBRANCH  44  68
BRANCH  56  79
ATOM     79  C   UNL A   1      44.613  27.787  34.155  1.00  0.00     0.023 A 
ATOM     80  C   UNL A   1      45.785  28.564  34.218  1.00  0.00     0.012 A 
ATOM     81  C   UNL A   1      44.481  26.661  34.993  1.00  0.00     0.148 A 
ATOM     82  C   UNL A   1      46.817  28.218  35.089  1.00  0.00     0.002 A 
ATOM     83  C   UNL A   1      45.491  26.354  35.896  1.00  0.00     0.091 A 
ATOM     84  F   UNL A   1      43.362  25.927  34.904  1.00  0.00    -0.205 F 
ATOM     85  C   UNL A   1      46.664  27.124  35.937  1.00  0.00     0.022 A 
BRANCH  83  86
ATOM     86  S   UNL A   1      45.340  25.032  37.103  1.00  0.00     0.127 S 
ATOM     87  O   UNL A   1      44.148  25.441  37.844  1.00  0.00    -0.237 OA
ATOM     88  O   UNL A   1      45.157  23.857  36.251  1.00  0.00    -0.237 OA
ATOM     89  O   UNL A   1      46.579  25.042  37.870  1.00  0.00    -0.744 OA
ENDBRANCH  83  86
ENDBRANCH  56  79
ENDBRANCH  30  31
ENDBRANCH  23  25
ENDBRANCH  22  23
ENDBRANCH   1  22
TORSDOF 15
ENDMDL
