MODEL 1
REMARK VINA RESULT:     -11.5      0.000      0.000
REMARK SMILES O=C(CN(Cc1ccccc1Cl)S(=O)(=O)c1ccc(Cl)cc1)OCCOC(=O)c1ccc(-c2c3nc(c(-c4cccc(S(=O)(=O)[O-])c4F)c4ccc([nH]4)c(-c4cccc(S(=O)(=O)[O-])c4F)c4nc(c(-c5cccc(S(=O)(=O)[O-])c5F)c5ccc2[nH]5)C=C4)C=C3)cc1
REMARK SMILES IDX 24 1 23 2 2 3 1 4 3 5 4 6 5 7 6 8 7 9 11 10 8 11 10 12 12 13
REMARK SMILES IDX 9 14 13 15 14 16 15 17 16 18 17 19 22 20 18 21 21 22 19 23
REMARK SMILES IDX 20 24 25 25 26 26 27 27 28 28 29 29 30 30 91 31 31 32 90 33
REMARK SMILES IDX 32 34 33 35 34 36 84 37 35 38 89 39 83 40 85 41 36 42 88 43
REMARK SMILES IDX 82 44 81 45 37 47 69 48 49 49 68 50 50 51 53 52 67 53 86 54
REMARK SMILES IDX 51 55 52 56 66 58 87 59 54 60 38 61 39 62 47 63 40 64 42 65
REMARK SMILES IDX 48 66 41 67 43 68 44 69 45 70 46 71 70 72 71 73 79 74 72 75
REMARK SMILES IDX 74 76 80 77 73 78 75 79 76 80 77 81 78 82 55 83 56 84 64 85
REMARK SMILES IDX 57 86 59 87 65 88 58 89 60 90 61 91 62 92 63 93
REMARK H PARENT 85 46 53 57
REMARK Flexibility Score: inf
ROOT
ATOM      1  C   UNL A   1      37.494  21.049  24.982  1.00  0.00     0.274 C 
ENDROOT
BRANCH   1   2
ATOM      2  O   UNL A   1      36.506  21.938  25.536  1.00  0.00    -0.461 OA
BRANCH   2   3
ATOM      3  C   UNL A   1      36.387  23.255  25.237  1.00  0.00     0.321 C 
ATOM      4  O   UNL A   1      36.968  24.081  25.939  1.00  0.00    -0.251 OA
BRANCH   3   5
ATOM      5  C   UNL A   1      35.443  23.664  24.134  1.00  0.00     0.225 C 
BRANCH   5   6
ATOM      6  N   UNL A   1      33.996  23.348  24.210  1.00  0.00    -0.182 NA
BRANCH   6   7
ATOM      7  C   UNL A   1      33.326  23.643  25.502  1.00  0.00     0.140 C 
BRANCH   7   8
ATOM      8  C   UNL A   1      32.825  24.986  25.997  1.00  0.00    -0.014 A 
ATOM      9  C   UNL A   1      33.788  26.026  26.029  1.00  0.00     0.006 A 
ATOM     10  C   UNL A   1      31.509  25.375  26.233  1.00  0.00     0.045 A 
ATOM     11  C   UNL A   1      33.438  27.372  26.188  1.00  0.00     0.000 A 
ATOM     12  C   UNL A   1      31.160  26.730  26.293  1.00  0.00     0.021 A 
ATOM     13  Cl  UNL A   1      30.253  24.279  26.585  1.00  0.00    -0.084 Cl
ATOM     14  C   UNL A   1      32.110  27.731  26.265  1.00  0.00     0.002 A 
ENDBRANCH   7   8
ENDBRANCH   6   7
BRANCH   6  15
ATOM     15  S   UNL A   1      33.142  23.406  22.752  1.00  0.00     0.243 S 
ATOM     16  O   UNL A   1      34.047  23.201  21.645  1.00  0.00    -0.207 OA
ATOM     17  O   UNL A   1      31.962  22.584  22.905  1.00  0.00    -0.207 OA
BRANCH  15  18
ATOM     18  C   UNL A   1      32.556  25.082  22.664  1.00  0.00     0.082 A 
ATOM     19  C   UNL A   1      31.183  25.324  22.773  1.00  0.00     0.023 A 
ATOM     20  C   UNL A   1      33.463  26.132  22.486  1.00  0.00     0.023 A 
ATOM     21  C   UNL A   1      30.716  26.637  22.730  1.00  0.00     0.022 A 
ATOM     22  C   UNL A   1      32.988  27.445  22.449  1.00  0.00     0.022 A 
ATOM     23  C   UNL A   1      31.619  27.690  22.571  1.00  0.00     0.041 A 
ATOM     24  Cl  UNL A   1      31.026  29.304  22.518  1.00  0.00    -0.084 Cl
ENDBRANCH  15  18
ENDBRANCH   6  15
ENDBRANCH   5   6
ENDBRANCH   3   5
ENDBRANCH   2   3
ENDBRANCH   1   2
BRANCH   1  25
ATOM     25  C   UNL A   1      38.836  21.135  25.723  1.00  0.00     0.275 C 
BRANCH  25  26
ATOM     26  O   UNL A   1      39.442  19.840  25.949  1.00  0.00    -0.458 OA
BRANCH  26  27
ATOM     27  C   UNL A   1      40.796  19.809  26.107  1.00  0.00     0.338 C 
ATOM     28  O   UNL A   1      41.514  18.860  25.837  1.00  0.00    -0.246 OA
BRANCH  27  29
ATOM     29  C   UNL A   1      41.323  21.129  26.567  1.00  0.00     0.060 A 
ATOM     30  C   UNL A   1      41.874  22.011  25.620  1.00  0.00     0.016 A 
ATOM     31  C   UNL A   1      41.292  21.518  27.907  1.00  0.00     0.016 A 
ATOM     32  C   UNL A   1      42.345  23.287  25.996  1.00  0.00     0.010 A 
ATOM     33  C   UNL A   1      41.778  22.784  28.280  1.00  0.00     0.010 A 
ATOM     34  C   UNL A   1      42.289  23.699  27.331  1.00  0.00    -0.014 A 
BRANCH  34  35
ATOM     35  C   UNL A   1      42.779  25.032  27.817  1.00  0.00     0.031 A 
ATOM     36  C   UNL A   1      41.775  26.105  28.127  1.00  0.00     0.074 A 
ATOM     37  C   UNL A   1      44.087  25.379  27.827  1.00  0.00     0.049 A 
ATOM     38  N   UNL A   1      41.994  27.364  28.400  1.00  0.00    -0.248 NA
ATOM     39  C   UNL A   1      40.362  25.704  28.198  1.00  0.00     0.031 C 
ATOM     40  C   UNL A   1      45.228  24.486  27.690  1.00  0.00     0.029 A 
ATOM     41  N   UNL A   1      44.668  26.631  27.786  1.00  0.00    -0.354 N 
ATOM     42  C   UNL A   1      40.766  27.886  28.768  1.00  0.00     0.074 A 
ATOM     43  C   UNL A   1      39.785  26.838  28.575  1.00  0.00     0.031 C 
ATOM     44  C   UNL A   1      46.302  25.191  27.287  1.00  0.00     0.029 A 
ATOM     45  C   UNL A   1      45.949  26.604  27.263  1.00  0.00     0.049 A 
ATOM     46  H   UNL A   1      44.221  27.452  28.095  1.00  0.00     0.167 HD
ATOM     47  C   UNL A   1      40.502  29.100  29.303  1.00  0.00     0.034 A 
ATOM     48  C   UNL A   1      46.733  27.600  26.803  1.00  0.00     0.034 A 
ATOM     49  C   UNL A   1      41.476  30.143  29.470  1.00  0.00     0.049 A 
ATOM     50  C   UNL A   1      46.347  29.017  27.129  1.00  0.00     0.074 A 
ATOM     51  C   UNL A   1      41.339  31.360  30.114  1.00  0.00     0.029 A 
ATOM     52  N   UNL A   1      42.755  30.115  28.942  1.00  0.00    -0.354 N 
ATOM     53  N   UNL A   1      45.267  29.449  27.729  1.00  0.00    -0.248 NA
ATOM     54  C   UNL A   1      47.340  30.067  26.850  1.00  0.00     0.031 C 
ATOM     55  C   UNL A   1      42.521  32.090  29.928  1.00  0.00     0.029 A 
ATOM     56  C   UNL A   1      43.399  31.315  29.189  1.00  0.00     0.049 A 
ATOM     57  H   UNL A   1      43.149  29.353  28.459  1.00  0.00     0.167 HD
ATOM     58  C   UNL A   1      45.502  30.789  28.012  1.00  0.00     0.074 A 
ATOM     59  C   UNL A   1      46.802  31.113  27.466  1.00  0.00     0.031 C 
ATOM     60  C   UNL A   1      44.715  31.646  28.705  1.00  0.00     0.034 A 
BRANCH  47  61
ATOM     61  C   UNL A   1      39.118  29.322  29.833  1.00  0.00     0.023 A 
ATOM     62  C   UNL A   1      38.804  28.856  31.127  1.00  0.00     0.012 A 
ATOM     63  C   UNL A   1      38.154  30.023  29.091  1.00  0.00     0.148 A 
ATOM     64  C   UNL A   1      37.538  29.060  31.665  1.00  0.00     0.002 A 
ATOM     65  C   UNL A   1      36.901  30.250  29.646  1.00  0.00     0.091 A 
ATOM     66  F   UNL A   1      38.477  30.442  27.859  1.00  0.00    -0.205 F 
ATOM     67  C   UNL A   1      36.589  29.763  30.928  1.00  0.00     0.022 A 
BRANCH  65  68
ATOM     68  S   UNL A   1      35.619  31.175  28.800  1.00  0.00     0.127 S 
ATOM     69  O   UNL A   1      34.972  30.127  28.010  1.00  0.00    -0.237 OA
ATOM     70  O   UNL A   1      34.820  31.679  29.917  1.00  0.00    -0.237 OA
ATOM     71  O   UNL A   1      36.304  32.198  28.023  1.00  0.00    -0.744 OA
ENDBRANCH  65  68
ENDBRANCH  47  61
BRANCH  48  72
ATOM     72  C   UNL A   1      48.011  27.332  26.083  1.00  0.00     0.023 A 
ATOM     73  C   UNL A   1      49.191  27.110  26.815  1.00  0.00     0.012 A 
ATOM     74  C   UNL A   1      48.078  27.401  24.675  1.00  0.00     0.148 A 
ATOM     75  C   UNL A   1      50.422  27.001  26.163  1.00  0.00     0.002 A 
ATOM     76  C   UNL A   1      49.303  27.256  24.029  1.00  0.00     0.091 A 
ATOM     77  F   UNL A   1      46.952  27.669  24.000  1.00  0.00    -0.205 F 
ATOM     78  C   UNL A   1      50.478  27.071  24.773  1.00  0.00     0.022 A 
BRANCH  76  79
ATOM     79  S   UNL A   1      49.478  27.289  22.239  1.00  0.00     0.127 S 
ATOM     80  O   UNL A   1      50.915  27.088  22.073  1.00  0.00    -0.237 OA
ATOM     81  O   UNL A   1      48.646  26.156  21.831  1.00  0.00    -0.237 OA
ATOM     82  O   UNL A   1      48.977  28.589  21.811  1.00  0.00    -0.744 OA
ENDBRANCH  76  79
ENDBRANCH  48  72
BRANCH  60  83
ATOM     83  C   UNL A   1      45.248  33.024  28.992  1.00  0.00     0.023 A 
ATOM     84  C   UNL A   1      46.020  33.256  30.147  1.00  0.00     0.012 A 
ATOM     85  C   UNL A   1      45.051  34.072  28.070  1.00  0.00     0.148 A 
ATOM     86  C   UNL A   1      46.572  34.514  30.388  1.00  0.00     0.002 A 
ATOM     87  C   UNL A   1      45.648  35.307  28.289  1.00  0.00     0.091 A 
ATOM     88  F   UNL A   1      44.289  33.839  26.990  1.00  0.00    -0.205 F 
ATOM     89  C   UNL A   1      46.400  35.532  29.454  1.00  0.00     0.022 A 
BRANCH  87  90
ATOM     90  S   UNL A   1      45.571  36.645  27.093  1.00  0.00     0.127 S 
ATOM     91  O   UNL A   1      46.347  37.688  27.761  1.00  0.00    -0.237 OA
ATOM     92  O   UNL A   1      46.221  36.053  25.925  1.00  0.00    -0.237 OA
ATOM     93  O   UNL A   1      44.156  36.941  26.913  1.00  0.00    -0.744 OA
ENDBRANCH  87  90
ENDBRANCH  60  83
ENDBRANCH  34  35
ENDBRANCH  27  29
ENDBRANCH  26  27
ENDBRANCH  25  26
ENDBRANCH   1  25
TORSDOF 19
ENDMDL
MODEL 2
REMARK VINA RESULT:     -11.4      2.019      2.942
REMARK SMILES O=C(CN(Cc1ccccc1Cl)S(=O)(=O)c1ccc(Cl)cc1)OCCOC(=O)c1ccc(-c2c3nc(c(-c4cccc(S(=O)(=O)[O-])c4F)c4ccc([nH]4)c(-c4cccc(S(=O)(=O)[O-])c4F)c4nc(c(-c5cccc(S(=O)(=O)[O-])c5F)c5ccc2[nH]5)C=C4)C=C3)cc1
REMARK SMILES IDX 24 1 23 2 2 3 1 4 3 5 4 6 5 7 6 8 7 9 11 10 8 11 10 12 12 13
REMARK SMILES IDX 9 14 13 15 14 16 15 17 16 18 17 19 22 20 18 21 21 22 19 23
REMARK SMILES IDX 20 24 25 25 26 26 27 27 28 28 29 29 30 30 91 31 31 32 90 33
REMARK SMILES IDX 32 34 33 35 34 36 84 37 35 38 89 39 83 40 85 41 36 42 88 43
REMARK SMILES IDX 82 44 81 45 37 47 69 48 49 49 68 50 50 51 53 52 67 53 86 54
REMARK SMILES IDX 51 55 52 56 66 58 87 59 54 60 38 61 39 62 47 63 40 64 42 65
REMARK SMILES IDX 48 66 41 67 43 68 44 69 45 70 46 71 70 72 71 73 79 74 72 75
REMARK SMILES IDX 74 76 80 77 73 78 75 79 76 80 77 81 78 82 55 83 56 84 64 85
REMARK SMILES IDX 57 86 59 87 65 88 58 89 60 90 61 91 62 92 63 93
REMARK H PARENT 85 46 53 57
REMARK Flexibility Score: inf
ROOT
ATOM      1  C   UNL A   1      35.269  20.178  24.741  1.00  0.00     0.274 C 
ENDROOT
BRANCH   1   2
ATOM      2  O   UNL A   1      33.870  20.509  24.665  1.00  0.00    -0.461 OA
BRANCH   2   3
ATOM      3  C   UNL A   1      33.373  21.747  24.424  1.00  0.00     0.321 C 
ATOM      4  O   UNL A   1      34.104  22.594  23.915  1.00  0.00    -0.251 OA
BRANCH   3   5
ATOM      5  C   UNL A   1      31.983  22.076  24.910  1.00  0.00     0.225 C 
BRANCH   5   6
ATOM      6  N   UNL A   1      31.507  23.479  24.973  1.00  0.00    -0.182 NA
BRANCH   6   7
ATOM      7  C   UNL A   1      30.711  23.955  23.813  1.00  0.00     0.140 C 
BRANCH   7   8
ATOM      8  C   UNL A   1      30.594  25.377  23.295  1.00  0.00    -0.014 A 
ATOM      9  C   UNL A   1      29.415  26.070  23.670  1.00  0.00     0.006 A 
ATOM     10  C   UNL A   1      31.574  26.143  22.672  1.00  0.00     0.045 A 
ATOM     11  C   UNL A   1      29.277  27.455  23.518  1.00  0.00     0.000 A 
ATOM     12  C   UNL A   1      31.465  27.539  22.615  1.00  0.00     0.021 A 
ATOM     13  Cl  UNL A   1      32.900  25.478  21.836  1.00  0.00    -0.084 Cl
ATOM     14  C   UNL A   1      30.331  28.202  23.038  1.00  0.00     0.002 A 
ENDBRANCH   7   8
ENDBRANCH   6   7
BRANCH   6  15
ATOM     15  S   UNL A   1      31.261  24.116  26.519  1.00  0.00     0.243 S 
ATOM     16  O   UNL A   1      29.845  24.227  26.785  1.00  0.00    -0.207 OA
ATOM     17  O   UNL A   1      32.130  23.401  27.428  1.00  0.00    -0.207 OA
BRANCH  15  18
ATOM     18  C   UNL A   1      31.919  25.764  26.415  1.00  0.00     0.082 A 
ATOM     19  C   UNL A   1      33.227  25.941  25.953  1.00  0.00     0.023 A 
ATOM     20  C   UNL A   1      31.132  26.856  26.792  1.00  0.00     0.023 A 
ATOM     21  C   UNL A   1      33.744  27.231  25.844  1.00  0.00     0.022 A 
ATOM     22  C   UNL A   1      31.654  28.146  26.674  1.00  0.00     0.022 A 
ATOM     23  C   UNL A   1      32.956  28.326  26.203  1.00  0.00     0.041 A 
ATOM     24  Cl  UNL A   1      33.608  29.912  26.063  1.00  0.00    -0.084 Cl
ENDBRANCH  15  18
ENDBRANCH   6  15
ENDBRANCH   5   6
ENDBRANCH   3   5
ENDBRANCH   2   3
ENDBRANCH   1   2
BRANCH   1  25
ATOM     25  C   UNL A   1      36.039  21.125  25.674  1.00  0.00     0.275 C 
BRANCH  25  26
ATOM     26  O   UNL A   1      37.254  21.641  25.078  1.00  0.00    -0.458 OA
BRANCH  26  27
ATOM     27  C   UNL A   1      38.433  21.273  25.655  1.00  0.00     0.338 C 
ATOM     28  O   UNL A   1      38.914  20.152  25.620  1.00  0.00    -0.246 OA
BRANCH  27  29
ATOM     29  C   UNL A   1      39.131  22.444  26.266  1.00  0.00     0.060 A 
ATOM     30  C   UNL A   1      40.193  22.214  27.160  1.00  0.00     0.016 A 
ATOM     31  C   UNL A   1      38.765  23.761  25.985  1.00  0.00     0.016 A 
ATOM     32  C   UNL A   1      40.914  23.285  27.730  1.00  0.00     0.010 A 
ATOM     33  C   UNL A   1      39.475  24.825  26.568  1.00  0.00     0.010 A 
ATOM     34  C   UNL A   1      40.576  24.608  27.430  1.00  0.00    -0.014 A 
BRANCH  34  35
ATOM     35  C   UNL A   1      41.281  25.803  28.001  1.00  0.00     0.031 A 
ATOM     36  C   UNL A   1      40.466  26.986  28.437  1.00  0.00     0.074 A 
ATOM     37  C   UNL A   1      42.627  25.943  27.985  1.00  0.00     0.049 A 
ATOM     38  N   UNL A   1      40.887  28.169  28.802  1.00  0.00    -0.248 NA
ATOM     39  C   UNL A   1      39.011  26.802  28.534  1.00  0.00     0.031 C 
ATOM     40  C   UNL A   1      43.611  24.901  27.731  1.00  0.00     0.029 A 
ATOM     41  N   UNL A   1      43.396  27.090  28.021  1.00  0.00    -0.354 N 
ATOM     42  C   UNL A   1      39.766  28.839  29.260  1.00  0.00     0.074 A 
ATOM     43  C   UNL A   1      38.629  27.975  29.024  1.00  0.00     0.031 C 
ATOM     44  C   UNL A   1      44.770  25.465  27.341  1.00  0.00     0.029 A 
ATOM     45  C   UNL A   1      44.641  26.913  27.446  1.00  0.00     0.049 A 
ATOM     46  H   UNL A   1      43.091  27.940  28.413  1.00  0.00     0.167 HD
ATOM     47  C   UNL A   1      39.711  30.030  29.902  1.00  0.00     0.034 A 
ATOM     48  C   UNL A   1      45.558  27.812  27.035  1.00  0.00     0.034 A 
ATOM     49  C   UNL A   1      40.840  30.893  30.112  1.00  0.00     0.049 A 
ATOM     50  C   UNL A   1      45.407  29.238  27.490  1.00  0.00     0.074 A 
ATOM     51  C   UNL A   1      40.913  32.056  30.857  1.00  0.00     0.029 A 
ATOM     52  N   UNL A   1      42.083  30.715  29.531  1.00  0.00    -0.354 N 
ATOM     53  N   UNL A   1      44.426  29.778  28.166  1.00  0.00    -0.248 NA
ATOM     54  C   UNL A   1      46.543  30.144  27.255  1.00  0.00     0.031 C 
ATOM     55  C   UNL A   1      42.188  32.609  30.681  1.00  0.00     0.029 A 
ATOM     56  C   UNL A   1      42.914  31.776  29.847  1.00  0.00     0.049 A 
ATOM     57  H   UNL A   1      42.339  29.946  28.972  1.00  0.00     0.167 HD
ATOM     58  C   UNL A   1      44.874  31.036  28.546  1.00  0.00     0.074 A 
ATOM     59  C   UNL A   1      46.193  31.203  27.975  1.00  0.00     0.031 C 
ATOM     60  C   UNL A   1      44.251  31.941  29.337  1.00  0.00     0.034 A 
BRANCH  47  61
ATOM     61  C   UNL A   1      38.394  30.414  30.504  1.00  0.00     0.023 A 
ATOM     62  C   UNL A   1      38.075  29.944  31.795  1.00  0.00     0.012 A 
ATOM     63  C   UNL A   1      37.503  31.267  29.832  1.00  0.00     0.148 A 
ATOM     64  C   UNL A   1      36.873  30.296  32.400  1.00  0.00     0.002 A 
ATOM     65  C   UNL A   1      36.318  31.638  30.453  1.00  0.00     0.091 A 
ATOM     66  F   UNL A   1      37.827  31.687  28.601  1.00  0.00    -0.205 F 
ATOM     67  C   UNL A   1      35.997  31.148  31.732  1.00  0.00     0.022 A 
BRANCH  65  68
ATOM     68  S   UNL A   1      35.138  32.760  29.701  1.00  0.00     0.127 S 
ATOM     69  O   UNL A   1      34.477  31.886  28.732  1.00  0.00    -0.237 OA
ATOM     70  O   UNL A   1      34.309  33.142  30.843  1.00  0.00    -0.237 OA
ATOM     71  O   UNL A   1      35.922  33.842  29.120  1.00  0.00    -0.744 OA
ENDBRANCH  65  68
ENDBRANCH  47  61
BRANCH  48  72
ATOM     72  C   UNL A   1      46.758  27.414  26.244  1.00  0.00     0.023 A 
ATOM     73  C   UNL A   1      46.728  27.496  24.841  1.00  0.00     0.012 A 
ATOM     74  C   UNL A   1      47.890  26.856  26.876  1.00  0.00     0.148 A 
ATOM     75  C   UNL A   1      47.784  26.994  24.077  1.00  0.00     0.002 A 
ATOM     76  C   UNL A   1      48.955  26.390  26.110  1.00  0.00     0.091 A 
ATOM     77  F   UNL A   1      47.876  26.736  28.210  1.00  0.00    -0.205 F 
ATOM     78  C   UNL A   1      48.896  26.444  24.709  1.00  0.00     0.022 A 
BRANCH  76  79
ATOM     79  S   UNL A   1      50.453  25.701  26.829  1.00  0.00     0.127 S 
ATOM     80  O   UNL A   1      49.956  24.473  27.443  1.00  0.00    -0.237 OA
ATOM     81  O   UNL A   1      51.294  25.502  25.647  1.00  0.00    -0.237 OA
ATOM     82  O   UNL A   1      50.950  26.707  27.758  1.00  0.00    -0.744 OA
ENDBRANCH  76  79
ENDBRANCH  48  72
BRANCH  60  83
ATOM     83  C   UNL A   1      45.001  33.192  29.713  1.00  0.00     0.023 A 
ATOM     84  C   UNL A   1      45.870  33.188  30.820  1.00  0.00     0.012 A 
ATOM     85  C   UNL A   1      44.904  34.349  28.912  1.00  0.00     0.148 A 
ATOM     86  C   UNL A   1      46.617  34.322  31.137  1.00  0.00     0.002 A 
ATOM     87  C   UNL A   1      45.691  35.456  29.201  1.00  0.00     0.091 A 
ATOM     88  F   UNL A   1      44.049  34.342  27.878  1.00  0.00    -0.205 F 
ATOM     89  C   UNL A   1      46.540  35.448  30.320  1.00  0.00     0.022 A 
BRANCH  87  90
ATOM     90  S   UNL A   1      45.738  36.911  28.148  1.00  0.00     0.127 S 
ATOM     91  O   UNL A   1      46.058  36.327  26.846  1.00  0.00    -0.237 OA
ATOM     92  O   UNL A   1      44.374  37.424  28.269  1.00  0.00    -0.237 OA
ATOM     93  O   UNL A   1      46.763  37.781  28.710  1.00  0.00    -0.744 OA
ENDBRANCH  87  90
ENDBRANCH  60  83
ENDBRANCH  34  35
ENDBRANCH  27  29
ENDBRANCH  26  27
ENDBRANCH  25  26
ENDBRANCH   1  25
TORSDOF 19
ENDMDL
MODEL 3
REMARK VINA RESULT:     -11.1      5.600     10.739
REMARK SMILES O=C(CN(Cc1ccccc1Cl)S(=O)(=O)c1ccc(Cl)cc1)OCCOC(=O)c1ccc(-c2c3nc(c(-c4cccc(S(=O)(=O)[O-])c4F)c4ccc([nH]4)c(-c4cccc(S(=O)(=O)[O-])c4F)c4nc(c(-c5cccc(S(=O)(=O)[O-])c5F)c5ccc2[nH]5)C=C4)C=C3)cc1
REMARK SMILES IDX 24 1 23 2 2 3 1 4 3 5 4 6 5 7 6 8 7 9 11 10 8 11 10 12 12 13
REMARK SMILES IDX 9 14 13 15 14 16 15 17 16 18 17 19 22 20 18 21 21 22 19 23
REMARK SMILES IDX 20 24 25 25 26 26 27 27 28 28 29 29 30 30 91 31 31 32 90 33
REMARK SMILES IDX 32 34 33 35 34 36 84 37 35 38 89 39 83 40 85 41 36 42 88 43
REMARK SMILES IDX 82 44 81 45 37 47 69 48 49 49 68 50 50 51 53 52 67 53 86 54
REMARK SMILES IDX 51 55 52 56 66 58 87 59 54 60 38 61 39 62 47 63 40 64 42 65
REMARK SMILES IDX 48 66 41 67 43 68 44 69 45 70 46 71 70 72 71 73 79 74 72 75
REMARK SMILES IDX 74 76 80 77 73 78 75 79 76 80 77 81 78 82 55 83 56 84 64 85
REMARK SMILES IDX 57 86 59 87 65 88 58 89 60 90 61 91 62 92 63 93
REMARK H PARENT 85 46 53 57
REMARK Flexibility Score: inf
ROOT
ATOM      1  C   UNL A   1      31.946  30.464  26.964  1.00  0.00     0.274 C 
ENDROOT
BRANCH   1   2
ATOM      2  O   UNL A   1      32.609  29.207  26.733  1.00  0.00    -0.461 OA
BRANCH   2   3
ATOM      3  C   UNL A   1      31.992  28.003  26.658  1.00  0.00     0.321 C 
ATOM      4  O   UNL A   1      31.494  27.523  27.674  1.00  0.00    -0.251 OA
BRANCH   3   5
ATOM      5  C   UNL A   1      32.052  27.237  25.359  1.00  0.00     0.225 C 
BRANCH   5   6
ATOM      6  N   UNL A   1      32.246  25.767  25.345  1.00  0.00    -0.182 NA
BRANCH   6   7
ATOM      7  C   UNL A   1      33.519  25.267  25.925  1.00  0.00     0.140 C 
BRANCH   7   8
ATOM      8  C   UNL A   1      34.513  24.316  25.285  1.00  0.00    -0.014 A 
ATOM      9  C   UNL A   1      35.135  23.396  26.166  1.00  0.00     0.006 A 
ATOM     10  C   UNL A   1      34.743  24.104  23.929  1.00  0.00     0.045 A 
ATOM     11  C   UNL A   1      35.853  22.284  25.708  1.00  0.00     0.000 A 
ATOM     12  C   UNL A   1      35.378  22.939  23.482  1.00  0.00     0.021 A 
ATOM     13  Cl  UNL A   1      34.397  25.258  22.723  1.00  0.00    -0.084 Cl
ATOM     14  C   UNL A   1      35.928  22.024  24.357  1.00  0.00     0.002 A 
ENDBRANCH   7   8
ENDBRANCH   6   7
BRANCH   6  15
ATOM     15  S   UNL A   1      30.841  24.829  25.386  1.00  0.00     0.243 S 
ATOM     16  O   UNL A   1      30.404  24.659  26.753  1.00  0.00    -0.207 OA
ATOM     17  O   UNL A   1      29.940  25.348  24.381  1.00  0.00    -0.207 OA
BRANCH  15  18
ATOM     18  C   UNL A   1      31.369  23.240  24.790  1.00  0.00     0.082 A 
ATOM     19  C   UNL A   1      31.467  23.035  23.410  1.00  0.00     0.023 A 
ATOM     20  C   UNL A   1      31.676  22.219  25.695  1.00  0.00     0.023 A 
ATOM     21  C   UNL A   1      31.904  21.800  22.933  1.00  0.00     0.022 A 
ATOM     22  C   UNL A   1      32.118  20.986  25.210  1.00  0.00     0.022 A 
ATOM     23  C   UNL A   1      32.229  20.783  23.833  1.00  0.00     0.041 A 
ATOM     24  Cl  UNL A   1      32.765  19.265  23.228  1.00  0.00    -0.084 Cl
ENDBRANCH  15  18
ENDBRANCH   6  15
ENDBRANCH   5   6
ENDBRANCH   3   5
ENDBRANCH   2   3
ENDBRANCH   1   2
BRANCH   1  25
ATOM     25  C   UNL A   1      32.939  31.601  27.246  1.00  0.00     0.275 C 
BRANCH  25  26
ATOM     26  O   UNL A   1      32.292  32.829  27.656  1.00  0.00    -0.458 OA
BRANCH  26  27
ATOM     27  C   UNL A   1      33.100  33.862  28.029  1.00  0.00     0.338 C 
ATOM     28  O   UNL A   1      32.810  35.044  27.959  1.00  0.00    -0.246 OA
BRANCH  27  29
ATOM     29  C   UNL A   1      34.373  33.367  28.637  1.00  0.00     0.060 A 
ATOM     30  C   UNL A   1      34.324  32.704  29.876  1.00  0.00     0.016 A 
ATOM     31  C   UNL A   1      35.612  33.543  28.019  1.00  0.00     0.016 A 
ATOM     32  C   UNL A   1      35.491  32.178  30.471  1.00  0.00     0.010 A 
ATOM     33  C   UNL A   1      36.775  33.033  28.623  1.00  0.00     0.010 A 
ATOM     34  C   UNL A   1      36.733  32.321  29.845  1.00  0.00    -0.014 A 
BRANCH  34  35
ATOM     35  C   UNL A   1      38.022  31.805  30.414  1.00  0.00     0.031 A 
ATOM     36  C   UNL A   1      38.596  30.529  29.869  1.00  0.00     0.074 A 
ATOM     37  C   UNL A   1      38.609  32.335  31.512  1.00  0.00     0.049 A 
ATOM     38  N   UNL A   1      39.603  29.833  30.328  1.00  0.00    -0.248 NA
ATOM     39  C   UNL A   1      38.008  30.002  28.628  1.00  0.00     0.031 C 
ATOM     40  C   UNL A   1      38.313  33.621  32.126  1.00  0.00     0.029 A 
ATOM     41  N   UNL A   1      39.478  31.756  32.415  1.00  0.00    -0.354 N 
ATOM     42  C   UNL A   1      39.833  28.844  29.387  1.00  0.00     0.074 A 
ATOM     43  C   UNL A   1      38.791  28.958  28.388  1.00  0.00     0.031 C 
ATOM     44  C   UNL A   1      38.728  33.611  33.406  1.00  0.00     0.029 A 
ATOM     45  C   UNL A   1      39.435  32.363  33.657  1.00  0.00     0.049 A 
ATOM     46  H   UNL A   1      40.064  30.994  32.198  1.00  0.00     0.167 HD
ATOM     47  C   UNL A   1      40.873  27.981  29.323  1.00  0.00     0.034 A 
ATOM     48  C   UNL A   1      39.895  31.949  34.856  1.00  0.00     0.034 A 
ATOM     49  C   UNL A   1      41.891  27.857  30.329  1.00  0.00     0.049 A 
ATOM     50  C   UNL A   1      40.860  30.796  34.887  1.00  0.00     0.074 A 
ATOM     51  C   UNL A   1      43.051  27.105  30.299  1.00  0.00     0.029 A 
ATOM     52  N   UNL A   1      41.842  28.462  31.573  1.00  0.00    -0.354 N 
ATOM     53  N   UNL A   1      41.256  30.038  33.897  1.00  0.00    -0.248 NA
ATOM     54  C   UNL A   1      41.548  30.528  36.161  1.00  0.00     0.031 C 
ATOM     55  C   UNL A   1      43.677  27.215  31.548  1.00  0.00     0.029 A 
ATOM     56  C   UNL A   1      42.917  28.055  32.344  1.00  0.00     0.049 A 
ATOM     57  H   UNL A   1      41.143  29.090  31.867  1.00  0.00     0.167 HD
ATOM     58  C   UNL A   1      42.322  29.297  34.390  1.00  0.00     0.074 A 
ATOM     59  C   UNL A   1      42.472  29.652  35.785  1.00  0.00     0.031 C 
ATOM     60  C   UNL A   1      43.122  28.435  33.719  1.00  0.00     0.034 A 
BRANCH  47  61
ATOM     61  C   UNL A   1      41.006  27.172  28.068  1.00  0.00     0.023 A 
ATOM     62  C   UNL A   1      41.525  27.793  26.913  1.00  0.00     0.012 A 
ATOM     63  C   UNL A   1      40.673  25.808  28.038  1.00  0.00     0.148 A 
ATOM     64  C   UNL A   1      41.686  27.072  25.733  1.00  0.00     0.002 A 
ATOM     65  C   UNL A   1      40.863  25.087  26.866  1.00  0.00     0.091 A 
ATOM     66  F   UNL A   1      40.170  25.249  29.148  1.00  0.00    -0.205 F 
ATOM     67  C   UNL A   1      41.361  25.719  25.712  1.00  0.00     0.022 A 
BRANCH  65  68
ATOM     68  S   UNL A   1      40.516  23.333  26.740  1.00  0.00     0.127 S 
ATOM     69  O   UNL A   1      39.101  23.339  26.366  1.00  0.00    -0.237 OA
ATOM     70  O   UNL A   1      41.428  22.918  25.674  1.00  0.00    -0.237 OA
ATOM     71  O   UNL A   1      40.804  22.767  28.050  1.00  0.00    -0.744 OA
ENDBRANCH  65  68
ENDBRANCH  47  61
BRANCH  48  72
ATOM     72  C   UNL A   1      39.560  32.665  36.121  1.00  0.00     0.023 A 
ATOM     73  C   UNL A   1      40.343  33.757  36.532  1.00  0.00     0.012 A 
ATOM     74  C   UNL A   1      38.532  32.199  36.967  1.00  0.00     0.148 A 
ATOM     75  C   UNL A   1      40.137  34.349  37.781  1.00  0.00     0.002 A 
ATOM     76  C   UNL A   1      38.308  32.815  38.195  1.00  0.00     0.091 A 
ATOM     77  F   UNL A   1      37.833  31.122  36.582  1.00  0.00    -0.205 F 
ATOM     78  C   UNL A   1      39.121  33.881  38.610  1.00  0.00     0.022 A 
BRANCH  76  79
ATOM     79  S   UNL A   1      36.996  32.315  39.320  1.00  0.00     0.127 S 
ATOM     80  O   UNL A   1      37.249  33.170  40.477  1.00  0.00    -0.237 OA
ATOM     81  O   UNL A   1      35.795  32.653  38.555  1.00  0.00    -0.237 OA
ATOM     82  O   UNL A   1      37.184  30.888  39.545  1.00  0.00    -0.744 OA
ENDBRANCH  76  79
ENDBRANCH  48  72
BRANCH  60  83
ATOM     83  C   UNL A   1      44.300  27.845  34.447  1.00  0.00     0.023 A 
ATOM     84  C   UNL A   1      45.501  28.571  34.552  1.00  0.00     0.012 A 
ATOM     85  C   UNL A   1      44.184  26.601  35.101  1.00  0.00     0.148 A 
ATOM     86  C   UNL A   1      46.576  28.060  35.279  1.00  0.00     0.002 A 
ATOM     87  C   UNL A   1      45.238  26.123  35.868  1.00  0.00     0.091 A 
ATOM     88  F   UNL A   1      43.041  25.912  34.966  1.00  0.00    -0.205 F 
ATOM     89  C   UNL A   1      46.439  26.846  35.948  1.00  0.00     0.022 A 
BRANCH  87  90
ATOM     90  S   UNL A   1      45.118  24.624  36.850  1.00  0.00     0.127 S 
ATOM     91  O   UNL A   1      46.428  24.586  37.499  1.00  0.00    -0.237 OA
ATOM     92  O   UNL A   1      44.002  24.929  37.745  1.00  0.00    -0.237 OA
ATOM     93  O   UNL A   1      44.859  23.545  35.906  1.00  0.00    -0.744 OA
ENDBRANCH  87  90
ENDBRANCH  60  83
ENDBRANCH  34  35
ENDBRANCH  27  29
ENDBRANCH  26  27
ENDBRANCH  25  26
ENDBRANCH   1  25
TORSDOF 19
ENDMDL
