MODEL 1
REMARK VINA RESULT:     -12.1      0.000      0.000
REMARK SMILES Nc1c(Nc2ccc(I)cc2)ncnc1Nc1ccc(C(=O)OCCOC(=O)c2ccc(-c3c4nc(c(-c5cccc(S(=O)(=O)[O-])c5F)c5ccc([nH]5)c(-c5cccc(S(=O)(=O)[O-])c5F)c5nc(c(-c6cccc(S(=O)(=O)[O-])c6F)c6ccc3[nH]6)C=C5)C=C4)cc2)cc1
REMARK SMILES IDX 24 1 23 2 21 3 22 4 20 5 17 6 18 7 93 8 19 9 92 10 16 11
REMARK SMILES IDX 15 13 2 14 3 15 12 16 14 17 13 18 1 19 4 22 5 24 6 25 11 26
REMARK SMILES IDX 7 27 10 28 8 29 9 30 25 31 26 32 27 33 28 34 29 35 30 36
REMARK SMILES IDX 91 37 31 38 90 39 32 40 33 41 34 42 84 43 35 44 89 45 83 46
REMARK SMILES IDX 85 47 36 48 88 49 82 50 81 51 37 53 69 54 49 55 68 56 50 57
REMARK SMILES IDX 53 58 67 59 86 60 51 61 52 62 66 64 87 65 54 66 38 67 39 68
REMARK SMILES IDX 47 69 40 70 42 71 48 72 41 73 43 74 44 75 45 76 46 77 70 78
REMARK SMILES IDX 71 79 79 80 72 81 74 82 80 83 73 84 75 85 76 86 77 87 78 88
REMARK SMILES IDX 55 89 56 90 64 91 57 92 59 93 65 94 58 95 60 96 61 97 62 98
REMARK SMILES IDX 63 99
REMARK H PARENT 16 12 1 20 1 21 4 23 85 52 53 63
REMARK Flexibility Score: inf
ROOT
ATOM      1  C   UNL A   1      31.077  31.972  26.755  1.00  0.00     0.275 C 
ENDROOT
BRANCH   1   2
ATOM      2  O   UNL A   1      31.485  31.053  25.720  1.00  0.00    -0.458 OA
BRANCH   2   3
ATOM      3  C   UNL A   1      32.097  29.924  26.158  1.00  0.00     0.338 C 
ATOM      4  O   UNL A   1      32.331  29.632  27.317  1.00  0.00    -0.246 OA
BRANCH   3   5
ATOM      5  C   UNL A   1      32.392  29.007  25.033  1.00  0.00     0.060 A 
ATOM      6  C   UNL A   1      32.741  27.102  23.003  1.00  0.00     0.040 A 
ATOM      7  C   UNL A   1      31.549  27.817  23.092  1.00  0.00     0.027 A 
ATOM      8  C   UNL A   1      33.770  27.371  23.920  1.00  0.00     0.027 A 
ATOM      9  C   UNL A   1      31.365  28.725  24.126  1.00  0.00     0.018 A 
ATOM     10  C   UNL A   1      33.611  28.341  24.917  1.00  0.00     0.018 A 
BRANCH   6  11
ATOM     11  N   UNL A   1      32.769  25.964  22.169  1.00  0.00    -0.338 N 
ATOM     12  H   UNL A   1      32.456  26.047  21.240  1.00  0.00     0.168 HD
BRANCH  11  13
ATOM     13  C   UNL A   1      33.236  24.703  22.629  1.00  0.00     0.159 A 
ATOM     14  C   UNL A   1      32.305  23.722  22.984  1.00  0.00     0.118 A 
ATOM     15  C   UNL A   1      32.860  22.505  23.404  1.00  0.00     0.159 A 
ATOM     16  N   UNL A   1      34.186  22.318  23.551  1.00  0.00    -0.217 NA
ATOM     17  N   UNL A   1      34.566  24.506  22.725  1.00  0.00    -0.217 NA
ATOM     18  C   UNL A   1      34.973  23.334  23.207  1.00  0.00     0.226 A 
BRANCH  14  19
ATOM     19  N   UNL A   1      30.917  23.896  22.856  1.00  0.00    -0.393 N 
ATOM     20  H   UNL A   1      30.558  24.524  22.189  1.00  0.00     0.156 HD
ATOM     21  H   UNL A   1      30.303  23.387  23.433  1.00  0.00     0.156 HD
ENDBRANCH  14  19
BRANCH  15  22
ATOM     22  N   UNL A   1      31.977  21.420  23.638  1.00  0.00    -0.338 N 
ATOM     23  H   UNL A   1      31.013  21.601  23.555  1.00  0.00     0.168 HD
BRANCH  22  24
ATOM     24  C   UNL A   1      32.353  20.110  23.979  1.00  0.00     0.040 A 
ATOM     25  C   UNL A   1      32.559  19.785  25.325  1.00  0.00     0.027 A 
ATOM     26  C   UNL A   1      32.397  19.084  23.025  1.00  0.00     0.027 A 
ATOM     27  C   UNL A   1      32.787  18.462  25.713  1.00  0.00     0.017 A 
ATOM     28  C   UNL A   1      32.638  17.761  23.405  1.00  0.00     0.017 A 
ATOM     29  C   UNL A   1      32.822  17.455  24.750  1.00  0.00     0.013 A 
ATOM     30  I   UNL A   1      33.117  15.482  25.332  1.00  0.00    -0.044 I 
ENDBRANCH  22  24
ENDBRANCH  15  22
ENDBRANCH  11  13
ENDBRANCH   6  11
ENDBRANCH   3   5
ENDBRANCH   2   3
ENDBRANCH   1   2
BRANCH   1  31
ATOM     31  C   UNL A   1      31.913  33.252  26.728  1.00  0.00     0.275 C 
BRANCH  31  32
ATOM     32  O   UNL A   1      32.551  33.486  27.996  1.00  0.00    -0.458 OA
BRANCH  32  33
ATOM     33  C   UNL A   1      33.714  34.171  27.925  1.00  0.00     0.338 C 
ATOM     34  O   UNL A   1      33.862  35.355  27.666  1.00  0.00    -0.246 OA
BRANCH  33  35
ATOM     35  C   UNL A   1      34.848  33.311  28.290  1.00  0.00     0.060 A 
ATOM     36  C   UNL A   1      34.574  32.002  28.665  1.00  0.00     0.016 A 
ATOM     37  C   UNL A   1      36.118  33.841  28.484  1.00  0.00     0.016 A 
ATOM     38  C   UNL A   1      35.504  31.274  29.396  1.00  0.00     0.010 A 
ATOM     39  C   UNL A   1      37.106  33.047  29.079  1.00  0.00     0.010 A 
ATOM     40  C   UNL A   1      36.798  31.772  29.592  1.00  0.00    -0.014 A 
BRANCH  40  41
ATOM     41  C   UNL A   1      37.827  30.968  30.311  1.00  0.00     0.031 A 
ATOM     42  C   UNL A   1      38.095  31.205  31.777  1.00  0.00     0.074 A 
ATOM     43  C   UNL A   1      38.549  30.043  29.643  1.00  0.00     0.049 A 
ATOM     44  N   UNL A   1      39.091  30.783  32.514  1.00  0.00    -0.248 NA
ATOM     45  C   UNL A   1      37.126  32.039  32.508  1.00  0.00     0.031 C 
ATOM     46  C   UNL A   1      38.368  29.679  28.235  1.00  0.00     0.029 A 
ATOM     47  N   UNL A   1      39.596  29.251  30.051  1.00  0.00    -0.354 N 
ATOM     48  C   UNL A   1      38.909  31.355  33.770  1.00  0.00     0.074 A 
ATOM     49  C   UNL A   1      37.702  32.149  33.698  1.00  0.00     0.031 C 
ATOM     50  C   UNL A   1      39.251  28.729  27.903  1.00  0.00     0.029 A 
ATOM     51  C   UNL A   1      40.135  28.495  29.035  1.00  0.00     0.049 A 
ATOM     52  H   UNL A   1      39.926  29.226  30.978  1.00  0.00     0.167 HD
ATOM     53  C   UNL A   1      39.678  31.223  34.878  1.00  0.00     0.034 A 
ATOM     54  C   UNL A   1      41.252  27.744  28.988  1.00  0.00     0.034 A 
ATOM     55  C   UNL A   1      40.849  30.388  34.946  1.00  0.00     0.049 A 
ATOM     56  C   UNL A   1      42.106  27.644  30.217  1.00  0.00     0.074 A 
ATOM     57  C   UNL A   1      41.688  30.172  36.026  1.00  0.00     0.029 A 
ATOM     58  N   UNL A   1      41.343  29.622  33.900  1.00  0.00    -0.354 N 
ATOM     59  N   UNL A   1      41.918  28.184  31.397  1.00  0.00    -0.248 NA
ATOM     60  C   UNL A   1      43.317  26.818  30.118  1.00  0.00     0.031 C 
ATOM     61  C   UNL A   1      42.704  29.300  35.624  1.00  0.00     0.029 A 
ATOM     62  C   UNL A   1      42.473  28.935  34.307  1.00  0.00     0.049 A 
ATOM     63  H   UNL A   1      40.947  29.575  33.000  1.00  0.00     0.167 HD
ATOM     64  C   UNL A   1      42.966  27.736  32.191  1.00  0.00     0.074 A 
ATOM     65  C   UNL A   1      43.774  26.864  31.362  1.00  0.00     0.031 C 
ATOM     66  C   UNL A   1      43.238  28.030  33.486  1.00  0.00     0.034 A 
BRANCH  53  67
ATOM     67  C   UNL A   1      39.277  31.978  36.124  1.00  0.00     0.023 A 
ATOM     68  C   UNL A   1      39.785  33.272  36.357  1.00  0.00     0.012 A 
ATOM     69  C   UNL A   1      38.318  31.446  37.011  1.00  0.00     0.148 A 
ATOM     70  C   UNL A   1      39.365  34.013  37.463  1.00  0.00     0.002 A 
ATOM     71  C   UNL A   1      37.867  32.210  38.083  1.00  0.00     0.091 A 
ATOM     72  F   UNL A   1      37.856  30.208  36.786  1.00  0.00    -0.205 F 
ATOM     73  C   UNL A   1      38.399  33.489  38.317  1.00  0.00     0.022 A 
BRANCH  71  74
ATOM     74  S   UNL A   1      36.558  31.665  39.187  1.00  0.00     0.127 S 
ATOM     75  O   UNL A   1      37.202  31.790  40.494  1.00  0.00    -0.237 OA
ATOM     76  O   UNL A   1      35.508  32.651  38.927  1.00  0.00    -0.237 OA
ATOM     77  O   UNL A   1      36.230  30.305  38.784  1.00  0.00    -0.744 OA
ENDBRANCH  71  74
ENDBRANCH  53  67
BRANCH  54  78
ATOM     78  C   UNL A   1      41.603  27.020  27.731  1.00  0.00     0.023 A 
ATOM     79  C   UNL A   1      42.160  27.739  26.657  1.00  0.00     0.012 A 
ATOM     80  C   UNL A   1      41.464  25.621  27.623  1.00  0.00     0.148 A 
ATOM     81  C   UNL A   1      42.559  27.081  25.493  1.00  0.00     0.002 A 
ATOM     82  C   UNL A   1      41.925  24.965  26.489  1.00  0.00     0.091 A 
ATOM     83  F   UNL A   1      40.918  24.955  28.652  1.00  0.00    -0.205 F 
ATOM     84  C   UNL A   1      42.457  25.694  25.415  1.00  0.00     0.022 A 
BRANCH  82  85
ATOM     85  S   UNL A   1      41.979  23.172  26.363  1.00  0.00     0.127 S 
ATOM     86  O   UNL A   1      40.559  22.829  26.370  1.00  0.00    -0.237 OA
ATOM     87  O   UNL A   1      42.653  22.983  25.077  1.00  0.00    -0.237 OA
ATOM     88  O   UNL A   1      42.743  22.718  27.516  1.00  0.00    -0.744 OA
ENDBRANCH  82  85
ENDBRANCH  54  78
BRANCH  66  89
ATOM     89  C   UNL A   1      44.435  27.365  34.116  1.00  0.00     0.023 A 
ATOM     90  C   UNL A   1      45.694  27.996  34.082  1.00  0.00     0.012 A 
ATOM     91  C   UNL A   1      44.290  26.148  34.811  1.00  0.00     0.148 A 
ATOM     92  C   UNL A   1      46.797  27.409  34.700  1.00  0.00     0.002 A 
ATOM     93  C   UNL A   1      45.379  25.598  35.474  1.00  0.00     0.091 A 
ATOM     94  F   UNL A   1      43.088  25.552  34.814  1.00  0.00    -0.205 F 
ATOM     95  C   UNL A   1      46.637  26.219  35.408  1.00  0.00     0.022 A 
BRANCH  93  96
ATOM     96  S   UNL A   1      45.240  24.131  36.501  1.00  0.00     0.127 S 
ATOM     97  O   UNL A   1      44.418  24.620  37.607  1.00  0.00    -0.237 OA
ATOM     98  O   UNL A   1      44.565  23.191  35.606  1.00  0.00    -0.237 OA
ATOM     99  O   UNL A   1      46.603  23.756  36.854  1.00  0.00    -0.744 OA
ENDBRANCH  93  96
ENDBRANCH  66  89
ENDBRANCH  40  41
ENDBRANCH  33  35
ENDBRANCH  32  33
ENDBRANCH  31  32
ENDBRANCH   1  31
TORSDOF 19
ENDMDL
MODEL 2
REMARK VINA RESULT:     -11.5      2.535      8.003
REMARK SMILES Nc1c(Nc2ccc(I)cc2)ncnc1Nc1ccc(C(=O)OCCOC(=O)c2ccc(-c3c4nc(c(-c5cccc(S(=O)(=O)[O-])c5F)c5ccc([nH]5)c(-c5cccc(S(=O)(=O)[O-])c5F)c5nc(c(-c6cccc(S(=O)(=O)[O-])c6F)c6ccc3[nH]6)C=C5)C=C4)cc2)cc1
REMARK SMILES IDX 24 1 23 2 21 3 22 4 20 5 17 6 18 7 93 8 19 9 92 10 16 11
REMARK SMILES IDX 15 13 2 14 3 15 12 16 14 17 13 18 1 19 4 22 5 24 6 25 11 26
REMARK SMILES IDX 7 27 10 28 8 29 9 30 25 31 26 32 27 33 28 34 29 35 30 36
REMARK SMILES IDX 91 37 31 38 90 39 32 40 33 41 34 42 84 43 35 44 89 45 83 46
REMARK SMILES IDX 85 47 36 48 88 49 82 50 81 51 37 53 69 54 49 55 68 56 50 57
REMARK SMILES IDX 53 58 67 59 86 60 51 61 52 62 66 64 87 65 54 66 38 67 39 68
REMARK SMILES IDX 47 69 40 70 42 71 48 72 41 73 43 74 44 75 45 76 46 77 70 78
REMARK SMILES IDX 71 79 79 80 72 81 74 82 80 83 73 84 75 85 76 86 77 87 78 88
REMARK SMILES IDX 55 89 56 90 64 91 57 92 59 93 65 94 58 95 60 96 61 97 62 98
REMARK SMILES IDX 63 99
REMARK H PARENT 16 12 1 20 1 21 4 23 85 52 53 63
REMARK Flexibility Score: inf
ROOT
ATOM      1  C   UNL A   1      31.815  32.454  26.889  1.00  0.00     0.275 C 
ENDROOT
BRANCH   1   2
ATOM      2  O   UNL A   1      31.944  31.025  26.736  1.00  0.00    -0.458 OA
BRANCH   2   3
ATOM      3  C   UNL A   1      31.280  30.496  25.677  1.00  0.00     0.338 C 
ATOM      4  O   UNL A   1      30.705  31.116  24.801  1.00  0.00    -0.246 OA
BRANCH   3   5
ATOM      5  C   UNL A   1      31.404  29.020  25.655  1.00  0.00     0.060 A 
ATOM      6  C   UNL A   1      31.356  26.216  25.575  1.00  0.00     0.040 A 
ATOM      7  C   UNL A   1      31.000  26.953  24.448  1.00  0.00     0.027 A 
ATOM      8  C   UNL A   1      31.767  26.894  26.734  1.00  0.00     0.027 A 
ATOM      9  C   UNL A   1      30.982  28.340  24.508  1.00  0.00     0.018 A 
ATOM     10  C   UNL A   1      31.820  28.292  26.770  1.00  0.00     0.018 A 
BRANCH   6  11
ATOM     11  N   UNL A   1      31.041  24.840  25.592  1.00  0.00    -0.338 N 
ATOM     12  H   UNL A   1      30.139  24.555  25.319  1.00  0.00     0.168 HD
BRANCH  11  13
ATOM     13  C   UNL A   1      31.985  23.855  25.988  1.00  0.00     0.159 A 
ATOM     14  C   UNL A   1      32.897  23.371  25.046  1.00  0.00     0.118 A 
ATOM     15  C   UNL A   1      33.802  22.418  25.536  1.00  0.00     0.159 A 
ATOM     16  N   UNL A   1      33.742  21.929  26.789  1.00  0.00    -0.217 NA
ATOM     17  N   UNL A   1      31.951  23.407  27.259  1.00  0.00    -0.217 NA
ATOM     18  C   UNL A   1      32.813  22.447  27.588  1.00  0.00     0.226 A 
BRANCH  14  19
ATOM     19  N   UNL A   1      32.972  23.851  23.729  1.00  0.00    -0.393 N 
ATOM     20  H   UNL A   1      33.829  23.830  23.244  1.00  0.00     0.156 HD
ATOM     21  H   UNL A   1      32.167  24.208  23.289  1.00  0.00     0.156 HD
ENDBRANCH  14  19
BRANCH  15  22
ATOM     22  N   UNL A   1      34.847  21.994  24.676  1.00  0.00    -0.338 N 
ATOM     23  H   UNL A   1      34.592  21.695  23.774  1.00  0.00     0.168 HD
BRANCH  22  24
ATOM     24  C   UNL A   1      36.215  21.963  24.994  1.00  0.00     0.040 A 
ATOM     25  C   UNL A   1      36.831  23.122  25.483  1.00  0.00     0.027 A 
ATOM     26  C   UNL A   1      36.953  20.772  24.964  1.00  0.00     0.027 A 
ATOM     27  C   UNL A   1      38.147  23.089  25.948  1.00  0.00     0.017 A 
ATOM     28  C   UNL A   1      38.275  20.735  25.415  1.00  0.00     0.017 A 
ATOM     29  C   UNL A   1      38.863  21.893  25.916  1.00  0.00     0.013 A 
ATOM     30  I   UNL A   1      40.806  21.833  26.649  1.00  0.00    -0.044 I 
ENDBRANCH  22  24
ENDBRANCH  15  22
ENDBRANCH  11  13
ENDBRANCH   6  11
ENDBRANCH   3   5
ENDBRANCH   2   3
ENDBRANCH   1   2
BRANCH   1  31
ATOM     31  C   UNL A   1      33.003  33.045  27.651  1.00  0.00     0.275 C 
BRANCH  31  32
ATOM     32  O   UNL A   1      32.715  34.374  28.117  1.00  0.00    -0.458 OA
BRANCH  32  33
ATOM     33  C   UNL A   1      33.169  34.648  29.360  1.00  0.00     0.338 C 
ATOM     34  O   UNL A   1      32.625  35.332  30.213  1.00  0.00    -0.246 OA
BRANCH  33  35
ATOM     35  C   UNL A   1      34.423  33.932  29.626  1.00  0.00     0.060 A 
ATOM     36  C   UNL A   1      34.392  32.886  30.540  1.00  0.00     0.016 A 
ATOM     37  C   UNL A   1      35.641  34.423  29.169  1.00  0.00     0.016 A 
ATOM     38  C   UNL A   1      35.564  32.445  31.139  1.00  0.00     0.010 A 
ATOM     39  C   UNL A   1      36.829  33.864  29.657  1.00  0.00     0.010 A 
ATOM     40  C   UNL A   1      36.807  32.906  30.688  1.00  0.00    -0.014 A 
BRANCH  40  41
ATOM     41  C   UNL A   1      38.076  32.384  31.273  1.00  0.00     0.031 A 
ATOM     42  C   UNL A   1      38.803  31.235  30.619  1.00  0.00     0.074 A 
ATOM     43  C   UNL A   1      38.563  32.917  32.414  1.00  0.00     0.049 A 
ATOM     44  N   UNL A   1      39.775  30.496  31.090  1.00  0.00    -0.248 NA
ATOM     45  C   UNL A   1      38.372  30.856  29.262  1.00  0.00     0.031 C 
ATOM     46  C   UNL A   1      37.987  34.057  33.132  1.00  0.00     0.029 A 
ATOM     47  N   UNL A   1      39.644  32.561  33.185  1.00  0.00    -0.354 N 
ATOM     48  C   UNL A   1      40.022  29.525  30.124  1.00  0.00     0.074 A 
ATOM     49  C   UNL A   1      39.103  29.773  29.035  1.00  0.00     0.031 C 
ATOM     50  C   UNL A   1      38.725  34.319  34.218  1.00  0.00     0.029 A 
ATOM     51  C   UNL A   1      39.757  33.300  34.341  1.00  0.00     0.049 A 
ATOM     52  H   UNL A   1      40.275  31.847  32.935  1.00  0.00     0.167 HD
ATOM     53  C   UNL A   1      40.936  28.524  30.146  1.00  0.00     0.034 A 
ATOM     54  C   UNL A   1      40.554  33.147  35.415  1.00  0.00     0.034 A 
ATOM     55  C   UNL A   1      41.879  28.323  31.216  1.00  0.00     0.049 A 
ATOM     56  C   UNL A   1      41.532  32.010  35.432  1.00  0.00     0.074 A 
ATOM     57  C   UNL A   1      42.857  27.349  31.328  1.00  0.00     0.029 A 
ATOM     58  N   UNL A   1      41.972  29.112  32.354  1.00  0.00    -0.354 N 
ATOM     59  N   UNL A   1      41.758  31.105  34.509  1.00  0.00    -0.248 NA
ATOM     60  C   UNL A   1      42.377  31.879  36.626  1.00  0.00     0.031 C 
ATOM     61  C   UNL A   1      43.520  27.532  32.545  1.00  0.00     0.029 A 
ATOM     62  C   UNL A   1      42.987  28.648  33.172  1.00  0.00     0.049 A 
ATOM     63  H   UNL A   1      41.399  29.888  32.550  1.00  0.00     0.167 HD
ATOM     64  C   UNL A   1      42.795  30.319  34.995  1.00  0.00     0.074 A 
ATOM     65  C   UNL A   1      43.165  30.867  36.285  1.00  0.00     0.031 C 
ATOM     66  C   UNL A   1      43.379  29.235  34.429  1.00  0.00     0.034 A 
BRANCH  53  67
ATOM     67  C   UNL A   1      40.988  27.573  28.974  1.00  0.00     0.023 A 
ATOM     68  C   UNL A   1      40.030  26.546  28.858  1.00  0.00     0.012 A 
ATOM     69  C   UNL A   1      41.923  27.761  27.934  1.00  0.00     0.148 A 
ATOM     70  C   UNL A   1      40.017  25.707  27.742  1.00  0.00     0.002 A 
ATOM     71  C   UNL A   1      41.871  26.954  26.802  1.00  0.00     0.091 A 
ATOM     72  F   UNL A   1      42.838  28.731  28.065  1.00  0.00    -0.205 F 
ATOM     73  C   UNL A   1      40.927  25.918  26.711  1.00  0.00     0.022 A 
BRANCH  71  74
ATOM     74  S   UNL A   1      42.938  27.203  25.377  1.00  0.00     0.127 S 
ATOM     75  O   UNL A   1      42.864  25.899  24.720  1.00  0.00    -0.237 OA
ATOM     76  O   UNL A   1      42.251  28.283  24.667  1.00  0.00    -0.237 OA
ATOM     77  O   UNL A   1      44.246  27.558  25.909  1.00  0.00    -0.744 OA
ENDBRANCH  71  74
ENDBRANCH  53  67
BRANCH  54  78
ATOM     78  C   UNL A   1      40.461  34.114  36.547  1.00  0.00     0.023 A 
ATOM     79  C   UNL A   1      40.913  35.435  36.361  1.00  0.00     0.012 A 
ATOM     80  C   UNL A   1      39.860  33.760  37.772  1.00  0.00     0.148 A 
ATOM     81  C   UNL A   1      40.781  36.381  37.379  1.00  0.00     0.002 A 
ATOM     82  C   UNL A   1      39.671  34.724  38.755  1.00  0.00     0.091 A 
ATOM     83  F   UNL A   1      39.448  32.494  37.936  1.00  0.00    -0.205 F 
ATOM     84  C   UNL A   1      40.146  36.031  38.568  1.00  0.00     0.022 A 
BRANCH  82  85
ATOM     85  S   UNL A   1      38.727  34.408  40.252  1.00  0.00     0.127 S 
ATOM     86  O   UNL A   1      39.671  33.617  41.039  1.00  0.00    -0.237 OA
ATOM     87  O   UNL A   1      38.493  35.764  40.750  1.00  0.00    -0.237 OA
ATOM     88  O   UNL A   1      37.525  33.708  39.821  1.00  0.00    -0.744 OA
ENDBRANCH  82  85
ENDBRANCH  54  78
BRANCH  66  89
ATOM     89  C   UNL A   1      44.522  28.590  35.170  1.00  0.00     0.023 A 
ATOM     90  C   UNL A   1      45.843  29.025  34.949  1.00  0.00     0.012 A 
ATOM     91  C   UNL A   1      44.271  27.605  36.146  1.00  0.00     0.148 A 
ATOM     92  C   UNL A   1      46.902  28.465  35.663  1.00  0.00     0.002 A 
ATOM     93  C   UNL A   1      45.324  27.094  36.896  1.00  0.00     0.091 A 
ATOM     94  F   UNL A   1      43.009  27.190  36.327  1.00  0.00    -0.205 F 
ATOM     95  C   UNL A   1      46.640  27.511  36.645  1.00  0.00     0.022 A 
BRANCH  93  96
ATOM     96  S   UNL A   1      45.069  25.947  38.254  1.00  0.00     0.127 S 
ATOM     97  O   UNL A   1      43.992  26.601  38.996  1.00  0.00    -0.237 OA
ATOM     98  O   UNL A   1      44.674  24.724  37.556  1.00  0.00    -0.237 OA
ATOM     99  O   UNL A   1      46.345  25.860  38.952  1.00  0.00    -0.744 OA
ENDBRANCH  93  96
ENDBRANCH  66  89
ENDBRANCH  40  41
ENDBRANCH  33  35
ENDBRANCH  32  33
ENDBRANCH  31  32
ENDBRANCH   1  31
TORSDOF 19
ENDMDL
MODEL 3
REMARK VINA RESULT:     -11.5      2.201      2.778
REMARK SMILES Nc1c(Nc2ccc(I)cc2)ncnc1Nc1ccc(C(=O)OCCOC(=O)c2ccc(-c3c4nc(c(-c5cccc(S(=O)(=O)[O-])c5F)c5ccc([nH]5)c(-c5cccc(S(=O)(=O)[O-])c5F)c5nc(c(-c6cccc(S(=O)(=O)[O-])c6F)c6ccc3[nH]6)C=C5)C=C4)cc2)cc1
REMARK SMILES IDX 24 1 23 2 21 3 22 4 20 5 17 6 18 7 93 8 19 9 92 10 16 11
REMARK SMILES IDX 15 13 2 14 3 15 12 16 14 17 13 18 1 19 4 22 5 24 6 25 11 26
REMARK SMILES IDX 7 27 10 28 8 29 9 30 25 31 26 32 27 33 28 34 29 35 30 36
REMARK SMILES IDX 91 37 31 38 90 39 32 40 33 41 34 42 84 43 35 44 89 45 83 46
REMARK SMILES IDX 85 47 36 48 88 49 82 50 81 51 37 53 69 54 49 55 68 56 50 57
REMARK SMILES IDX 53 58 67 59 86 60 51 61 52 62 66 64 87 65 54 66 38 67 39 68
REMARK SMILES IDX 47 69 40 70 42 71 48 72 41 73 43 74 44 75 45 76 46 77 70 78
REMARK SMILES IDX 71 79 79 80 72 81 74 82 80 83 73 84 75 85 76 86 77 87 78 88
REMARK SMILES IDX 55 89 56 90 64 91 57 92 59 93 65 94 58 95 60 96 61 97 62 98
REMARK SMILES IDX 63 99
REMARK H PARENT 16 12 1 20 1 21 4 23 85 52 53 63
REMARK Flexibility Score: inf
ROOT
ATOM      1  C   UNL A   1      31.478  32.476  27.042  1.00  0.00     0.275 C 
ENDROOT
BRANCH   1   2
ATOM      2  O   UNL A   1      31.969  31.471  26.131  1.00  0.00    -0.458 OA
BRANCH   2   3
ATOM      3  C   UNL A   1      32.498  30.368  26.718  1.00  0.00     0.338 C 
ATOM      4  O   UNL A   1      33.312  30.350  27.622  1.00  0.00    -0.246 OA
BRANCH   3   5
ATOM      5  C   UNL A   1      31.890  29.132  26.172  1.00  0.00     0.060 A 
ATOM      6  C   UNL A   1      30.996  26.669  25.167  1.00  0.00     0.040 A 
ATOM      7  C   UNL A   1      31.429  26.769  26.487  1.00  0.00     0.027 A 
ATOM      8  C   UNL A   1      30.985  27.820  24.362  1.00  0.00     0.027 A 
ATOM      9  C   UNL A   1      31.912  27.980  26.965  1.00  0.00     0.018 A 
ATOM     10  C   UNL A   1      31.403  29.057  24.867  1.00  0.00     0.018 A 
BRANCH   6  11
ATOM     11  N   UNL A   1      30.837  25.379  24.619  1.00  0.00    -0.338 N 
ATOM     12  H   UNL A   1      29.958  24.941  24.679  1.00  0.00     0.168 HD
BRANCH  11  13
ATOM     13  C   UNL A   1      31.907  24.693  23.984  1.00  0.00     0.159 A 
ATOM     14  C   UNL A   1      32.635  23.747  24.711  1.00  0.00     0.118 A 
ATOM     15  C   UNL A   1      33.655  23.107  23.993  1.00  0.00     0.159 A 
ATOM     16  N   UNL A   1      33.981  23.440  22.730  1.00  0.00    -0.217 NA
ATOM     17  N   UNL A   1      32.194  24.996  22.702  1.00  0.00    -0.217 NA
ATOM     18  C   UNL A   1      33.233  24.375  22.148  1.00  0.00     0.226 A 
BRANCH  14  19
ATOM     19  N   UNL A   1      32.328  23.391  26.035  1.00  0.00    -0.393 N 
ATOM     20  H   UNL A   1      31.792  23.996  26.597  1.00  0.00     0.156 HD
ATOM     21  H   UNL A   1      32.648  22.535  26.400  1.00  0.00     0.156 HD
ENDBRANCH  14  19
BRANCH  15  22
ATOM     22  N   UNL A   1      34.336  22.034  24.624  1.00  0.00    -0.338 N 
ATOM     23  H   UNL A   1      33.797  21.253  24.886  1.00  0.00     0.168 HD
BRANCH  22  24
ATOM     24  C   UNL A   1      35.711  21.985  24.909  1.00  0.00     0.040 A 
ATOM     25  C   UNL A   1      36.312  23.061  25.573  1.00  0.00     0.027 A 
ATOM     26  C   UNL A   1      36.473  20.833  24.671  1.00  0.00     0.027 A 
ATOM     27  C   UNL A   1      37.638  22.984  26.004  1.00  0.00     0.017 A 
ATOM     28  C   UNL A   1      37.804  20.754  25.086  1.00  0.00     0.017 A 
ATOM     29  C   UNL A   1      38.378  21.828  25.761  1.00  0.00     0.013 A 
ATOM     30  I   UNL A   1      40.337  21.696  26.441  1.00  0.00    -0.044 I 
ENDBRANCH  22  24
ENDBRANCH  15  22
ENDBRANCH  11  13
ENDBRANCH   6  11
ENDBRANCH   3   5
ENDBRANCH   2   3
ENDBRANCH   1   2
BRANCH   1  31
ATOM     31  C   UNL A   1      32.450  33.650  27.159  1.00  0.00     0.275 C 
BRANCH  31  32
ATOM     32  O   UNL A   1      32.411  34.233  28.473  1.00  0.00    -0.458 OA
BRANCH  32  33
ATOM     33  C   UNL A   1      33.524  34.914  28.823  1.00  0.00     0.338 C 
ATOM     34  O   UNL A   1      33.664  36.126  28.879  1.00  0.00    -0.246 OA
BRANCH  33  35
ATOM     35  C   UNL A   1      34.592  33.992  29.231  1.00  0.00     0.060 A 
ATOM     36  C   UNL A   1      34.239  32.891  30.001  1.00  0.00     0.016 A 
ATOM     37  C   UNL A   1      35.932  34.324  29.060  1.00  0.00     0.016 A 
ATOM     38  C   UNL A   1      35.200  32.224  30.750  1.00  0.00     0.010 A 
ATOM     39  C   UNL A   1      36.913  33.549  29.690  1.00  0.00     0.010 A 
ATOM     40  C   UNL A   1      36.559  32.522  30.587  1.00  0.00    -0.014 A 
BRANCH  40  41
ATOM     41  C   UNL A   1      37.604  31.762  31.330  1.00  0.00     0.031 A 
ATOM     42  C   UNL A   1      38.010  32.182  32.722  1.00  0.00     0.074 A 
ATOM     43  C   UNL A   1      38.218  30.711  30.746  1.00  0.00     0.049 A 
ATOM     44  N   UNL A   1      39.042  31.804  33.431  1.00  0.00    -0.248 NA
ATOM     45  C   UNL A   1      37.150  33.167  33.401  1.00  0.00     0.031 C 
ATOM     46  C   UNL A   1      37.899  30.169  29.423  1.00  0.00     0.029 A 
ATOM     47  N   UNL A   1      39.255  29.919  31.180  1.00  0.00    -0.354 N 
ATOM     48  C   UNL A   1      38.998  32.554  34.604  1.00  0.00     0.074 A 
ATOM     49  C   UNL A   1      37.831  33.404  34.514  1.00  0.00     0.031 C 
ATOM     50  C   UNL A   1      38.701  29.129  29.162  1.00  0.00     0.029 A 
ATOM     51  C   UNL A   1      39.666  28.998  30.243  1.00  0.00     0.049 A 
ATOM     52  H   UNL A   1      39.662  30.002  32.072  1.00  0.00     0.167 HD
ATOM     53  C   UNL A   1      39.852  32.528  35.656  1.00  0.00     0.034 A 
ATOM     54  C   UNL A   1      40.735  28.181  30.216  1.00  0.00     0.034 A 
ATOM     55  C   UNL A   1      40.981  31.638  35.750  1.00  0.00     0.049 A 
ATOM     56  C   UNL A   1      41.686  28.197  31.376  1.00  0.00     0.074 A 
ATOM     57  C   UNL A   1      41.898  31.522  36.781  1.00  0.00     0.029 A 
ATOM     58  N   UNL A   1      41.343  30.707  34.788  1.00  0.00    -0.354 N 
ATOM     59  N   UNL A   1      41.627  28.905  32.478  1.00  0.00    -0.248 NA
ATOM     60  C   UNL A   1      42.840  27.292  31.300  1.00  0.00     0.031 C 
ATOM     61  C   UNL A   1      42.830  30.541  36.428  1.00  0.00     0.029 A 
ATOM     62  C   UNL A   1      42.469  30.013  35.199  1.00  0.00     0.049 A 
ATOM     63  H   UNL A   1      40.869  30.562  33.938  1.00  0.00     0.167 HD
ATOM     64  C   UNL A   1      42.716  28.507  33.243  1.00  0.00     0.074 A 
ATOM     65  C   UNL A   1      43.404  27.481  32.486  1.00  0.00     0.031 C 
ATOM     66  C   UNL A   1      43.113  28.958  34.458  1.00  0.00     0.034 A 
BRANCH  53  67
ATOM     67  C   UNL A   1      39.599  33.470  36.809  1.00  0.00     0.023 A 
ATOM     68  C   UNL A   1      39.946  34.832  36.695  1.00  0.00     0.012 A 
ATOM     69  C   UNL A   1      38.924  33.028  37.966  1.00  0.00     0.148 A 
ATOM     70  C   UNL A   1      39.649  35.731  37.721  1.00  0.00     0.002 A 
ATOM     71  C   UNL A   1      38.586  33.939  38.961  1.00  0.00     0.091 A 
ATOM     72  F   UNL A   1      38.614  31.728  38.067  1.00  0.00    -0.205 F 
ATOM     73  C   UNL A   1      38.959  35.288  38.845  1.00  0.00     0.022 A 
BRANCH  71  74
ATOM     74  S   UNL A   1      37.616  33.490  40.407  1.00  0.00     0.127 S 
ATOM     75  O   UNL A   1      37.541  34.764  41.120  1.00  0.00    -0.237 OA
ATOM     76  O   UNL A   1      36.356  33.053  39.805  1.00  0.00    -0.237 OA
ATOM     77  O   UNL A   1      38.364  32.442  41.085  1.00  0.00    -0.744 OA
ENDBRANCH  71  74
ENDBRANCH  53  67
BRANCH  54  78
ATOM     78  C   UNL A   1      40.939  27.270  29.051  1.00  0.00     0.023 A 
ATOM     79  C   UNL A   1      40.142  26.116  28.934  1.00  0.00     0.012 A 
ATOM     80  C   UNL A   1      41.856  27.579  28.025  1.00  0.00     0.148 A 
ATOM     81  C   UNL A   1      40.263  25.278  27.824  1.00  0.00     0.002 A 
ATOM     82  C   UNL A   1      41.923  26.777  26.892  1.00  0.00     0.091 A 
ATOM     83  F   UNL A   1      42.616  28.675  28.161  1.00  0.00    -0.205 F 
ATOM     84  C   UNL A   1      41.140  25.617  26.797  1.00  0.00     0.022 A 
BRANCH  82  85
ATOM     85  S   UNL A   1      42.906  27.217  25.452  1.00  0.00     0.127 S 
ATOM     86  O   UNL A   1      44.226  27.420  26.043  1.00  0.00    -0.237 OA
ATOM     87  O   UNL A   1      42.778  26.017  24.625  1.00  0.00    -0.237 OA
ATOM     88  O   UNL A   1      42.276  28.405  24.892  1.00  0.00    -0.744 OA
ENDBRANCH  82  85
ENDBRANCH  54  78
BRANCH  66  89
ATOM     89  C   UNL A   1      44.325  28.313  35.080  1.00  0.00     0.023 A 
ATOM     90  C   UNL A   1      45.617  28.761  34.742  1.00  0.00     0.012 A 
ATOM     91  C   UNL A   1      44.174  27.314  36.062  1.00  0.00     0.148 A 
ATOM     92  C   UNL A   1      46.741  28.200  35.345  1.00  0.00     0.002 A 
ATOM     93  C   UNL A   1      45.295  26.801  36.702  1.00  0.00     0.091 A 
ATOM     94  F   UNL A   1      42.937  26.887  36.356  1.00  0.00    -0.205 F 
ATOM     95  C   UNL A   1      46.580  27.231  36.335  1.00  0.00     0.022 A 
BRANCH  93  96
ATOM     96  S   UNL A   1      45.177  25.636  38.064  1.00  0.00     0.127 S 
ATOM     97  O   UNL A   1      44.632  24.455  37.397  1.00  0.00    -0.237 OA
ATOM     98  O   UNL A   1      46.573  25.510  38.484  1.00  0.00    -0.237 OA
ATOM     99  O   UNL A   1      44.302  26.256  39.050  1.00  0.00    -0.744 OA
ENDBRANCH  93  96
ENDBRANCH  66  89
ENDBRANCH  40  41
ENDBRANCH  33  35
ENDBRANCH  32  33
ENDBRANCH  31  32
ENDBRANCH   1  31
TORSDOF 19
ENDMDL
