MODEL 1
REMARK VINA RESULT:     -13.3      0.000      0.000
REMARK SMILES O=C(OCCOC(=O)[C@@H]1[C@@H](C(=O)Nc2nc(-c3ccc(F)cc3)cs2)[C@H]2C=C[C@@H]1O2)c1ccc(-c2c3nc(c(-c4cccc(S(=O)(=O)[O-])c4F)c4ccc([nH]4)c(-c4cccc(S(=O)(=O)[O-])c4F)c4nc(c(-c5cccc(S(=O)(=O)[O-])c5F)c5ccc2[nH]5)C=C4)C=C3)cc1
REMARK SMILES IDX 4 1 3 2 2 3 1 4 31 5 32 6 93 7 33 8 92 9 34 10 35 11 36 12
REMARK SMILES IDX 86 13 37 14 91 15 85 16 87 17 38 18 90 19 84 20 83 21 39 23
REMARK SMILES IDX 71 24 51 25 70 26 52 27 55 28 69 29 88 30 53 31 54 32 68 34
REMARK SMILES IDX 89 35 56 36 40 37 41 38 49 39 42 40 44 41 50 42 43 43 45 44
REMARK SMILES IDX 46 45 47 46 48 47 72 48 73 49 81 50 74 51 76 52 82 53 75 54
REMARK SMILES IDX 77 55 78 56 79 57 80 58 57 59 58 60 66 61 59 62 61 63 67 64
REMARK SMILES IDX 60 65 62 66 63 67 64 68 65 69 5 70 6 71 7 72 8 73 9 74 10 75
REMARK SMILES IDX 29 76 26 77 28 78 30 79 27 80 11 81 12 82 13 83 14 85 15 86
REMARK SMILES IDX 25 87 16 88 24 89 17 90 18 91 23 92 19 93 22 94 20 95 21 96
REMARK H PARENT 87 22 55 33 13 84
REMARK Flexibility Score: inf
ROOT
ATOM      1  C   UNL A   1      30.926  30.062  24.603  1.00  0.00     0.275 C 
ENDROOT
BRANCH   1   2
ATOM      2  O   UNL A   1      32.184  30.259  25.221  1.00  0.00    -0.458 OA
BRANCH   2   3
ATOM      3  C   UNL A   1      32.396  30.030  26.534  1.00  0.00     0.338 C 
ATOM      4  O   UNL A   1      31.429  29.648  27.196  1.00  0.00    -0.246 OA
BRANCH   3   5
ATOM      5  C   UNL A   1      33.717  30.379  27.229  1.00  0.00     0.060 A 
ATOM      6  C   UNL A   1      34.366  31.556  27.623  1.00  0.00     0.016 A 
ATOM      7  C   UNL A   1      34.370  29.269  27.680  1.00  0.00     0.016 A 
ATOM      8  C   UNL A   1      35.660  31.562  28.329  1.00  0.00     0.010 A 
ATOM      9  C   UNL A   1      35.612  29.311  28.390  1.00  0.00     0.010 A 
ATOM     10  C   UNL A   1      36.367  30.399  28.675  1.00  0.00    -0.014 A 
BRANCH  10  11
ATOM     11  C   UNL A   1      37.652  30.121  29.471  1.00  0.00     0.031 A 
ATOM     12  C   UNL A   1      38.152  30.790  30.797  1.00  0.00     0.074 A 
ATOM     13  C   UNL A   1      38.683  29.501  28.871  1.00  0.00     0.049 A 
ATOM     14  N   UNL A   1      38.474  30.223  31.945  1.00  0.00    -0.248 NA
ATOM     15  C   UNL A   1      38.525  32.219  30.807  1.00  0.00     0.031 C 
ATOM     16  C   UNL A   1      38.711  29.042  27.491  1.00  0.00     0.029 A 
ATOM     17  N   UNL A   1      39.916  29.164  29.380  1.00  0.00    -0.354 N 
ATOM     18  C   UNL A   1      38.777  31.254  32.853  1.00  0.00     0.074 A 
ATOM     19  C   UNL A   1      38.750  32.486  32.096  1.00  0.00     0.031 C 
ATOM     20  C   UNL A   1      39.863  28.384  27.287  1.00  0.00     0.029 A 
ATOM     21  C   UNL A   1      40.658  28.400  28.517  1.00  0.00     0.049 A 
ATOM     22  H   UNL A   1      40.233  29.443  30.269  1.00  0.00     0.167 HD
ATOM     23  C   UNL A   1      39.380  31.253  34.075  1.00  0.00     0.034 A 
ATOM     24  C   UNL A   1      41.814  27.735  28.709  1.00  0.00     0.034 A 
ATOM     25  C   UNL A   1      40.451  30.360  34.437  1.00  0.00     0.049 A 
ATOM     26  C   UNL A   1      42.508  27.721  30.049  1.00  0.00     0.074 A 
ATOM     27  C   UNL A   1      41.168  30.301  35.623  1.00  0.00     0.029 A 
ATOM     28  N   UNL A   1      41.118  29.549  33.535  1.00  0.00    -0.354 N 
ATOM     29  N   UNL A   1      42.159  28.277  31.183  1.00  0.00    -0.248 NA
ATOM     30  C   UNL A   1      43.746  26.926  30.134  1.00  0.00     0.031 C 
ATOM     31  C   UNL A   1      42.325  29.542  35.401  1.00  0.00     0.029 A 
ATOM     32  C   UNL A   1      42.273  29.046  34.111  1.00  0.00     0.049 A 
ATOM     33  H   UNL A   1      40.816  29.356  32.618  1.00  0.00     0.167 HD
ATOM     34  C   UNL A   1      43.111  27.864  32.120  1.00  0.00     0.074 A 
ATOM     35  C   UNL A   1      44.038  27.001  31.426  1.00  0.00     0.031 C 
ATOM     36  C   UNL A   1      43.200  28.170  33.440  1.00  0.00     0.034 A 
BRANCH  23  37
ATOM     37  C   UNL A   1      38.957  32.298  35.104  1.00  0.00     0.023 A 
ATOM     38  C   UNL A   1      37.948  31.915  36.014  1.00  0.00     0.012 A 
ATOM     39  C   UNL A   1      39.650  33.509  35.346  1.00  0.00     0.148 A 
ATOM     40  C   UNL A   1      37.625  32.706  37.122  1.00  0.00     0.002 A 
ATOM     41  C   UNL A   1      39.326  34.292  36.461  1.00  0.00     0.091 A 
ATOM     42  F   UNL A   1      40.635  33.857  34.508  1.00  0.00    -0.205 F 
ATOM     43  C   UNL A   1      38.313  33.891  37.345  1.00  0.00     0.022 A 
BRANCH  41  44
ATOM     44  S   UNL A   1      40.167  35.835  36.868  1.00  0.00     0.127 S 
ATOM     45  O   UNL A   1      40.043  36.575  35.601  1.00  0.00    -0.237 OA
ATOM     46  O   UNL A   1      39.320  36.368  37.949  1.00  0.00    -0.237 OA
ATOM     47  O   UNL A   1      41.508  35.484  37.242  1.00  0.00    -0.744 OA
ENDBRANCH  41  44
ENDBRANCH  23  37
BRANCH  24  48
ATOM     48  C   UNL A   1      42.325  26.885  27.603  1.00  0.00     0.023 A 
ATOM     49  C   UNL A   1      43.230  27.441  26.678  1.00  0.00     0.012 A 
ATOM     50  C   UNL A   1      41.953  25.536  27.489  1.00  0.00     0.148 A 
ATOM     51  C   UNL A   1      43.722  26.673  25.625  1.00  0.00     0.002 A 
ATOM     52  C   UNL A   1      42.498  24.760  26.476  1.00  0.00     0.091 A 
ATOM     53  F   UNL A   1      41.092  25.036  28.388  1.00  0.00    -0.205 F 
ATOM     54  C   UNL A   1      43.364  25.331  25.531  1.00  0.00     0.022 A 
BRANCH  52  55
ATOM     55  S   UNL A   1      42.214  22.992  26.370  1.00  0.00     0.127 S 
ATOM     56  O   UNL A   1      42.813  22.672  25.078  1.00  0.00    -0.237 OA
ATOM     57  O   UNL A   1      42.952  22.501  27.535  1.00  0.00    -0.237 OA
ATOM     58  O   UNL A   1      40.770  22.822  26.463  1.00  0.00    -0.744 OA
ENDBRANCH  52  55
ENDBRANCH  24  48
BRANCH  36  59
ATOM     59  C   UNL A   1      44.317  27.570  34.266  1.00  0.00     0.023 A 
ATOM     60  C   UNL A   1      45.523  28.271  34.475  1.00  0.00     0.012 A 
ATOM     61  C   UNL A   1      44.118  26.344  34.938  1.00  0.00     0.148 A 
ATOM     62  C   UNL A   1      46.513  27.755  35.314  1.00  0.00     0.002 A 
ATOM     63  C   UNL A   1      45.084  25.864  35.816  1.00  0.00     0.091 A 
ATOM     64  F   UNL A   1      42.982  25.669  34.710  1.00  0.00    -0.205 F 
ATOM     65  C   UNL A   1      46.288  26.561  35.997  1.00  0.00     0.022 A 
BRANCH  63  66
ATOM     66  S   UNL A   1      44.824  24.396  36.823  1.00  0.00     0.127 S 
ATOM     67  O   UNL A   1      46.150  24.197  37.406  1.00  0.00    -0.237 OA
ATOM     68  O   UNL A   1      43.803  24.845  37.770  1.00  0.00    -0.237 OA
ATOM     69  O   UNL A   1      44.381  23.355  35.906  1.00  0.00    -0.744 OA
ENDBRANCH  63  66
ENDBRANCH  36  59
ENDBRANCH  10  11
ENDBRANCH   3   5
ENDBRANCH   2   3
ENDBRANCH   1   2
BRANCH   1  70
ATOM     70  C   UNL A   1      30.977  29.262  23.281  1.00  0.00     0.274 C 
BRANCH  70  71
ATOM     71  O   UNL A   1      32.214  29.305  22.489  1.00  0.00    -0.462 OA
BRANCH  71  72
ATOM     72  C   UNL A   1      33.246  28.411  22.733  1.00  0.00     0.312 C 
ATOM     73  O   UNL A   1      34.422  28.719  22.610  1.00  0.00    -0.252 OA
BRANCH  72  74
ATOM     74  C   UNL A   1      32.722  26.977  23.096  1.00  0.00     0.147 C 
ATOM     75  C   UNL A   1      33.616  25.910  24.087  1.00  0.00     0.129 C 
ATOM     76  C   UNL A   1      32.806  26.303  21.703  1.00  0.00     0.157 C 
ATOM     77  C   UNL A   1      33.640  24.763  23.001  1.00  0.00     0.155 C 
ATOM     78  C   UNL A   1      31.817  25.197  21.652  1.00  0.00     0.004 C 
ATOM     79  O   UNL A   1      34.028  25.543  21.834  1.00  0.00    -0.365 OA
ATOM     80  C   UNL A   1      32.288  24.277  22.503  1.00  0.00     0.004 C 
BRANCH  75  81
ATOM     81  C   UNL A   1      33.536  25.056  25.599  1.00  0.00     0.233 C 
ATOM     82  O   UNL A   1      33.145  25.779  26.550  1.00  0.00    -0.274 OA
ATOM     83  N   UNL A   1      33.768  23.770  26.117  1.00  0.00    -0.302 N 
ATOM     84  H   UNL A   1      33.456  23.756  27.051  1.00  0.00     0.172 HD
BRANCH  83  85
ATOM     85  C   UNL A   1      34.279  22.491  25.807  1.00  0.00     0.189 A 
ATOM     86  N   UNL A   1      33.697  21.340  25.620  1.00  0.00    -0.220 NA
ATOM     87  S   UNL A   1      35.993  22.351  25.550  1.00  0.00    -0.105 S 
ATOM     88  C   UNL A   1      34.484  20.373  24.989  1.00  0.00     0.084 A 
ATOM     89  C   UNL A   1      35.821  20.698  24.992  1.00  0.00     0.097 A 
BRANCH  88  90
ATOM     90  C   UNL A   1      33.878  19.059  24.727  1.00  0.00     0.001 A 
ATOM     91  C   UNL A   1      32.616  18.633  25.195  1.00  0.00     0.013 A 
ATOM     92  C   UNL A   1      34.766  18.086  24.249  1.00  0.00     0.013 A 
ATOM     93  C   UNL A   1      32.312  17.253  25.263  1.00  0.00     0.040 A 
ATOM     94  C   UNL A   1      34.464  16.725  24.316  1.00  0.00     0.040 A 
ATOM     95  C   UNL A   1      33.251  16.315  24.846  1.00  0.00     0.123 A 
ATOM     96  F   UNL A   1      33.008  15.006  25.003  1.00  0.00    -0.207 F 
ENDBRANCH  88  90
ENDBRANCH  83  85
ENDBRANCH  75  81
ENDBRANCH  72  74
ENDBRANCH  71  72
ENDBRANCH  70  71
ENDBRANCH   1  70
TORSDOF 17
ENDMDL
MODEL 2
REMARK VINA RESULT:     -12.9      5.628      9.096
REMARK SMILES O=C(OCCOC(=O)[C@@H]1[C@@H](C(=O)Nc2nc(-c3ccc(F)cc3)cs2)[C@H]2C=C[C@@H]1O2)c1ccc(-c2c3nc(c(-c4cccc(S(=O)(=O)[O-])c4F)c4ccc([nH]4)c(-c4cccc(S(=O)(=O)[O-])c4F)c4nc(c(-c5cccc(S(=O)(=O)[O-])c5F)c5ccc2[nH]5)C=C4)C=C3)cc1
REMARK SMILES IDX 4 1 3 2 2 3 1 4 31 5 32 6 93 7 33 8 92 9 34 10 35 11 36 12
REMARK SMILES IDX 86 13 37 14 91 15 85 16 87 17 38 18 90 19 84 20 83 21 39 23
REMARK SMILES IDX 71 24 51 25 70 26 52 27 55 28 69 29 88 30 53 31 54 32 68 34
REMARK SMILES IDX 89 35 56 36 40 37 41 38 49 39 42 40 44 41 50 42 43 43 45 44
REMARK SMILES IDX 46 45 47 46 48 47 72 48 73 49 81 50 74 51 76 52 82 53 75 54
REMARK SMILES IDX 77 55 78 56 79 57 80 58 57 59 58 60 66 61 59 62 61 63 67 64
REMARK SMILES IDX 60 65 62 66 63 67 64 68 65 69 5 70 6 71 7 72 8 73 9 74 10 75
REMARK SMILES IDX 29 76 26 77 28 78 30 79 27 80 11 81 12 82 13 83 14 85 15 86
REMARK SMILES IDX 25 87 16 88 24 89 17 90 18 91 23 92 19 93 22 94 20 95 21 96
REMARK H PARENT 87 22 55 33 13 84
REMARK Flexibility Score: inf
ROOT
ATOM      1  C   UNL A   1      38.295  19.889  24.734  1.00  0.00     0.275 C 
ENDROOT
BRANCH   1   2
ATOM      2  O   UNL A   1      39.001  19.407  25.861  1.00  0.00    -0.458 OA
BRANCH   2   3
ATOM      3  C   UNL A   1      40.326  19.600  26.029  1.00  0.00     0.338 C 
ATOM      4  O   UNL A   1      41.069  18.667  25.721  1.00  0.00    -0.246 OA
BRANCH   3   5
ATOM      5  C   UNL A   1      40.896  20.841  26.726  1.00  0.00     0.060 A 
ATOM      6  C   UNL A   1      41.622  21.094  27.897  1.00  0.00     0.016 A 
ATOM      7  C   UNL A   1      40.766  21.965  25.962  1.00  0.00     0.016 A 
ATOM      8  C   UNL A   1      42.070  22.443  28.289  1.00  0.00     0.010 A 
ATOM      9  C   UNL A   1      41.239  23.255  26.360  1.00  0.00     0.010 A 
ATOM     10  C   UNL A   1      41.815  23.600  27.536  1.00  0.00    -0.014 A 
BRANCH  10  11
ATOM     11  C   UNL A   1      42.233  25.075  27.660  1.00  0.00     0.031 A 
ATOM     12  C   UNL A   1      41.357  26.317  28.041  1.00  0.00     0.074 A 
ATOM     13  C   UNL A   1      43.365  25.496  27.069  1.00  0.00     0.049 A 
ATOM     14  N   UNL A   1      41.534  27.193  29.013  1.00  0.00    -0.248 NA
ATOM     15  C   UNL A   1      40.274  26.760  27.139  1.00  0.00     0.031 C 
ATOM     16  C   UNL A   1      44.279  24.667  26.297  1.00  0.00     0.029 A 
ATOM     17  N   UNL A   1      43.921  26.754  27.040  1.00  0.00    -0.354 N 
ATOM     18  C   UNL A   1      40.432  28.067  28.996  1.00  0.00     0.074 A 
ATOM     19  C   UNL A   1      39.653  27.721  27.828  1.00  0.00     0.031 C 
ATOM     20  C   UNL A   1      45.341  25.412  25.956  1.00  0.00     0.029 A 
ATOM     21  C   UNL A   1      45.166  26.773  26.469  1.00  0.00     0.049 A 
ATOM     22  H   UNL A   1      43.471  27.555  27.392  1.00  0.00     0.167 HD
ATOM     23  C   UNL A   1      40.202  29.266  29.601  1.00  0.00     0.034 A 
ATOM     24  C   UNL A   1      46.090  27.753  26.416  1.00  0.00     0.034 A 
ATOM     25  C   UNL A   1      41.225  30.255  29.827  1.00  0.00     0.049 A 
ATOM     26  C   UNL A   1      45.862  29.095  27.069  1.00  0.00     0.074 A 
ATOM     27  C   UNL A   1      41.101  31.520  30.383  1.00  0.00     0.029 A 
ATOM     28  N   UNL A   1      42.498  30.188  29.286  1.00  0.00    -0.354 N 
ATOM     29  N   UNL A   1      44.839  29.529  27.763  1.00  0.00    -0.248 NA
ATOM     30  C   UNL A   1      46.966  30.066  26.969  1.00  0.00     0.031 C 
ATOM     31  C   UNL A   1      42.259  32.250  30.079  1.00  0.00     0.029 A 
ATOM     32  C   UNL A   1      43.141  31.406  29.427  1.00  0.00     0.049 A 
ATOM     33  H   UNL A   1      42.890  29.390  28.863  1.00  0.00     0.167 HD
ATOM     34  C   UNL A   1      45.196  30.804  28.212  1.00  0.00     0.074 A 
ATOM     35  C   UNL A   1      46.532  31.063  27.727  1.00  0.00     0.031 C 
ATOM     36  C   UNL A   1      44.479  31.676  28.966  1.00  0.00     0.034 A 
BRANCH  23  37
ATOM     37  C   UNL A   1      38.774  29.628  30.000  1.00  0.00     0.023 A 
ATOM     38  C   UNL A   1      38.351  29.205  31.279  1.00  0.00     0.012 A 
ATOM     39  C   UNL A   1      37.948  30.530  29.287  1.00  0.00     0.148 A 
ATOM     40  C   UNL A   1      37.146  29.650  31.834  1.00  0.00     0.002 A 
ATOM     41  C   UNL A   1      36.746  30.976  29.852  1.00  0.00     0.091 A 
ATOM     42  F   UNL A   1      38.363  30.964  28.090  1.00  0.00    -0.205 F 
ATOM     43  C   UNL A   1      36.346  30.534  31.122  1.00  0.00     0.022 A 
BRANCH  41  44
ATOM     44  S   UNL A   1      35.639  32.142  29.034  1.00  0.00     0.127 S 
ATOM     45  O   UNL A   1      36.521  33.309  28.864  1.00  0.00    -0.237 OA
ATOM     46  O   UNL A   1      35.336  31.441  27.774  1.00  0.00    -0.237 OA
ATOM     47  O   UNL A   1      34.527  32.341  29.920  1.00  0.00    -0.744 OA
ENDBRANCH  41  44
ENDBRANCH  23  37
BRANCH  24  48
ATOM     48  C   UNL A   1      47.413  27.437  25.820  1.00  0.00     0.023 A 
ATOM     49  C   UNL A   1      48.416  26.883  26.639  1.00  0.00     0.012 A 
ATOM     50  C   UNL A   1      47.665  27.643  24.454  1.00  0.00     0.148 A 
ATOM     51  C   UNL A   1      49.670  26.582  26.112  1.00  0.00     0.002 A 
ATOM     52  C   UNL A   1      48.894  27.280  23.923  1.00  0.00     0.091 A 
ATOM     53  F   UNL A   1      46.687  28.169  23.700  1.00  0.00    -0.205 F 
ATOM     54  C   UNL A   1      49.904  26.770  24.753  1.00  0.00     0.022 A 
BRANCH  52  55
ATOM     55  S   UNL A   1      49.229  27.344  22.162  1.00  0.00     0.127 S 
ATOM     56  O   UNL A   1      48.420  26.235  21.665  1.00  0.00    -0.237 OA
ATOM     57  O   UNL A   1      48.738  28.678  21.813  1.00  0.00    -0.237 OA
ATOM     58  O   UNL A   1      50.672  27.187  22.034  1.00  0.00    -0.744 OA
ENDBRANCH  52  55
ENDBRANCH  24  48
BRANCH  36  59
ATOM     59  C   UNL A   1      45.097  33.002  29.355  1.00  0.00     0.023 A 
ATOM     60  C   UNL A   1      45.838  33.134  30.548  1.00  0.00     0.012 A 
ATOM     61  C   UNL A   1      45.039  34.097  28.466  1.00  0.00     0.148 A 
ATOM     62  C   UNL A   1      46.486  34.333  30.857  1.00  0.00     0.002 A 
ATOM     63  C   UNL A   1      45.733  35.268  28.752  1.00  0.00     0.091 A 
ATOM     64  F   UNL A   1      44.308  33.972  27.349  1.00  0.00    -0.205 F 
ATOM     65  C   UNL A   1      46.448  35.393  29.953  1.00  0.00     0.022 A 
BRANCH  63  66
ATOM     66  S   UNL A   1      45.832  36.636  27.590  1.00  0.00     0.127 S 
ATOM     67  O   UNL A   1      46.195  35.948  26.352  1.00  0.00    -0.237 OA
ATOM     68  O   UNL A   1      44.468  37.165  27.616  1.00  0.00    -0.237 OA
ATOM     69  O   UNL A   1      46.841  37.541  28.122  1.00  0.00    -0.744 OA
ENDBRANCH  63  66
ENDBRANCH  36  59
ENDBRANCH  10  11
ENDBRANCH   3   5
ENDBRANCH   2   3
ENDBRANCH   1   2
BRANCH   1  70
ATOM     70  C   UNL A   1      37.243  20.977  25.051  1.00  0.00     0.274 C 
BRANCH  70  71
ATOM     71  O   UNL A   1      36.971  22.000  24.032  1.00  0.00    -0.462 OA
BRANCH  71  72
ATOM     72  C   UNL A   1      36.057  23.016  24.271  1.00  0.00     0.312 C 
ATOM     73  O   UNL A   1      36.293  23.941  25.033  1.00  0.00    -0.252 OA
BRANCH  72  74
ATOM     74  C   UNL A   1      34.697  22.787  23.522  1.00  0.00     0.147 C 
ATOM     75  C   UNL A   1      33.598  24.061  23.231  1.00  0.00     0.129 C 
ATOM     76  C   UNL A   1      33.955  21.926  24.576  1.00  0.00     0.157 C 
ATOM     77  C   UNL A   1      32.405  23.332  23.967  1.00  0.00     0.155 C 
ATOM     78  C   UNL A   1      32.947  21.090  23.879  1.00  0.00     0.004 C 
ATOM     79  O   UNL A   1      33.090  22.913  25.182  1.00  0.00    -0.365 OA
ATOM     80  C   UNL A   1      32.027  21.956  23.440  1.00  0.00     0.004 C 
BRANCH  75  81
ATOM     81  C   UNL A   1      32.825  24.934  21.941  1.00  0.00     0.233 C 
ATOM     82  O   UNL A   1      33.319  24.681  20.814  1.00  0.00    -0.274 OA
ATOM     83  N   UNL A   1      31.785  25.859  21.745  1.00  0.00    -0.302 N 
ATOM     84  H   UNL A   1      31.652  25.970  20.776  1.00  0.00     0.172 HD
BRANCH  83  85
ATOM     85  C   UNL A   1      30.858  26.691  22.412  1.00  0.00     0.189 A 
ATOM     86  N   UNL A   1      30.420  27.891  22.155  1.00  0.00    -0.220 NA
ATOM     87  S   UNL A   1      30.061  26.043  23.815  1.00  0.00    -0.105 S 
ATOM     88  C   UNL A   1      29.254  28.254  22.833  1.00  0.00     0.084 A 
ATOM     89  C   UNL A   1      28.980  27.421  23.893  1.00  0.00     0.097 A 
BRANCH  88  90
ATOM     90  C   UNL A   1      28.693  29.588  22.569  1.00  0.00     0.001 A 
ATOM     91  C   UNL A   1      28.459  30.138  21.291  1.00  0.00     0.013 A 
ATOM     92  C   UNL A   1      28.701  30.457  23.668  1.00  0.00     0.013 A 
ATOM     93  C   UNL A   1      28.334  31.537  21.130  1.00  0.00     0.040 A 
ATOM     94  C   UNL A   1      28.576  31.838  23.509  1.00  0.00     0.040 A 
ATOM     95  C   UNL A   1      28.420  32.372  22.240  1.00  0.00     0.123 A 
ATOM     96  F   UNL A   1      28.403  33.703  22.081  1.00  0.00    -0.207 F 
ENDBRANCH  88  90
ENDBRANCH  83  85
ENDBRANCH  75  81
ENDBRANCH  72  74
ENDBRANCH  71  72
ENDBRANCH  70  71
ENDBRANCH   1  70
TORSDOF 17
ENDMDL
MODEL 3
REMARK VINA RESULT:     -12.8      2.538      3.490
REMARK SMILES O=C(OCCOC(=O)[C@@H]1[C@@H](C(=O)Nc2nc(-c3ccc(F)cc3)cs2)[C@H]2C=C[C@@H]1O2)c1ccc(-c2c3nc(c(-c4cccc(S(=O)(=O)[O-])c4F)c4ccc([nH]4)c(-c4cccc(S(=O)(=O)[O-])c4F)c4nc(c(-c5cccc(S(=O)(=O)[O-])c5F)c5ccc2[nH]5)C=C4)C=C3)cc1
REMARK SMILES IDX 4 1 3 2 2 3 1 4 31 5 32 6 93 7 33 8 92 9 34 10 35 11 36 12
REMARK SMILES IDX 86 13 37 14 91 15 85 16 87 17 38 18 90 19 84 20 83 21 39 23
REMARK SMILES IDX 71 24 51 25 70 26 52 27 55 28 69 29 88 30 53 31 54 32 68 34
REMARK SMILES IDX 89 35 56 36 40 37 41 38 49 39 42 40 44 41 50 42 43 43 45 44
REMARK SMILES IDX 46 45 47 46 48 47 72 48 73 49 81 50 74 51 76 52 82 53 75 54
REMARK SMILES IDX 77 55 78 56 79 57 80 58 57 59 58 60 66 61 59 62 61 63 67 64
REMARK SMILES IDX 60 65 62 66 63 67 64 68 65 69 5 70 6 71 7 72 8 73 9 74 10 75
REMARK SMILES IDX 29 76 26 77 28 78 30 79 27 80 11 81 12 82 13 83 14 85 15 86
REMARK SMILES IDX 25 87 16 88 24 89 17 90 18 91 23 92 19 93 22 94 20 95 21 96
REMARK H PARENT 87 22 55 33 13 84
REMARK Flexibility Score: inf
ROOT
ATOM      1  C   UNL A   1      33.247  29.340  26.928  1.00  0.00     0.275 C 
ENDROOT
BRANCH   1   2
ATOM      2  O   UNL A   1      33.625  30.696  27.061  1.00  0.00    -0.458 OA
BRANCH   2   3
ATOM      3  C   UNL A   1      34.550  31.113  27.952  1.00  0.00     0.338 C 
ATOM      4  O   UNL A   1      34.286  32.132  28.593  1.00  0.00    -0.246 OA
BRANCH   3   5
ATOM      5  C   UNL A   1      35.937  30.470  28.062  1.00  0.00     0.060 A 
ATOM      6  C   UNL A   1      37.075  30.387  27.248  1.00  0.00     0.016 A 
ATOM      7  C   UNL A   1      36.166  29.948  29.301  1.00  0.00     0.016 A 
ATOM      8  C   UNL A   1      38.312  29.702  27.666  1.00  0.00     0.010 A 
ATOM      9  C   UNL A   1      37.391  29.316  29.685  1.00  0.00     0.010 A 
ATOM     10  C   UNL A   1      38.474  29.070  28.909  1.00  0.00    -0.014 A 
BRANCH  10  11
ATOM     11  C   UNL A   1      39.652  28.382  29.618  1.00  0.00     0.031 A 
ATOM     12  C   UNL A   1      40.438  28.844  30.893  1.00  0.00     0.074 A 
ATOM     13  C   UNL A   1      40.378  27.463  28.959  1.00  0.00     0.049 A 
ATOM     14  N   UNL A   1      40.639  28.197  32.026  1.00  0.00    -0.248 NA
ATOM     15  C   UNL A   1      41.256  30.073  30.850  1.00  0.00     0.031 C 
ATOM     16  C   UNL A   1      40.154  27.026  27.590  1.00  0.00     0.029 A 
ATOM     17  N   UNL A   1      41.466  26.738  29.386  1.00  0.00    -0.354 N 
ATOM     18  C   UNL A   1      41.327  29.067  32.891  1.00  0.00     0.074 A 
ATOM     19  C   UNL A   1      41.650  30.244  32.115  1.00  0.00     0.031 C 
ATOM     20  C   UNL A   1      41.010  26.030  27.317  1.00  0.00     0.029 A 
ATOM     21  C   UNL A   1      41.853  25.777  28.488  1.00  0.00     0.049 A 
ATOM     22  H   UNL A   1      41.921  26.893  30.245  1.00  0.00     0.167 HD
ATOM     23  C   UNL A   1      41.983  28.863  34.068  1.00  0.00     0.034 A 
ATOM     24  C   UNL A   1      42.739  24.770  28.611  1.00  0.00     0.034 A 
ATOM     25  C   UNL A   1      42.728  27.667  34.370  1.00  0.00     0.049 A 
ATOM     26  C   UNL A   1      43.486  24.522  29.899  1.00  0.00     0.074 A 
ATOM     27  C   UNL A   1      43.469  27.370  35.504  1.00  0.00     0.029 A 
ATOM     28  N   UNL A   1      43.026  26.687  33.439  1.00  0.00    -0.354 N 
ATOM     29  N   UNL A   1      43.421  25.157  31.044  1.00  0.00    -0.248 NA
ATOM     30  C   UNL A   1      44.399  23.366  29.912  1.00  0.00     0.031 C 
ATOM     31  C   UNL A   1      44.296  26.276  35.216  1.00  0.00     0.029 A 
ATOM     32  C   UNL A   1      43.992  25.830  33.942  1.00  0.00     0.049 A 
ATOM     33  H   UNL A   1      42.612  26.608  32.549  1.00  0.00     0.167 HD
ATOM     34  C   UNL A   1      44.251  24.450  31.920  1.00  0.00     0.074 A 
ATOM     35  C   UNL A   1      44.792  23.335  31.179  1.00  0.00     0.031 C 
ATOM     36  C   UNL A   1      44.530  24.703  33.224  1.00  0.00     0.034 A 
BRANCH  23  37
ATOM     37  C   UNL A   1      42.001  29.984  35.104  1.00  0.00     0.023 A 
ATOM     38  C   UNL A   1      43.260  30.554  35.394  1.00  0.00     0.012 A 
ATOM     39  C   UNL A   1      40.845  30.626  35.608  1.00  0.00     0.148 A 
ATOM     40  C   UNL A   1      43.376  31.714  36.166  1.00  0.00     0.002 A 
ATOM     41  C   UNL A   1      40.968  31.792  36.375  1.00  0.00     0.091 A 
ATOM     42  F   UNL A   1      39.646  30.111  35.303  1.00  0.00    -0.205 F 
ATOM     43  C   UNL A   1      42.232  32.332  36.654  1.00  0.00     0.022 A 
BRANCH  41  44
ATOM     44  S   UNL A   1      39.556  32.695  37.040  1.00  0.00     0.127 S 
ATOM     45  O   UNL A   1      38.727  31.596  37.562  1.00  0.00    -0.237 OA
ATOM     46  O   UNL A   1      40.185  33.512  38.092  1.00  0.00    -0.237 OA
ATOM     47  O   UNL A   1      38.983  33.424  35.943  1.00  0.00    -0.744 OA
ENDBRANCH  41  44
ENDBRANCH  23  37
BRANCH  24  48
ATOM     48  C   UNL A   1      42.863  23.805  27.488  1.00  0.00     0.023 A 
ATOM     49  C   UNL A   1      43.783  24.074  26.456  1.00  0.00     0.012 A 
ATOM     50  C   UNL A   1      42.111  22.620  27.459  1.00  0.00     0.148 A 
ATOM     51  C   UNL A   1      43.918  23.194  25.385  1.00  0.00     0.002 A 
ATOM     52  C   UNL A   1      42.299  21.717  26.423  1.00  0.00     0.091 A 
ATOM     53  F   UNL A   1      41.246  22.392  28.459  1.00  0.00    -0.205 F 
ATOM     54  C   UNL A   1      43.184  22.011  25.375  1.00  0.00     0.022 A 
BRANCH  52  55
ATOM     55  S   UNL A   1      41.512  20.105  26.408  1.00  0.00     0.127 S 
ATOM     56  O   UNL A   1      42.186  19.456  25.287  1.00  0.00    -0.237 OA
ATOM     57  O   UNL A   1      41.866  19.587  27.730  1.00  0.00    -0.237 OA
ATOM     58  O   UNL A   1      40.090  20.367  26.230  1.00  0.00    -0.744 OA
ENDBRANCH  52  55
ENDBRANCH  24  48
BRANCH  36  59
ATOM     59  C   UNL A   1      45.446  23.766  33.981  1.00  0.00     0.023 A 
ATOM     60  C   UNL A   1      44.972  22.538  34.486  1.00  0.00     0.012 A 
ATOM     61  C   UNL A   1      46.823  24.060  34.089  1.00  0.00     0.148 A 
ATOM     62  C   UNL A   1      45.843  21.634  35.101  1.00  0.00     0.002 A 
ATOM     63  C   UNL A   1      47.694  23.132  34.651  1.00  0.00     0.091 A 
ATOM     64  F   UNL A   1      47.261  25.243  33.634  1.00  0.00    -0.205 F 
ATOM     65  C   UNL A   1      47.204  21.923  35.169  1.00  0.00     0.022 A 
BRANCH  63  66
ATOM     66  S   UNL A   1      49.475  23.375  34.673  1.00  0.00     0.127 S 
ATOM     67  O   UNL A   1      49.936  22.137  35.300  1.00  0.00    -0.237 OA
ATOM     68  O   UNL A   1      49.791  23.491  33.249  1.00  0.00    -0.237 OA
ATOM     69  O   UNL A   1      49.704  24.589  35.443  1.00  0.00    -0.744 OA
ENDBRANCH  63  66
ENDBRANCH  36  59
ENDBRANCH  10  11
ENDBRANCH   3   5
ENDBRANCH   2   3
ENDBRANCH   1   2
BRANCH   1  70
ATOM     70  C   UNL A   1      32.823  28.927  25.501  1.00  0.00     0.274 C 
BRANCH  70  71
ATOM     71  O   UNL A   1      31.414  29.093  25.117  1.00  0.00    -0.462 OA
BRANCH  71  72
ATOM     72  C   UNL A   1      30.779  28.154  24.317  1.00  0.00     0.312 C 
ATOM     73  O   UNL A   1      29.859  28.448  23.569  1.00  0.00    -0.252 OA
BRANCH  72  74
ATOM     74  C   UNL A   1      31.324  26.702  24.552  1.00  0.00     0.147 C 
ATOM     75  C   UNL A   1      31.825  25.703  23.260  1.00  0.00     0.129 C 
ATOM     76  C   UNL A   1      30.027  26.007  25.040  1.00  0.00     0.157 C 
ATOM     77  C   UNL A   1      30.829  24.539  23.643  1.00  0.00     0.155 C 
ATOM     78  C   UNL A   1      30.403  24.849  25.890  1.00  0.00     0.004 C 
ATOM     79  O   UNL A   1      29.613  25.316  23.841  1.00  0.00    -0.365 OA
ATOM     80  C   UNL A   1      30.961  23.973  25.048  1.00  0.00     0.004 C 
BRANCH  75  81
ATOM     81  C   UNL A   1      33.219  24.874  22.632  1.00  0.00     0.233 C 
ATOM     82  O   UNL A   1      33.653  25.383  21.567  1.00  0.00    -0.274 OA
ATOM     83  N   UNL A   1      34.050  23.785  22.945  1.00  0.00    -0.302 N 
ATOM     84  H   UNL A   1      34.806  23.786  22.315  1.00  0.00     0.172 HD
BRANCH  83  85
ATOM     85  C   UNL A   1      34.212  22.690  23.822  1.00  0.00     0.189 A 
ATOM     86  N   UNL A   1      33.706  21.489  23.821  1.00  0.00    -0.220 NA
ATOM     87  S   UNL A   1      35.326  22.876  25.144  1.00  0.00    -0.105 S 
ATOM     88  C   UNL A   1      34.361  20.569  24.645  1.00  0.00     0.084 A 
ATOM     89  C   UNL A   1      35.194  21.177  25.555  1.00  0.00     0.097 A 
BRANCH  88  90
ATOM     90  C   UNL A   1      33.854  19.189  24.671  1.00  0.00     0.001 A 
ATOM     91  C   UNL A   1      32.694  18.757  25.350  1.00  0.00     0.013 A 
ATOM     92  C   UNL A   1      34.771  18.217  24.251  1.00  0.00     0.013 A 
ATOM     93  C   UNL A   1      32.527  17.390  25.674  1.00  0.00     0.040 A 
ATOM     94  C   UNL A   1      34.605  16.869  24.571  1.00  0.00     0.040 A 
ATOM     95  C   UNL A   1      33.499  16.467  25.303  1.00  0.00     0.123 A 
ATOM     96  F   UNL A   1      33.395  15.189  25.695  1.00  0.00    -0.207 F 
ENDBRANCH  88  90
ENDBRANCH  83  85
ENDBRANCH  75  81
ENDBRANCH  72  74
ENDBRANCH  71  72
ENDBRANCH  70  71
ENDBRANCH   1  70
TORSDOF 17
ENDMDL
