MODEL 1
REMARK VINA RESULT:     -13.5      0.000      0.000
REMARK SMILES Cc1ccc(S(=O)(=O)N2c3ccc(C(=O)OCCOC(=O)c4ccc(-c5c6nc(c(-c7cccc(S(=O)(=O)[O-])c7F)c7ccc([nH]7)c(-c7cccc(S(=O)(=O)[O-])c7F)c7nc(c(-c8cccc(S(=O)(=O)[O-])c8F)c8ccc5[nH]8)C=C7)C=C6)cc4)cc3C[C@H]2C)cc1
REMARK SMILES IDX 18 1 17 2 16 3 14 4 15 5 13 6 9 7 10 8 88 9 11 10 86 11
REMARK SMILES IDX 87 12 89 13 12 14 85 15 6 16 7 17 8 18 5 19 1 20 2 21 3 22
REMARK SMILES IDX 91 23 4 24 90 25 19 26 20 27 21 28 22 29 23 30 84 31 24 32
REMARK SMILES IDX 83 33 25 34 26 35 27 36 77 37 28 38 82 39 76 40 78 41 29 42
REMARK SMILES IDX 81 43 75 44 74 45 30 47 62 48 42 49 61 50 43 51 46 52 60 53
REMARK SMILES IDX 79 54 44 55 45 56 59 58 80 59 47 60 31 61 32 62 40 63 33 64
REMARK SMILES IDX 35 65 41 66 34 67 36 68 37 69 38 70 39 71 63 72 64 73 72 74
REMARK SMILES IDX 65 75 67 76 73 77 66 78 68 79 69 80 70 81 71 82 48 83 49 84
REMARK SMILES IDX 57 85 50 86 52 87 58 88 51 89 53 90 54 91 55 92 56 93
REMARK H PARENT 78 46 46 57
REMARK Flexibility Score: inf
ROOT
ATOM      1  C   UNL A   1      32.522  30.503  26.876  1.00  0.00     0.275 C 
ENDROOT
BRANCH   1   2
ATOM      2  C   UNL A   1      31.967  30.078  25.513  1.00  0.00     0.275 C 
BRANCH   2   3
ATOM      3  O   UNL A   1      32.861  29.321  24.687  1.00  0.00    -0.458 OA
BRANCH   3   4
ATOM      4  C   UNL A   1      32.183  28.310  24.068  1.00  0.00     0.338 C 
ATOM      5  O   UNL A   1      31.096  28.443  23.520  1.00  0.00    -0.246 OA
BRANCH   4   6
ATOM      6  C   UNL A   1      32.793  26.971  24.231  1.00  0.00     0.060 A 
ATOM      7  N   UNL A   1      34.394  23.134  24.901  1.00  0.00    -0.263 N 
ATOM      8  C   UNL A   1      33.803  24.450  24.816  1.00  0.00     0.055 A 
ATOM      9  C   UNL A   1      34.642  22.750  23.450  1.00  0.00     0.101 C 
ATOM     10  C   UNL A   1      33.576  25.324  25.860  1.00  0.00     0.028 A 
ATOM     11  C   UNL A   1      33.522  24.813  23.497  1.00  0.00    -0.021 A 
ATOM     12  C   UNL A   1      33.707  23.634  22.593  1.00  0.00     0.063 C 
ATOM     13  C   UNL A   1      36.116  23.069  23.141  1.00  0.00     0.032 C 
ATOM     14  C   UNL A   1      33.041  26.577  25.563  1.00  0.00     0.018 A 
ATOM     15  C   UNL A   1      33.045  26.082  23.181  1.00  0.00     0.021 A 
BRANCH   7  16
ATOM     16  S   UNL A   1      33.448  22.031  25.833  1.00  0.00     0.264 S 
ATOM     17  O   UNL A   1      32.055  22.337  25.650  1.00  0.00    -0.201 OA
ATOM     18  O   UNL A   1      34.048  21.934  27.157  1.00  0.00    -0.201 OA
BRANCH  16  19
ATOM     19  C   UNL A   1      33.682  20.399  25.137  1.00  0.00     0.088 A 
ATOM     20  C   UNL A   1      34.020  16.578  23.175  1.00  0.00     0.044 C 
ATOM     21  C   UNL A   1      33.901  17.894  23.885  1.00  0.00    -0.051 A 
ATOM     22  C   UNL A   1      32.660  18.537  23.960  1.00  0.00     0.005 A 
ATOM     23  C   UNL A   1      35.017  18.495  24.477  1.00  0.00     0.005 A 
ATOM     24  C   UNL A   1      32.552  19.783  24.580  1.00  0.00     0.022 A 
ATOM     25  C   UNL A   1      34.908  19.740  25.106  1.00  0.00     0.022 A 
ENDBRANCH  16  19
ENDBRANCH   7  16
ENDBRANCH   4   6
ENDBRANCH   3   4
ENDBRANCH   2   3
ENDBRANCH   1   2
BRANCH   1  26
ATOM     26  O   UNL A   1      33.879  30.175  27.284  1.00  0.00    -0.458 OA
BRANCH  26  27
ATOM     27  C   UNL A   1      34.795  30.919  27.949  1.00  0.00     0.338 C 
ATOM     28  O   UNL A   1      34.584  32.090  28.233  1.00  0.00    -0.246 OA
BRANCH  27  29
ATOM     29  C   UNL A   1      36.070  30.273  28.282  1.00  0.00     0.060 A 
ATOM     30  C   UNL A   1      36.271  29.756  29.571  1.00  0.00     0.016 A 
ATOM     31  C   UNL A   1      37.017  30.108  27.279  1.00  0.00     0.016 A 
ATOM     32  C   UNL A   1      37.373  28.951  29.832  1.00  0.00     0.010 A 
ATOM     33  C   UNL A   1      38.037  29.220  27.496  1.00  0.00     0.010 A 
ATOM     34  C   UNL A   1      38.240  28.681  28.782  1.00  0.00    -0.014 A 
BRANCH  34  35
ATOM     35  C   UNL A   1      39.580  28.155  28.952  1.00  0.00     0.031 A 
ATOM     36  C   UNL A   1      39.937  26.749  28.706  1.00  0.00     0.074 A 
ATOM     37  C   UNL A   1      40.461  29.167  29.125  1.00  0.00     0.049 A 
ATOM     38  N   UNL A   1      41.119  26.297  28.923  1.00  0.00    -0.248 NA
ATOM     39  C   UNL A   1      39.025  25.720  28.214  1.00  0.00     0.031 C 
ATOM     40  C   UNL A   1      41.883  29.265  28.863  1.00  0.00     0.029 A 
ATOM     41  N   UNL A   1      40.169  30.411  29.669  1.00  0.00    -0.354 N 
ATOM     42  C   UNL A   1      41.210  25.033  28.370  1.00  0.00     0.074 A 
ATOM     43  C   UNL A   1      39.859  24.686  28.010  1.00  0.00     0.031 C 
ATOM     44  C   UNL A   1      42.360  30.369  29.480  1.00  0.00     0.029 A 
ATOM     45  C   UNL A   1      41.285  30.893  30.319  1.00  0.00     0.049 A 
ATOM     46  H   UNL A   1      39.304  30.875  29.601  1.00  0.00     0.167 HD
ATOM     47  C   UNL A   1      42.459  24.530  28.167  1.00  0.00     0.034 A 
ATOM     48  C   UNL A   1      41.275  30.884  31.691  1.00  0.00     0.034 A 
ATOM     49  C   UNL A   1      43.442  25.453  28.749  1.00  0.00     0.049 A 
ATOM     50  C   UNL A   1      42.308  29.914  32.229  1.00  0.00     0.074 A 
ATOM     51  C   UNL A   1      44.142  26.519  28.209  1.00  0.00     0.029 A 
ATOM     52  N   UNL A   1      43.510  25.583  30.129  1.00  0.00    -0.354 N 
ATOM     53  N   UNL A   1      42.715  28.843  31.605  1.00  0.00    -0.248 NA
ATOM     54  C   UNL A   1      43.044  30.155  33.464  1.00  0.00     0.031 C 
ATOM     55  C   UNL A   1      44.579  27.336  29.284  1.00  0.00     0.029 A 
ATOM     56  C   UNL A   1      44.157  26.759  30.473  1.00  0.00     0.049 A 
ATOM     57  H   UNL A   1      43.150  24.932  30.774  1.00  0.00     0.167 HD
ATOM     58  C   UNL A   1      43.741  28.258  32.298  1.00  0.00     0.074 A 
ATOM     59  C   UNL A   1      43.920  29.136  33.444  1.00  0.00     0.031 C 
ATOM     60  C   UNL A   1      44.359  27.109  31.873  1.00  0.00     0.034 A 
BRANCH  47  61
ATOM     61  C   UNL A   1      42.885  23.401  27.239  1.00  0.00     0.023 A 
ATOM     62  C   UNL A   1      43.842  23.752  26.250  1.00  0.00     0.012 A 
ATOM     63  C   UNL A   1      42.427  22.064  27.207  1.00  0.00     0.148 A 
ATOM     64  C   UNL A   1      44.281  22.875  25.257  1.00  0.00     0.002 A 
ATOM     65  C   UNL A   1      42.868  21.178  26.206  1.00  0.00     0.091 A 
ATOM     66  F   UNL A   1      41.584  21.630  28.150  1.00  0.00    -0.205 F 
ATOM     67  C   UNL A   1      43.786  21.588  25.229  1.00  0.00     0.022 A 
BRANCH  65  68
ATOM     68  S   UNL A   1      42.298  19.474  26.044  1.00  0.00     0.127 S 
ATOM     69  O   UNL A   1      40.858  19.649  25.841  1.00  0.00    -0.237 OA
ATOM     70  O   UNL A   1      43.018  19.011  24.859  1.00  0.00    -0.237 OA
ATOM     71  O   UNL A   1      42.653  18.801  27.287  1.00  0.00    -0.744 OA
ENDBRANCH  65  68
ENDBRANCH  47  61
BRANCH  48  72
ATOM     72  C   UNL A   1      39.906  31.131  32.288  1.00  0.00     0.023 A 
ATOM     73  C   UNL A   1      39.291  30.042  32.965  1.00  0.00     0.012 A 
ATOM     74  C   UNL A   1      39.377  32.418  32.504  1.00  0.00     0.148 A 
ATOM     75  C   UNL A   1      38.303  30.243  33.936  1.00  0.00     0.002 A 
ATOM     76  C   UNL A   1      38.373  32.611  33.465  1.00  0.00     0.091 A 
ATOM     77  F   UNL A   1      39.872  33.446  31.802  1.00  0.00    -0.205 F 
ATOM     78  C   UNL A   1      37.866  31.532  34.205  1.00  0.00     0.022 A 
BRANCH  76  79
ATOM     79  S   UNL A   1      37.784  34.259  33.900  1.00  0.00     0.127 S 
ATOM     80  O   UNL A   1      37.183  34.701  32.645  1.00  0.00    -0.237 OA
ATOM     81  O   UNL A   1      36.822  33.998  34.975  1.00  0.00    -0.237 OA
ATOM     82  O   UNL A   1      38.974  34.968  34.342  1.00  0.00    -0.744 OA
ENDBRANCH  76  79
ENDBRANCH  48  72
BRANCH  60  83
ATOM     83  C   UNL A   1      45.244  26.208  32.720  1.00  0.00     0.023 A 
ATOM     84  C   UNL A   1      46.632  26.408  32.828  1.00  0.00     0.012 A 
ATOM     85  C   UNL A   1      44.688  25.216  33.576  1.00  0.00     0.148 A 
ATOM     86  C   UNL A   1      47.434  25.639  33.675  1.00  0.00     0.002 A 
ATOM     87  C   UNL A   1      45.468  24.551  34.516  1.00  0.00     0.091 A 
ATOM     88  F   UNL A   1      43.394  24.880  33.476  1.00  0.00    -0.205 F 
ATOM     89  C   UNL A   1      46.849  24.730  34.541  1.00  0.00     0.022 A 
BRANCH  87  90
ATOM     90  S   UNL A   1      44.722  23.575  35.830  1.00  0.00     0.127 S 
ATOM     91  O   UNL A   1      43.918  24.576  36.527  1.00  0.00    -0.237 OA
ATOM     92  O   UNL A   1      43.948  22.586  35.077  1.00  0.00    -0.237 OA
ATOM     93  O   UNL A   1      45.841  23.016  36.575  1.00  0.00    -0.744 OA
ENDBRANCH  87  90
ENDBRANCH  60  83
ENDBRANCH  34  35
ENDBRANCH  27  29
ENDBRANCH  26  27
ENDBRANCH   1  26
TORSDOF 16
ENDMDL
MODEL 2
REMARK VINA RESULT:     -13.3      3.879     10.222
REMARK SMILES Cc1ccc(S(=O)(=O)N2c3ccc(C(=O)OCCOC(=O)c4ccc(-c5c6nc(c(-c7cccc(S(=O)(=O)[O-])c7F)c7ccc([nH]7)c(-c7cccc(S(=O)(=O)[O-])c7F)c7nc(c(-c8cccc(S(=O)(=O)[O-])c8F)c8ccc5[nH]8)C=C7)C=C6)cc4)cc3C[C@H]2C)cc1
REMARK SMILES IDX 18 1 17 2 16 3 14 4 15 5 13 6 9 7 10 8 88 9 11 10 86 11
REMARK SMILES IDX 87 12 89 13 12 14 85 15 6 16 7 17 8 18 5 19 1 20 2 21 3 22
REMARK SMILES IDX 91 23 4 24 90 25 19 26 20 27 21 28 22 29 23 30 84 31 24 32
REMARK SMILES IDX 83 33 25 34 26 35 27 36 77 37 28 38 82 39 76 40 78 41 29 42
REMARK SMILES IDX 81 43 75 44 74 45 30 47 62 48 42 49 61 50 43 51 46 52 60 53
REMARK SMILES IDX 79 54 44 55 45 56 59 58 80 59 47 60 31 61 32 62 40 63 33 64
REMARK SMILES IDX 35 65 41 66 34 67 36 68 37 69 38 70 39 71 63 72 64 73 72 74
REMARK SMILES IDX 65 75 67 76 73 77 66 78 68 79 69 80 70 81 71 82 48 83 49 84
REMARK SMILES IDX 57 85 50 86 52 87 58 88 51 89 53 90 54 91 55 92 56 93
REMARK H PARENT 78 46 46 57
REMARK Flexibility Score: inf
ROOT
ATOM      1  C   UNL A   1      38.150  21.566  25.310  1.00  0.00     0.275 C 
ENDROOT
BRANCH   1   2
ATOM      2  C   UNL A   1      36.757  20.944  25.456  1.00  0.00     0.275 C 
BRANCH   2   3
ATOM      3  O   UNL A   1      35.667  21.743  24.979  1.00  0.00    -0.458 OA
BRANCH   3   4
ATOM      4  C   UNL A   1      34.898  22.160  26.028  1.00  0.00     0.338 C 
ATOM      5  O   UNL A   1      34.693  21.498  27.038  1.00  0.00    -0.246 OA
BRANCH   4   6
ATOM      6  C   UNL A   1      34.190  23.440  25.802  1.00  0.00     0.060 A 
ATOM      7  N   UNL A   1      32.237  27.064  24.919  1.00  0.00    -0.263 N 
ATOM      8  C   UNL A   1      32.979  25.837  25.091  1.00  0.00     0.055 A 
ATOM      9  C   UNL A   1      31.170  27.002  26.004  1.00  0.00     0.101 C 
ATOM     10  C   UNL A   1      34.175  25.502  24.488  1.00  0.00     0.028 A 
ATOM     11  C   UNL A   1      32.381  24.990  26.027  1.00  0.00    -0.021 A 
ATOM     12  C   UNL A   1      31.028  25.514  26.398  1.00  0.00     0.063 C 
ATOM     13  C   UNL A   1      31.687  27.827  27.197  1.00  0.00     0.032 C 
ATOM     14  C   UNL A   1      34.763  24.283  24.827  1.00  0.00     0.018 A 
ATOM     15  C   UNL A   1      32.987  23.800  26.419  1.00  0.00     0.021 A 
BRANCH   7  16
ATOM     16  S   UNL A   1      31.671  27.288  23.305  1.00  0.00     0.264 S 
ATOM     17  O   UNL A   1      31.064  26.068  22.846  1.00  0.00    -0.201 OA
ATOM     18  O   UNL A   1      32.724  27.955  22.549  1.00  0.00    -0.201 OA
BRANCH  16  19
ATOM     19  C   UNL A   1      30.353  28.497  23.357  1.00  0.00     0.088 A 
ATOM     20  C   UNL A   1      27.439  31.670  23.390  1.00  0.00     0.044 C 
ATOM     21  C   UNL A   1      28.440  30.554  23.404  1.00  0.00    -0.051 A 
ATOM     22  C   UNL A   1      29.704  30.757  23.967  1.00  0.00     0.005 A 
ATOM     23  C   UNL A   1      28.130  29.303  22.858  1.00  0.00     0.005 A 
ATOM     24  C   UNL A   1      30.656  29.736  23.941  1.00  0.00     0.022 A 
ATOM     25  C   UNL A   1      29.080  28.277  22.840  1.00  0.00     0.022 A 
ENDBRANCH  16  19
ENDBRANCH   7  16
ENDBRANCH   4   6
ENDBRANCH   3   4
ENDBRANCH   2   3
ENDBRANCH   1   2
BRANCH   1  26
ATOM     26  O   UNL A   1      38.568  22.699  26.120  1.00  0.00    -0.458 OA
BRANCH  26  27
ATOM     27  C   UNL A   1      39.800  23.048  26.563  1.00  0.00     0.338 C 
ATOM     28  O   UNL A   1      40.737  22.264  26.531  1.00  0.00    -0.246 OA
BRANCH  27  29
ATOM     29  C   UNL A   1      39.954  24.397  27.120  1.00  0.00     0.060 A 
ATOM     30  C   UNL A   1      40.538  25.408  26.339  1.00  0.00     0.016 A 
ATOM     31  C   UNL A   1      39.434  24.664  28.380  1.00  0.00     0.016 A 
ATOM     32  C   UNL A   1      40.487  26.730  26.765  1.00  0.00     0.010 A 
ATOM     33  C   UNL A   1      39.273  25.974  28.747  1.00  0.00     0.010 A 
ATOM     34  C   UNL A   1      39.840  26.999  27.964  1.00  0.00    -0.014 A 
BRANCH  34  35
ATOM     35  C   UNL A   1      39.984  28.238  28.703  1.00  0.00     0.031 A 
ATOM     36  C   UNL A   1      39.038  29.359  28.598  1.00  0.00     0.074 A 
ATOM     37  C   UNL A   1      40.946  28.111  29.645  1.00  0.00     0.049 A 
ATOM     38  N   UNL A   1      39.222  30.469  29.217  1.00  0.00    -0.248 NA
ATOM     39  C   UNL A   1      37.817  29.362  27.797  1.00  0.00     0.031 C 
ATOM     40  C   UNL A   1      41.161  28.796  30.904  1.00  0.00     0.029 A 
ATOM     41  N   UNL A   1      42.036  27.254  29.579  1.00  0.00    -0.354 N 
ATOM     42  C   UNL A   1      38.063  31.216  29.127  1.00  0.00     0.074 A 
ATOM     43  C   UNL A   1      37.245  30.521  28.168  1.00  0.00     0.031 C 
ATOM     44  C   UNL A   1      42.414  28.526  31.334  1.00  0.00     0.029 A 
ATOM     45  C   UNL A   1      43.098  27.821  30.253  1.00  0.00     0.049 A 
ATOM     46  H   UNL A   1      42.050  26.381  29.125  1.00  0.00     0.167 HD
ATOM     47  C   UNL A   1      37.916  32.246  30.006  1.00  0.00     0.034 A 
ATOM     48  C   UNL A   1      44.129  28.328  29.503  1.00  0.00     0.034 A 
ATOM     49  C   UNL A   1      39.159  32.395  30.774  1.00  0.00     0.049 A 
ATOM     50  C   UNL A   1      44.207  29.835  29.649  1.00  0.00     0.074 A 
ATOM     51  C   UNL A   1      39.568  31.857  31.983  1.00  0.00     0.029 A 
ATOM     52  N   UNL A   1      40.300  32.854  30.130  1.00  0.00    -0.354 N 
ATOM     53  N   UNL A   1      43.188  30.608  29.907  1.00  0.00    -0.248 NA
ATOM     54  C   UNL A   1      45.470  30.561  29.631  1.00  0.00     0.031 C 
ATOM     55  C   UNL A   1      40.985  31.937  32.032  1.00  0.00     0.029 A 
ATOM     56  C   UNL A   1      41.431  32.534  30.862  1.00  0.00     0.049 A 
ATOM     57  H   UNL A   1      40.305  33.339  29.273  1.00  0.00     0.167 HD
ATOM     58  C   UNL A   1      43.615  31.895  30.105  1.00  0.00     0.074 A 
ATOM     59  C   UNL A   1      45.058  31.803  29.941  1.00  0.00     0.031 C 
ATOM     60  C   UNL A   1      42.753  32.924  30.388  1.00  0.00     0.034 A 
BRANCH  47  61
ATOM     61  C   UNL A   1      36.638  32.961  30.421  1.00  0.00     0.023 A 
ATOM     62  C   UNL A   1      36.227  32.743  31.764  1.00  0.00     0.012 A 
ATOM     63  C   UNL A   1      35.788  33.777  29.640  1.00  0.00     0.148 A 
ATOM     64  C   UNL A   1      35.035  33.240  32.294  1.00  0.00     0.002 A 
ATOM     65  C   UNL A   1      34.586  34.278  30.173  1.00  0.00     0.091 A 
ATOM     66  F   UNL A   1      36.141  34.095  28.390  1.00  0.00    -0.205 F 
ATOM     67  C   UNL A   1      34.208  34.001  31.494  1.00  0.00     0.022 A 
BRANCH  65  68
ATOM     68  S   UNL A   1      33.408  35.277  29.241  1.00  0.00     0.127 S 
ATOM     69  O   UNL A   1      32.700  34.263  28.455  1.00  0.00    -0.237 OA
ATOM     70  O   UNL A   1      32.601  35.885  30.298  1.00  0.00    -0.237 OA
ATOM     71  O   UNL A   1      34.196  36.211  28.448  1.00  0.00    -0.744 OA
ENDBRANCH  65  68
ENDBRANCH  47  61
BRANCH  48  72
ATOM     72  C   UNL A   1      44.389  27.553  28.229  1.00  0.00     0.023 A 
ATOM     73  C   UNL A   1      43.903  28.121  27.018  1.00  0.00     0.012 A 
ATOM     74  C   UNL A   1      45.343  26.523  28.132  1.00  0.00     0.148 A 
ATOM     75  C   UNL A   1      44.460  27.791  25.778  1.00  0.00     0.002 A 
ATOM     76  C   UNL A   1      45.883  26.183  26.883  1.00  0.00     0.091 A 
ATOM     77  F   UNL A   1      45.741  25.903  29.251  1.00  0.00    -0.205 F 
ATOM     78  C   UNL A   1      45.471  26.843  25.715  1.00  0.00     0.022 A 
BRANCH  76  79
ATOM     79  S   UNL A   1      47.228  24.992  26.726  1.00  0.00     0.127 S 
ATOM     80  O   UNL A   1      47.536  25.077  25.301  1.00  0.00    -0.237 OA
ATOM     81  O   UNL A   1      48.266  25.540  27.605  1.00  0.00    -0.237 OA
ATOM     82  O   UNL A   1      46.665  23.739  27.201  1.00  0.00    -0.744 OA
ENDBRANCH  76  79
ENDBRANCH  48  72
BRANCH  60  83
ATOM     83  C   UNL A   1      43.070  34.408  30.280  1.00  0.00     0.023 A 
ATOM     84  C   UNL A   1      43.485  35.167  31.388  1.00  0.00     0.012 A 
ATOM     85  C   UNL A   1      43.120  35.064  29.018  1.00  0.00     0.148 A 
ATOM     86  C   UNL A   1      43.864  36.508  31.274  1.00  0.00     0.002 A 
ATOM     87  C   UNL A   1      43.629  36.352  28.892  1.00  0.00     0.091 A 
ATOM     88  F   UNL A   1      42.649  34.460  27.918  1.00  0.00    -0.205 F 
ATOM     89  C   UNL A   1      43.964  37.093  30.023  1.00  0.00     0.022 A 
BRANCH  87  90
ATOM     90  S   UNL A   1      44.031  37.047  27.282  1.00  0.00     0.127 S 
ATOM     91  O   UNL A   1      44.649  38.318  27.651  1.00  0.00    -0.237 OA
ATOM     92  O   UNL A   1      44.958  36.052  26.740  1.00  0.00    -0.237 OA
ATOM     93  O   UNL A   1      42.762  37.130  26.573  1.00  0.00    -0.744 OA
ENDBRANCH  87  90
ENDBRANCH  60  83
ENDBRANCH  34  35
ENDBRANCH  27  29
ENDBRANCH  26  27
ENDBRANCH   1  26
TORSDOF 16
ENDMDL
MODEL 3
REMARK VINA RESULT:     -13.3      3.774     10.015
REMARK SMILES Cc1ccc(S(=O)(=O)N2c3ccc(C(=O)OCCOC(=O)c4ccc(-c5c6nc(c(-c7cccc(S(=O)(=O)[O-])c7F)c7ccc([nH]7)c(-c7cccc(S(=O)(=O)[O-])c7F)c7nc(c(-c8cccc(S(=O)(=O)[O-])c8F)c8ccc5[nH]8)C=C7)C=C6)cc4)cc3C[C@H]2C)cc1
REMARK SMILES IDX 18 1 17 2 16 3 14 4 15 5 13 6 9 7 10 8 88 9 11 10 86 11
REMARK SMILES IDX 87 12 89 13 12 14 85 15 6 16 7 17 8 18 5 19 1 20 2 21 3 22
REMARK SMILES IDX 91 23 4 24 90 25 19 26 20 27 21 28 22 29 23 30 84 31 24 32
REMARK SMILES IDX 83 33 25 34 26 35 27 36 77 37 28 38 82 39 76 40 78 41 29 42
REMARK SMILES IDX 81 43 75 44 74 45 30 47 62 48 42 49 61 50 43 51 46 52 60 53
REMARK SMILES IDX 79 54 44 55 45 56 59 58 80 59 47 60 31 61 32 62 40 63 33 64
REMARK SMILES IDX 35 65 41 66 34 67 36 68 37 69 38 70 39 71 63 72 64 73 72 74
REMARK SMILES IDX 65 75 67 76 73 77 66 78 68 79 69 80 70 81 71 82 48 83 49 84
REMARK SMILES IDX 57 85 50 86 52 87 58 88 51 89 53 90 54 91 55 92 56 93
REMARK H PARENT 78 46 46 57
REMARK Flexibility Score: inf
ROOT
ATOM      1  C   UNL A   1      37.830  21.864  25.026  1.00  0.00     0.275 C 
ENDROOT
BRANCH   1   2
ATOM      2  C   UNL A   1      36.818  20.729  25.213  1.00  0.00     0.275 C 
BRANCH   2   3
ATOM      3  O   UNL A   1      35.499  20.984  24.711  1.00  0.00    -0.458 OA
BRANCH   3   4
ATOM      4  C   UNL A   1      34.790  21.723  25.615  1.00  0.00     0.338 C 
ATOM      5  O   UNL A   1      34.775  21.508  26.820  1.00  0.00    -0.246 OA
BRANCH   4   6
ATOM      6  C   UNL A   1      33.901  22.742  25.013  1.00  0.00     0.060 A 
ATOM      7  N   UNL A   1      31.225  25.620  23.501  1.00  0.00    -0.263 N 
ATOM      8  C   UNL A   1      32.033  24.590  24.113  1.00  0.00     0.055 A 
ATOM      9  C   UNL A   1      32.223  26.435  22.691  1.00  0.00     0.101 C 
ATOM     10  C   UNL A   1      31.579  23.474  24.786  1.00  0.00     0.028 A 
ATOM     11  C   UNL A   1      33.396  24.798  23.898  1.00  0.00    -0.021 A 
ATOM     12  C   UNL A   1      33.617  26.150  23.294  1.00  0.00     0.063 C 
ATOM     13  C   UNL A   1      32.151  25.928  21.239  1.00  0.00     0.032 C 
ATOM     14  C   UNL A   1      32.523  22.565  25.261  1.00  0.00     0.018 A 
ATOM     15  C   UNL A   1      34.345  23.869  24.314  1.00  0.00     0.021 A 
BRANCH   7  16
ATOM     16  S   UNL A   1      30.272  26.495  24.643  1.00  0.00     0.264 S 
ATOM     17  O   UNL A   1      29.817  25.592  25.666  1.00  0.00    -0.201 OA
ATOM     18  O   UNL A   1      29.350  27.345  23.901  1.00  0.00    -0.201 OA
BRANCH  16  19
ATOM     19  C   UNL A   1      31.353  27.658  25.469  1.00  0.00     0.088 A 
ATOM     20  C   UNL A   1      33.677  30.714  27.424  1.00  0.00     0.044 C 
ATOM     21  C   UNL A   1      32.893  29.642  26.729  1.00  0.00    -0.051 A 
ATOM     22  C   UNL A   1      32.135  29.954  25.595  1.00  0.00     0.005 A 
ATOM     23  C   UNL A   1      32.906  28.323  27.198  1.00  0.00     0.005 A 
ATOM     24  C   UNL A   1      31.368  28.969  24.970  1.00  0.00     0.022 A 
ATOM     25  C   UNL A   1      32.144  27.334  26.567  1.00  0.00     0.022 A 
ENDBRANCH  16  19
ENDBRANCH   7  16
ENDBRANCH   4   6
ENDBRANCH   3   4
ENDBRANCH   2   3
ENDBRANCH   1   2
BRANCH   1  26
ATOM     26  O   UNL A   1      38.338  22.628  26.154  1.00  0.00    -0.458 OA
BRANCH  26  27
ATOM     27  C   UNL A   1      39.607  22.990  26.463  1.00  0.00     0.338 C 
ATOM     28  O   UNL A   1      40.547  22.223  26.309  1.00  0.00    -0.246 OA
BRANCH  27  29
ATOM     29  C   UNL A   1      39.802  24.330  27.028  1.00  0.00     0.060 A 
ATOM     30  C   UNL A   1      40.424  25.325  26.257  1.00  0.00     0.016 A 
ATOM     31  C   UNL A   1      39.282  24.608  28.286  1.00  0.00     0.016 A 
ATOM     32  C   UNL A   1      40.414  26.646  26.688  1.00  0.00     0.010 A 
ATOM     33  C   UNL A   1      39.163  25.921  28.658  1.00  0.00     0.010 A 
ATOM     34  C   UNL A   1      39.768  26.930  27.884  1.00  0.00    -0.014 A 
BRANCH  34  35
ATOM     35  C   UNL A   1      39.949  28.160  28.630  1.00  0.00     0.031 A 
ATOM     36  C   UNL A   1      39.021  29.299  28.552  1.00  0.00     0.074 A 
ATOM     37  C   UNL A   1      40.926  28.009  29.553  1.00  0.00     0.049 A 
ATOM     38  N   UNL A   1      39.237  30.400  29.177  1.00  0.00    -0.248 NA
ATOM     39  C   UNL A   1      37.785  29.331  27.774  1.00  0.00     0.031 C 
ATOM     40  C   UNL A   1      41.176  28.679  30.813  1.00  0.00     0.029 A 
ATOM     41  N   UNL A   1      41.999  27.133  29.460  1.00  0.00    -0.354 N 
ATOM     42  C   UNL A   1      38.090  31.168  29.115  1.00  0.00     0.074 A 
ATOM     43  C   UNL A   1      37.241  30.496  28.165  1.00  0.00     0.031 C 
ATOM     44  C   UNL A   1      42.432  28.383  31.217  1.00  0.00     0.029 A 
ATOM     45  C   UNL A   1      43.083  27.675  30.118  1.00  0.00     0.049 A 
ATOM     46  H   UNL A   1      41.988  26.264  28.998  1.00  0.00     0.167 HD
ATOM     47  C   UNL A   1      37.978  32.194  30.004  1.00  0.00     0.034 A 
ATOM     48  C   UNL A   1      44.108  28.170  29.353  1.00  0.00     0.034 A 
ATOM     49  C   UNL A   1      39.238  32.314  30.750  1.00  0.00     0.049 A 
ATOM     50  C   UNL A   1      44.217  29.674  29.510  1.00  0.00     0.074 A 
ATOM     51  C   UNL A   1      39.660  31.759  31.947  1.00  0.00     0.029 A 
ATOM     52  N   UNL A   1      40.374  32.758  30.088  1.00  0.00    -0.354 N 
ATOM     53  N   UNL A   1      43.217  30.463  29.793  1.00  0.00    -0.248 NA
ATOM     54  C   UNL A   1      45.492  30.378  29.474  1.00  0.00     0.031 C 
ATOM     55  C   UNL A   1      41.078  31.813  31.970  1.00  0.00     0.029 A 
ATOM     56  C   UNL A   1      41.513  32.412  30.797  1.00  0.00     0.049 A 
ATOM     57  H   UNL A   1      40.371  33.250  29.236  1.00  0.00     0.167 HD
ATOM     58  C   UNL A   1      43.670  31.740  29.993  1.00  0.00     0.074 A 
ATOM     59  C   UNL A   1      45.108  31.624  29.801  1.00  0.00     0.031 C 
ATOM     60  C   UNL A   1      42.832  32.782  30.301  1.00  0.00     0.034 A 
BRANCH  47  61
ATOM     61  C   UNL A   1      36.721  32.927  30.450  1.00  0.00     0.023 A 
ATOM     62  C   UNL A   1      36.443  32.871  31.842  1.00  0.00     0.012 A 
ATOM     63  C   UNL A   1      35.775  33.620  29.660  1.00  0.00     0.148 A 
ATOM     64  C   UNL A   1      35.290  33.405  32.419  1.00  0.00     0.002 A 
ATOM     65  C   UNL A   1      34.611  34.159  30.240  1.00  0.00     0.091 A 
ATOM     66  F   UNL A   1      36.000  33.786  28.352  1.00  0.00    -0.205 F 
ATOM     67  C   UNL A   1      34.367  34.041  31.615  1.00  0.00     0.022 A 
BRANCH  65  68
ATOM     68  S   UNL A   1      33.320  35.006  29.309  1.00  0.00     0.127 S 
ATOM     69  O   UNL A   1      32.357  35.348  30.360  1.00  0.00    -0.237 OA
ATOM     70  O   UNL A   1      34.032  36.156  28.754  1.00  0.00    -0.237 OA
ATOM     71  O   UNL A   1      32.825  34.051  28.327  1.00  0.00    -0.744 OA
ENDBRANCH  65  68
ENDBRANCH  47  61
BRANCH  48  72
ATOM     72  C   UNL A   1      44.331  27.402  28.068  1.00  0.00     0.023 A 
ATOM     73  C   UNL A   1      43.776  27.955  26.881  1.00  0.00     0.012 A 
ATOM     74  C   UNL A   1      45.307  26.397  27.927  1.00  0.00     0.148 A 
ATOM     75  C   UNL A   1      44.284  27.640  25.616  1.00  0.00     0.002 A 
ATOM     76  C   UNL A   1      45.798  26.071  26.654  1.00  0.00     0.091 A 
ATOM     77  F   UNL A   1      45.772  25.789  29.026  1.00  0.00    -0.205 F 
ATOM     78  C   UNL A   1      45.316  26.718  25.506  1.00  0.00     0.022 A 
BRANCH  76  79
ATOM     79  S   UNL A   1      47.166  24.916  26.436  1.00  0.00     0.127 S 
ATOM     80  O   UNL A   1      48.202  25.519  27.269  1.00  0.00    -0.237 OA
ATOM     81  O   UNL A   1      46.627  23.655  26.956  1.00  0.00    -0.237 OA
ATOM     82  O   UNL A   1      47.405  24.899  25.001  1.00  0.00    -0.744 OA
ENDBRANCH  76  79
ENDBRANCH  48  72
BRANCH  60  83
ATOM     83  C   UNL A   1      43.174  34.261  30.199  1.00  0.00     0.023 A 
ATOM     84  C   UNL A   1      43.642  34.999  31.300  1.00  0.00     0.012 A 
ATOM     85  C   UNL A   1      43.192  34.932  28.944  1.00  0.00     0.148 A 
ATOM     86  C   UNL A   1      44.042  36.334  31.189  1.00  0.00     0.002 A 
ATOM     87  C   UNL A   1      43.721  36.211  28.815  1.00  0.00     0.091 A 
ATOM     88  F   UNL A   1      42.671  34.350  27.854  1.00  0.00    -0.205 F 
ATOM     89  C   UNL A   1      44.110  36.932  29.942  1.00  0.00     0.022 A 
BRANCH  87  90
ATOM     90  S   UNL A   1      44.079  36.918  27.200  1.00  0.00     0.127 S 
ATOM     91  O   UNL A   1      44.767  38.155  27.561  1.00  0.00    -0.237 OA
ATOM     92  O   UNL A   1      44.938  35.895  26.600  1.00  0.00    -0.237 OA
ATOM     93  O   UNL A   1      42.785  37.068  26.550  1.00  0.00    -0.744 OA
ENDBRANCH  87  90
ENDBRANCH  60  83
ENDBRANCH  34  35
ENDBRANCH  27  29
ENDBRANCH  26  27
ENDBRANCH   1  26
TORSDOF 16
ENDMDL
