MODEL 1
REMARK VINA RESULT:     -11.8      0.000      0.000
REMARK SMILES Cc1cccc(C[C@H](C(=O)OCCOC(=O)c2ccc(-c3c4nc(c(-c5cccc(S(=O)(=O)[O-])c5F)c5ccc([nH]5)c(-c5cccc(S(=O)(=O)[O-])c5F)c5nc(c(-c6cccc(S(=O)(=O)[O-])c6F)c6ccc3[nH]6)C=C5)C=C4)cc2)[C@@H]2CCCC[C@@H]2O)c1
REMARK SMILES IDX 13 1 12 2 11 3 9 4 10 5 8 6 7 7 6 8 1 9 2 10 3 11 87 12 4 13
REMARK SMILES IDX 5 14 80 15 81 16 85 17 82 18 84 19 83 20 86 21 14 23 15 24
REMARK SMILES IDX 16 25 17 26 18 27 79 28 19 29 78 30 20 31 21 32 22 33 72 34
REMARK SMILES IDX 23 35 77 36 71 37 73 38 24 39 76 40 70 41 69 42 25 44 57 45
REMARK SMILES IDX 37 46 56 47 38 48 41 49 55 50 74 51 39 52 40 53 54 55 75 56
REMARK SMILES IDX 42 57 26 58 27 59 35 60 28 61 30 62 36 63 29 64 31 65 32 66
REMARK SMILES IDX 33 67 34 68 58 69 59 70 67 71 60 72 62 73 68 74 61 75 63 76
REMARK SMILES IDX 64 77 65 78 66 79 43 80 44 81 52 82 45 83 47 84 53 85 46 86
REMARK SMILES IDX 48 87 49 88 50 89 51 90
REMARK H PARENT 86 22 73 43 41 54
REMARK Flexibility Score: inf
ROOT
ATOM      1  C   UNL A   1      34.123  30.061  27.226  1.00  0.00     0.275 C 
ENDROOT
BRANCH   1   2
ATOM      2  C   UNL A   1      33.672  28.581  27.271  1.00  0.00     0.274 C 
BRANCH   2   3
ATOM      3  O   UNL A   1      33.097  27.912  26.146  1.00  0.00    -0.462 OA
BRANCH   3   4
ATOM      4  C   UNL A   1      32.361  26.793  26.355  1.00  0.00     0.309 C 
ATOM      5  O   UNL A   1      31.344  26.762  27.033  1.00  0.00    -0.252 OA
BRANCH   4   6
ATOM      6  C   UNL A   1      32.830  25.664  25.419  1.00  0.00     0.109 C 
BRANCH   6   7
ATOM      7  C   UNL A   1      34.353  25.466  25.702  1.00  0.00     0.051 C 
BRANCH   7   8
ATOM      8  C   UNL A   1      35.204  24.417  25.011  1.00  0.00    -0.047 A 
ATOM      9  C   UNL A   1      38.274  22.249  25.788  1.00  0.00     0.044 C 
ATOM     10  C   UNL A   1      37.048  22.793  25.118  1.00  0.00    -0.051 A 
ATOM     11  C   UNL A   1      36.656  22.261  23.888  1.00  0.00     0.003 A 
ATOM     12  C   UNL A   1      36.297  23.842  25.687  1.00  0.00     0.007 A 
ATOM     13  C   UNL A   1      35.633  22.868  23.178  1.00  0.00     0.001 A 
ATOM     14  C   UNL A   1      34.969  23.971  23.719  1.00  0.00     0.004 A 
ENDBRANCH   7   8
ENDBRANCH   6   7
BRANCH   6  15
ATOM     15  C   UNL A   1      31.737  24.573  25.724  1.00  0.00     0.032 C 
ATOM     16  C   UNL A   1      32.018  23.696  26.947  1.00  0.00     0.007 C 
ATOM     17  C   UNL A   1      31.094  23.734  24.608  1.00  0.00     0.118 C 
ATOM     18  C   UNL A   1      32.914  22.524  26.619  1.00  0.00     0.001 C 
ATOM     19  C   UNL A   1      31.663  22.337  24.348  1.00  0.00     0.032 C 
ATOM     20  C   UNL A   1      32.321  21.634  25.537  1.00  0.00     0.003 C 
BRANCH  17  21
ATOM     21  O   UNL A   1      30.868  24.468  23.413  1.00  0.00    -0.393 OA
ATOM     22  H   UNL A   1      30.260  25.201  23.594  1.00  0.00     0.210 HD
ENDBRANCH  17  21
ENDBRANCH   6  15
ENDBRANCH   4   6
ENDBRANCH   3   4
ENDBRANCH   2   3
ENDBRANCH   1   2
BRANCH   1  23
ATOM     23  O   UNL A   1      34.238  30.918  28.392  1.00  0.00    -0.458 OA
BRANCH  23  24
ATOM     24  C   UNL A   1      35.338  31.406  29.014  1.00  0.00     0.338 C 
ATOM     25  O   UNL A   1      35.359  32.498  29.573  1.00  0.00    -0.246 OA
BRANCH  24  26
ATOM     26  C   UNL A   1      36.511  30.539  29.010  1.00  0.00     0.060 A 
ATOM     27  C   UNL A   1      36.820  29.773  30.146  1.00  0.00     0.016 A 
ATOM     28  C   UNL A   1      37.202  30.392  27.812  1.00  0.00     0.016 A 
ATOM     29  C   UNL A   1      37.790  28.783  30.056  1.00  0.00     0.010 A 
ATOM     30  C   UNL A   1      38.052  29.326  27.674  1.00  0.00     0.010 A 
ATOM     31  C   UNL A   1      38.406  28.583  28.816  1.00  0.00    -0.014 A 
BRANCH  31  32
ATOM     32  C   UNL A   1      39.774  28.101  28.726  1.00  0.00     0.031 A 
ATOM     33  C   UNL A   1      40.128  26.711  28.434  1.00  0.00     0.074 A 
ATOM     34  C   UNL A   1      40.651  29.126  28.859  1.00  0.00     0.049 A 
ATOM     35  N   UNL A   1      41.196  26.164  28.898  1.00  0.00    -0.248 NA
ATOM     36  C   UNL A   1      39.309  25.801  27.634  1.00  0.00     0.031 C 
ATOM     37  C   UNL A   1      42.060  29.226  28.549  1.00  0.00     0.029 A 
ATOM     38  N   UNL A   1      40.356  30.361  29.473  1.00  0.00    -0.354 N 
ATOM     39  C   UNL A   1      41.371  24.980  28.211  1.00  0.00     0.074 A 
ATOM     40  C   UNL A   1      40.113  24.729  27.547  1.00  0.00     0.031 C 
ATOM     41  C   UNL A   1      42.558  30.293  29.210  1.00  0.00     0.029 A 
ATOM     42  C   UNL A   1      41.511  30.796  30.099  1.00  0.00     0.049 A 
ATOM     43  H   UNL A   1      39.489  30.827  29.459  1.00  0.00     0.167 HD
ATOM     44  C   UNL A   1      42.630  24.475  28.087  1.00  0.00     0.034 A 
ATOM     45  C   UNL A   1      41.555  30.923  31.459  1.00  0.00     0.034 A 
ATOM     46  C   UNL A   1      43.595  25.383  28.719  1.00  0.00     0.049 A 
ATOM     47  C   UNL A   1      42.596  29.993  32.035  1.00  0.00     0.074 A 
ATOM     48  C   UNL A   1      44.315  26.445  28.194  1.00  0.00     0.029 A 
ATOM     49  N   UNL A   1      43.636  25.523  30.100  1.00  0.00    -0.354 N 
ATOM     50  N   UNL A   1      43.073  28.958  31.402  1.00  0.00    -0.248 NA
ATOM     51  C   UNL A   1      43.148  30.137  33.375  1.00  0.00     0.031 C 
ATOM     52  C   UNL A   1      44.739  27.265  29.267  1.00  0.00     0.029 A 
ATOM     53  C   UNL A   1      44.291  26.698  30.447  1.00  0.00     0.049 A 
ATOM     54  H   UNL A   1      43.255  24.881  30.741  1.00  0.00     0.167 HD
ATOM     55  C   UNL A   1      43.916  28.264  32.223  1.00  0.00     0.074 A 
ATOM     56  C   UNL A   1      43.968  29.073  33.432  1.00  0.00     0.031 C 
ATOM     57  C   UNL A   1      44.460  27.068  31.846  1.00  0.00     0.034 A 
BRANCH  44  58
ATOM     58  C   UNL A   1      43.037  23.439  27.055  1.00  0.00     0.023 A 
ATOM     59  C   UNL A   1      43.825  23.896  25.970  1.00  0.00     0.012 A 
ATOM     60  C   UNL A   1      42.695  22.067  27.048  1.00  0.00     0.148 A 
ATOM     61  C   UNL A   1      44.185  23.083  24.896  1.00  0.00     0.002 A 
ATOM     62  C   UNL A   1      43.040  21.253  25.956  1.00  0.00     0.091 A 
ATOM     63  F   UNL A   1      42.063  21.546  28.108  1.00  0.00    -0.205 F 
ATOM     64  C   UNL A   1      43.776  21.764  24.879  1.00  0.00     0.022 A 
BRANCH  62  65
ATOM     65  S   UNL A   1      42.532  19.531  25.798  1.00  0.00     0.127 S 
ATOM     66  O   UNL A   1      43.353  19.070  24.675  1.00  0.00    -0.237 OA
ATOM     67  O   UNL A   1      42.914  18.969  27.092  1.00  0.00    -0.237 OA
ATOM     68  O   UNL A   1      41.103  19.555  25.519  1.00  0.00    -0.744 OA
ENDBRANCH  62  65
ENDBRANCH  44  58
BRANCH  45  69
ATOM     69  C   UNL A   1      40.253  31.239  32.158  1.00  0.00     0.023 A 
ATOM     70  C   UNL A   1      39.614  30.217  32.907  1.00  0.00     0.012 A 
ATOM     71  C   UNL A   1      39.772  32.553  32.312  1.00  0.00     0.148 A 
ATOM     72  C   UNL A   1      38.593  30.504  33.822  1.00  0.00     0.002 A 
ATOM     73  C   UNL A   1      38.757  32.833  33.234  1.00  0.00     0.091 A 
ATOM     74  F   UNL A   1      40.334  33.542  31.604  1.00  0.00    -0.205 F 
ATOM     75  C   UNL A   1      38.170  31.816  33.994  1.00  0.00     0.022 A 
BRANCH  73  76
ATOM     76  S   UNL A   1      38.327  34.545  33.586  1.00  0.00     0.127 S 
ATOM     77  O   UNL A   1      37.307  34.429  34.629  1.00  0.00    -0.237 OA
ATOM     78  O   UNL A   1      39.587  35.107  34.056  1.00  0.00    -0.237 OA
ATOM     79  O   UNL A   1      37.831  35.009  32.294  1.00  0.00    -0.744 OA
ENDBRANCH  73  76
ENDBRANCH  45  69
BRANCH  57  80
ATOM     80  C   UNL A   1      45.232  26.137  32.751  1.00  0.00     0.023 A 
ATOM     81  C   UNL A   1      46.637  26.075  32.745  1.00  0.00     0.012 A 
ATOM     82  C   UNL A   1      44.563  25.391  33.755  1.00  0.00     0.148 A 
ATOM     83  C   UNL A   1      47.341  25.257  33.633  1.00  0.00     0.002 A 
ATOM     84  C   UNL A   1      45.273  24.689  34.719  1.00  0.00     0.091 A 
ATOM     85  F   UNL A   1      43.223  25.336  33.774  1.00  0.00    -0.205 F 
ATOM     86  C   UNL A   1      46.661  24.585  34.639  1.00  0.00     0.022 A 
BRANCH  84  87
ATOM     87  S   UNL A   1      44.440  24.055  36.179  1.00  0.00     0.127 S 
ATOM     88  O   UNL A   1      43.447  23.154  35.598  1.00  0.00    -0.237 OA
ATOM     89  O   UNL A   1      45.526  23.384  36.896  1.00  0.00    -0.237 OA
ATOM     90  O   UNL A   1      43.924  25.237  36.857  1.00  0.00    -0.744 OA
ENDBRANCH  84  87
ENDBRANCH  57  80
ENDBRANCH  31  32
ENDBRANCH  24  26
ENDBRANCH  23  24
ENDBRANCH   1  23
TORSDOF 18
ENDMDL
MODEL 2
REMARK VINA RESULT:     -11.8      1.864      2.404
REMARK SMILES Cc1cccc(C[C@H](C(=O)OCCOC(=O)c2ccc(-c3c4nc(c(-c5cccc(S(=O)(=O)[O-])c5F)c5ccc([nH]5)c(-c5cccc(S(=O)(=O)[O-])c5F)c5nc(c(-c6cccc(S(=O)(=O)[O-])c6F)c6ccc3[nH]6)C=C5)C=C4)cc2)[C@@H]2CCCC[C@@H]2O)c1
REMARK SMILES IDX 13 1 12 2 11 3 9 4 10 5 8 6 7 7 6 8 1 9 2 10 3 11 87 12 4 13
REMARK SMILES IDX 5 14 80 15 81 16 85 17 82 18 84 19 83 20 86 21 14 23 15 24
REMARK SMILES IDX 16 25 17 26 18 27 79 28 19 29 78 30 20 31 21 32 22 33 72 34
REMARK SMILES IDX 23 35 77 36 71 37 73 38 24 39 76 40 70 41 69 42 25 44 57 45
REMARK SMILES IDX 37 46 56 47 38 48 41 49 55 50 74 51 39 52 40 53 54 55 75 56
REMARK SMILES IDX 42 57 26 58 27 59 35 60 28 61 30 62 36 63 29 64 31 65 32 66
REMARK SMILES IDX 33 67 34 68 58 69 59 70 67 71 60 72 62 73 68 74 61 75 63 76
REMARK SMILES IDX 64 77 65 78 66 79 43 80 44 81 52 82 45 83 47 84 53 85 46 86
REMARK SMILES IDX 48 87 49 88 50 89 51 90
REMARK H PARENT 86 22 73 43 41 54
REMARK Flexibility Score: inf
ROOT
ATOM      1  C   UNL A   1      33.956  30.654  27.278  1.00  0.00     0.275 C 
ENDROOT
BRANCH   1   2
ATOM      2  C   UNL A   1      32.995  30.225  26.143  1.00  0.00     0.274 C 
BRANCH   2   3
ATOM      3  O   UNL A   1      31.811  29.460  26.379  1.00  0.00    -0.462 OA
BRANCH   3   4
ATOM      4  C   UNL A   1      31.932  28.173  26.787  1.00  0.00     0.309 C 
ATOM      5  O   UNL A   1      31.429  27.731  27.809  1.00  0.00    -0.252 OA
BRANCH   4   6
ATOM      6  C   UNL A   1      32.549  27.314  25.667  1.00  0.00     0.109 C 
BRANCH   6   7
ATOM      7  C   UNL A   1      33.222  26.093  26.372  1.00  0.00     0.051 C 
BRANCH   7   8
ATOM      8  C   UNL A   1      33.823  24.919  25.621  1.00  0.00    -0.047 A 
ATOM      9  C   UNL A   1      34.175  21.122  26.048  1.00  0.00     0.044 C 
ATOM     10  C   UNL A   1      34.180  22.493  25.442  1.00  0.00    -0.051 A 
ATOM     11  C   UNL A   1      34.670  22.658  24.145  1.00  0.00     0.003 A 
ATOM     12  C   UNL A   1      33.726  23.620  26.156  1.00  0.00     0.007 A 
ATOM     13  C   UNL A   1      34.843  23.935  23.639  1.00  0.00     0.001 A 
ATOM     14  C   UNL A   1      34.478  25.044  24.406  1.00  0.00     0.004 A 
ENDBRANCH   7   8
ENDBRANCH   6   7
BRANCH   6  15
ATOM     15  C   UNL A   1      31.317  27.190  24.696  1.00  0.00     0.032 C 
ATOM     16  C   UNL A   1      30.207  26.249  25.170  1.00  0.00     0.007 C 
ATOM     17  C   UNL A   1      31.492  27.076  23.172  1.00  0.00     0.118 C 
ATOM     18  C   UNL A   1      30.480  24.809  24.803  1.00  0.00     0.001 C 
ATOM     19  C   UNL A   1      31.452  25.677  22.553  1.00  0.00     0.032 C 
ATOM     20  C   UNL A   1      30.636  24.620  23.301  1.00  0.00     0.003 C 
BRANCH  17  21
ATOM     21  O   UNL A   1      32.555  27.872  22.668  1.00  0.00    -0.393 OA
ATOM     22  H   UNL A   1      32.973  27.417  21.920  1.00  0.00     0.210 HD
ENDBRANCH  17  21
ENDBRANCH   6  15
ENDBRANCH   4   6
ENDBRANCH   3   4
ENDBRANCH   2   3
ENDBRANCH   1   2
BRANCH   1  23
ATOM     23  O   UNL A   1      35.259  30.059  27.516  1.00  0.00    -0.458 OA
BRANCH  23  24
ATOM     24  C   UNL A   1      36.415  30.626  27.937  1.00  0.00     0.338 C 
ATOM     25  O   UNL A   1      36.516  31.820  28.200  1.00  0.00    -0.246 OA
BRANCH  24  26
ATOM     26  C   UNL A   1      37.550  29.722  28.091  1.00  0.00     0.060 A 
ATOM     27  C   UNL A   1      37.519  28.722  29.077  1.00  0.00     0.016 A 
ATOM     28  C   UNL A   1      38.567  29.794  27.145  1.00  0.00     0.016 A 
ATOM     29  C   UNL A   1      38.487  27.726  29.066  1.00  0.00     0.010 A 
ATOM     30  C   UNL A   1      39.435  28.738  27.038  1.00  0.00     0.010 A 
ATOM     31  C   UNL A   1      39.446  27.758  28.047  1.00  0.00    -0.014 A 
BRANCH  31  32
ATOM     32  C   UNL A   1      40.786  27.238  28.261  1.00  0.00     0.031 A 
ATOM     33  C   UNL A   1      41.215  25.902  27.845  1.00  0.00     0.074 A 
ATOM     34  C   UNL A   1      41.585  28.187  28.807  1.00  0.00     0.049 A 
ATOM     35  N   UNL A   1      42.112  25.239  28.487  1.00  0.00    -0.248 NA
ATOM     36  C   UNL A   1      40.659  25.174  26.705  1.00  0.00     0.031 C 
ATOM     37  C   UNL A   1      43.023  28.276  28.925  1.00  0.00     0.029 A 
ATOM     38  N   UNL A   1      41.123  29.314  29.517  1.00  0.00    -0.354 N 
ATOM     39  C   UNL A   1      42.479  24.179  27.684  1.00  0.00     0.074 A 
ATOM     40  C   UNL A   1      41.460  24.098  26.662  1.00  0.00     0.031 C 
ATOM     41  C   UNL A   1      43.309  29.195  29.872  1.00  0.00     0.029 A 
ATOM     42  C   UNL A   1      42.051  29.589  30.506  1.00  0.00     0.049 A 
ATOM     43  H   UNL A   1      40.292  29.813  29.342  1.00  0.00     0.167 HD
ATOM     44  C   UNL A   1      43.724  23.647  27.831  1.00  0.00     0.034 A 
ATOM     45  C   UNL A   1      41.709  29.485  31.825  1.00  0.00     0.034 A 
ATOM     46  C   UNL A   1      44.467  24.394  28.853  1.00  0.00     0.049 A 
ATOM     47  C   UNL A   1      42.550  28.428  32.500  1.00  0.00     0.074 A 
ATOM     48  C   UNL A   1      45.301  25.497  28.740  1.00  0.00     0.029 A 
ATOM     49  N   UNL A   1      44.116  24.300  30.192  1.00  0.00    -0.354 N 
ATOM     50  N   UNL A   1      43.192  27.493  31.857  1.00  0.00    -0.248 NA
ATOM     51  C   UNL A   1      42.701  28.322  33.944  1.00  0.00     0.031 C 
ATOM     52  C   UNL A   1      45.401  26.107  30.013  1.00  0.00     0.029 A 
ATOM     53  C   UNL A   1      44.641  25.371  30.905  1.00  0.00     0.049 A 
ATOM     54  H   UNL A   1      43.572  23.578  30.582  1.00  0.00     0.167 HD
ATOM     55  C   UNL A   1      43.772  26.636  32.748  1.00  0.00     0.074 A 
ATOM     56  C   UNL A   1      43.476  27.229  34.044  1.00  0.00     0.031 C 
ATOM     57  C   UNL A   1      44.406  25.497  32.338  1.00  0.00     0.034 A 
BRANCH  44  58
ATOM     58  C   UNL A   1      44.411  22.781  26.791  1.00  0.00     0.023 A 
ATOM     59  C   UNL A   1      45.541  23.338  26.143  1.00  0.00     0.012 A 
ATOM     60  C   UNL A   1      44.030  21.482  26.382  1.00  0.00     0.148 A 
ATOM     61  C   UNL A   1      46.208  22.702  25.096  1.00  0.00     0.002 A 
ATOM     62  C   UNL A   1      44.689  20.849  25.314  1.00  0.00     0.091 A 
ATOM     63  F   UNL A   1      43.053  20.849  27.044  1.00  0.00    -0.205 F 
ATOM     64  C   UNL A   1      45.770  21.463  24.668  1.00  0.00     0.022 A 
BRANCH  62  65
ATOM     65  S   UNL A   1      44.189  19.255  24.639  1.00  0.00     0.127 S 
ATOM     66  O   UNL A   1      44.525  19.403  23.220  1.00  0.00    -0.237 OA
ATOM     67  O   UNL A   1      45.046  18.321  25.366  1.00  0.00    -0.237 OA
ATOM     68  O   UNL A   1      42.761  19.135  24.902  1.00  0.00    -0.744 OA
ENDBRANCH  62  65
ENDBRANCH  44  58
BRANCH  45  69
ATOM     69  C   UNL A   1      40.261  29.738  32.177  1.00  0.00     0.023 A 
ATOM     70  C   UNL A   1      39.386  28.628  32.306  1.00  0.00     0.012 A 
ATOM     71  C   UNL A   1      39.795  30.987  32.626  1.00  0.00     0.148 A 
ATOM     72  C   UNL A   1      38.134  28.746  32.922  1.00  0.00     0.002 A 
ATOM     73  C   UNL A   1      38.546  31.096  33.248  1.00  0.00     0.091 A 
ATOM     74  F   UNL A   1      40.582  32.063  32.499  1.00  0.00    -0.205 F 
ATOM     75  C   UNL A   1      37.717  29.980  33.405  1.00  0.00     0.022 A 
BRANCH  73  76
ATOM     76  S   UNL A   1      38.075  32.649  34.026  1.00  0.00     0.127 S 
ATOM     77  O   UNL A   1      38.084  33.600  32.913  1.00  0.00    -0.237 OA
ATOM     78  O   UNL A   1      36.744  32.363  34.544  1.00  0.00    -0.237 OA
ATOM     79  O   UNL A   1      39.144  32.840  35.002  1.00  0.00    -0.744 OA
ENDBRANCH  73  76
ENDBRANCH  45  69
BRANCH  57  80
ATOM     80  C   UNL A   1      44.896  24.395  33.248  1.00  0.00     0.023 A 
ATOM     81  C   UNL A   1      44.181  23.200  33.439  1.00  0.00     0.012 A 
ATOM     82  C   UNL A   1      46.186  24.468  33.835  1.00  0.00     0.148 A 
ATOM     83  C   UNL A   1      44.678  22.163  34.232  1.00  0.00     0.002 A 
ATOM     84  C   UNL A   1      46.731  23.382  34.506  1.00  0.00     0.091 A 
ATOM     85  F   UNL A   1      46.896  25.605  33.766  1.00  0.00    -0.205 F 
ATOM     86  C   UNL A   1      45.966  22.242  34.744  1.00  0.00     0.022 A 
BRANCH  84  87
ATOM     87  S   UNL A   1      48.478  23.355  34.924  1.00  0.00     0.127 S 
ATOM     88  O   UNL A   1      49.099  23.782  33.672  1.00  0.00    -0.237 OA
ATOM     89  O   UNL A   1      48.558  24.335  36.010  1.00  0.00    -0.237 OA
ATOM     90  O   UNL A   1      48.740  21.985  35.342  1.00  0.00    -0.744 OA
ENDBRANCH  84  87
ENDBRANCH  57  80
ENDBRANCH  31  32
ENDBRANCH  24  26
ENDBRANCH  23  24
ENDBRANCH   1  23
TORSDOF 18
ENDMDL
MODEL 3
REMARK VINA RESULT:     -11.7      2.037      2.953
REMARK SMILES Cc1cccc(C[C@H](C(=O)OCCOC(=O)c2ccc(-c3c4nc(c(-c5cccc(S(=O)(=O)[O-])c5F)c5ccc([nH]5)c(-c5cccc(S(=O)(=O)[O-])c5F)c5nc(c(-c6cccc(S(=O)(=O)[O-])c6F)c6ccc3[nH]6)C=C5)C=C4)cc2)[C@@H]2CCCC[C@@H]2O)c1
REMARK SMILES IDX 13 1 12 2 11 3 9 4 10 5 8 6 7 7 6 8 1 9 2 10 3 11 87 12 4 13
REMARK SMILES IDX 5 14 80 15 81 16 85 17 82 18 84 19 83 20 86 21 14 23 15 24
REMARK SMILES IDX 16 25 17 26 18 27 79 28 19 29 78 30 20 31 21 32 22 33 72 34
REMARK SMILES IDX 23 35 77 36 71 37 73 38 24 39 76 40 70 41 69 42 25 44 57 45
REMARK SMILES IDX 37 46 56 47 38 48 41 49 55 50 74 51 39 52 40 53 54 55 75 56
REMARK SMILES IDX 42 57 26 58 27 59 35 60 28 61 30 62 36 63 29 64 31 65 32 66
REMARK SMILES IDX 33 67 34 68 58 69 59 70 67 71 60 72 62 73 68 74 61 75 63 76
REMARK SMILES IDX 64 77 65 78 66 79 43 80 44 81 52 82 45 83 47 84 53 85 46 86
REMARK SMILES IDX 48 87 49 88 50 89 51 90
REMARK H PARENT 86 22 73 43 41 54
REMARK Flexibility Score: inf
ROOT
ATOM      1  C   UNL A   1      34.408  30.542  27.451  1.00  0.00     0.275 C 
ENDROOT
BRANCH   1   2
ATOM      2  C   UNL A   1      32.951  30.969  27.147  1.00  0.00     0.274 C 
BRANCH   2   3
ATOM      3  O   UNL A   1      31.899  30.027  26.922  1.00  0.00    -0.462 OA
BRANCH   3   4
ATOM      4  C   UNL A   1      31.562  29.715  25.646  1.00  0.00     0.309 C 
ATOM      5  O   UNL A   1      30.949  30.464  24.900  1.00  0.00    -0.252 OA
BRANCH   4   6
ATOM      6  C   UNL A   1      32.279  28.425  25.206  1.00  0.00     0.109 C 
BRANCH   6   7
ATOM      7  C   UNL A   1      31.747  27.289  26.137  1.00  0.00     0.051 C 
BRANCH   7   8
ATOM      8  C   UNL A   1      32.329  25.888  26.164  1.00  0.00    -0.047 A 
ATOM      9  C   UNL A   1      35.648  24.146  25.339  1.00  0.00     0.044 C 
ATOM     10  C   UNL A   1      34.268  24.405  25.866  1.00  0.00    -0.051 A 
ATOM     11  C   UNL A   1      33.561  23.356  26.457  1.00  0.00     0.003 A 
ATOM     12  C   UNL A   1      33.661  25.672  25.758  1.00  0.00     0.007 A 
ATOM     13  C   UNL A   1      32.229  23.534  26.789  1.00  0.00     0.001 A 
ATOM     14  C   UNL A   1      31.618  24.772  26.579  1.00  0.00     0.004 A 
ENDBRANCH   7   8
ENDBRANCH   6   7
BRANCH   6  15
ATOM     15  C   UNL A   1      32.019  28.474  23.654  1.00  0.00     0.032 C 
ATOM     16  C   UNL A   1      30.840  27.630  23.165  1.00  0.00     0.007 C 
ATOM     17  C   UNL A   1      33.171  28.415  22.636  1.00  0.00     0.118 C 
ATOM     18  C   UNL A   1      31.226  26.189  22.927  1.00  0.00     0.001 C 
ATOM     19  C   UNL A   1      33.497  27.058  22.008  1.00  0.00     0.032 C 
ATOM     20  C   UNL A   1      32.345  26.056  21.904  1.00  0.00     0.003 C 
BRANCH  17  21
ATOM     21  O   UNL A   1      34.329  29.121  23.057  1.00  0.00    -0.393 OA
ATOM     22  H   UNL A   1      34.291  30.031  22.725  1.00  0.00     0.210 HD
ENDBRANCH  17  21
ENDBRANCH   6  15
ENDBRANCH   4   6
ENDBRANCH   3   4
ENDBRANCH   2   3
ENDBRANCH   1   2
BRANCH   1  23
ATOM     23  O   UNL A   1      35.155  30.958  28.624  1.00  0.00    -0.458 OA
BRANCH  23  24
ATOM     24  C   UNL A   1      36.435  31.387  28.740  1.00  0.00     0.338 C 
ATOM     25  O   UNL A   1      36.731  32.568  28.888  1.00  0.00    -0.246 OA
BRANCH  24  26
ATOM     26  C   UNL A   1      37.461  30.350  28.705  1.00  0.00     0.060 A 
ATOM     27  C   UNL A   1      37.622  29.489  29.802  1.00  0.00     0.016 A 
ATOM     28  C   UNL A   1      38.148  30.160  27.511  1.00  0.00     0.016 A 
ATOM     29  C   UNL A   1      38.431  28.367  29.673  1.00  0.00     0.010 A 
ATOM     30  C   UNL A   1      38.827  28.984  27.328  1.00  0.00     0.010 A 
ATOM     31  C   UNL A   1      39.037  28.137  28.432  1.00  0.00    -0.014 A 
BRANCH  31  32
ATOM     32  C   UNL A   1      40.316  27.455  28.337  1.00  0.00     0.031 A 
ATOM     33  C   UNL A   1      40.459  25.999  28.288  1.00  0.00     0.074 A 
ATOM     34  C   UNL A   1      41.326  28.350  28.208  1.00  0.00     0.049 A 
ATOM     35  N   UNL A   1      41.488  25.394  28.768  1.00  0.00    -0.248 NA
ATOM     36  C   UNL A   1      39.455  25.089  27.738  1.00  0.00     0.031 C 
ATOM     37  C   UNL A   1      42.699  28.189  27.783  1.00  0.00     0.029 A 
ATOM     38  N   UNL A   1      41.254  29.703  28.597  1.00  0.00    -0.354 N 
ATOM     39  C   UNL A   1      41.441  24.095  28.308  1.00  0.00     0.074 A 
ATOM     40  C   UNL A   1      40.102  23.914  27.797  1.00  0.00     0.031 C 
ATOM     41  C   UNL A   1      43.392  29.274  28.192  1.00  0.00     0.029 A 
ATOM     42  C   UNL A   1      42.511  30.073  29.044  1.00  0.00     0.049 A 
ATOM     43  H   UNL A   1      40.456  30.280  28.558  1.00  0.00     0.167 HD
ATOM     44  C   UNL A   1      42.607  23.400  28.191  1.00  0.00     0.034 A 
ATOM     45  C   UNL A   1      42.704  30.431  30.348  1.00  0.00     0.034 A 
ATOM     46  C   UNL A   1      43.737  24.257  28.567  1.00  0.00     0.049 A 
ATOM     47  C   UNL A   1      43.669  29.478  31.012  1.00  0.00     0.074 A 
ATOM     48  C   UNL A   1      44.533  25.094  27.799  1.00  0.00     0.029 A 
ATOM     49  N   UNL A   1      43.931  24.633  29.889  1.00  0.00    -0.354 N 
ATOM     50  N   UNL A   1      43.945  28.289  30.554  1.00  0.00    -0.248 NA
ATOM     51  C   UNL A   1      44.364  29.777  32.257  1.00  0.00     0.031 C 
ATOM     52  C   UNL A   1      45.162  26.021  28.664  1.00  0.00     0.029 A 
ATOM     53  C   UNL A   1      44.763  25.743  29.959  1.00  0.00     0.049 A 
ATOM     54  H   UNL A   1      43.536  24.177  30.667  1.00  0.00     0.167 HD
ATOM     55  C   UNL A   1      44.768  27.639  31.428  1.00  0.00     0.074 A 
ATOM     56  C   UNL A   1      45.041  28.634  32.455  1.00  0.00     0.031 C 
ATOM     57  C   UNL A   1      45.114  26.329  31.247  1.00  0.00     0.034 A 
BRANCH  44  58
ATOM     58  C   UNL A   1      42.774  22.149  27.347  1.00  0.00     0.023 A 
ATOM     59  C   UNL A   1      41.950  21.045  27.674  1.00  0.00     0.012 A 
ATOM     60  C   UNL A   1      43.683  21.960  26.280  1.00  0.00     0.148 A 
ATOM     61  C   UNL A   1      42.065  19.800  27.056  1.00  0.00     0.002 A 
ATOM     62  C   UNL A   1      43.814  20.701  25.671  1.00  0.00     0.091 A 
ATOM     63  F   UNL A   1      44.397  23.003  25.837  1.00  0.00    -0.205 F 
ATOM     64  C   UNL A   1      43.012  19.622  26.065  1.00  0.00     0.022 A 
BRANCH  62  65
ATOM     65  S   UNL A   1      45.035  20.331  24.398  1.00  0.00     0.127 S 
ATOM     66  O   UNL A   1      44.827  18.897  24.179  1.00  0.00    -0.237 OA
ATOM     67  O   UNL A   1      44.601  21.178  23.289  1.00  0.00    -0.237 OA
ATOM     68  O   UNL A   1      46.331  20.663  24.974  1.00  0.00    -0.744 OA
ENDBRANCH  62  65
ENDBRANCH  44  58
BRANCH  45  69
ATOM     69  C   UNL A   1      41.528  31.051  31.067  1.00  0.00     0.023 A 
ATOM     70  C   UNL A   1      40.944  32.228  30.531  1.00  0.00     0.012 A 
ATOM     71  C   UNL A   1      40.830  30.390  32.094  1.00  0.00     0.148 A 
ATOM     72  C   UNL A   1      39.685  32.680  30.949  1.00  0.00     0.002 A 
ATOM     73  C   UNL A   1      39.570  30.843  32.501  1.00  0.00     0.091 A 
ATOM     74  F   UNL A   1      41.361  29.289  32.642  1.00  0.00    -0.205 F 
ATOM     75  C   UNL A   1      38.992  31.980  31.929  1.00  0.00     0.022 A 
BRANCH  73  76
ATOM     76  S   UNL A   1      38.595  29.847  33.640  1.00  0.00     0.127 S 
ATOM     77  O   UNL A   1      37.272  30.470  33.585  1.00  0.00    -0.237 OA
ATOM     78  O   UNL A   1      38.646  28.521  33.038  1.00  0.00    -0.237 OA
ATOM     79  O   UNL A   1      39.307  30.036  34.900  1.00  0.00    -0.744 OA
ENDBRANCH  73  76
ENDBRANCH  45  69
BRANCH  57  80
ATOM     80  C   UNL A   1      45.846  25.472  32.252  1.00  0.00     0.023 A 
ATOM     81  C   UNL A   1      47.230  25.587  32.476  1.00  0.00     0.012 A 
ATOM     82  C   UNL A   1      45.127  24.614  33.124  1.00  0.00     0.148 A 
ATOM     83  C   UNL A   1      47.882  24.835  33.456  1.00  0.00     0.002 A 
ATOM     84  C   UNL A   1      45.759  23.974  34.182  1.00  0.00     0.091 A 
ATOM     85  F   UNL A   1      43.820  24.389  32.923  1.00  0.00    -0.205 F 
ATOM     86  C   UNL A   1      47.143  24.048  34.328  1.00  0.00     0.022 A 
BRANCH  84  87
ATOM     87  S   UNL A   1      44.792  23.190  35.477  1.00  0.00     0.127 S 
ATOM     88  O   UNL A   1      45.832  22.660  36.356  1.00  0.00    -0.237 OA
ATOM     89  O   UNL A   1      44.039  24.316  36.035  1.00  0.00    -0.237 OA
ATOM     90  O   UNL A   1      43.966  22.210  34.785  1.00  0.00    -0.744 OA
ENDBRANCH  84  87
ENDBRANCH  57  80
ENDBRANCH  31  32
ENDBRANCH  24  26
ENDBRANCH  23  24
ENDBRANCH   1  23
TORSDOF 18
ENDMDL
