MODEL 1
REMARK VINA RESULT:     -10.8      0.000      0.000
REMARK SMILES O=C(C[C@@H]1C=CCC1)NCc1ccc(C(=O)OCCOC(=O)c2ccc(-c3c4nc(c(-c5cccc(S(=O)(=O)[O-])c5F)c5ccc([nH]5)c(-c5cccc(S(=O)(=O)[O-])c5F)c5nc(c(-c6cccc(S(=O)(=O)[O-])c6F)c6ccc3[nH]6)C=C5)C=C4)cc2)o1
REMARK SMILES IDX 18 1 17 2 15 3 16 4 14 5 11 6 12 7 86 8 13 9 10 10 9 11 1 12
REMARK SMILES IDX 2 13 3 15 4 16 5 17 8 18 6 19 7 20 19 21 20 22 21 23 22 24
REMARK SMILES IDX 23 25 24 26 85 27 25 28 84 29 26 30 27 31 28 32 78 33 29 34
REMARK SMILES IDX 83 35 77 36 79 37 30 38 82 39 76 40 75 41 31 43 63 44 43 45
REMARK SMILES IDX 62 46 44 47 47 48 61 49 80 50 45 51 46 52 60 54 81 55 48 56
REMARK SMILES IDX 32 57 33 58 41 59 34 60 36 61 42 62 35 63 37 64 38 65 39 66
REMARK SMILES IDX 40 67 64 68 65 69 73 70 66 71 68 72 74 73 67 74 69 75 70 76
REMARK SMILES IDX 71 77 72 78 49 79 50 80 58 81 51 82 53 83 59 84 52 85 54 86
REMARK SMILES IDX 55 87 56 88 57 89
REMARK H PARENT 9 14 79 42 47 53
REMARK Flexibility Score: inf
ROOT
ATOM      1  C   UNL A   1      33.630  34.202  28.364  1.00  0.00     0.275 C 
ENDROOT
BRANCH   1   2
ATOM      2  O   UNL A   1      32.919  34.548  29.567  1.00  0.00    -0.456 OA
BRANCH   2   3
ATOM      3  C   UNL A   1      32.779  35.891  29.801  1.00  0.00     0.374 C 
ATOM      4  O   UNL A   1      32.305  36.681  29.004  1.00  0.00    -0.242 OA
BRANCH   3   5
ATOM      5  C   UNL A   1      33.199  36.204  31.150  1.00  0.00     0.211 A 
ATOM      6  C   UNL A   1      34.199  35.720  33.065  1.00  0.00     0.124 A 
ATOM      7  C   UNL A   1      33.852  37.055  33.129  1.00  0.00     0.048 A 
ATOM      8  O   UNL A   1      33.750  35.190  31.892  1.00  0.00    -0.452 OA
ATOM      9  C   UNL A   1      33.228  37.369  31.895  1.00  0.00     0.058 A 
BRANCH   6  10
ATOM     10  C   UNL A   1      34.946  34.786  33.952  1.00  0.00     0.191 C 
BRANCH  10  11
ATOM     11  N   UNL A   1      36.321  34.703  33.503  1.00  0.00    -0.349 N 
ATOM     12  O   UNL A   1      36.270  32.469  32.981  1.00  0.00    -0.275 OA
ATOM     13  C   UNL A   1      36.882  33.528  33.066  1.00  0.00     0.220 C 
ATOM     14  H   UNL A   1      36.872  35.520  33.510  1.00  0.00     0.163 HD
BRANCH  13  15
ATOM     15  C   UNL A   1      38.366  33.626  32.771  1.00  0.00     0.107 C 
BRANCH  15  16
ATOM     16  C   UNL A   1      38.664  34.466  31.525  1.00  0.00     0.021 C 
ATOM     17  C   UNL A   1      37.880  33.997  30.332  1.00  0.00    -0.027 C 
ATOM     18  C   UNL A   1      40.113  34.292  31.031  1.00  0.00     0.012 C 
ATOM     19  C   UNL A   1      38.645  33.356  29.441  1.00  0.00    -0.031 C 
ATOM     20  C   UNL A   1      40.068  33.287  29.880  1.00  0.00     0.027 C 
ENDBRANCH  15  16
ENDBRANCH  13  15
ENDBRANCH  10  11
ENDBRANCH   6  10
ENDBRANCH   3   5
ENDBRANCH   2   3
ENDBRANCH   1   2
BRANCH   1  21
ATOM     21  C   UNL A   1      34.603  33.038  28.592  1.00  0.00     0.275 C 
BRANCH  21  22
ATOM     22  O   UNL A   1      34.765  32.225  27.415  1.00  0.00    -0.458 OA
BRANCH  22  23
ATOM     23  C   UNL A   1      34.589  30.895  27.602  1.00  0.00     0.338 C 
ATOM     24  O   UNL A   1      33.578  30.254  27.363  1.00  0.00    -0.246 OA
BRANCH  23  25
ATOM     25  C   UNL A   1      35.860  30.264  28.005  1.00  0.00     0.060 A 
ATOM     26  C   UNL A   1      35.887  29.613  29.240  1.00  0.00     0.016 A 
ATOM     27  C   UNL A   1      37.020  30.355  27.232  1.00  0.00     0.016 A 
ATOM     28  C   UNL A   1      37.067  29.049  29.714  1.00  0.00     0.010 A 
ATOM     29  C   UNL A   1      38.212  29.795  27.713  1.00  0.00     0.010 A 
ATOM     30  C   UNL A   1      38.244  29.149  28.962  1.00  0.00    -0.014 A 
BRANCH  30  31
ATOM     31  C   UNL A   1      39.502  28.608  29.532  1.00  0.00     0.031 A 
ATOM     32  C   UNL A   1      40.052  29.169  30.811  1.00  0.00     0.074 A 
ATOM     33  C   UNL A   1      40.117  27.574  28.929  1.00  0.00     0.049 A 
ATOM     34  N   UNL A   1      41.094  28.782  31.501  1.00  0.00    -0.248 NA
ATOM     35  C   UNL A   1      39.338  30.317  31.394  1.00  0.00     0.031 C 
ATOM     36  C   UNL A   1      39.681  26.944  27.683  1.00  0.00     0.029 A 
ATOM     37  N   UNL A   1      41.242  26.872  29.284  1.00  0.00    -0.354 N 
ATOM     38  C   UNL A   1      41.176  29.646  32.585  1.00  0.00     0.074 A 
ATOM     39  C   UNL A   1      40.083  30.587  32.456  1.00  0.00     0.031 C 
ATOM     40  C   UNL A   1      40.530  25.951  27.374  1.00  0.00     0.029 A 
ATOM     41  C   UNL A   1      41.578  25.883  28.391  1.00  0.00     0.049 A 
ATOM     42  H   UNL A   1      41.760  27.059  30.100  1.00  0.00     0.167 HD
ATOM     43  C   UNL A   1      42.067  29.643  33.606  1.00  0.00     0.034 A 
ATOM     44  C   UNL A   1      42.613  25.019  28.392  1.00  0.00     0.034 A 
ATOM     45  C   UNL A   1      43.133  28.690  33.751  1.00  0.00     0.049 A 
ATOM     46  C   UNL A   1      43.583  25.036  29.542  1.00  0.00     0.074 A 
ATOM     47  C   UNL A   1      44.058  28.582  34.776  1.00  0.00     0.029 A 
ATOM     48  N   UNL A   1      43.423  27.681  32.845  1.00  0.00    -0.354 N 
ATOM     49  N   UNL A   1      43.571  25.778  30.622  1.00  0.00    -0.248 NA
ATOM     50  C   UNL A   1      44.692  24.071  29.489  1.00  0.00     0.031 C 
ATOM     51  C   UNL A   1      44.914  27.514  34.484  1.00  0.00     0.029 A 
ATOM     52  C   UNL A   1      44.517  26.951  33.281  1.00  0.00     0.049 A 
ATOM     53  H   UNL A   1      42.925  27.509  32.014  1.00  0.00     0.167 HD
ATOM     54  C   UNL A   1      44.655  25.360  31.386  1.00  0.00     0.074 A 
ATOM     55  C   UNL A   1      45.284  24.275  30.659  1.00  0.00     0.031 C 
ATOM     56  C   UNL A   1      45.104  25.844  32.570  1.00  0.00     0.034 A 
BRANCH  43  57
ATOM     57  C   UNL A   1      41.895  30.687  34.676  1.00  0.00     0.023 A 
ATOM     58  C   UNL A   1      42.958  31.571  34.955  1.00  0.00     0.012 A 
ATOM     59  C   UNL A   1      40.678  30.827  35.368  1.00  0.00     0.148 A 
ATOM     60  C   UNL A   1      42.819  32.562  35.924  1.00  0.00     0.002 A 
ATOM     61  C   UNL A   1      40.536  31.840  36.310  1.00  0.00     0.091 A 
ATOM     62  F   UNL A   1      39.689  29.959  35.109  1.00  0.00    -0.205 F 
ATOM     63  C   UNL A   1      41.607  32.703  36.594  1.00  0.00     0.022 A 
BRANCH  61  64
ATOM     64  S   UNL A   1      38.992  32.135  37.180  1.00  0.00     0.127 S 
ATOM     65  O   UNL A   1      39.468  32.646  38.463  1.00  0.00    -0.237 OA
ATOM     66  O   UNL A   1      38.339  33.133  36.331  1.00  0.00    -0.237 OA
ATOM     67  O   UNL A   1      38.311  30.847  37.227  1.00  0.00    -0.744 OA
ENDBRANCH  61  64
ENDBRANCH  43  57
BRANCH  44  68
ATOM     68  C   UNL A   1      42.749  24.027  27.288  1.00  0.00     0.023 A 
ATOM     69  C   UNL A   1      43.567  24.329  26.182  1.00  0.00     0.012 A 
ATOM     70  C   UNL A   1      42.102  22.778  27.343  1.00  0.00     0.148 A 
ATOM     71  C   UNL A   1      43.721  23.413  25.141  1.00  0.00     0.002 A 
ATOM     72  C   UNL A   1      42.301  21.849  26.329  1.00  0.00     0.091 A 
ATOM     73  F   UNL A   1      41.306  22.519  28.390  1.00  0.00    -0.205 F 
ATOM     74  C   UNL A   1      43.100  22.169  25.220  1.00  0.00     0.022 A 
BRANCH  72  75
ATOM     75  S   UNL A   1      41.638  20.182  26.423  1.00  0.00     0.127 S 
ATOM     76  O   UNL A   1      42.068  19.761  27.753  1.00  0.00    -0.237 OA
ATOM     77  O   UNL A   1      40.199  20.414  26.286  1.00  0.00    -0.237 OA
ATOM     78  O   UNL A   1      42.234  19.467  25.301  1.00  0.00    -0.744 OA
ENDBRANCH  72  75
ENDBRANCH  44  68
BRANCH  56  79
ATOM     79  C   UNL A   1      46.337  25.210  33.157  1.00  0.00     0.023 A 
ATOM     80  C   UNL A   1      47.600  25.776  32.890  1.00  0.00     0.012 A 
ATOM     81  C   UNL A   1      46.247  24.098  34.017  1.00  0.00     0.148 A 
ATOM     82  C   UNL A   1      48.755  25.230  33.446  1.00  0.00     0.002 A 
ATOM     83  C   UNL A   1      47.401  23.583  34.600  1.00  0.00     0.091 A 
ATOM     84  F   UNL A   1      45.042  23.554  34.243  1.00  0.00    -0.205 F 
ATOM     85  C   UNL A   1      48.656  24.140  34.309  1.00  0.00     0.022 A 
BRANCH  83  86
ATOM     86  S   UNL A   1      47.342  22.237  35.790  1.00  0.00     0.127 S 
ATOM     87  O   UNL A   1      46.454  22.781  36.815  1.00  0.00    -0.237 OA
ATOM     88  O   UNL A   1      46.768  21.142  35.005  1.00  0.00    -0.237 OA
ATOM     89  O   UNL A   1      48.723  22.017  36.198  1.00  0.00    -0.744 OA
ENDBRANCH  83  86
ENDBRANCH  56  79
ENDBRANCH  30  31
ENDBRANCH  23  25
ENDBRANCH  22  23
ENDBRANCH  21  22
ENDBRANCH   1  21
TORSDOF 18
ENDMDL
MODEL 2
REMARK VINA RESULT:     -10.8      1.458      1.782
REMARK SMILES O=C(C[C@@H]1C=CCC1)NCc1ccc(C(=O)OCCOC(=O)c2ccc(-c3c4nc(c(-c5cccc(S(=O)(=O)[O-])c5F)c5ccc([nH]5)c(-c5cccc(S(=O)(=O)[O-])c5F)c5nc(c(-c6cccc(S(=O)(=O)[O-])c6F)c6ccc3[nH]6)C=C5)C=C4)cc2)o1
REMARK SMILES IDX 18 1 17 2 15 3 16 4 14 5 11 6 12 7 86 8 13 9 10 10 9 11 1 12
REMARK SMILES IDX 2 13 3 15 4 16 5 17 8 18 6 19 7 20 19 21 20 22 21 23 22 24
REMARK SMILES IDX 23 25 24 26 85 27 25 28 84 29 26 30 27 31 28 32 78 33 29 34
REMARK SMILES IDX 83 35 77 36 79 37 30 38 82 39 76 40 75 41 31 43 63 44 43 45
REMARK SMILES IDX 62 46 44 47 47 48 61 49 80 50 45 51 46 52 60 54 81 55 48 56
REMARK SMILES IDX 32 57 33 58 41 59 34 60 36 61 42 62 35 63 37 64 38 65 39 66
REMARK SMILES IDX 40 67 64 68 65 69 73 70 66 71 68 72 74 73 67 74 69 75 70 76
REMARK SMILES IDX 71 77 72 78 49 79 50 80 58 81 51 82 53 83 59 84 52 85 54 86
REMARK SMILES IDX 55 87 56 88 57 89
REMARK H PARENT 9 14 79 42 47 53
REMARK Flexibility Score: inf
ROOT
ATOM      1  C   UNL A   1      33.612  34.161  28.389  1.00  0.00     0.275 C 
ENDROOT
BRANCH   1   2
ATOM      2  O   UNL A   1      32.880  34.670  29.520  1.00  0.00    -0.456 OA
BRANCH   2   3
ATOM      3  C   UNL A   1      32.935  36.027  29.693  1.00  0.00     0.374 C 
ATOM      4  O   UNL A   1      32.663  36.842  28.828  1.00  0.00    -0.242 OA
BRANCH   3   5
ATOM      5  C   UNL A   1      33.282  36.338  31.064  1.00  0.00     0.211 A 
ATOM      6  C   UNL A   1      34.184  35.851  33.026  1.00  0.00     0.124 A 
ATOM      7  C   UNL A   1      33.825  37.184  33.078  1.00  0.00     0.048 A 
ATOM      8  O   UNL A   1      33.800  35.324  31.829  1.00  0.00    -0.452 OA
ATOM      9  C   UNL A   1      33.263  37.499  31.814  1.00  0.00     0.058 A 
BRANCH   6  10
ATOM     10  C   UNL A   1      34.890  34.919  33.947  1.00  0.00     0.191 C 
BRANCH  10  11
ATOM     11  N   UNL A   1      36.245  34.721  33.474  1.00  0.00    -0.349 N 
ATOM     12  O   UNL A   1      35.987  32.508  32.922  1.00  0.00    -0.275 OA
ATOM     13  C   UNL A   1      36.692  33.508  33.011  1.00  0.00     0.220 C 
ATOM     14  H   UNL A   1      36.867  35.485  33.484  1.00  0.00     0.163 HD
BRANCH  13  15
ATOM     15  C   UNL A   1      38.175  33.478  32.694  1.00  0.00     0.107 C 
BRANCH  15  16
ATOM     16  C   UNL A   1      38.556  34.451  31.573  1.00  0.00     0.021 C 
ATOM     17  C   UNL A   1      37.843  34.135  30.290  1.00  0.00    -0.027 C 
ATOM     18  C   UNL A   1      40.031  34.312  31.151  1.00  0.00     0.012 C 
ATOM     19  C   UNL A   1      38.655  33.589  29.378  1.00  0.00    -0.031 C 
ATOM     20  C   UNL A   1      40.048  33.447  29.891  1.00  0.00     0.027 C 
ENDBRANCH  15  16
ENDBRANCH  13  15
ENDBRANCH  10  11
ENDBRANCH   6  10
ENDBRANCH   3   5
ENDBRANCH   2   3
ENDBRANCH   1   2
BRANCH   1  21
ATOM     21  C   UNL A   1      34.282  32.816  28.702  1.00  0.00     0.275 C 
BRANCH  21  22
ATOM     22  O   UNL A   1      34.700  32.126  27.510  1.00  0.00    -0.458 OA
BRANCH  22  23
ATOM     23  C   UNL A   1      34.714  30.775  27.598  1.00  0.00     0.338 C 
ATOM     24  O   UNL A   1      33.892  30.006  27.125  1.00  0.00    -0.246 OA
BRANCH  23  25
ATOM     25  C   UNL A   1      35.965  30.318  28.232  1.00  0.00     0.060 A 
ATOM     26  C   UNL A   1      37.153  30.537  27.534  1.00  0.00     0.016 A 
ATOM     27  C   UNL A   1      35.980  29.634  29.451  1.00  0.00     0.016 A 
ATOM     28  C   UNL A   1      38.364  30.079  28.041  1.00  0.00     0.010 A 
ATOM     29  C   UNL A   1      37.200  29.163  29.957  1.00  0.00     0.010 A 
ATOM     30  C   UNL A   1      38.397  29.372  29.250  1.00  0.00    -0.014 A 
BRANCH  30  31
ATOM     31  C   UNL A   1      39.692  28.827  29.721  1.00  0.00     0.031 A 
ATOM     32  C   UNL A   1      40.342  29.386  30.954  1.00  0.00     0.074 A 
ATOM     33  C   UNL A   1      40.256  27.790  29.073  1.00  0.00     0.049 A 
ATOM     34  N   UNL A   1      41.432  28.995  31.562  1.00  0.00    -0.248 NA
ATOM     35  C   UNL A   1      39.678  30.536  31.590  1.00  0.00     0.031 C 
ATOM     36  C   UNL A   1      39.722  27.162  27.865  1.00  0.00     0.029 A 
ATOM     37  N   UNL A   1      41.402  27.084  29.342  1.00  0.00    -0.354 N 
ATOM     38  C   UNL A   1      41.599  29.859  32.636  1.00  0.00     0.074 A 
ATOM     39  C   UNL A   1      40.504  30.804  32.592  1.00  0.00     0.031 C 
ATOM     40  C   UNL A   1      40.542  26.165  27.492  1.00  0.00     0.029 A 
ATOM     41  C   UNL A   1      41.664  26.093  28.426  1.00  0.00     0.049 A 
ATOM     42  H   UNL A   1      41.981  27.269  30.115  1.00  0.00     0.167 HD
ATOM     43  C   UNL A   1      42.566  29.853  33.586  1.00  0.00     0.034 A 
ATOM     44  C   UNL A   1      42.693  25.226  28.347  1.00  0.00     0.034 A 
ATOM     45  C   UNL A   1      43.637  28.895  33.649  1.00  0.00     0.049 A 
ATOM     46  C   UNL A   1      43.749  25.239  29.419  1.00  0.00     0.074 A 
ATOM     47  C   UNL A   1      44.637  28.784  34.600  1.00  0.00     0.029 A 
ATOM     48  N   UNL A   1      43.853  27.886  32.724  1.00  0.00    -0.354 N 
ATOM     49  N   UNL A   1      43.823  25.982  30.497  1.00  0.00    -0.248 NA
ATOM     50  C   UNL A   1      44.847  24.270  29.282  1.00  0.00     0.031 C 
ATOM     51  C   UNL A   1      45.464  27.712  34.243  1.00  0.00     0.029 A 
ATOM     52  C   UNL A   1      44.974  27.152  33.075  1.00  0.00     0.049 A 
ATOM     53  H   UNL A   1      43.291  27.715  31.933  1.00  0.00     0.167 HD
ATOM     54  C   UNL A   1      44.961  25.559  31.175  1.00  0.00     0.074 A 
ATOM     55  C   UNL A   1      45.528  24.472  30.403  1.00  0.00     0.031 C 
ATOM     56  C   UNL A   1      45.501  26.042  32.321  1.00  0.00     0.034 A 
BRANCH  43  57
ATOM     57  C   UNL A   1      42.481  30.897  34.666  1.00  0.00     0.023 A 
ATOM     58  C   UNL A   1      41.821  30.590  35.873  1.00  0.00     0.012 A 
ATOM     59  C   UNL A   1      43.092  32.156  34.511  1.00  0.00     0.148 A 
ATOM     60  C   UNL A   1      41.748  31.530  36.900  1.00  0.00     0.002 A 
ATOM     61  C   UNL A   1      43.043  33.076  35.552  1.00  0.00     0.091 A 
ATOM     62  F   UNL A   1      43.690  32.440  33.344  1.00  0.00    -0.205 F 
ATOM     63  C   UNL A   1      42.366  32.767  36.744  1.00  0.00     0.022 A 
BRANCH  61  64
ATOM     64  S   UNL A   1      43.861  34.673  35.464  1.00  0.00     0.127 S 
ATOM     65  O   UNL A   1      43.128  35.321  34.379  1.00  0.00    -0.237 OA
ATOM     66  O   UNL A   1      43.603  35.231  36.792  1.00  0.00    -0.237 OA
ATOM     67  O   UNL A   1      45.264  34.385  35.194  1.00  0.00    -0.744 OA
ENDBRANCH  61  64
ENDBRANCH  43  57
BRANCH  44  68
ATOM     68  C   UNL A   1      42.741  24.234  27.236  1.00  0.00     0.023 A 
ATOM     69  C   UNL A   1      43.461  24.538  26.065  1.00  0.00     0.012 A 
ATOM     70  C   UNL A   1      42.106  22.981  27.347  1.00  0.00     0.148 A 
ATOM     71  C   UNL A   1      43.531  23.621  25.016  1.00  0.00     0.002 A 
ATOM     72  C   UNL A   1      42.224  22.053  26.320  1.00  0.00     0.091 A 
ATOM     73  F   UNL A   1      41.402  22.720  28.457  1.00  0.00    -0.205 F 
ATOM     74  C   UNL A   1      42.924  22.375  25.148  1.00  0.00     0.022 A 
BRANCH  72  75
ATOM     75  S   UNL A   1      41.578  20.383  26.470  1.00  0.00     0.127 S 
ATOM     76  O   UNL A   1      42.181  19.722  25.317  1.00  0.00    -0.237 OA
ATOM     77  O   UNL A   1      42.109  19.962  27.768  1.00  0.00    -0.237 OA
ATOM     78  O   UNL A   1      40.128  20.526  26.439  1.00  0.00    -0.744 OA
ENDBRANCH  72  75
ENDBRANCH  44  68
BRANCH  56  79
ATOM     79  C   UNL A   1      46.773  25.403  32.813  1.00  0.00     0.023 A 
ATOM     80  C   UNL A   1      48.011  25.855  32.313  1.00  0.00     0.012 A 
ATOM     81  C   UNL A   1      46.752  24.404  33.805  1.00  0.00     0.148 A 
ATOM     82  C   UNL A   1      49.206  25.305  32.773  1.00  0.00     0.002 A 
ATOM     83  C   UNL A   1      47.951  23.888  34.288  1.00  0.00     0.091 A 
ATOM     84  F   UNL A   1      45.567  23.966  34.254  1.00  0.00    -0.205 F 
ATOM     85  C   UNL A   1      49.178  24.329  33.767  1.00  0.00     0.022 A 
BRANCH  83  86
ATOM     86  S   UNL A   1      47.996  22.694  35.631  1.00  0.00     0.127 S 
ATOM     87  O   UNL A   1      47.647  23.522  36.783  1.00  0.00    -0.237 OA
ATOM     88  O   UNL A   1      46.963  21.733  35.237  1.00  0.00    -0.237 OA
ATOM     89  O   UNL A   1      49.348  22.151  35.624  1.00  0.00    -0.744 OA
ENDBRANCH  83  86
ENDBRANCH  56  79
ENDBRANCH  30  31
ENDBRANCH  23  25
ENDBRANCH  22  23
ENDBRANCH  21  22
ENDBRANCH   1  21
TORSDOF 18
ENDMDL
MODEL 3
REMARK VINA RESULT:     -10.8      4.759     12.636
REMARK SMILES O=C(C[C@@H]1C=CCC1)NCc1ccc(C(=O)OCCOC(=O)c2ccc(-c3c4nc(c(-c5cccc(S(=O)(=O)[O-])c5F)c5ccc([nH]5)c(-c5cccc(S(=O)(=O)[O-])c5F)c5nc(c(-c6cccc(S(=O)(=O)[O-])c6F)c6ccc3[nH]6)C=C5)C=C4)cc2)o1
REMARK SMILES IDX 18 1 17 2 15 3 16 4 14 5 11 6 12 7 86 8 13 9 10 10 9 11 1 12
REMARK SMILES IDX 2 13 3 15 4 16 5 17 8 18 6 19 7 20 19 21 20 22 21 23 22 24
REMARK SMILES IDX 23 25 24 26 85 27 25 28 84 29 26 30 27 31 28 32 78 33 29 34
REMARK SMILES IDX 83 35 77 36 79 37 30 38 82 39 76 40 75 41 31 43 63 44 43 45
REMARK SMILES IDX 62 46 44 47 47 48 61 49 80 50 45 51 46 52 60 54 81 55 48 56
REMARK SMILES IDX 32 57 33 58 41 59 34 60 36 61 42 62 35 63 37 64 38 65 39 66
REMARK SMILES IDX 40 67 64 68 65 69 73 70 66 71 68 72 74 73 67 74 69 75 70 76
REMARK SMILES IDX 71 77 72 78 49 79 50 80 58 81 51 82 53 83 59 84 52 85 54 86
REMARK SMILES IDX 55 87 56 88 57 89
REMARK H PARENT 9 14 79 42 47 53
REMARK Flexibility Score: inf
ROOT
ATOM      1  C   UNL A   1      40.793  19.902  26.493  1.00  0.00     0.275 C 
ENDROOT
BRANCH   1   2
ATOM      2  O   UNL A   1      42.194  19.718  26.772  1.00  0.00    -0.456 OA
BRANCH   2   3
ATOM      3  C   UNL A   1      42.844  18.831  25.956  1.00  0.00     0.374 C 
ATOM      4  O   UNL A   1      42.469  17.691  25.743  1.00  0.00    -0.242 OA
BRANCH   3   5
ATOM      5  C   UNL A   1      43.980  19.475  25.331  1.00  0.00     0.211 A 
ATOM      6  C   UNL A   1      44.975  21.184  24.337  1.00  0.00     0.124 A 
ATOM      7  C   UNL A   1      45.957  20.244  24.580  1.00  0.00     0.048 A 
ATOM      8  O   UNL A   1      43.768  20.692  24.737  1.00  0.00    -0.452 OA
ATOM      9  C   UNL A   1      45.322  19.157  25.233  1.00  0.00     0.058 A 
BRANCH   6  10
ATOM     10  C   UNL A   1      44.958  22.565  23.780  1.00  0.00     0.191 C 
BRANCH  10  11
ATOM     11  N   UNL A   1      45.092  23.515  24.865  1.00  0.00    -0.349 N 
ATOM     12  O   UNL A   1      47.068  24.432  24.140  1.00  0.00    -0.275 OA
ATOM     13  C   UNL A   1      46.163  24.369  24.966  1.00  0.00     0.220 C 
ATOM     14  H   UNL A   1      44.390  23.550  25.554  1.00  0.00     0.163 HD
BRANCH  13  15
ATOM     15  C   UNL A   1      46.183  25.184  26.244  1.00  0.00     0.107 C 
BRANCH  15  16
ATOM     16  C   UNL A   1      46.643  24.366  27.455  1.00  0.00     0.021 C 
ATOM     17  C   UNL A   1      45.486  23.913  28.298  1.00  0.00    -0.027 C 
ATOM     18  C   UNL A   1      47.449  25.209  28.463  1.00  0.00     0.012 C 
ATOM     19  C   UNL A   1      45.399  24.590  29.448  1.00  0.00    -0.031 C 
ATOM     20  C   UNL A   1      46.480  25.608  29.576  1.00  0.00     0.027 C 
ENDBRANCH  15  16
ENDBRANCH  13  15
ENDBRANCH  10  11
ENDBRANCH   6  10
ENDBRANCH   3   5
ENDBRANCH   2   3
ENDBRANCH   1   2
BRANCH   1  21
ATOM     21  C   UNL A   1      40.320  21.315  26.861  1.00  0.00     0.275 C 
BRANCH  21  22
ATOM     22  O   UNL A   1      39.611  21.950  25.780  1.00  0.00    -0.458 OA
BRANCH  22  23
ATOM     23  C   UNL A   1      38.655  22.833  26.156  1.00  0.00     0.338 C 
ATOM     24  O   UNL A   1      37.454  22.626  26.209  1.00  0.00    -0.246 OA
BRANCH  23  25
ATOM     25  C   UNL A   1      39.276  24.075  26.654  1.00  0.00     0.060 A 
ATOM     26  C   UNL A   1      39.031  24.424  27.983  1.00  0.00     0.016 A 
ATOM     27  C   UNL A   1      40.028  24.918  25.832  1.00  0.00     0.016 A 
ATOM     28  C   UNL A   1      39.531  25.613  28.503  1.00  0.00     0.010 A 
ATOM     29  C   UNL A   1      40.525  26.120  26.353  1.00  0.00     0.010 A 
ATOM     30  C   UNL A   1      40.270  26.480  27.689  1.00  0.00    -0.014 A 
BRANCH  30  31
ATOM     31  C   UNL A   1      40.720  27.776  28.251  1.00  0.00     0.031 A 
ATOM     32  C   UNL A   1      42.178  28.132  28.250  1.00  0.00     0.074 A 
ATOM     33  C   UNL A   1      39.811  28.657  28.710  1.00  0.00     0.049 A 
ATOM     34  N   UNL A   1      42.756  29.243  28.629  1.00  0.00    -0.248 NA
ATOM     35  C   UNL A   1      43.112  27.106  27.757  1.00  0.00     0.031 C 
ATOM     36  C   UNL A   1      38.367  28.425  28.764  1.00  0.00     0.029 A 
ATOM     37  N   UNL A   1      39.968  29.921  29.218  1.00  0.00    -0.354 N 
ATOM     38  C   UNL A   1      44.118  29.046  28.442  1.00  0.00     0.074 A 
ATOM     39  C   UNL A   1      44.283  27.704  27.927  1.00  0.00     0.031 C 
ATOM     40  C   UNL A   1      37.770  29.511  29.282  1.00  0.00     0.029 A 
ATOM     41  C   UNL A   1      38.787  30.508  29.608  1.00  0.00     0.049 A 
ATOM     42  H   UNL A   1      40.842  30.367  29.297  1.00  0.00     0.167 HD
ATOM     43  C   UNL A   1      45.137  29.912  28.661  1.00  0.00     0.034 A 
ATOM     44  C   UNL A   1      38.552  31.713  30.166  1.00  0.00     0.034 A 
ATOM     45  C   UNL A   1      44.972  31.256  29.144  1.00  0.00     0.049 A 
ATOM     46  C   UNL A   1      39.704  32.656  30.392  1.00  0.00     0.074 A 
ATOM     47  C   UNL A   1      45.943  32.220  29.355  1.00  0.00     0.029 A 
ATOM     48  N   UNL A   1      43.760  31.828  29.497  1.00  0.00    -0.354 N 
ATOM     49  N   UNL A   1      40.970  32.499  30.092  1.00  0.00    -0.248 NA
ATOM     50  C   UNL A   1      39.388  33.956  31.002  1.00  0.00     0.031 C 
ATOM     51  C   UNL A   1      45.318  33.373  29.844  1.00  0.00     0.029 A 
ATOM     52  C   UNL A   1      43.956  33.129  29.932  1.00  0.00     0.049 A 
ATOM     53  H   UNL A   1      42.887  31.376  29.446  1.00  0.00     0.167 HD
ATOM     54  C   UNL A   1      41.599  33.684  30.459  1.00  0.00     0.074 A 
ATOM     55  C   UNL A   1      40.568  34.562  30.973  1.00  0.00     0.031 C 
ATOM     56  C   UNL A   1      42.914  34.008  30.397  1.00  0.00     0.034 A 
BRANCH  43  57
ATOM     57  C   UNL A   1      46.529  29.439  28.335  1.00  0.00     0.023 A 
ATOM     58  C   UNL A   1      46.956  29.427  26.992  1.00  0.00     0.012 A 
ATOM     59  C   UNL A   1      47.424  29.057  29.352  1.00  0.00     0.148 A 
ATOM     60  C   UNL A   1      48.247  29.017  26.663  1.00  0.00     0.002 A 
ATOM     61  C   UNL A   1      48.721  28.681  29.018  1.00  0.00     0.091 A 
ATOM     62  F   UNL A   1      46.990  29.048  30.620  1.00  0.00    -0.205 F 
ATOM     63  C   UNL A   1      49.131  28.654  27.675  1.00  0.00     0.022 A 
BRANCH  61  64
ATOM     64  S   UNL A   1      49.947  28.253  30.260  1.00  0.00     0.127 S 
ATOM     65  O   UNL A   1      49.272  27.180  30.985  1.00  0.00    -0.237 OA
ATOM     66  O   UNL A   1      51.081  27.817  29.443  1.00  0.00    -0.237 OA
ATOM     67  O   UNL A   1      50.187  29.475  31.017  1.00  0.00    -0.744 OA
ENDBRANCH  61  64
ENDBRANCH  43  57
BRANCH  44  68
ATOM     68  C   UNL A   1      37.156  32.115  30.497  1.00  0.00     0.023 A 
ATOM     69  C   UNL A   1      36.650  31.864  31.787  1.00  0.00     0.012 A 
ATOM     70  C   UNL A   1      36.341  32.771  29.555  1.00  0.00     0.148 A 
ATOM     71  C   UNL A   1      35.350  32.242  32.125  1.00  0.00     0.002 A 
ATOM     72  C   UNL A   1      35.067  33.192  29.915  1.00  0.00     0.091 A 
ATOM     73  F   UNL A   1      36.830  32.977  28.323  1.00  0.00    -0.205 F 
ATOM     74  C   UNL A   1      34.564  32.916  31.195  1.00  0.00     0.022 A 
BRANCH  72  75
ATOM     75  S   UNL A   1      34.044  34.176  28.814  1.00  0.00     0.127 S 
ATOM     76  O   UNL A   1      34.958  35.248  28.432  1.00  0.00    -0.237 OA
ATOM     77  O   UNL A   1      33.732  33.224  27.747  1.00  0.00    -0.237 OA
ATOM     78  O   UNL A   1      32.891  34.573  29.612  1.00  0.00    -0.744 OA
ENDBRANCH  72  75
ENDBRANCH  44  68
BRANCH  56  79
ATOM     79  C   UNL A   1      43.319  35.368  30.901  1.00  0.00     0.023 A 
ATOM     80  C   UNL A   1      43.666  35.528  32.258  1.00  0.00     0.012 A 
ATOM     81  C   UNL A   1      43.414  36.471  30.030  1.00  0.00     0.148 A 
ATOM     82  C   UNL A   1      44.075  36.768  32.745  1.00  0.00     0.002 A 
ATOM     83  C   UNL A   1      43.862  37.696  30.516  1.00  0.00     0.091 A 
ATOM     84  F   UNL A   1      43.057  36.311  28.747  1.00  0.00    -0.205 F 
ATOM     85  C   UNL A   1      44.183  37.849  31.874  1.00  0.00     0.022 A 
BRANCH  83  86
ATOM     86  S   UNL A   1      44.111  39.110  29.435  1.00  0.00     0.127 S 
ATOM     87  O   UNL A   1      42.742  39.431  29.039  1.00  0.00    -0.237 OA
ATOM     88  O   UNL A   1      44.732  40.089  30.329  1.00  0.00    -0.237 OA
ATOM     89  O   UNL A   1      44.986  38.636  28.370  1.00  0.00    -0.744 OA
ENDBRANCH  83  86
ENDBRANCH  56  79
ENDBRANCH  30  31
ENDBRANCH  23  25
ENDBRANCH  22  23
ENDBRANCH  21  22
ENDBRANCH   1  21
TORSDOF 18
ENDMDL
