MODEL 1
REMARK VINA RESULT:     -10.9      0.000      0.000
REMARK SMILES CCC(CC)(NC(=O)c1cc(C)ccc1OC)C(=O)OCCOC(=O)c1ccc(-c2c3nc(c(-c4cccc(S(=O)(=O)[O-])c4F)c4ccc([nH]4)c(-c4cccc(S(=O)(=O)[O-])c4F)c4nc(c(-c5cccc(S(=O)(=O)[O-])c5F)c5ccc2[nH]5)C=C4)C=C3)cc1
REMARK SMILES IDX 21 1 20 2 18 3 19 4 3 5 2 6 1 7 4 8 5 9 6 10 7 11 8 13 9 14
REMARK SMILES IDX 10 15 15 16 11 17 14 18 12 19 13 20 16 21 17 22 22 23 23 24
REMARK SMILES IDX 24 25 25 26 26 27 27 28 88 29 28 30 87 31 29 32 30 33 31 34
REMARK SMILES IDX 81 35 32 36 86 37 80 38 82 39 33 40 85 41 79 42 78 43 34 45
REMARK SMILES IDX 66 46 46 47 65 48 47 49 50 50 64 51 83 52 48 53 49 54 63 56
REMARK SMILES IDX 84 57 51 58 35 59 36 60 44 61 37 62 39 63 45 64 38 65 40 66
REMARK SMILES IDX 41 67 42 68 43 69 67 70 68 71 76 72 69 73 71 74 77 75 70 76
REMARK SMILES IDX 72 77 73 78 74 79 75 80 52 81 53 82 61 83 54 84 56 85 62 86
REMARK SMILES IDX 55 87 57 88 58 89 59 90 60 91
REMARK H PARENT 6 12 82 44 50 55
REMARK Flexibility Score: inf
ROOT
ATOM      1  C   UNL A   1      31.779  30.462  26.268  1.00  0.00     0.274 C 
ENDROOT
BRANCH   1   2
ATOM      2  O   UNL A   1      31.582  29.044  26.397  1.00  0.00    -0.460 OA
BRANCH   2   3
ATOM      3  C   UNL A   1      31.572  28.264  25.291  1.00  0.00     0.331 C 
ATOM      4  O   UNL A   1      31.180  28.665  24.199  1.00  0.00    -0.249 OA
BRANCH   3   5
ATOM      5  C   UNL A   1      32.357  26.937  25.485  1.00  0.00     0.137 C 
BRANCH   5   6
ATOM      6  C   UNL A   1      31.391  25.921  26.203  1.00  0.00     0.037 C 
ATOM      7  C   UNL A   1      29.962  25.780  25.681  1.00  0.00     0.007 C 
ENDBRANCH   5   6
BRANCH   5   8
ATOM      8  C   UNL A   1      33.701  26.992  26.243  1.00  0.00     0.037 C 
ATOM      9  C   UNL A   1      34.677  28.076  25.762  1.00  0.00     0.007 C 
ENDBRANCH   5   8
BRANCH   5  10
ATOM     10  N   UNL A   1      32.497  26.445  24.064  1.00  0.00    -0.336 N 
ATOM     11  C   UNL A   1      33.083  25.374  23.429  1.00  0.00     0.255 C 
ATOM     12  H   UNL A   1      32.056  27.049  23.424  1.00  0.00     0.165 HD
ATOM     13  O   UNL A   1      33.113  25.393  22.195  1.00  0.00    -0.269 OA
BRANCH  11  14
ATOM     14  C   UNL A   1      33.759  24.235  24.090  1.00  0.00     0.082 A 
ATOM     15  C   UNL A   1      35.142  24.389  24.352  1.00  0.00     0.021 A 
ATOM     16  C   UNL A   1      33.163  23.000  24.359  1.00  0.00     0.131 A 
ATOM     17  C   UNL A   1      35.882  23.386  25.018  1.00  0.00    -0.050 A 
ATOM     18  C   UNL A   1      33.898  22.005  25.022  1.00  0.00     0.047 A 
ATOM     19  C   UNL A   1      37.292  23.641  25.473  1.00  0.00     0.044 C 
ATOM     20  C   UNL A   1      35.240  22.194  25.356  1.00  0.00     0.007 A 
BRANCH  16  21
ATOM     21  O   UNL A   1      31.886  22.622  24.059  1.00  0.00    -0.496 OA
ATOM     22  C   UNL A   1      31.736  21.911  22.838  1.00  0.00     0.278 C 
ENDBRANCH  16  21
ENDBRANCH  11  14
ENDBRANCH   5  10
ENDBRANCH   3   5
ENDBRANCH   2   3
ENDBRANCH   1   2
BRANCH   1  23
ATOM     23  C   UNL A   1      32.944  31.238  26.910  1.00  0.00     0.275 C 
BRANCH  23  24
ATOM     24  O   UNL A   1      33.949  30.705  27.819  1.00  0.00    -0.458 OA
BRANCH  24  25
ATOM     25  C   UNL A   1      34.885  31.341  28.558  1.00  0.00     0.338 C 
ATOM     26  O   UNL A   1      34.788  32.510  28.905  1.00  0.00    -0.246 OA
BRANCH  25  27
ATOM     27  C   UNL A   1      36.100  30.570  28.789  1.00  0.00     0.060 A 
ATOM     28  C   UNL A   1      36.334  29.939  30.017  1.00  0.00     0.016 A 
ATOM     29  C   UNL A   1      36.929  30.378  27.693  1.00  0.00     0.016 A 
ATOM     30  C   UNL A   1      37.356  29.000  30.120  1.00  0.00     0.010 A 
ATOM     31  C   UNL A   1      37.800  29.322  27.736  1.00  0.00     0.010 A 
ATOM     32  C   UNL A   1      38.059  28.672  28.960  1.00  0.00    -0.014 A 
BRANCH  32  33
ATOM     33  C   UNL A   1      39.400  28.114  28.971  1.00  0.00     0.031 A 
ATOM     34  C   UNL A   1      39.749  26.732  28.656  1.00  0.00     0.074 A 
ATOM     35  C   UNL A   1      40.300  29.120  29.062  1.00  0.00     0.049 A 
ATOM     36  N   UNL A   1      40.852  26.212  29.059  1.00  0.00    -0.248 NA
ATOM     37  C   UNL A   1      38.924  25.812  27.883  1.00  0.00     0.031 C 
ATOM     38  C   UNL A   1      41.683  29.221  28.663  1.00  0.00     0.029 A 
ATOM     39  N   UNL A   1      40.020  30.380  29.617  1.00  0.00    -0.354 N 
ATOM     40  C   UNL A   1      41.037  25.041  28.356  1.00  0.00     0.074 A 
ATOM     41  C   UNL A   1      39.751  24.760  27.760  1.00  0.00     0.031 C 
ATOM     42  C   UNL A   1      42.189  30.351  29.204  1.00  0.00     0.029 A 
ATOM     43  C   UNL A   1      41.194  30.880  30.137  1.00  0.00     0.049 A 
ATOM     44  H   UNL A   1      39.143  30.825  29.632  1.00  0.00     0.167 HD
ATOM     45  C   UNL A   1      42.312  24.580  28.203  1.00  0.00     0.034 A 
ATOM     46  C   UNL A   1      41.305  31.055  31.488  1.00  0.00     0.034 A 
ATOM     47  C   UNL A   1      43.262  25.552  28.785  1.00  0.00     0.049 A 
ATOM     48  C   UNL A   1      42.404  30.181  32.049  1.00  0.00     0.074 A 
ATOM     49  C   UNL A   1      44.024  26.555  28.207  1.00  0.00     0.029 A 
ATOM     50  N   UNL A   1      43.295  25.782  30.153  1.00  0.00    -0.354 N 
ATOM     51  N   UNL A   1      43.030  29.253  31.384  1.00  0.00    -0.248 NA
ATOM     52  C   UNL A   1      42.738  30.187  33.464  1.00  0.00     0.031 C 
ATOM     53  C   UNL A   1      44.517  27.393  29.245  1.00  0.00     0.029 A 
ATOM     54  C   UNL A   1      44.082  26.888  30.457  1.00  0.00     0.049 A 
ATOM     55  H   UNL A   1      42.822  25.234  30.821  1.00  0.00     0.167 HD
ATOM     56  C   UNL A   1      43.680  28.426  32.260  1.00  0.00     0.074 A 
ATOM     57  C   UNL A   1      43.458  29.059  33.553  1.00  0.00     0.031 C 
ATOM     58  C   UNL A   1      44.277  27.259  31.858  1.00  0.00     0.034 A 
BRANCH  45  59
ATOM     59  C   UNL A   1      42.805  23.474  27.273  1.00  0.00     0.023 A 
ATOM     60  C   UNL A   1      43.784  23.853  26.319  1.00  0.00     0.012 A 
ATOM     61  C   UNL A   1      42.395  22.121  27.222  1.00  0.00     0.148 A 
ATOM     62  C   UNL A   1      44.247  23.001  25.315  1.00  0.00     0.002 A 
ATOM     63  C   UNL A   1      42.846  21.265  26.202  1.00  0.00     0.091 A 
ATOM     64  F   UNL A   1      41.600  21.631  28.176  1.00  0.00    -0.205 F 
ATOM     65  C   UNL A   1      43.759  21.710  25.240  1.00  0.00     0.022 A 
BRANCH  63  66
ATOM     66  S   UNL A   1      42.282  19.562  26.008  1.00  0.00     0.127 S 
ATOM     67  O   UNL A   1      42.609  18.983  27.312  1.00  0.00    -0.237 OA
ATOM     68  O   UNL A   1      40.850  19.727  25.762  1.00  0.00    -0.237 OA
ATOM     69  O   UNL A   1      43.038  19.004  24.893  1.00  0.00    -0.744 OA
ENDBRANCH  63  66
ENDBRANCH  45  59
BRANCH  46  70
ATOM     70  C   UNL A   1      39.987  31.258  32.224  1.00  0.00     0.023 A 
ATOM     71  C   UNL A   1      39.309  30.131  32.755  1.00  0.00     0.012 A 
ATOM     72  C   UNL A   1      39.599  32.531  32.690  1.00  0.00     0.148 A 
ATOM     73  C   UNL A   1      38.342  30.271  33.763  1.00  0.00     0.002 A 
ATOM     74  C   UNL A   1      38.636  32.662  33.692  1.00  0.00     0.091 A 
ATOM     75  F   UNL A   1      40.208  33.621  32.211  1.00  0.00    -0.205 F 
ATOM     76  C   UNL A   1      38.012  31.537  34.238  1.00  0.00     0.022 A 
BRANCH  74  77
ATOM     77  S   UNL A   1      38.330  34.275  34.428  1.00  0.00     0.127 S 
ATOM     78  O   UNL A   1      37.641  34.972  33.346  1.00  0.00    -0.237 OA
ATOM     79  O   UNL A   1      37.497  33.949  35.587  1.00  0.00    -0.237 OA
ATOM     80  O   UNL A   1      39.657  34.757  34.783  1.00  0.00    -0.744 OA
ENDBRANCH  74  77
ENDBRANCH  46  70
BRANCH  58  81
ATOM     81  C   UNL A   1      45.067  26.328  32.766  1.00  0.00     0.023 A 
ATOM     82  C   UNL A   1      46.448  26.117  32.604  1.00  0.00     0.012 A 
ATOM     83  C   UNL A   1      44.441  25.553  33.779  1.00  0.00     0.148 A 
ATOM     84  C   UNL A   1      47.197  25.332  33.486  1.00  0.00     0.002 A 
ATOM     85  C   UNL A   1      45.179  24.751  34.642  1.00  0.00     0.091 A 
ATOM     86  F   UNL A   1      43.107  25.513  33.871  1.00  0.00    -0.205 F 
ATOM     87  C   UNL A   1      46.565  24.667  34.522  1.00  0.00     0.022 A 
BRANCH  85  88
ATOM     88  S   UNL A   1      44.394  23.759  35.918  1.00  0.00     0.127 S 
ATOM     89  O   UNL A   1      44.032  24.782  36.898  1.00  0.00    -0.237 OA
ATOM     90  O   UNL A   1      43.262  23.176  35.197  1.00  0.00    -0.237 OA
ATOM     91  O   UNL A   1      45.394  22.794  36.349  1.00  0.00    -0.744 OA
ENDBRANCH  85  88
ENDBRANCH  58  81
ENDBRANCH  32  33
ENDBRANCH  25  27
ENDBRANCH  24  25
ENDBRANCH  23  24
ENDBRANCH   1  23
TORSDOF 19
ENDMDL
MODEL 2
REMARK VINA RESULT:     -10.6      1.094      2.007
REMARK SMILES CCC(CC)(NC(=O)c1cc(C)ccc1OC)C(=O)OCCOC(=O)c1ccc(-c2c3nc(c(-c4cccc(S(=O)(=O)[O-])c4F)c4ccc([nH]4)c(-c4cccc(S(=O)(=O)[O-])c4F)c4nc(c(-c5cccc(S(=O)(=O)[O-])c5F)c5ccc2[nH]5)C=C4)C=C3)cc1
REMARK SMILES IDX 21 1 20 2 18 3 19 4 3 5 2 6 1 7 4 8 5 9 6 10 7 11 8 13 9 14
REMARK SMILES IDX 10 15 15 16 11 17 14 18 12 19 13 20 16 21 17 22 22 23 23 24
REMARK SMILES IDX 24 25 25 26 26 27 27 28 88 29 28 30 87 31 29 32 30 33 31 34
REMARK SMILES IDX 81 35 32 36 86 37 80 38 82 39 33 40 85 41 79 42 78 43 34 45
REMARK SMILES IDX 66 46 46 47 65 48 47 49 50 50 64 51 83 52 48 53 49 54 63 56
REMARK SMILES IDX 84 57 51 58 35 59 36 60 44 61 37 62 39 63 45 64 38 65 40 66
REMARK SMILES IDX 41 67 42 68 43 69 67 70 68 71 76 72 69 73 71 74 77 75 70 76
REMARK SMILES IDX 72 77 73 78 74 79 75 80 52 81 53 82 61 83 54 84 56 85 62 86
REMARK SMILES IDX 55 87 57 88 58 89 59 90 60 91
REMARK H PARENT 6 12 82 44 50 55
REMARK Flexibility Score: inf
ROOT
ATOM      1  C   UNL A   1      32.198  30.138  26.335  1.00  0.00     0.274 C 
ENDROOT
BRANCH   1   2
ATOM      2  O   UNL A   1      32.004  28.767  25.951  1.00  0.00    -0.460 OA
BRANCH   2   3
ATOM      3  C   UNL A   1      31.303  28.475  24.831  1.00  0.00     0.331 C 
ATOM      4  O   UNL A   1      30.716  29.330  24.173  1.00  0.00    -0.249 OA
BRANCH   3   5
ATOM      5  C   UNL A   1      31.555  27.028  24.324  1.00  0.00     0.137 C 
BRANCH   5   6
ATOM      6  C   UNL A   1      33.040  26.963  23.807  1.00  0.00     0.037 C 
ATOM      7  C   UNL A   1      33.326  27.360  22.360  1.00  0.00     0.007 C 
ENDBRANCH   5   6
BRANCH   5   8
ATOM      8  C   UNL A   1      30.608  26.462  23.243  1.00  0.00     0.037 C 
ATOM      9  C   UNL A   1      29.162  26.221  23.702  1.00  0.00     0.007 C 
ENDBRANCH   5   8
BRANCH   5  10
ATOM     10  N   UNL A   1      31.526  26.235  25.610  1.00  0.00    -0.336 N 
ATOM     11  C   UNL A   1      31.937  24.991  26.028  1.00  0.00     0.255 C 
ATOM     12  H   UNL A   1      31.100  26.742  26.340  1.00  0.00     0.165 HD
ATOM     13  O   UNL A   1      31.595  24.631  27.158  1.00  0.00    -0.269 OA
BRANCH  11  14
ATOM     14  C   UNL A   1      32.683  24.003  25.216  1.00  0.00     0.082 A 
ATOM     15  C   UNL A   1      31.912  23.182  24.358  1.00  0.00     0.021 A 
ATOM     16  C   UNL A   1      34.053  23.754  25.325  1.00  0.00     0.131 A 
ATOM     17  C   UNL A   1      32.519  22.234  23.504  1.00  0.00    -0.050 A 
ATOM     18  C   UNL A   1      34.656  22.813  24.475  1.00  0.00     0.047 A 
ATOM     19  C   UNL A   1      31.717  21.516  22.455  1.00  0.00     0.044 C 
ATOM     20  C   UNL A   1      33.903  22.065  23.569  1.00  0.00     0.007 A 
BRANCH  16  21
ATOM     21  O   UNL A   1      34.931  24.348  26.185  1.00  0.00    -0.496 OA
ATOM     22  C   UNL A   1      36.258  23.842  26.143  1.00  0.00     0.278 C 
ENDBRANCH  16  21
ENDBRANCH  11  14
ENDBRANCH   5  10
ENDBRANCH   3   5
ENDBRANCH   2   3
ENDBRANCH   1   2
BRANCH   1  23
ATOM     23  C   UNL A   1      33.550  30.736  26.764  1.00  0.00     0.275 C 
BRANCH  23  24
ATOM     24  O   UNL A   1      34.318  30.390  27.952  1.00  0.00    -0.458 OA
BRANCH  24  25
ATOM     25  C   UNL A   1      35.316  31.056  28.573  1.00  0.00     0.338 C 
ATOM     26  O   UNL A   1      35.268  32.252  28.832  1.00  0.00    -0.246 OA
BRANCH  25  27
ATOM     27  C   UNL A   1      36.528  30.274  28.782  1.00  0.00     0.060 A 
ATOM     28  C   UNL A   1      36.766  29.621  29.998  1.00  0.00     0.016 A 
ATOM     29  C   UNL A   1      37.347  30.094  27.677  1.00  0.00     0.016 A 
ATOM     30  C   UNL A   1      37.782  28.673  30.078  1.00  0.00     0.010 A 
ATOM     31  C   UNL A   1      38.211  29.031  27.697  1.00  0.00     0.010 A 
ATOM     32  C   UNL A   1      38.475  28.360  28.908  1.00  0.00    -0.014 A 
BRANCH  32  33
ATOM     33  C   UNL A   1      39.811  27.792  28.900  1.00  0.00     0.031 A 
ATOM     34  C   UNL A   1      40.146  26.407  28.585  1.00  0.00     0.074 A 
ATOM     35  C   UNL A   1      40.720  28.793  28.971  1.00  0.00     0.049 A 
ATOM     36  N   UNL A   1      41.252  25.881  28.973  1.00  0.00    -0.248 NA
ATOM     37  C   UNL A   1      39.303  25.489  27.830  1.00  0.00     0.031 C 
ATOM     38  C   UNL A   1      42.098  28.883  28.550  1.00  0.00     0.029 A 
ATOM     39  N   UNL A   1      40.458  30.057  29.525  1.00  0.00    -0.354 N 
ATOM     40  C   UNL A   1      41.417  24.705  28.273  1.00  0.00     0.074 A 
ATOM     41  C   UNL A   1      40.120  24.431  27.698  1.00  0.00     0.031 C 
ATOM     42  C   UNL A   1      42.619  30.011  29.078  1.00  0.00     0.029 A 
ATOM     43  C   UNL A   1      41.643  30.552  30.024  1.00  0.00     0.049 A 
ATOM     44  H   UNL A   1      39.584  30.508  29.552  1.00  0.00     0.167 HD
ATOM     45  C   UNL A   1      42.687  24.235  28.101  1.00  0.00     0.034 A 
ATOM     46  C   UNL A   1      41.778  30.732  31.372  1.00  0.00     0.034 A 
ATOM     47  C   UNL A   1      43.653  25.203  28.664  1.00  0.00     0.049 A 
ATOM     48  C   UNL A   1      42.879  29.852  31.920  1.00  0.00     0.074 A 
ATOM     49  C   UNL A   1      44.412  26.198  28.069  1.00  0.00     0.029 A 
ATOM     50  N   UNL A   1      43.709  25.439  30.030  1.00  0.00    -0.354 N 
ATOM     51  N   UNL A   1      43.488  28.917  31.249  1.00  0.00    -0.248 NA
ATOM     52  C   UNL A   1      43.236  29.862  33.329  1.00  0.00     0.031 C 
ATOM     53  C   UNL A   1      44.927  27.038  29.094  1.00  0.00     0.029 A 
ATOM     54  C   UNL A   1      44.508  26.540  30.316  1.00  0.00     0.049 A 
ATOM     55  H   UNL A   1      43.244  24.897  30.707  1.00  0.00     0.167 HD
ATOM     56  C   UNL A   1      44.146  28.090  32.117  1.00  0.00     0.074 A 
ATOM     57  C   UNL A   1      43.950  28.730  33.411  1.00  0.00     0.031 C 
ATOM     58  C   UNL A   1      44.729  26.917  31.711  1.00  0.00     0.034 A 
BRANCH  45  59
ATOM     59  C   UNL A   1      43.157  23.122  27.168  1.00  0.00     0.023 A 
ATOM     60  C   UNL A   1      44.152  23.480  26.223  1.00  0.00     0.012 A 
ATOM     61  C   UNL A   1      42.713  21.780  27.107  1.00  0.00     0.148 A 
ATOM     62  C   UNL A   1      44.599  22.622  25.217  1.00  0.00     0.002 A 
ATOM     63  C   UNL A   1      43.148  20.918  26.086  1.00  0.00     0.091 A 
ATOM     64  F   UNL A   1      41.899  21.305  28.054  1.00  0.00    -0.205 F 
ATOM     65  C   UNL A   1      44.079  21.344  25.132  1.00  0.00     0.022 A 
BRANCH  63  66
ATOM     66  S   UNL A   1      42.542  19.231  25.879  1.00  0.00     0.127 S 
ATOM     67  O   UNL A   1      41.100  19.442  25.734  1.00  0.00    -0.237 OA
ATOM     68  O   UNL A   1      43.214  18.799  24.654  1.00  0.00    -0.237 OA
ATOM     69  O   UNL A   1      42.928  18.505  27.082  1.00  0.00    -0.744 OA
ENDBRANCH  63  66
ENDBRANCH  45  59
BRANCH  46  70
ATOM     70  C   UNL A   1      40.473  30.947  32.128  1.00  0.00     0.023 A 
ATOM     71  C   UNL A   1      39.957  29.900  32.934  1.00  0.00     0.012 A 
ATOM     72  C   UNL A   1      39.950  32.241  32.329  1.00  0.00     0.148 A 
ATOM     73  C   UNL A   1      39.019  30.154  33.947  1.00  0.00     0.002 A 
ATOM     74  C   UNL A   1      39.016  32.485  33.338  1.00  0.00     0.091 A 
ATOM     75  F   UNL A   1      40.403  33.257  31.587  1.00  0.00    -0.205 F 
ATOM     76  C   UNL A   1      38.555  31.449  34.154  1.00  0.00     0.022 A 
BRANCH  74  77
ATOM     77  S   UNL A   1      38.543  34.178  33.723  1.00  0.00     0.127 S 
ATOM     78  O   UNL A   1      37.453  33.975  34.671  1.00  0.00    -0.237 OA
ATOM     79  O   UNL A   1      39.771  34.735  34.296  1.00  0.00    -0.237 OA
ATOM     80  O   UNL A   1      38.195  34.749  32.430  1.00  0.00    -0.744 OA
ENDBRANCH  74  77
ENDBRANCH  46  70
BRANCH  58  81
ATOM     81  C   UNL A   1      45.527  25.985  32.611  1.00  0.00     0.023 A 
ATOM     82  C   UNL A   1      46.932  26.010  32.658  1.00  0.00     0.012 A 
ATOM     83  C   UNL A   1      44.904  24.976  33.394  1.00  0.00     0.148 A 
ATOM     84  C   UNL A   1      47.669  25.219  33.544  1.00  0.00     0.002 A 
ATOM     85  C   UNL A   1      45.636  24.169  34.258  1.00  0.00     0.091 A 
ATOM     86  F   UNL A   1      43.598  24.723  33.254  1.00  0.00    -0.205 F 
ATOM     87  C   UNL A   1      47.018  24.314  34.363  1.00  0.00     0.022 A 
BRANCH  85  88
ATOM     88  S   UNL A   1      44.857  22.885  35.243  1.00  0.00     0.127 S 
ATOM     89  O   UNL A   1      45.334  21.676  34.572  1.00  0.00    -0.237 OA
ATOM     90  O   UNL A   1      45.440  23.118  36.565  1.00  0.00    -0.237 OA
ATOM     91  O   UNL A   1      43.425  23.129  35.164  1.00  0.00    -0.744 OA
ENDBRANCH  85  88
ENDBRANCH  58  81
ENDBRANCH  32  33
ENDBRANCH  25  27
ENDBRANCH  24  25
ENDBRANCH  23  24
ENDBRANCH   1  23
TORSDOF 19
ENDMDL
MODEL 3
REMARK VINA RESULT:     -10.6      3.890      9.815
REMARK SMILES CCC(CC)(NC(=O)c1cc(C)ccc1OC)C(=O)OCCOC(=O)c1ccc(-c2c3nc(c(-c4cccc(S(=O)(=O)[O-])c4F)c4ccc([nH]4)c(-c4cccc(S(=O)(=O)[O-])c4F)c4nc(c(-c5cccc(S(=O)(=O)[O-])c5F)c5ccc2[nH]5)C=C4)C=C3)cc1
REMARK SMILES IDX 21 1 20 2 18 3 19 4 3 5 2 6 1 7 4 8 5 9 6 10 7 11 8 13 9 14
REMARK SMILES IDX 10 15 15 16 11 17 14 18 12 19 13 20 16 21 17 22 22 23 23 24
REMARK SMILES IDX 24 25 25 26 26 27 27 28 88 29 28 30 87 31 29 32 30 33 31 34
REMARK SMILES IDX 81 35 32 36 86 37 80 38 82 39 33 40 85 41 79 42 78 43 34 45
REMARK SMILES IDX 66 46 46 47 65 48 47 49 50 50 64 51 83 52 48 53 49 54 63 56
REMARK SMILES IDX 84 57 51 58 35 59 36 60 44 61 37 62 39 63 45 64 38 65 40 66
REMARK SMILES IDX 41 67 42 68 43 69 67 70 68 71 76 72 69 73 71 74 77 75 70 76
REMARK SMILES IDX 72 77 73 78 74 79 75 80 52 81 53 82 61 83 54 84 56 85 62 86
REMARK SMILES IDX 55 87 57 88 58 89 59 90 60 91
REMARK H PARENT 6 12 82 44 50 55
REMARK Flexibility Score: inf
ROOT
ATOM      1  C   UNL A   1      36.037  23.355  25.928  1.00  0.00     0.274 C 
ENDROOT
BRANCH   1   2
ATOM      2  O   UNL A   1      35.261  23.915  24.856  1.00  0.00    -0.460 OA
BRANCH   2   3
ATOM      3  C   UNL A   1      34.195  24.700  25.137  1.00  0.00     0.331 C 
ATOM      4  O   UNL A   1      34.262  25.663  25.896  1.00  0.00    -0.249 OA
BRANCH   3   5
ATOM      5  C   UNL A   1      32.987  24.432  24.198  1.00  0.00     0.137 C 
BRANCH   5   6
ATOM      6  C   UNL A   1      33.079  22.931  23.731  1.00  0.00     0.037 C 
ATOM      7  C   UNL A   1      31.918  22.345  22.929  1.00  0.00     0.007 C 
ENDBRANCH   5   6
BRANCH   5   8
ATOM      8  C   UNL A   1      32.809  25.344  22.964  1.00  0.00     0.037 C 
ATOM      9  C   UNL A   1      33.749  26.558  22.909  1.00  0.00     0.007 C 
ENDBRANCH   5   8
BRANCH   5  10
ATOM     10  N   UNL A   1      31.822  24.500  25.157  1.00  0.00    -0.336 N 
ATOM     11  C   UNL A   1      30.983  25.475  25.645  1.00  0.00     0.255 C 
ATOM     12  H   UNL A   1      31.608  23.615  25.533  1.00  0.00     0.165 HD
ATOM     13  O   UNL A   1      30.217  25.158  26.559  1.00  0.00    -0.269 OA
BRANCH  11  14
ATOM     14  C   UNL A   1      30.969  26.897  25.233  1.00  0.00     0.082 A 
ATOM     15  C   UNL A   1      30.221  27.210  24.073  1.00  0.00     0.021 A 
ATOM     16  C   UNL A   1      31.725  27.908  25.832  1.00  0.00     0.131 A 
ATOM     17  C   UNL A   1      30.099  28.539  23.610  1.00  0.00    -0.050 A 
ATOM     18  C   UNL A   1      31.603  29.229  25.373  1.00  0.00     0.047 A 
ATOM     19  C   UNL A   1      29.142  28.887  22.505  1.00  0.00     0.044 C 
ATOM     20  C   UNL A   1      30.795  29.547  24.279  1.00  0.00     0.007 A 
BRANCH  16  21
ATOM     21  O   UNL A   1      32.600  27.774  26.871  1.00  0.00    -0.496 OA
ATOM     22  C   UNL A   1      33.142  28.990  27.368  1.00  0.00     0.278 C 
ENDBRANCH  16  21
ENDBRANCH  11  14
ENDBRANCH   5  10
ENDBRANCH   3   5
ENDBRANCH   2   3
ENDBRANCH   1   2
BRANCH   1  23
ATOM     23  C   UNL A   1      37.514  22.939  25.803  1.00  0.00     0.275 C 
BRANCH  23  24
ATOM     24  O   UNL A   1      38.677  23.805  25.935  1.00  0.00    -0.458 OA
BRANCH  24  25
ATOM     25  C   UNL A   1      39.534  23.969  26.967  1.00  0.00     0.338 C 
ATOM     26  O   UNL A   1      40.259  23.077  27.387  1.00  0.00    -0.246 OA
BRANCH  25  27
ATOM     27  C   UNL A   1      39.423  25.253  27.648  1.00  0.00     0.060 A 
ATOM     28  C   UNL A   1      38.869  25.346  28.931  1.00  0.00     0.016 A 
ATOM     29  C   UNL A   1      40.020  26.338  27.024  1.00  0.00     0.016 A 
ATOM     30  C   UNL A   1      39.020  26.523  29.658  1.00  0.00     0.010 A 
ATOM     31  C   UNL A   1      40.338  27.419  27.803  1.00  0.00     0.010 A 
ATOM     32  C   UNL A   1      39.789  27.542  29.096  1.00  0.00    -0.014 A 
BRANCH  32  33
ATOM     33  C   UNL A   1      39.657  28.939  29.468  1.00  0.00     0.031 A 
ATOM     34  C   UNL A   1      38.619  29.851  28.999  1.00  0.00     0.074 A 
ATOM     35  C   UNL A   1      40.480  29.201  30.510  1.00  0.00     0.049 A 
ATOM     36  N   UNL A   1      38.779  31.125  29.037  1.00  0.00    -0.248 NA
ATOM     37  C   UNL A   1      37.331  29.447  28.449  1.00  0.00     0.031 C 
ATOM     38  C   UNL A   1      40.442  30.205  31.546  1.00  0.00     0.029 A 
ATOM     39  N   UNL A   1      41.641  28.465  30.802  1.00  0.00    -0.354 N 
ATOM     40  C   UNL A   1      37.545  31.703  28.834  1.00  0.00     0.074 A 
ATOM     41  C   UNL A   1      36.716  30.634  28.323  1.00  0.00     0.031 C 
ATOM     42  C   UNL A   1      41.630  30.184  32.187  1.00  0.00     0.029 A 
ATOM     43  C   UNL A   1      42.528  29.311  31.431  1.00  0.00     0.049 A 
ATOM     44  H   UNL A   1      41.793  27.516  30.593  1.00  0.00     0.167 HD
ATOM     45  C   UNL A   1      37.336  32.958  29.327  1.00  0.00     0.034 A 
ATOM     46  C   UNL A   1      43.700  29.635  30.806  1.00  0.00     0.034 A 
ATOM     47  C   UNL A   1      38.527  33.395  30.087  1.00  0.00     0.049 A 
ATOM     48  C   UNL A   1      43.766  31.121  30.534  1.00  0.00     0.074 A 
ATOM     49  C   UNL A   1      38.808  33.386  31.444  1.00  0.00     0.029 A 
ATOM     50  N   UNL A   1      39.733  33.630  29.444  1.00  0.00    -0.354 N 
ATOM     51  N   UNL A   1      42.776  31.951  30.694  1.00  0.00    -0.248 NA
ATOM     52  C   UNL A   1      44.917  31.730  29.889  1.00  0.00     0.031 C 
ATOM     53  C   UNL A   1      40.201  33.618  31.611  1.00  0.00     0.029 A 
ATOM     54  C   UNL A   1      40.766  33.798  30.361  1.00  0.00     0.049 A 
ATOM     55  H   UNL A   1      39.844  33.671  28.467  1.00  0.00     0.167 HD
ATOM     56  C   UNL A   1      43.046  33.115  30.027  1.00  0.00     0.074 A 
ATOM     57  C   UNL A   1      44.404  32.917  29.536  1.00  0.00     0.031 C 
ATOM     58  C   UNL A   1      42.109  34.104  29.872  1.00  0.00     0.034 A 
BRANCH  45  59
ATOM     59  C   UNL A   1      36.011  33.704  29.462  1.00  0.00     0.023 A 
ATOM     60  C   UNL A   1      35.389  34.095  28.249  1.00  0.00     0.012 A 
ATOM     61  C   UNL A   1      35.331  34.080  30.645  1.00  0.00     0.148 A 
ATOM     62  C   UNL A   1      34.244  34.892  28.195  1.00  0.00     0.002 A 
ATOM     63  C   UNL A   1      34.188  34.896  30.595  1.00  0.00     0.091 A 
ATOM     64  F   UNL A   1      35.751  33.622  31.827  1.00  0.00    -0.205 F 
ATOM     65  C   UNL A   1      33.655  35.315  29.371  1.00  0.00     0.022 A 
BRANCH  63  66
ATOM     66  S   UNL A   1      33.334  35.506  32.063  1.00  0.00     0.127 S 
ATOM     67  O   UNL A   1      32.219  36.252  31.478  1.00  0.00    -0.237 OA
ATOM     68  O   UNL A   1      32.944  34.269  32.741  1.00  0.00    -0.237 OA
ATOM     69  O   UNL A   1      34.296  36.327  32.787  1.00  0.00    -0.744 OA
ENDBRANCH  63  66
ENDBRANCH  45  59
BRANCH  46  70
ATOM     70  C   UNL A   1      44.196  28.612  29.793  1.00  0.00     0.023 A 
ATOM     71  C   UNL A   1      44.561  27.315  30.237  1.00  0.00     0.012 A 
ATOM     72  C   UNL A   1      43.981  28.790  28.410  1.00  0.00     0.148 A 
ATOM     73  C   UNL A   1      44.630  26.232  29.346  1.00  0.00     0.002 A 
ATOM     74  C   UNL A   1      44.052  27.708  27.531  1.00  0.00     0.091 A 
ATOM     75  F   UNL A   1      43.640  29.997  27.947  1.00  0.00    -0.205 F 
ATOM     76  C   UNL A   1      44.366  26.427  27.995  1.00  0.00     0.022 A 
BRANCH  74  77
ATOM     77  S   UNL A   1      43.546  27.918  25.817  1.00  0.00     0.127 S 
ATOM     78  O   UNL A   1      44.805  28.288  25.177  1.00  0.00    -0.237 OA
ATOM     79  O   UNL A   1      43.036  26.591  25.465  1.00  0.00    -0.237 OA
ATOM     80  O   UNL A   1      42.512  28.941  25.879  1.00  0.00    -0.744 OA
ENDBRANCH  74  77
ENDBRANCH  46  70
BRANCH  58  81
ATOM     81  C   UNL A   1      42.363  35.444  29.197  1.00  0.00     0.023 A 
ATOM     82  C   UNL A   1      41.926  35.719  27.888  1.00  0.00     0.012 A 
ATOM     83  C   UNL A   1      43.129  36.467  29.816  1.00  0.00     0.148 A 
ATOM     84  C   UNL A   1      42.078  36.974  27.293  1.00  0.00     0.002 A 
ATOM     85  C   UNL A   1      43.305  37.709  29.217  1.00  0.00     0.091 A 
ATOM     86  F   UNL A   1      43.774  36.227  30.964  1.00  0.00    -0.205 F 
ATOM     87  C   UNL A   1      42.747  37.979  27.968  1.00  0.00     0.022 A 
BRANCH  85  88
ATOM     88  S   UNL A   1      44.282  39.004  29.989  1.00  0.00     0.127 S 
ATOM     89  O   UNL A   1      43.589  39.167  31.266  1.00  0.00    -0.237 OA
ATOM     90  O   UNL A   1      45.600  38.375  30.086  1.00  0.00    -0.237 OA
ATOM     91  O   UNL A   1      44.224  40.144  29.087  1.00  0.00    -0.744 OA
ENDBRANCH  85  88
ENDBRANCH  58  81
ENDBRANCH  32  33
ENDBRANCH  25  27
ENDBRANCH  24  25
ENDBRANCH  23  24
ENDBRANCH   1  23
TORSDOF 19
ENDMDL
