MODEL 1
REMARK VINA RESULT:     -12.6      0.000      0.000
REMARK SMILES CS(=O)(=O)c1ccc(/C=C(/C(=O)OCCOC(=O)c2ccc(-c3c4nc(c(-c5cccc(S(=O)(=O)[O-])c5F)c5ccc([nH]5)c(-c5cccc(S(=O)(=O)[O-])c5F)c5nc(c(-c6cccc(S(=O)(=O)[O-])c6F)c6ccc3[nH]6)C=C5)C=C4)cc2)c2ccc(O)cc2)cc1
REMARK SMILES IDX 15 1 14 2 13 3 11 4 12 5 10 6 9 7 8 8 5 9 6 10 90 11 7 12
REMARK SMILES IDX 89 13 2 14 1 15 3 16 4 17 82 18 83 19 88 20 84 21 87 22
REMARK SMILES IDX 85 23 86 24 16 26 17 27 18 28 19 29 20 30 81 31 21 32 80 33
REMARK SMILES IDX 22 34 23 35 24 36 74 37 25 38 79 39 73 40 75 41 26 42 78 43
REMARK SMILES IDX 72 44 71 45 27 47 59 48 39 49 58 50 40 51 43 52 57 53 76 54
REMARK SMILES IDX 41 55 42 56 56 58 77 59 44 60 28 61 29 62 37 63 30 64 32 65
REMARK SMILES IDX 38 66 31 67 33 68 34 69 35 70 36 71 60 72 61 73 69 74 62 75
REMARK SMILES IDX 64 76 70 77 63 78 65 79 66 80 67 81 68 82 45 83 46 84 54 85
REMARK SMILES IDX 47 86 49 87 55 88 48 89 50 90 51 91 52 92 53 93
REMARK H PARENT 86 25 75 46 43 57
REMARK Flexibility Score: inf
ROOT
ATOM      1  C   UNL A   1      35.502  21.449  25.525  1.00  0.00     0.275 C 
ENDROOT
BRANCH   1   2
ATOM      2  C   UNL A   1      34.711  22.570  26.195  1.00  0.00     0.275 C 
BRANCH   2   3
ATOM      3  O   UNL A   1      33.771  23.154  25.269  1.00  0.00    -0.458 OA
BRANCH   3   4
ATOM      4  C   UNL A   1      32.631  23.637  25.829  1.00  0.00     0.338 C 
ATOM      5  O   UNL A   1      32.003  23.102  26.733  1.00  0.00    -0.246 OA
BRANCH   4   6
ATOM      6  C   UNL A   1      32.216  24.938  25.225  1.00  0.00     0.067 C 
ATOM      7  C   UNL A   1      31.458  24.909  24.105  1.00  0.00     0.024 C 
BRANCH   7   8
ATOM      8  C   UNL A   1      30.668  26.020  23.524  1.00  0.00    -0.025 A 
ATOM      9  C   UNL A   1      29.132  28.263  22.821  1.00  0.00     0.067 A 
ATOM     10  C   UNL A   1      30.453  28.171  22.393  1.00  0.00     0.021 A 
ATOM     11  C   UNL A   1      28.545  27.221  23.537  1.00  0.00     0.021 A 
ATOM     12  C   UNL A   1      31.195  27.032  22.710  1.00  0.00     0.009 A 
ATOM     13  C   UNL A   1      29.313  26.104  23.882  1.00  0.00     0.009 A 
BRANCH   9  14
ATOM     14  S   UNL A   1      28.217  29.753  22.522  1.00  0.00     0.175 S 
ATOM     15  C   UNL A   1      29.106  30.965  23.457  1.00  0.00     0.163 C 
ATOM     16  O   UNL A   1      26.903  29.595  23.127  1.00  0.00    -0.224 OA
ATOM     17  O   UNL A   1      28.351  30.079  21.120  1.00  0.00    -0.224 OA
ENDBRANCH   9  14
ENDBRANCH   7   8
BRANCH   6  18
ATOM     18  C   UNL A   1      32.495  26.175  25.977  1.00  0.00    -0.011 A 
ATOM     19  C   UNL A   1      33.732  26.817  25.798  1.00  0.00     0.013 A 
ATOM     20  C   UNL A   1      31.529  26.763  26.804  1.00  0.00     0.013 A 
ATOM     21  C   UNL A   1      33.974  28.055  26.393  1.00  0.00     0.047 A 
ATOM     22  C   UNL A   1      31.783  27.994  27.417  1.00  0.00     0.047 A 
ATOM     23  C   UNL A   1      33.000  28.633  27.195  1.00  0.00     0.115 A 
BRANCH  23  24
ATOM     24  O   UNL A   1      33.285  29.842  27.751  1.00  0.00    -0.508 OA
ATOM     25  H   UNL A   1      34.045  29.941  28.291  1.00  0.00     0.293 HD
ENDBRANCH  23  24
ENDBRANCH   6  18
ENDBRANCH   4   6
ENDBRANCH   3   4
ENDBRANCH   2   3
ENDBRANCH   1   2
BRANCH   1  26
ATOM     26  O   UNL A   1      36.684  21.988  24.912  1.00  0.00    -0.458 OA
BRANCH  26  27
ATOM     27  C   UNL A   1      37.862  21.586  25.443  1.00  0.00     0.338 C 
ATOM     28  O   UNL A   1      38.393  20.493  25.311  1.00  0.00    -0.246 OA
BRANCH  27  29
ATOM     29  C   UNL A   1      38.484  22.685  26.205  1.00  0.00     0.060 A 
ATOM     30  C   UNL A   1      37.962  23.971  26.118  1.00  0.00     0.016 A 
ATOM     31  C   UNL A   1      39.687  22.472  26.876  1.00  0.00     0.016 A 
ATOM     32  C   UNL A   1      38.717  25.054  26.569  1.00  0.00     0.010 A 
ATOM     33  C   UNL A   1      40.378  23.557  27.437  1.00  0.00     0.010 A 
ATOM     34  C   UNL A   1      39.941  24.876  27.234  1.00  0.00    -0.014 A 
BRANCH  34  35
ATOM     35  C   UNL A   1      40.769  26.056  27.656  1.00  0.00     0.031 A 
ATOM     36  C   UNL A   1      40.197  27.122  28.571  1.00  0.00     0.074 A 
ATOM     37  C   UNL A   1      42.047  26.194  27.242  1.00  0.00     0.049 A 
ATOM     38  N   UNL A   1      40.671  28.309  28.856  1.00  0.00    -0.248 NA
ATOM     39  C   UNL A   1      38.913  26.828  29.228  1.00  0.00     0.031 C 
ATOM     40  C   UNL A   1      42.764  25.262  26.370  1.00  0.00     0.029 A 
ATOM     41  N   UNL A   1      42.977  27.176  27.498  1.00  0.00    -0.354 N 
ATOM     42  C   UNL A   1      39.700  28.939  29.628  1.00  0.00     0.074 A 
ATOM     43  C   UNL A   1      38.616  27.993  29.788  1.00  0.00     0.031 C 
ATOM     44  C   UNL A   1      44.027  25.677  26.216  1.00  0.00     0.029 A 
ATOM     45  C   UNL A   1      44.185  26.969  26.873  1.00  0.00     0.049 A 
ATOM     46  H   UNL A   1      42.794  27.954  28.074  1.00  0.00     0.167 HD
ATOM     47  C   UNL A   1      39.709  30.186  30.162  1.00  0.00     0.034 A 
ATOM     48  C   UNL A   1      45.286  27.741  26.780  1.00  0.00     0.034 A 
ATOM     49  C   UNL A   1      40.836  31.081  30.121  1.00  0.00     0.049 A 
ATOM     50  C   UNL A   1      45.295  29.095  27.426  1.00  0.00     0.074 A 
ATOM     51  C   UNL A   1      40.955  32.340  30.686  1.00  0.00     0.029 A 
ATOM     52  N   UNL A   1      42.050  30.803  29.514  1.00  0.00    -0.354 N 
ATOM     53  N   UNL A   1      44.364  29.671  28.145  1.00  0.00    -0.248 NA
ATOM     54  C   UNL A   1      46.506  29.909  27.245  1.00  0.00     0.031 C 
ATOM     55  C   UNL A   1      42.240  32.825  30.418  1.00  0.00     0.029 A 
ATOM     56  C   UNL A   1      42.926  31.862  29.695  1.00  0.00     0.049 A 
ATOM     57  H   UNL A   1      42.261  29.974  29.026  1.00  0.00     0.167 HD
ATOM     58  C   UNL A   1      44.874  30.912  28.504  1.00  0.00     0.074 A 
ATOM     59  C   UNL A   1      46.214  30.988  27.959  1.00  0.00     0.031 C 
ATOM     60  C   UNL A   1      44.273  31.912  29.192  1.00  0.00     0.034 A 
BRANCH  47  61
ATOM     61  C   UNL A   1      38.469  30.665  30.874  1.00  0.00     0.023 A 
ATOM     62  C   UNL A   1      38.350  30.511  32.269  1.00  0.00     0.012 A 
ATOM     63  C   UNL A   1      37.459  31.353  30.168  1.00  0.00     0.148 A 
ATOM     64  C   UNL A   1      37.238  31.010  32.946  1.00  0.00     0.002 A 
ATOM     65  C   UNL A   1      36.374  31.886  30.857  1.00  0.00     0.091 A 
ATOM     66  F   UNL A   1      37.576  31.474  28.837  1.00  0.00    -0.205 F 
ATOM     67  C   UNL A   1      36.258  31.707  32.244  1.00  0.00     0.022 A 
BRANCH  65  68
ATOM     68  S   UNL A   1      35.112  32.876  30.045  1.00  0.00     0.127 S 
ATOM     69  O   UNL A   1      35.901  33.988  29.518  1.00  0.00    -0.237 OA
ATOM     70  O   UNL A   1      34.599  31.958  29.028  1.00  0.00    -0.237 OA
ATOM     71  O   UNL A   1      34.150  33.222  31.083  1.00  0.00    -0.744 OA
ENDBRANCH  65  68
ENDBRANCH  47  61
BRANCH  48  72
ATOM     72  C   UNL A   1      46.473  27.236  26.031  1.00  0.00     0.023 A 
ATOM     73  C   UNL A   1      46.575  27.478  24.648  1.00  0.00     0.012 A 
ATOM     74  C   UNL A   1      47.534  26.589  26.694  1.00  0.00     0.148 A 
ATOM     75  C   UNL A   1      47.711  27.083  23.940  1.00  0.00     0.002 A 
ATOM     76  C   UNL A   1      48.694  26.268  25.998  1.00  0.00     0.091 A 
ATOM     77  F   UNL A   1      47.407  26.331  28.003  1.00  0.00    -0.205 F 
ATOM     78  C   UNL A   1      48.778  26.499  24.618  1.00  0.00     0.022 A 
BRANCH  76  79
ATOM     79  S   UNL A   1      50.171  25.694  26.844  1.00  0.00     0.127 S 
ATOM     80  O   UNL A   1      51.120  25.568  25.742  1.00  0.00    -0.237 OA
ATOM     81  O   UNL A   1      50.444  26.794  27.771  1.00  0.00    -0.237 OA
ATOM     82  O   UNL A   1      49.779  24.453  27.499  1.00  0.00    -0.744 OA
ENDBRANCH  76  79
ENDBRANCH  48  72
BRANCH  60  83
ATOM     83  C   UNL A   1      45.062  33.175  29.410  1.00  0.00     0.023 A 
ATOM     84  C   UNL A   1      45.873  33.294  30.556  1.00  0.00     0.012 A 
ATOM     85  C   UNL A   1      45.041  34.218  28.464  1.00  0.00     0.148 A 
ATOM     86  C   UNL A   1      46.628  34.447  30.773  1.00  0.00     0.002 A 
ATOM     87  C   UNL A   1      45.826  35.347  28.668  1.00  0.00     0.091 A 
ATOM     88  F   UNL A   1      44.247  34.095  27.392  1.00  0.00    -0.205 F 
ATOM     89  C   UNL A   1      46.612  35.467  29.826  1.00  0.00     0.022 A 
BRANCH  87  90
ATOM     90  S   UNL A   1      45.925  36.675  27.463  1.00  0.00     0.127 S 
ATOM     91  O   UNL A   1      47.117  37.395  27.908  1.00  0.00    -0.237 OA
ATOM     92  O   UNL A   1      46.089  35.947  26.204  1.00  0.00    -0.237 OA
ATOM     93  O   UNL A   1      44.670  37.406  27.574  1.00  0.00    -0.744 OA
ENDBRANCH  87  90
ENDBRANCH  60  83
ENDBRANCH  34  35
ENDBRANCH  27  29
ENDBRANCH  26  27
ENDBRANCH   1  26
TORSDOF 18
ENDMDL
MODEL 2
REMARK VINA RESULT:     -12.3      1.176      1.995
REMARK SMILES CS(=O)(=O)c1ccc(/C=C(/C(=O)OCCOC(=O)c2ccc(-c3c4nc(c(-c5cccc(S(=O)(=O)[O-])c5F)c5ccc([nH]5)c(-c5cccc(S(=O)(=O)[O-])c5F)c5nc(c(-c6cccc(S(=O)(=O)[O-])c6F)c6ccc3[nH]6)C=C5)C=C4)cc2)c2ccc(O)cc2)cc1
REMARK SMILES IDX 15 1 14 2 13 3 11 4 12 5 10 6 9 7 8 8 5 9 6 10 90 11 7 12
REMARK SMILES IDX 89 13 2 14 1 15 3 16 4 17 82 18 83 19 88 20 84 21 87 22
REMARK SMILES IDX 85 23 86 24 16 26 17 27 18 28 19 29 20 30 81 31 21 32 80 33
REMARK SMILES IDX 22 34 23 35 24 36 74 37 25 38 79 39 73 40 75 41 26 42 78 43
REMARK SMILES IDX 72 44 71 45 27 47 59 48 39 49 58 50 40 51 43 52 57 53 76 54
REMARK SMILES IDX 41 55 42 56 56 58 77 59 44 60 28 61 29 62 37 63 30 64 32 65
REMARK SMILES IDX 38 66 31 67 33 68 34 69 35 70 36 71 60 72 61 73 69 74 62 75
REMARK SMILES IDX 64 76 70 77 63 78 65 79 66 80 67 81 68 82 45 83 46 84 54 85
REMARK SMILES IDX 47 86 49 87 55 88 48 89 50 90 51 91 52 92 53 93
REMARK H PARENT 86 25 75 46 43 57
REMARK Flexibility Score: inf
ROOT
ATOM      1  C   UNL A   1      36.526  20.320  25.007  1.00  0.00     0.275 C 
ENDROOT
BRANCH   1   2
ATOM      2  C   UNL A   1      35.232  21.074  24.712  1.00  0.00     0.275 C 
BRANCH   2   3
ATOM      3  O   UNL A   1      35.406  22.490  24.928  1.00  0.00    -0.458 OA
BRANCH   3   4
ATOM      4  C   UNL A   1      35.078  23.281  23.872  1.00  0.00     0.338 C 
ATOM      5  O   UNL A   1      35.622  23.262  22.776  1.00  0.00    -0.246 OA
BRANCH   4   6
ATOM      6  C   UNL A   1      33.938  24.192  24.186  1.00  0.00     0.067 C 
ATOM      7  C   UNL A   1      33.852  25.363  23.515  1.00  0.00     0.024 C 
BRANCH   7   8
ATOM      8  C   UNL A   1      32.674  26.257  23.410  1.00  0.00    -0.025 A 
ATOM      9  C   UNL A   1      30.716  28.239  23.070  1.00  0.00     0.067 A 
ATOM     10  C   UNL A   1      30.673  27.088  22.290  1.00  0.00     0.021 A 
ATOM     11  C   UNL A   1      31.681  28.386  24.065  1.00  0.00     0.021 A 
ATOM     12  C   UNL A   1      31.625  26.088  22.497  1.00  0.00     0.009 A 
ATOM     13  C   UNL A   1      32.654  27.395  24.232  1.00  0.00     0.009 A 
BRANCH   9  14
ATOM     14  S   UNL A   1      29.583  29.563  22.740  1.00  0.00     0.175 S 
ATOM     15  C   UNL A   1      28.000  28.786  22.897  1.00  0.00     0.163 C 
ATOM     16  O   UNL A   1      29.752  29.956  21.350  1.00  0.00    -0.224 OA
ATOM     17  O   UNL A   1      29.715  30.533  23.804  1.00  0.00    -0.224 OA
ENDBRANCH   9  14
ENDBRANCH   7   8
BRANCH   6  18
ATOM     18  C   UNL A   1      32.869  23.690  25.070  1.00  0.00    -0.011 A 
ATOM     19  C   UNL A   1      32.769  24.201  26.375  1.00  0.00     0.013 A 
ATOM     20  C   UNL A   1      31.911  22.777  24.615  1.00  0.00     0.013 A 
ATOM     21  C   UNL A   1      31.694  23.845  27.188  1.00  0.00     0.047 A 
ATOM     22  C   UNL A   1      30.845  22.404  25.441  1.00  0.00     0.047 A 
ATOM     23  C   UNL A   1      30.742  22.952  26.716  1.00  0.00     0.115 A 
BRANCH  23  24
ATOM     24  O   UNL A   1      29.713  22.638  27.549  1.00  0.00    -0.508 OA
ATOM     25  H   UNL A   1      29.375  23.283  28.139  1.00  0.00     0.293 HD
ENDBRANCH  23  24
ENDBRANCH   6  18
ENDBRANCH   4   6
ENDBRANCH   3   4
ENDBRANCH   2   3
ENDBRANCH   1   2
BRANCH   1  26
ATOM     26  O   UNL A   1      37.647  21.210  24.872  1.00  0.00    -0.458 OA
BRANCH  26  27
ATOM     27  C   UNL A   1      38.739  20.900  25.609  1.00  0.00     0.338 C 
ATOM     28  O   UNL A   1      39.292  19.814  25.682  1.00  0.00    -0.246 OA
BRANCH  27  29
ATOM     29  C   UNL A   1      39.236  22.095  26.318  1.00  0.00     0.060 A 
ATOM     30  C   UNL A   1      38.704  23.346  26.026  1.00  0.00     0.016 A 
ATOM     31  C   UNL A   1      40.347  21.995  27.155  1.00  0.00     0.016 A 
ATOM     32  C   UNL A   1      39.373  24.495  26.447  1.00  0.00     0.010 A 
ATOM     33  C   UNL A   1      40.938  23.155  27.675  1.00  0.00     0.010 A 
ATOM     34  C   UNL A   1      40.504  24.430  27.276  1.00  0.00    -0.014 A 
BRANCH  34  35
ATOM     35  C   UNL A   1      41.247  25.676  27.668  1.00  0.00     0.031 A 
ATOM     36  C   UNL A   1      40.592  26.735  28.532  1.00  0.00     0.074 A 
ATOM     37  C   UNL A   1      42.522  25.881  27.269  1.00  0.00     0.049 A 
ATOM     38  N   UNL A   1      40.983  27.960  28.780  1.00  0.00    -0.248 NA
ATOM     39  C   UNL A   1      39.317  26.383  29.179  1.00  0.00     0.031 C 
ATOM     40  C   UNL A   1      43.312  24.966  26.445  1.00  0.00     0.029 A 
ATOM     41  N   UNL A   1      43.382  26.930  27.504  1.00  0.00    -0.354 N 
ATOM     42  C   UNL A   1      39.960  28.554  29.513  1.00  0.00     0.074 A 
ATOM     43  C   UNL A   1      38.936  27.546  29.690  1.00  0.00     0.031 C 
ATOM     44  C   UNL A   1      44.549  25.455  26.296  1.00  0.00     0.029 A 
ATOM     45  C   UNL A   1      44.613  26.778  26.907  1.00  0.00     0.049 A 
ATOM     46  H   UNL A   1      43.139  27.714  28.048  1.00  0.00     0.167 HD
ATOM     47  C   UNL A   1      39.879  29.817  29.999  1.00  0.00     0.034 A 
ATOM     48  C   UNL A   1      45.664  27.616  26.803  1.00  0.00     0.034 A 
ATOM     49  C   UNL A   1      40.948  30.780  29.943  1.00  0.00     0.049 A 
ATOM     50  C   UNL A   1      45.574  28.990  27.398  1.00  0.00     0.074 A 
ATOM     51  C   UNL A   1      40.975  32.065  30.462  1.00  0.00     0.029 A 
ATOM     52  N   UNL A   1      42.188  30.560  29.367  1.00  0.00    -0.354 N 
ATOM     53  N   UNL A   1      44.595  29.531  28.080  1.00  0.00    -0.248 NA
ATOM     54  C   UNL A   1      46.734  29.873  27.207  1.00  0.00     0.031 C 
ATOM     55  C   UNL A   1      42.232  32.621  30.198  1.00  0.00     0.029 A 
ATOM     56  C   UNL A   1      42.991  31.679  29.523  1.00  0.00     0.049 A 
ATOM     57  H   UNL A   1      42.460  29.729  28.914  1.00  0.00     0.167 HD
ATOM     58  C   UNL A   1      45.017  30.814  28.400  1.00  0.00     0.074 A 
ATOM     59  C   UNL A   1      46.360  30.956  27.875  1.00  0.00     0.031 C 
ATOM     60  C   UNL A   1      44.341  31.797  29.041  1.00  0.00     0.034 A 
BRANCH  47  61
ATOM     61  C   UNL A   1      38.598  30.241  30.673  1.00  0.00     0.023 A 
ATOM     62  C   UNL A   1      38.407  29.997  32.047  1.00  0.00     0.012 A 
ATOM     63  C   UNL A   1      37.620  30.965  29.959  1.00  0.00     0.148 A 
ATOM     64  C   UNL A   1      37.255  30.445  32.693  1.00  0.00     0.002 A 
ATOM     65  C   UNL A   1      36.494  31.445  30.620  1.00  0.00     0.091 A 
ATOM     66  F   UNL A   1      37.807  31.171  28.646  1.00  0.00    -0.205 F 
ATOM     67  C   UNL A   1      36.306  31.178  31.985  1.00  0.00     0.022 A 
BRANCH  65  68
ATOM     68  S   UNL A   1      35.266  32.475  29.806  1.00  0.00     0.127 S 
ATOM     69  O   UNL A   1      36.087  33.581  29.313  1.00  0.00    -0.237 OA
ATOM     70  O   UNL A   1      34.754  31.587  28.762  1.00  0.00    -0.237 OA
ATOM     71  O   UNL A   1      34.293  32.821  30.833  1.00  0.00    -0.744 OA
ENDBRANCH  65  68
ENDBRANCH  47  61
BRANCH  48  72
ATOM     72  C   UNL A   1      46.894  27.162  26.093  1.00  0.00     0.023 A 
ATOM     73  C   UNL A   1      47.081  27.504  24.740  1.00  0.00     0.012 A 
ATOM     74  C   UNL A   1      47.912  26.462  26.770  1.00  0.00     0.148 A 
ATOM     75  C   UNL A   1      48.258  27.157  24.076  1.00  0.00     0.002 A 
ATOM     76  C   UNL A   1      49.112  26.187  26.125  1.00  0.00     0.091 A 
ATOM     77  F   UNL A   1      47.704  26.108  28.046  1.00  0.00    -0.205 F 
ATOM     78  C   UNL A   1      49.281  26.519  24.774  1.00  0.00     0.022 A 
BRANCH  76  79
ATOM     79  S   UNL A   1      50.534  25.545  27.015  1.00  0.00     0.127 S 
ATOM     80  O   UNL A   1      50.844  26.644  27.924  1.00  0.00    -0.237 OA
ATOM     81  O   UNL A   1      49.983  24.350  27.657  1.00  0.00    -0.237 OA
ATOM     82  O   UNL A   1      51.529  25.259  25.990  1.00  0.00    -0.744 OA
ENDBRANCH  76  79
ENDBRANCH  48  72
BRANCH  60  83
ATOM     83  C   UNL A   1      45.044  33.115  29.224  1.00  0.00     0.023 A 
ATOM     84  C   UNL A   1      45.838  33.322  30.370  1.00  0.00     0.012 A 
ATOM     85  C   UNL A   1      44.961  34.126  28.247  1.00  0.00     0.148 A 
ATOM     86  C   UNL A   1      46.514  34.528  30.555  1.00  0.00     0.002 A 
ATOM     87  C   UNL A   1      45.669  35.311  28.420  1.00  0.00     0.091 A 
ATOM     88  F   UNL A   1      44.183  33.919  27.175  1.00  0.00    -0.205 F 
ATOM     89  C   UNL A   1      46.437  35.517  29.578  1.00  0.00     0.022 A 
BRANCH  87  90
ATOM     90  S   UNL A   1      45.688  36.606  27.176  1.00  0.00     0.127 S 
ATOM     91  O   UNL A   1      46.558  37.603  27.796  1.00  0.00    -0.237 OA
ATOM     92  O   UNL A   1      46.271  35.923  26.020  1.00  0.00    -0.237 OA
ATOM     93  O   UNL A   1      44.298  37.005  26.998  1.00  0.00    -0.744 OA
ENDBRANCH  87  90
ENDBRANCH  60  83
ENDBRANCH  34  35
ENDBRANCH  27  29
ENDBRANCH  26  27
ENDBRANCH   1  26
TORSDOF 18
ENDMDL
MODEL 3
REMARK VINA RESULT:     -12.3      4.878      9.939
REMARK SMILES CS(=O)(=O)c1ccc(/C=C(/C(=O)OCCOC(=O)c2ccc(-c3c4nc(c(-c5cccc(S(=O)(=O)[O-])c5F)c5ccc([nH]5)c(-c5cccc(S(=O)(=O)[O-])c5F)c5nc(c(-c6cccc(S(=O)(=O)[O-])c6F)c6ccc3[nH]6)C=C5)C=C4)cc2)c2ccc(O)cc2)cc1
REMARK SMILES IDX 15 1 14 2 13 3 11 4 12 5 10 6 9 7 8 8 5 9 6 10 90 11 7 12
REMARK SMILES IDX 89 13 2 14 1 15 3 16 4 17 82 18 83 19 88 20 84 21 87 22
REMARK SMILES IDX 85 23 86 24 16 26 17 27 18 28 19 29 20 30 81 31 21 32 80 33
REMARK SMILES IDX 22 34 23 35 24 36 74 37 25 38 79 39 73 40 75 41 26 42 78 43
REMARK SMILES IDX 72 44 71 45 27 47 59 48 39 49 58 50 40 51 43 52 57 53 76 54
REMARK SMILES IDX 41 55 42 56 56 58 77 59 44 60 28 61 29 62 37 63 30 64 32 65
REMARK SMILES IDX 38 66 31 67 33 68 34 69 35 70 36 71 60 72 61 73 69 74 62 75
REMARK SMILES IDX 64 76 70 77 63 78 65 79 66 80 67 81 68 82 45 83 46 84 54 85
REMARK SMILES IDX 47 86 49 87 55 88 48 89 50 90 51 91 52 92 53 93
REMARK H PARENT 86 25 75 46 43 57
REMARK Flexibility Score: inf
ROOT
ATOM      1  C   UNL A   1      32.064  28.982  25.290  1.00  0.00     0.275 C 
ENDROOT
BRANCH   1   2
ATOM      2  C   UNL A   1      32.735  27.632  25.050  1.00  0.00     0.275 C 
BRANCH   2   3
ATOM      3  O   UNL A   1      32.133  26.955  23.927  1.00  0.00    -0.458 OA
BRANCH   3   4
ATOM      4  C   UNL A   1      32.987  26.219  23.169  1.00  0.00     0.338 C 
ATOM      5  O   UNL A   1      33.595  26.623  22.187  1.00  0.00    -0.246 OA
BRANCH   4   6
ATOM      6  C   UNL A   1      33.130  24.823  23.682  1.00  0.00     0.067 C 
ATOM      7  C   UNL A   1      32.047  24.014  23.641  1.00  0.00     0.024 C 
BRANCH   7   8
ATOM      8  C   UNL A   1      32.020  22.538  23.777  1.00  0.00    -0.025 A 
ATOM      9  C   UNL A   1      32.368  19.755  23.894  1.00  0.00     0.067 A 
ATOM     10  C   UNL A   1      32.171  20.474  25.068  1.00  0.00     0.021 A 
ATOM     11  C   UNL A   1      32.326  20.394  22.656  1.00  0.00     0.021 A 
ATOM     12  C   UNL A   1      31.955  21.851  24.997  1.00  0.00     0.009 A 
ATOM     13  C   UNL A   1      32.150  21.781  22.602  1.00  0.00     0.009 A 
BRANCH   9  14
ATOM     14  S   UNL A   1      32.756  18.026  23.980  1.00  0.00     0.175 S 
ATOM     15  C   UNL A   1      34.506  18.021  24.252  1.00  0.00     0.163 C 
ATOM     16  O   UNL A   1      32.505  17.449  22.669  1.00  0.00    -0.224 OA
ATOM     17  O   UNL A   1      32.116  17.489  25.160  1.00  0.00    -0.224 OA
ENDBRANCH   9  14
ENDBRANCH   7   8
BRANCH   6  18
ATOM     18  C   UNL A   1      34.481  24.344  24.029  1.00  0.00    -0.011 A 
ATOM     19  C   UNL A   1      34.971  24.573  25.326  1.00  0.00     0.013 A 
ATOM     20  C   UNL A   1      35.251  23.604  23.124  1.00  0.00     0.013 A 
ATOM     21  C   UNL A   1      36.188  24.019  25.725  1.00  0.00     0.047 A 
ATOM     22  C   UNL A   1      36.482  23.069  23.520  1.00  0.00     0.047 A 
ATOM     23  C   UNL A   1      36.931  23.273  24.821  1.00  0.00     0.115 A 
BRANCH  23  24
ATOM     24  O   UNL A   1      38.110  22.754  25.260  1.00  0.00    -0.508 OA
ATOM     25  H   UNL A   1      38.848  23.316  25.391  1.00  0.00     0.293 HD
ENDBRANCH  23  24
ENDBRANCH   6  18
ENDBRANCH   4   6
ENDBRANCH   3   4
ENDBRANCH   2   3
ENDBRANCH   1   2
BRANCH   1  26
ATOM     26  O   UNL A   1      32.224  29.366  26.666  1.00  0.00    -0.458 OA
BRANCH  26  27
ATOM     27  C   UNL A   1      32.767  30.587  26.880  1.00  0.00     0.338 C 
ATOM     28  O   UNL A   1      32.205  31.667  26.785  1.00  0.00    -0.246 OA
BRANCH  27  29
ATOM     29  C   UNL A   1      34.175  30.456  27.301  1.00  0.00     0.060 A 
ATOM     30  C   UNL A   1      34.776  29.204  27.329  1.00  0.00     0.016 A 
ATOM     31  C   UNL A   1      34.847  31.558  27.827  1.00  0.00     0.016 A 
ATOM     32  C   UNL A   1      35.978  29.031  28.017  1.00  0.00     0.010 A 
ATOM     33  C   UNL A   1      36.115  31.394  28.405  1.00  0.00     0.010 A 
ATOM     34  C   UNL A   1      36.674  30.117  28.572  1.00  0.00    -0.014 A 
BRANCH  34  35
ATOM     35  C   UNL A   1      37.934  29.903  29.362  1.00  0.00     0.031 A 
ATOM     36  C   UNL A   1      39.080  29.088  28.795  1.00  0.00     0.074 A 
ATOM     37  C   UNL A   1      38.085  30.441  30.592  1.00  0.00     0.049 A 
ATOM     38  N   UNL A   1      40.136  28.609  29.405  1.00  0.00    -0.248 NA
ATOM     39  C   UNL A   1      39.018  28.739  27.366  1.00  0.00     0.031 C 
ATOM     40  C   UNL A   1      37.093  31.262  31.289  1.00  0.00     0.029 A 
ATOM     41  N   UNL A   1      39.134  30.378  31.481  1.00  0.00    -0.354 N 
ATOM     42  C   UNL A   1      40.799  27.820  28.470  1.00  0.00     0.074 A 
ATOM     43  C   UNL A   1      40.038  27.902  27.241  1.00  0.00     0.031 C 
ATOM     44  C   UNL A   1      37.598  31.676  32.457  1.00  0.00     0.029 A 
ATOM     45  C   UNL A   1      38.902  31.054  32.657  1.00  0.00     0.049 A 
ATOM     46  H   UNL A   1      39.971  29.895  31.293  1.00  0.00     0.167 HD
ATOM     47  C   UNL A   1      41.939  27.099  28.614  1.00  0.00     0.034 A 
ATOM     48  C   UNL A   1      39.615  31.130  33.799  1.00  0.00     0.034 A 
ATOM     49  C   UNL A   1      42.771  27.121  29.789  1.00  0.00     0.049 A 
ATOM     50  C   UNL A   1      40.902  30.369  33.917  1.00  0.00     0.074 A 
ATOM     51  C   UNL A   1      43.974  26.467  30.001  1.00  0.00     0.029 A 
ATOM     52  N   UNL A   1      42.513  27.857  30.934  1.00  0.00    -0.354 N 
ATOM     53  N   UNL A   1      41.505  29.625  33.023  1.00  0.00    -0.248 NA
ATOM     54  C   UNL A   1      41.608  30.453  35.204  1.00  0.00     0.031 C 
ATOM     55  C   UNL A   1      44.443  26.807  31.276  1.00  0.00     0.029 A 
ATOM     56  C   UNL A   1      43.535  27.680  31.853  1.00  0.00     0.049 A 
ATOM     57  H   UNL A   1      41.720  28.423  31.074  1.00  0.00     0.167 HD
ATOM     58  C   UNL A   1      42.659  29.154  33.636  1.00  0.00     0.074 A 
ATOM     59  C   UNL A   1      42.694  29.731  34.964  1.00  0.00     0.031 C 
ATOM     60  C   UNL A   1      43.588  28.294  33.154  1.00  0.00     0.034 A 
BRANCH  47  61
ATOM     61  C   UNL A   1      42.387  26.236  27.462  1.00  0.00     0.023 A 
ATOM     62  C   UNL A   1      43.284  26.747  26.504  1.00  0.00     0.012 A 
ATOM     63  C   UNL A   1      41.989  24.885  27.382  1.00  0.00     0.148 A 
ATOM     64  C   UNL A   1      43.757  25.937  25.471  1.00  0.00     0.002 A 
ATOM     65  C   UNL A   1      42.499  24.072  26.375  1.00  0.00     0.091 A 
ATOM     66  F   UNL A   1      41.118  24.419  28.290  1.00  0.00    -0.205 F 
ATOM     67  C   UNL A   1      43.375  24.598  25.414  1.00  0.00     0.022 A 
BRANCH  65  68
ATOM     68  S   UNL A   1      42.131  22.315  26.279  1.00  0.00     0.127 S 
ATOM     69  O   UNL A   1      42.903  21.915  25.103  1.00  0.00    -0.237 OA
ATOM     70  O   UNL A   1      42.658  21.814  27.550  1.00  0.00    -0.237 OA
ATOM     71  O   UNL A   1      40.684  22.217  26.147  1.00  0.00    -0.744 OA
ENDBRANCH  65  68
ENDBRANCH  47  61
BRANCH  48  72
ATOM     72  C   UNL A   1      39.108  31.967  34.924  1.00  0.00     0.023 A 
ATOM     73  C   UNL A   1      38.216  31.407  35.858  1.00  0.00     0.012 A 
ATOM     74  C   UNL A   1      39.563  33.286  35.117  1.00  0.00     0.148 A 
ATOM     75  C   UNL A   1      37.788  32.145  36.962  1.00  0.00     0.002 A 
ATOM     76  C   UNL A   1      39.194  33.988  36.257  1.00  0.00     0.091 A 
ATOM     77  F   UNL A   1      40.381  33.820  34.198  1.00  0.00    -0.205 F 
ATOM     78  C   UNL A   1      38.293  33.426  37.173  1.00  0.00     0.022 A 
BRANCH  76  79
ATOM     79  S   UNL A   1      39.955  35.558  36.686  1.00  0.00     0.127 S 
ATOM     80  O   UNL A   1      39.311  35.869  37.958  1.00  0.00    -0.237 OA
ATOM     81  O   UNL A   1      41.371  35.198  36.783  1.00  0.00    -0.237 OA
ATOM     82  O   UNL A   1      39.646  36.449  35.575  1.00  0.00    -0.744 OA
ENDBRANCH  76  79
ENDBRANCH  48  72
BRANCH  60  83
ATOM     83  C   UNL A   1      44.732  27.929  34.061  1.00  0.00     0.023 A 
ATOM     84  C   UNL A   1      45.901  28.716  34.049  1.00  0.00     0.012 A 
ATOM     85  C   UNL A   1      44.634  26.846  34.956  1.00  0.00     0.148 A 
ATOM     86  C   UNL A   1      46.969  28.411  34.893  1.00  0.00     0.002 A 
ATOM     87  C   UNL A   1      45.688  26.571  35.821  1.00  0.00     0.091 A 
ATOM     88  F   UNL A   1      43.523  26.097  34.936  1.00  0.00    -0.205 F 
ATOM     89  C   UNL A   1      46.859  27.346  35.784  1.00  0.00     0.022 A 
BRANCH  87  90
ATOM     90  S   UNL A   1      45.600  25.268  37.053  1.00  0.00     0.127 S 
ATOM     91  O   UNL A   1      47.001  25.133  37.446  1.00  0.00    -0.237 OA
ATOM     92  O   UNL A   1      44.735  25.859  38.075  1.00  0.00    -0.237 OA
ATOM     93  O   UNL A   1      45.023  24.117  36.372  1.00  0.00    -0.744 OA
ENDBRANCH  87  90
ENDBRANCH  60  83
ENDBRANCH  34  35
ENDBRANCH  27  29
ENDBRANCH  26  27
ENDBRANCH   1  26
TORSDOF 18
ENDMDL
