MODEL 1
REMARK VINA RESULT:      -9.1      0.000      0.000
REMARK SMILES C/C=C/C=C/C(=O)N[C@@H](C)CC(=O)OCCOC(=O)c1ccc(-c2c3nc(c(-c4cccc(S(=O)(=O)[O-])c4F)c4ccc([nH]4)c(-c4cccc(S(=O)(=O)[O-])c4F)c4nc(c(-c5cccc(S(=O)(=O)[O-])c5F)c5ccc2[nH]5)C=C4)C=C3)cc1
REMARK SMILES IDX 15 1 14 2 12 3 13 4 11 5 9 6 10 7 8 8 6 9 7 10 5 12 4 13
REMARK SMILES IDX 3 14 1 15 2 16 16 17 17 18 18 19 19 20 20 21 21 22 82 23
REMARK SMILES IDX 22 24 81 25 23 26 24 27 25 28 75 29 26 30 80 31 74 32 76 33
REMARK SMILES IDX 27 34 79 35 73 36 72 37 28 39 60 40 40 41 59 42 41 43 44 44
REMARK SMILES IDX 58 45 77 46 42 47 43 48 57 50 78 51 45 52 29 53 30 54 38 55
REMARK SMILES IDX 31 56 33 57 39 58 32 59 34 60 35 61 36 62 37 63 61 64 62 65
REMARK SMILES IDX 70 66 63 67 65 68 71 69 64 70 66 71 67 72 68 73 69 74 46 75
REMARK SMILES IDX 47 76 55 77 48 78 50 79 56 80 49 81 51 82 52 83 53 84 54 85
REMARK H PARENT 8 11 76 38 44 49
REMARK Flexibility Score: inf
ROOT
ATOM      1  C   UNL A   1      33.474  35.119  28.766  1.00  0.00     0.274 C 
ENDROOT
BRANCH   1   2
ATOM      2  O   UNL A   1      32.722  34.787  29.953  1.00  0.00    -0.462 OA
BRANCH   2   3
ATOM      3  C   UNL A   1      32.577  35.782  30.864  1.00  0.00     0.307 C 
ATOM      4  O   UNL A   1      32.476  36.972  30.590  1.00  0.00    -0.252 OA
BRANCH   3   5
ATOM      5  C   UNL A   1      32.651  35.287  32.288  1.00  0.00     0.147 C 
BRANCH   5   6
ATOM      6  C   UNL A   1      34.075  35.061  32.813  1.00  0.00     0.090 C 
ATOM      7  C   UNL A   1      34.535  36.295  33.597  1.00  0.00     0.031 C 
BRANCH   6   8
ATOM      8  N   UNL A   1      35.021  34.839  31.717  1.00  0.00    -0.350 N 
ATOM      9  C   UNL A   1      36.217  34.196  31.670  1.00  0.00     0.244 C 
ATOM     10  O   UNL A   1      36.793  34.093  30.587  1.00  0.00    -0.270 OA
ATOM     11  H   UNL A   1      34.739  35.227  30.858  1.00  0.00     0.164 HD
BRANCH   9  12
ATOM     12  C   UNL A   1      36.800  33.530  32.855  1.00  0.00     0.071 C 
ATOM     13  C   UNL A   1      37.529  34.105  33.822  1.00  0.00     0.005 C 
BRANCH  13  14
ATOM     14  C   UNL A   1      37.966  33.363  34.987  1.00  0.00    -0.004 C 
ATOM     15  C   UNL A   1      38.117  31.280  36.363  1.00  0.00     0.035 C 
ATOM     16  C   UNL A   1      37.591  32.097  35.227  1.00  0.00    -0.030 C 
ENDBRANCH  13  14
ENDBRANCH   9  12
ENDBRANCH   6   8
ENDBRANCH   5   6
ENDBRANCH   3   5
ENDBRANCH   2   3
ENDBRANCH   1   2
BRANCH   1  17
ATOM     17  C   UNL A   1      33.949  33.886  27.989  1.00  0.00     0.275 C 
BRANCH  17  18
ATOM     18  O   UNL A   1      34.227  32.765  28.851  1.00  0.00    -0.458 OA
BRANCH  18  19
ATOM     19  C   UNL A   1      34.462  31.615  28.186  1.00  0.00     0.338 C 
ATOM     20  O   UNL A   1      33.784  31.166  27.274  1.00  0.00    -0.246 OA
BRANCH  19  21
ATOM     21  C   UNL A   1      35.710  30.971  28.601  1.00  0.00     0.060 A 
ATOM     22  C   UNL A   1      35.634  29.912  29.513  1.00  0.00     0.016 A 
ATOM     23  C   UNL A   1      36.944  31.485  28.202  1.00  0.00     0.016 A 
ATOM     24  C   UNL A   1      36.801  29.357  30.030  1.00  0.00     0.010 A 
ATOM     25  C   UNL A   1      38.113  30.920  28.717  1.00  0.00     0.010 A 
ATOM     26  C   UNL A   1      38.050  29.858  29.636  1.00  0.00    -0.014 A 
BRANCH  26  27
ATOM     27  C   UNL A   1      39.293  29.243  30.154  1.00  0.00     0.031 A 
ATOM     28  C   UNL A   1      39.988  29.811  31.355  1.00  0.00     0.074 A 
ATOM     29  C   UNL A   1      39.818  28.191  29.497  1.00  0.00     0.049 A 
ATOM     30  N   UNL A   1      41.114  29.440  31.905  1.00  0.00    -0.248 NA
ATOM     31  C   UNL A   1      39.335  30.948  32.024  1.00  0.00     0.031 C 
ATOM     32  C   UNL A   1      39.239  27.574  28.304  1.00  0.00     0.029 A 
ATOM     33  N   UNL A   1      40.969  27.480  29.719  1.00  0.00    -0.354 N 
ATOM     34  C   UNL A   1      41.329  30.317  32.961  1.00  0.00     0.074 A 
ATOM     35  C   UNL A   1      40.211  31.238  32.977  1.00  0.00     0.031 C 
ATOM     36  C   UNL A   1      40.052  26.595  27.880  1.00  0.00     0.029 A 
ATOM     37  C   UNL A   1      41.220  26.535  28.753  1.00  0.00     0.049 A 
ATOM     38  H   UNL A   1      41.557  27.631  30.494  1.00  0.00     0.167 HD
ATOM     39  C   UNL A   1      42.359  30.340  33.841  1.00  0.00     0.034 A 
ATOM     40  C   UNL A   1      42.284  25.729  28.574  1.00  0.00     0.034 A 
ATOM     41  C   UNL A   1      43.448  29.400  33.838  1.00  0.00     0.049 A 
ATOM     42  C   UNL A   1      43.406  25.768  29.574  1.00  0.00     0.074 A 
ATOM     43  C   UNL A   1      44.499  29.297  34.734  1.00  0.00     0.029 A 
ATOM     44  N   UNL A   1      43.637  28.409  32.887  1.00  0.00    -0.354 N 
ATOM     45  N   UNL A   1      43.524  26.508  30.650  1.00  0.00    -0.248 NA
ATOM     46  C   UNL A   1      44.525  24.841  29.357  1.00  0.00     0.031 C 
ATOM     47  C   UNL A   1      45.330  28.251  34.315  1.00  0.00     0.029 A 
ATOM     48  C   UNL A   1      44.791  27.697  33.165  1.00  0.00     0.049 A 
ATOM     49  H   UNL A   1      43.037  28.236  32.125  1.00  0.00     0.167 HD
ATOM     50  C   UNL A   1      44.717  26.123  31.250  1.00  0.00     0.074 A 
ATOM     51  C   UNL A   1      45.273  25.064  30.430  1.00  0.00     0.031 C 
ATOM     52  C   UNL A   1      45.308  26.614  32.367  1.00  0.00     0.034 A 
BRANCH  39  53
ATOM     53  C   UNL A   1      42.338  31.396  34.914  1.00  0.00     0.023 A 
ATOM     54  C   UNL A   1      41.797  31.089  36.178  1.00  0.00     0.012 A 
ATOM     55  C   UNL A   1      42.908  32.665  34.695  1.00  0.00     0.148 A 
ATOM     56  C   UNL A   1      41.804  32.036  37.202  1.00  0.00     0.002 A 
ATOM     57  C   UNL A   1      42.941  33.593  35.730  1.00  0.00     0.091 A 
ATOM     58  F   UNL A   1      43.393  32.949  33.477  1.00  0.00    -0.205 F 
ATOM     59  C   UNL A   1      42.384  33.282  36.982  1.00  0.00     0.022 A 
BRANCH  57  60
ATOM     60  S   UNL A   1      43.725  35.199  35.554  1.00  0.00     0.127 S 
ATOM     61  O   UNL A   1      43.187  35.652  34.271  1.00  0.00    -0.237 OA
ATOM     62  O   UNL A   1      43.217  35.927  36.718  1.00  0.00    -0.237 OA
ATOM     63  O   UNL A   1      45.159  34.945  35.583  1.00  0.00    -0.744 OA
ENDBRANCH  57  60
ENDBRANCH  39  53
BRANCH  40  64
ATOM     64  C   UNL A   1      42.305  24.791  27.420  1.00  0.00     0.023 A 
ATOM     65  C   UNL A   1      43.104  25.089  26.300  1.00  0.00     0.012 A 
ATOM     66  C   UNL A   1      41.594  23.575  27.454  1.00  0.00     0.148 A 
ATOM     67  C   UNL A   1      43.181  24.201  25.227  1.00  0.00     0.002 A 
ATOM     68  C   UNL A   1      41.719  22.670  26.406  1.00  0.00     0.091 A 
ATOM     69  F   UNL A   1      40.822  23.319  28.520  1.00  0.00    -0.205 F 
ATOM     70  C   UNL A   1      42.502  22.987  25.286  1.00  0.00     0.022 A 
BRANCH  68  71
ATOM     71  S   UNL A   1      40.989  21.029  26.471  1.00  0.00     0.127 S 
ATOM     72  O   UNL A   1      39.720  21.239  25.780  1.00  0.00    -0.237 OA
ATOM     73  O   UNL A   1      41.967  20.229  25.733  1.00  0.00    -0.237 OA
ATOM     74  O   UNL A   1      40.899  20.700  27.887  1.00  0.00    -0.744 OA
ENDBRANCH  68  71
ENDBRANCH  40  64
BRANCH  52  75
ATOM     75  C   UNL A   1      46.624  26.009  32.779  1.00  0.00     0.023 A 
ATOM     76  C   UNL A   1      47.825  26.592  32.329  1.00  0.00     0.012 A 
ATOM     77  C   UNL A   1      46.673  24.915  33.665  1.00  0.00     0.148 A 
ATOM     78  C   UNL A   1      49.056  26.080  32.735  1.00  0.00     0.002 A 
ATOM     79  C   UNL A   1      47.905  24.436  34.097  1.00  0.00     0.091 A 
ATOM     80  F   UNL A   1      45.519  24.360  34.063  1.00  0.00    -0.205 F 
ATOM     81  C   UNL A   1      49.096  25.011  33.627  1.00  0.00     0.022 A 
BRANCH  79  82
ATOM     82  S   UNL A   1      48.042  23.120  35.312  1.00  0.00     0.127 S 
ATOM     83  O   UNL A   1      47.304  22.037  34.665  1.00  0.00    -0.237 OA
ATOM     84  O   UNL A   1      49.489  22.910  35.389  1.00  0.00    -0.237 OA
ATOM     85  O   UNL A   1      47.447  23.646  36.534  1.00  0.00    -0.744 OA
ENDBRANCH  79  82
ENDBRANCH  52  75
ENDBRANCH  26  27
ENDBRANCH  19  21
ENDBRANCH  18  19
ENDBRANCH  17  18
ENDBRANCH   1  17
TORSDOF 18
ENDMDL
MODEL 2
REMARK VINA RESULT:      -9.1      5.818     10.322
REMARK SMILES C/C=C/C=C/C(=O)N[C@@H](C)CC(=O)OCCOC(=O)c1ccc(-c2c3nc(c(-c4cccc(S(=O)(=O)[O-])c4F)c4ccc([nH]4)c(-c4cccc(S(=O)(=O)[O-])c4F)c4nc(c(-c5cccc(S(=O)(=O)[O-])c5F)c5ccc2[nH]5)C=C4)C=C3)cc1
REMARK SMILES IDX 15 1 14 2 12 3 13 4 11 5 9 6 10 7 8 8 6 9 7 10 5 12 4 13
REMARK SMILES IDX 3 14 1 15 2 16 16 17 17 18 18 19 19 20 20 21 21 22 82 23
REMARK SMILES IDX 22 24 81 25 23 26 24 27 25 28 75 29 26 30 80 31 74 32 76 33
REMARK SMILES IDX 27 34 79 35 73 36 72 37 28 39 60 40 40 41 59 42 41 43 44 44
REMARK SMILES IDX 58 45 77 46 42 47 43 48 57 50 78 51 45 52 29 53 30 54 38 55
REMARK SMILES IDX 31 56 33 57 39 58 32 59 34 60 35 61 36 62 37 63 61 64 62 65
REMARK SMILES IDX 70 66 63 67 65 68 71 69 64 70 66 71 67 72 68 73 69 74 46 75
REMARK SMILES IDX 47 76 55 77 48 78 50 79 56 80 49 81 51 82 52 83 53 84 54 85
REMARK H PARENT 8 11 76 38 44 49
REMARK Flexibility Score: inf
ROOT
ATOM      1  C   UNL A   1      36.054  22.368  24.016  1.00  0.00     0.274 C 
ENDROOT
BRANCH   1   2
ATOM      2  O   UNL A   1      35.795  23.442  24.946  1.00  0.00    -0.462 OA
BRANCH   2   3
ATOM      3  C   UNL A   1      34.869  24.355  24.560  1.00  0.00     0.307 C 
ATOM      4  O   UNL A   1      34.535  25.334  25.218  1.00  0.00    -0.252 OA
BRANCH   3   5
ATOM      5  C   UNL A   1      34.198  23.994  23.257  1.00  0.00     0.147 C 
BRANCH   5   6
ATOM      6  C   UNL A   1      32.767  23.460  23.401  1.00  0.00     0.090 C 
ATOM      7  C   UNL A   1      31.785  24.438  22.745  1.00  0.00     0.031 C 
BRANCH   6   8
ATOM      8  N   UNL A   1      32.390  23.312  24.809  1.00  0.00    -0.350 N 
ATOM      9  C   UNL A   1      32.103  22.216  25.558  1.00  0.00     0.244 C 
ATOM     10  O   UNL A   1      31.876  22.361  26.760  1.00  0.00    -0.270 OA
ATOM     11  H   UNL A   1      32.335  24.162  25.302  1.00  0.00     0.164 HD
BRANCH   9  12
ATOM     12  C   UNL A   1      32.151  20.846  25.002  1.00  0.00     0.071 C 
ATOM     13  C   UNL A   1      33.185  19.995  25.049  1.00  0.00     0.005 C 
BRANCH  13  14
ATOM     14  C   UNL A   1      33.077  18.640  24.549  1.00  0.00    -0.004 C 
ATOM     15  C   UNL A   1      34.030  16.579  23.501  1.00  0.00     0.035 C 
ATOM     16  C   UNL A   1      34.085  18.011  23.926  1.00  0.00    -0.030 C 
ENDBRANCH  13  14
ENDBRANCH   9  12
ENDBRANCH   6   8
ENDBRANCH   5   6
ENDBRANCH   3   5
ENDBRANCH   2   3
ENDBRANCH   1   2
BRANCH   1  17
ATOM     17  C   UNL A   1      37.064  21.343  24.545  1.00  0.00     0.275 C 
BRANCH  17  18
ATOM     18  O   UNL A   1      37.454  21.607  25.906  1.00  0.00    -0.458 OA
BRANCH  18  19
ATOM     19  C   UNL A   1      38.780  21.482  26.123  1.00  0.00     0.338 C 
ATOM     20  O   UNL A   1      39.461  20.507  25.842  1.00  0.00    -0.246 OA
BRANCH  19  21
ATOM     21  C   UNL A   1      39.380  22.706  26.658  1.00  0.00     0.060 A 
ATOM     22  C   UNL A   1      39.001  23.928  26.091  1.00  0.00     0.016 A 
ATOM     23  C   UNL A   1      40.396  22.644  27.612  1.00  0.00     0.016 A 
ATOM     24  C   UNL A   1      39.639  25.102  26.483  1.00  0.00     0.010 A 
ATOM     25  C   UNL A   1      41.029  23.824  28.008  1.00  0.00     0.010 A 
ATOM     26  C   UNL A   1      40.660  25.058  27.444  1.00  0.00    -0.014 A 
BRANCH  26  27
ATOM     27  C   UNL A   1      41.312  26.309  27.891  1.00  0.00     0.031 A 
ATOM     28  C   UNL A   1      40.525  27.376  28.592  1.00  0.00     0.074 A 
ATOM     29  C   UNL A   1      42.616  26.496  27.613  1.00  0.00     0.049 A 
ATOM     30  N   UNL A   1      40.917  28.556  28.995  1.00  0.00    -0.248 NA
ATOM     31  C   UNL A   1      39.111  27.082  28.873  1.00  0.00     0.031 C 
ATOM     32  C   UNL A   1      43.471  25.535  26.914  1.00  0.00     0.029 A 
ATOM     33  N   UNL A   1      43.439  27.565  27.853  1.00  0.00    -0.354 N 
ATOM     34  C   UNL A   1      39.795  29.163  29.544  1.00  0.00     0.074 A 
ATOM     35  C   UNL A   1      38.705  28.217  29.425  1.00  0.00     0.031 C 
ATOM     36  C   UNL A   1      44.691  26.070  26.755  1.00  0.00     0.029 A 
ATOM     37  C   UNL A   1      44.695  27.419  27.315  1.00  0.00     0.049 A 
ATOM     38  H   UNL A   1      43.159  28.360  28.362  1.00  0.00     0.167 HD
ATOM     39  C   UNL A   1      39.691  30.392  30.105  1.00  0.00     0.034 A 
ATOM     40  C   UNL A   1      45.727  28.282  27.254  1.00  0.00     0.034 A 
ATOM     41  C   UNL A   1      40.788  31.312  30.248  1.00  0.00     0.049 A 
ATOM     42  C   UNL A   1      45.587  29.634  27.896  1.00  0.00     0.074 A 
ATOM     43  C   UNL A   1      40.798  32.549  30.870  1.00  0.00     0.029 A 
ATOM     44  N   UNL A   1      42.067  31.104  29.754  1.00  0.00    -0.354 N 
ATOM     45  N   UNL A   1      44.560  30.138  28.538  1.00  0.00    -0.248 NA
ATOM     46  C   UNL A   1      46.754  30.524  27.836  1.00  0.00     0.031 C 
ATOM     47  C   UNL A   1      42.081  33.094  30.738  1.00  0.00     0.029 A 
ATOM     48  C   UNL A   1      42.872  32.193  30.044  1.00  0.00     0.049 A 
ATOM     49  H   UNL A   1      42.360  30.299  29.269  1.00  0.00     0.167 HD
ATOM     50  C   UNL A   1      44.962  31.394  28.976  1.00  0.00     0.074 A 
ATOM     51  C   UNL A   1      46.338  31.563  28.549  1.00  0.00     0.031 C 
ATOM     52  C   UNL A   1      44.252  32.328  29.655  1.00  0.00     0.034 A 
BRANCH  39  53
ATOM     53  C   UNL A   1      38.348  30.801  30.647  1.00  0.00     0.023 A 
ATOM     54  C   UNL A   1      38.009  30.478  31.975  1.00  0.00     0.012 A 
ATOM     55  C   UNL A   1      37.451  31.558  29.869  1.00  0.00     0.148 A 
ATOM     56  C   UNL A   1      36.788  30.883  32.515  1.00  0.00     0.002 A 
ATOM     57  C   UNL A   1      36.250  31.986  30.424  1.00  0.00     0.091 A 
ATOM     58  F   UNL A   1      37.779  31.834  28.598  1.00  0.00    -0.205 F 
ATOM     59  C   UNL A   1      35.914  31.644  31.744  1.00  0.00     0.022 A 
BRANCH  57  60
ATOM     60  S   UNL A   1      35.094  33.025  29.522  1.00  0.00     0.127 S 
ATOM     61  O   UNL A   1      35.947  34.146  29.131  1.00  0.00    -0.237 OA
ATOM     62  O   UNL A   1      34.686  32.156  28.417  1.00  0.00    -0.237 OA
ATOM     63  O   UNL A   1      34.028  33.341  30.464  1.00  0.00    -0.744 OA
ENDBRANCH  57  60
ENDBRANCH  39  53
BRANCH  40  64
ATOM     64  C   UNL A   1      46.992  27.864  26.592  1.00  0.00     0.023 A 
ATOM     65  C   UNL A   1      48.011  27.269  27.359  1.00  0.00     0.012 A 
ATOM     66  C   UNL A   1      47.164  27.990  25.199  1.00  0.00     0.148 A 
ATOM     67  C   UNL A   1      49.185  26.820  26.753  1.00  0.00     0.002 A 
ATOM     68  C   UNL A   1      48.311  27.492  24.595  1.00  0.00     0.091 A 
ATOM     69  F   UNL A   1      46.191  28.579  24.489  1.00  0.00    -0.205 F 
ATOM     70  C   UNL A   1      49.330  26.918  25.372  1.00  0.00     0.022 A 
BRANCH  68  71
ATOM     71  S   UNL A   1      48.510  27.452  22.809  1.00  0.00     0.127 S 
ATOM     72  O   UNL A   1      47.336  28.197  22.361  1.00  0.00    -0.237 OA
ATOM     73  O   UNL A   1      49.786  28.146  22.627  1.00  0.00    -0.237 OA
ATOM     74  O   UNL A   1      48.545  26.040  22.454  1.00  0.00    -0.744 OA
ENDBRANCH  68  71
ENDBRANCH  40  64
BRANCH  52  75
ATOM     75  C   UNL A   1      44.948  33.621  29.989  1.00  0.00     0.023 A 
ATOM     76  C   UNL A   1      45.689  33.720  31.183  1.00  0.00     0.012 A 
ATOM     77  C   UNL A   1      44.930  34.707  29.092  1.00  0.00     0.148 A 
ATOM     78  C   UNL A   1      46.382  34.889  31.492  1.00  0.00     0.002 A 
ATOM     79  C   UNL A   1      45.656  35.855  29.388  1.00  0.00     0.091 A 
ATOM     80  F   UNL A   1      44.199  34.602  27.973  1.00  0.00    -0.205 F 
ATOM     81  C   UNL A   1      46.375  35.951  30.591  1.00  0.00     0.022 A 
BRANCH  79  82
ATOM     82  S   UNL A   1      45.770  37.233  28.241  1.00  0.00     0.127 S 
ATOM     83  O   UNL A   1      46.332  38.282  29.090  1.00  0.00    -0.237 OA
ATOM     84  O   UNL A   1      46.684  36.720  27.220  1.00  0.00    -0.237 OA
ATOM     85  O   UNL A   1      44.412  37.466  27.767  1.00  0.00    -0.744 OA
ENDBRANCH  79  82
ENDBRANCH  52  75
ENDBRANCH  26  27
ENDBRANCH  19  21
ENDBRANCH  18  19
ENDBRANCH  17  18
ENDBRANCH   1  17
TORSDOF 18
ENDMDL
MODEL 3
REMARK VINA RESULT:      -8.9      5.608      9.857
REMARK SMILES C/C=C/C=C/C(=O)N[C@@H](C)CC(=O)OCCOC(=O)c1ccc(-c2c3nc(c(-c4cccc(S(=O)(=O)[O-])c4F)c4ccc([nH]4)c(-c4cccc(S(=O)(=O)[O-])c4F)c4nc(c(-c5cccc(S(=O)(=O)[O-])c5F)c5ccc2[nH]5)C=C4)C=C3)cc1
REMARK SMILES IDX 15 1 14 2 12 3 13 4 11 5 9 6 10 7 8 8 6 9 7 10 5 12 4 13
REMARK SMILES IDX 3 14 1 15 2 16 16 17 17 18 18 19 19 20 20 21 21 22 82 23
REMARK SMILES IDX 22 24 81 25 23 26 24 27 25 28 75 29 26 30 80 31 74 32 76 33
REMARK SMILES IDX 27 34 79 35 73 36 72 37 28 39 60 40 40 41 59 42 41 43 44 44
REMARK SMILES IDX 58 45 77 46 42 47 43 48 57 50 78 51 45 52 29 53 30 54 38 55
REMARK SMILES IDX 31 56 33 57 39 58 32 59 34 60 35 61 36 62 37 63 61 64 62 65
REMARK SMILES IDX 70 66 63 67 65 68 71 69 64 70 66 71 67 72 68 73 69 74 46 75
REMARK SMILES IDX 47 76 55 77 48 78 50 79 56 80 49 81 51 82 52 83 53 84 54 85
REMARK H PARENT 8 11 76 38 44 49
REMARK Flexibility Score: inf
ROOT
ATOM      1  C   UNL A   1      35.232  20.347  24.853  1.00  0.00     0.274 C 
ENDROOT
BRANCH   1   2
ATOM      2  O   UNL A   1      34.008  21.062  24.581  1.00  0.00    -0.462 OA
BRANCH   2   3
ATOM      3  C   UNL A   1      32.910  20.645  25.261  1.00  0.00     0.307 C 
ATOM      4  O   UNL A   1      32.728  19.501  25.661  1.00  0.00    -0.252 OA
BRANCH   3   5
ATOM      5  C   UNL A   1      31.862  21.723  25.397  1.00  0.00     0.147 C 
BRANCH   5   6
ATOM      6  C   UNL A   1      32.298  22.938  26.224  1.00  0.00     0.090 C 
ATOM      7  C   UNL A   1      32.908  22.467  27.549  1.00  0.00     0.031 C 
BRANCH   6   8
ATOM      8  N   UNL A   1      31.163  23.812  26.530  1.00  0.00    -0.350 N 
ATOM      9  C   UNL A   1      30.871  25.084  26.149  1.00  0.00     0.244 C 
ATOM     10  O   UNL A   1      29.798  25.576  26.499  1.00  0.00    -0.270 OA
ATOM     11  H   UNL A   1      30.489  23.405  27.121  1.00  0.00     0.164 HD
BRANCH   9  12
ATOM     12  C   UNL A   1      31.751  25.857  25.246  1.00  0.00     0.071 C 
ATOM     13  C   UNL A   1      32.796  26.618  25.601  1.00  0.00     0.005 C 
BRANCH  13  14
ATOM     14  C   UNL A   1      33.643  27.254  24.612  1.00  0.00    -0.004 C 
ATOM     15  C   UNL A   1      34.024  28.389  22.416  1.00  0.00     0.035 C 
ATOM     16  C   UNL A   1      33.194  27.636  23.407  1.00  0.00    -0.030 C 
ENDBRANCH  13  14
ENDBRANCH   9  12
ENDBRANCH   6   8
ENDBRANCH   5   6
ENDBRANCH   3   5
ENDBRANCH   2   3
ENDBRANCH   1   2
BRANCH   1  17
ATOM     17  C   UNL A   1      36.198  21.128  25.752  1.00  0.00     0.275 C 
BRANCH  17  18
ATOM     18  O   UNL A   1      37.397  21.524  25.058  1.00  0.00    -0.458 OA
BRANCH  18  19
ATOM     19  C   UNL A   1      38.532  21.207  25.713  1.00  0.00     0.338 C 
ATOM     20  O   UNL A   1      39.026  20.092  25.789  1.00  0.00    -0.246 OA
BRANCH  19  21
ATOM     21  C   UNL A   1      39.207  22.382  26.270  1.00  0.00     0.060 A 
ATOM     22  C   UNL A   1      38.788  23.647  25.843  1.00  0.00     0.016 A 
ATOM     23  C   UNL A   1      40.321  22.238  27.097  1.00  0.00     0.016 A 
ATOM     24  C   UNL A   1      39.484  24.782  26.249  1.00  0.00     0.010 A 
ATOM     25  C   UNL A   1      41.013  23.380  27.509  1.00  0.00     0.010 A 
ATOM     26  C   UNL A   1      40.604  24.656  27.084  1.00  0.00    -0.014 A 
BRANCH  26  27
ATOM     27  C   UNL A   1      41.321  25.864  27.549  1.00  0.00     0.031 A 
ATOM     28  C   UNL A   1      40.610  26.923  28.338  1.00  0.00     0.074 A 
ATOM     29  C   UNL A   1      42.615  26.022  27.210  1.00  0.00     0.049 A 
ATOM     30  N   UNL A   1      41.063  28.070  28.771  1.00  0.00    -0.248 NA
ATOM     31  C   UNL A   1      39.203  26.662  28.683  1.00  0.00     0.031 C 
ATOM     32  C   UNL A   1      43.397  25.066  26.425  1.00  0.00     0.029 A 
ATOM     33  N   UNL A   1      43.486  27.052  27.452  1.00  0.00    -0.354 N 
ATOM     34  C   UNL A   1      39.993  28.688  29.406  1.00  0.00     0.074 A 
ATOM     35  C   UNL A   1      38.866  27.784  29.305  1.00  0.00     0.031 C 
ATOM     36  C   UNL A   1      44.625  25.569  26.224  1.00  0.00     0.029 A 
ATOM     37  C   UNL A   1      44.706  26.890  26.840  1.00  0.00     0.049 A 
ATOM     38  H   UNL A   1      43.260  27.832  28.009  1.00  0.00     0.167 HD
ATOM     39  C   UNL A   1      39.961  29.892  30.025  1.00  0.00     0.034 A 
ATOM     40  C   UNL A   1      45.762  27.722  26.761  1.00  0.00     0.034 A 
ATOM     41  C   UNL A   1      41.095  30.769  30.148  1.00  0.00     0.049 A 
ATOM     42  C   UNL A   1      45.703  29.047  27.469  1.00  0.00     0.074 A 
ATOM     43  C   UNL A   1      41.181  31.976  30.822  1.00  0.00     0.029 A 
ATOM     44  N   UNL A   1      42.338  30.543  29.577  1.00  0.00    -0.354 N 
ATOM     45  N   UNL A   1      44.729  29.553  28.186  1.00  0.00    -0.248 NA
ATOM     46  C   UNL A   1      46.895  29.901  27.385  1.00  0.00     0.031 C 
ATOM     47  C   UNL A   1      42.472  32.485  30.645  1.00  0.00     0.029 A 
ATOM     48  C   UNL A   1      43.194  31.591  29.870  1.00  0.00     0.049 A 
ATOM     49  H   UNL A   1      42.577  29.752  29.042  1.00  0.00     0.167 HD
ATOM     50  C   UNL A   1      45.197  30.774  28.657  1.00  0.00     0.074 A 
ATOM     51  C   UNL A   1      46.553  30.919  28.164  1.00  0.00     0.031 C 
ATOM     52  C   UNL A   1      44.556  31.699  29.413  1.00  0.00     0.034 A 
BRANCH  39  53
ATOM     53  C   UNL A   1      38.663  30.319  30.655  1.00  0.00     0.023 A 
ATOM     54  C   UNL A   1      38.417  30.016  32.009  1.00  0.00     0.012 A 
ATOM     55  C   UNL A   1      37.719  31.075  29.934  1.00  0.00     0.148 A 
ATOM     56  C   UNL A   1      37.241  30.437  32.629  1.00  0.00     0.002 A 
ATOM     57  C   UNL A   1      36.564  31.520  30.568  1.00  0.00     0.091 A 
ATOM     58  F   UNL A   1      37.957  31.332  28.639  1.00  0.00    -0.205 F 
ATOM     59  C   UNL A   1      36.321  31.196  31.913  1.00  0.00     0.022 A 
BRANCH  57  60
ATOM     60  S   UNL A   1      35.354  32.557  29.738  1.00  0.00     0.127 S 
ATOM     61  O   UNL A   1      34.865  31.662  28.691  1.00  0.00    -0.237 OA
ATOM     62  O   UNL A   1      34.389  32.829  30.806  1.00  0.00    -0.237 OA
ATOM     63  O   UNL A   1      36.087  33.729  29.277  1.00  0.00    -0.744 OA
ENDBRANCH  57  60
ENDBRANCH  39  53
BRANCH  40  64
ATOM     64  C   UNL A   1      46.975  27.294  26.014  1.00  0.00     0.023 A 
ATOM     65  C   UNL A   1      47.902  26.434  26.633  1.00  0.00     0.012 A 
ATOM     66  C   UNL A   1      47.181  27.677  24.674  1.00  0.00     0.148 A 
ATOM     67  C   UNL A   1      49.021  25.976  25.936  1.00  0.00     0.002 A 
ATOM     68  C   UNL A   1      48.267  27.174  23.969  1.00  0.00     0.091 A 
ATOM     69  F   UNL A   1      46.298  28.513  24.109  1.00  0.00    -0.205 F 
ATOM     70  C   UNL A   1      49.196  26.334  24.602  1.00  0.00     0.022 A 
BRANCH  68  71
ATOM     71  S   UNL A   1      48.485  27.473  22.210  1.00  0.00     0.127 S 
ATOM     72  O   UNL A   1      47.251  28.177  21.872  1.00  0.00    -0.237 OA
ATOM     73  O   UNL A   1      49.692  28.301  22.187  1.00  0.00    -0.237 OA
ATOM     74  O   UNL A   1      48.655  26.157  21.611  1.00  0.00    -0.744 OA
ENDBRANCH  68  71
ENDBRANCH  40  64
BRANCH  52  75
ATOM     75  C   UNL A   1      45.313  32.953  29.765  1.00  0.00     0.023 A 
ATOM     76  C   UNL A   1      46.118  32.973  30.921  1.00  0.00     0.012 A 
ATOM     77  C   UNL A   1      45.285  34.078  28.919  1.00  0.00     0.148 A 
ATOM     78  C   UNL A   1      46.866  34.105  31.243  1.00  0.00     0.002 A 
ATOM     79  C   UNL A   1      46.065  35.188  29.225  1.00  0.00     0.091 A 
ATOM     80  F   UNL A   1      44.494  34.047  27.837  1.00  0.00    -0.205 F 
ATOM     81  C   UNL A   1      46.849  35.206  30.390  1.00  0.00     0.022 A 
BRANCH  79  82
ATOM     82  S   UNL A   1      46.168  36.612  28.134  1.00  0.00     0.127 S 
ATOM     83  O   UNL A   1      44.856  37.229  28.325  1.00  0.00    -0.237 OA
ATOM     84  O   UNL A   1      47.285  37.366  28.703  1.00  0.00    -0.237 OA
ATOM     85  O   UNL A   1      46.423  36.073  26.805  1.00  0.00    -0.744 OA
ENDBRANCH  79  82
ENDBRANCH  52  75
ENDBRANCH  26  27
ENDBRANCH  19  21
ENDBRANCH  18  19
ENDBRANCH  17  18
ENDBRANCH   1  17
TORSDOF 18
ENDMDL
