MODEL 1
REMARK VINA RESULT:     -11.2      0.000      0.000
REMARK SMILES CCc1nc(COC)cc(N2CCCC[C@H]2C(=O)OCCOC(=O)c2ccc(-c3c4nc(c(-c5cccc(S(=O)(=O)[O-])c5F)c5ccc([nH]5)c(-c5cccc(S(=O)(=O)[O-])c5F)c5nc(c(-c6cccc(S(=O)(=O)[O-])c6F)c6ccc3[nH]6)C=C5)C=C4)cc2)n1
REMARK SMILES IDX 20 1 19 2 17 3 18 4 16 5 11 6 12 7 13 8 15 9 14 10 10 11
REMARK SMILES IDX 3 12 4 13 88 14 5 15 9 16 2 17 1 18 6 19 7 20 8 21 21 22
REMARK SMILES IDX 22 23 23 24 24 25 25 26 26 27 87 28 27 29 86 30 28 31 29 32
REMARK SMILES IDX 30 33 80 34 31 35 85 36 79 37 81 38 32 39 84 40 78 41 77 42
REMARK SMILES IDX 33 44 65 45 45 46 64 47 46 48 49 49 63 50 82 51 47 52 48 53
REMARK SMILES IDX 62 55 83 56 50 57 34 58 35 59 43 60 36 61 38 62 44 63 37 64
REMARK SMILES IDX 39 65 40 66 41 67 42 68 66 69 67 70 75 71 68 72 70 73 76 74
REMARK SMILES IDX 69 75 71 76 72 77 73 78 74 79 51 80 52 81 60 82 53 83 55 84
REMARK SMILES IDX 61 85 54 86 56 87 57 88 58 89 59 90
REMARK H PARENT 81 43 49 54
REMARK Flexibility Score: inf
ROOT
ATOM      1  C   UNL A   1      31.338  28.902  25.362  1.00  0.00     0.274 C 
ENDROOT
BRANCH   1   2
ATOM      2  O   UNL A   1      32.313  27.875  25.630  1.00  0.00    -0.461 OA
BRANCH   2   3
ATOM      3  C   UNL A   1      31.862  26.581  25.603  1.00  0.00     0.328 C 
ATOM      4  O   UNL A   1      30.778  26.219  26.041  1.00  0.00    -0.250 OA
BRANCH   3   5
ATOM      5  C   UNL A   1      32.904  25.662  24.936  1.00  0.00     0.193 C 
ATOM      6  N   UNL A   1      32.265  24.428  24.428  1.00  0.00    -0.343 N 
ATOM      7  C   UNL A   1      31.451  24.560  23.219  1.00  0.00     0.119 C 
ATOM      8  C   UNL A   1      32.205  25.244  22.081  1.00  0.00     0.022 C 
ATOM      9  C   UNL A   1      33.692  26.320  23.784  1.00  0.00     0.037 C 
ATOM     10  C   UNL A   1      32.849  26.547  22.535  1.00  0.00     0.005 C 
BRANCH   6  11
ATOM     11  C   UNL A   1      33.003  23.264  24.615  1.00  0.00     0.133 A 
ATOM     12  C   UNL A   1      34.977  22.184  25.079  1.00  0.00     0.130 A 
ATOM     13  N   UNL A   1      34.422  20.961  25.034  1.00  0.00    -0.235 NA
ATOM     14  N   UNL A   1      34.321  23.338  24.850  1.00  0.00    -0.216 NA
ATOM     15  C   UNL A   1      33.109  20.904  24.741  1.00  0.00     0.072 A 
ATOM     16  C   UNL A   1      32.355  22.044  24.552  1.00  0.00     0.073 A 
BRANCH  12  17
ATOM     17  C   UNL A   1      36.434  22.271  25.443  1.00  0.00     0.074 C 
ATOM     18  C   UNL A   1      36.949  23.701  25.389  1.00  0.00     0.012 C 
ENDBRANCH  12  17
BRANCH  15  19
ATOM     19  C   UNL A   1      32.484  19.543  24.538  1.00  0.00     0.216 C 
BRANCH  19  20
ATOM     20  O   UNL A   1      32.769  18.620  25.599  1.00  0.00    -0.378 OA
ATOM     21  C   UNL A   1      32.538  17.264  25.243  1.00  0.00     0.195 C 
ENDBRANCH  19  20
ENDBRANCH  15  19
ENDBRANCH   6  11
ENDBRANCH   3   5
ENDBRANCH   2   3
ENDBRANCH   1   2
BRANCH   1  22
ATOM     22  C   UNL A   1      31.662  30.209  26.095  1.00  0.00     0.275 C 
BRANCH  22  23
ATOM     23  O   UNL A   1      32.851  30.091  26.897  1.00  0.00    -0.458 OA
BRANCH  23  24
ATOM     24  C   UNL A   1      33.428  31.265  27.234  1.00  0.00     0.338 C 
ATOM     25  O   UNL A   1      32.882  32.356  27.318  1.00  0.00    -0.246 OA
BRANCH  24  26
ATOM     26  C   UNL A   1      34.798  31.032  27.711  1.00  0.00     0.060 A 
ATOM     27  C   UNL A   1      35.132  29.711  27.993  1.00  0.00     0.016 A 
ATOM     28  C   UNL A   1      35.695  32.057  27.997  1.00  0.00     0.016 A 
ATOM     29  C   UNL A   1      36.341  29.389  28.593  1.00  0.00     0.010 A 
ATOM     30  C   UNL A   1      36.927  31.736  28.585  1.00  0.00     0.010 A 
ATOM     31  C   UNL A   1      37.249  30.402  28.911  1.00  0.00    -0.014 A 
BRANCH  31  32
ATOM     32  C   UNL A   1      38.486  30.059  29.659  1.00  0.00     0.031 A 
ATOM     33  C   UNL A   1      39.480  29.103  29.062  1.00  0.00     0.074 A 
ATOM     34  C   UNL A   1      38.739  30.623  30.856  1.00  0.00     0.049 A 
ATOM     35  N   UNL A   1      40.561  28.594  29.594  1.00  0.00    -0.248 NA
ATOM     36  C   UNL A   1      39.219  28.654  27.685  1.00  0.00     0.031 C 
ATOM     37  C   UNL A   1      37.872  31.586  31.534  1.00  0.00     0.029 A 
ATOM     38  N   UNL A   1      39.792  30.452  31.722  1.00  0.00    -0.354 N 
ATOM     39  C   UNL A   1      41.067  27.710  28.651  1.00  0.00     0.074 A 
ATOM     40  C   UNL A   1      40.184  27.764  27.504  1.00  0.00     0.031 C 
ATOM     41  C   UNL A   1      38.420  31.913  32.715  1.00  0.00     0.029 A 
ATOM     42  C   UNL A   1      39.648  31.145  32.901  1.00  0.00     0.049 A 
ATOM     43  H   UNL A   1      40.573  29.889  31.517  1.00  0.00     0.167 HD
ATOM     44  C   UNL A   1      42.171  26.929  28.727  1.00  0.00     0.034 A 
ATOM     45  C   UNL A   1      40.398  31.135  34.021  1.00  0.00     0.034 A 
ATOM     46  C   UNL A   1      43.090  26.932  29.832  1.00  0.00     0.049 A 
ATOM     47  C   UNL A   1      41.637  30.284  34.071  1.00  0.00     0.074 A 
ATOM     48  C   UNL A   1      44.268  26.220  29.973  1.00  0.00     0.029 A 
ATOM     49  N   UNL A   1      42.943  27.692  30.982  1.00  0.00    -0.354 N 
ATOM     50  N   UNL A   1      42.140  29.507  33.142  1.00  0.00    -0.248 NA
ATOM     51  C   UNL A   1      42.423  30.322  35.313  1.00  0.00     0.031 C 
ATOM     52  C   UNL A   1      44.829  26.543  31.214  1.00  0.00     0.029 A 
ATOM     53  C   UNL A   1      44.004  27.463  31.841  1.00  0.00     0.049 A 
ATOM     54  H   UNL A   1      42.192  28.304  31.162  1.00  0.00     0.167 HD
ATOM     55  C   UNL A   1      43.304  28.972  33.682  1.00  0.00     0.074 A 
ATOM     56  C   UNL A   1      43.450  29.540  35.007  1.00  0.00     0.031 C 
ATOM     57  C   UNL A   1      44.161  28.071  33.139  1.00  0.00     0.034 A 
BRANCH  44  58
ATOM     58  C   UNL A   1      42.451  26.016  27.565  1.00  0.00     0.023 A 
ATOM     59  C   UNL A   1      43.200  26.485  26.468  1.00  0.00     0.012 A 
ATOM     60  C   UNL A   1      41.989  24.685  27.570  1.00  0.00     0.148 A 
ATOM     61  C   UNL A   1      43.458  25.653  25.379  1.00  0.00     0.002 A 
ATOM     62  C   UNL A   1      42.282  23.850  26.496  1.00  0.00     0.091 A 
ATOM     63  F   UNL A   1      41.249  24.264  28.606  1.00  0.00    -0.205 F 
ATOM     64  C   UNL A   1      43.008  24.335  25.397  1.00  0.00     0.022 A 
BRANCH  62  65
ATOM     65  S   UNL A   1      41.791  22.122  26.481  1.00  0.00     0.127 S 
ATOM     66  O   UNL A   1      40.347  22.225  26.283  1.00  0.00    -0.237 OA
ATOM     67  O   UNL A   1      42.527  21.593  25.331  1.00  0.00    -0.237 OA
ATOM     68  O   UNL A   1      42.222  21.586  27.765  1.00  0.00    -0.744 OA
ENDBRANCH  62  65
ENDBRANCH  44  58
BRANCH  45  69
ATOM     69  C   UNL A   1      39.987  31.977  35.179  1.00  0.00     0.023 A 
ATOM     70  C   UNL A   1      40.393  33.323  35.242  1.00  0.00     0.012 A 
ATOM     71  C   UNL A   1      39.131  31.470  36.177  1.00  0.00     0.148 A 
ATOM     72  C   UNL A   1      39.960  34.147  36.282  1.00  0.00     0.002 A 
ATOM     73  C   UNL A   1      38.655  32.312  37.175  1.00  0.00     0.091 A 
ATOM     74  F   UNL A   1      38.774  30.179  36.113  1.00  0.00    -0.205 F 
ATOM     75  C   UNL A   1      39.078  33.648  37.237  1.00  0.00     0.022 A 
BRANCH  73  76
ATOM     76  S   UNL A   1      37.400  31.790  38.351  1.00  0.00     0.127 S 
ATOM     77  O   UNL A   1      37.180  30.401  37.956  1.00  0.00    -0.237 OA
ATOM     78  O   UNL A   1      38.091  31.964  39.629  1.00  0.00    -0.237 OA
ATOM     79  O   UNL A   1      36.276  32.693  38.151  1.00  0.00    -0.744 OA
ENDBRANCH  73  76
ENDBRANCH  45  69
BRANCH  57  80
ATOM     80  C   UNL A   1      45.338  27.640  33.972  1.00  0.00     0.023 A 
ATOM     81  C   UNL A   1      46.524  28.398  33.935  1.00  0.00     0.012 A 
ATOM     82  C   UNL A   1      45.246  26.539  34.846  1.00  0.00     0.148 A 
ATOM     83  C   UNL A   1      47.611  28.054  34.739  1.00  0.00     0.002 A 
ATOM     84  C   UNL A   1      46.320  26.225  35.672  1.00  0.00     0.091 A 
ATOM     85  F   UNL A   1      44.118  25.814  34.850  1.00  0.00    -0.205 F 
ATOM     86  C   UNL A   1      47.505  26.976  35.615  1.00  0.00     0.022 A 
BRANCH  84  87
ATOM     87  S   UNL A   1      46.231  24.906  36.889  1.00  0.00     0.127 S 
ATOM     88  O   UNL A   1      47.544  24.996  37.525  1.00  0.00    -0.237 OA
ATOM     89  O   UNL A   1      45.115  25.330  37.736  1.00  0.00    -0.237 OA
ATOM     90  O   UNL A   1      45.978  23.688  36.131  1.00  0.00    -0.744 OA
ENDBRANCH  84  87
ENDBRANCH  57  80
ENDBRANCH  31  32
ENDBRANCH  24  26
ENDBRANCH  23  24
ENDBRANCH  22  23
ENDBRANCH   1  22
TORSDOF 18
ENDMDL
MODEL 2
REMARK VINA RESULT:     -11.2      5.309     10.214
REMARK SMILES CCc1nc(COC)cc(N2CCCC[C@H]2C(=O)OCCOC(=O)c2ccc(-c3c4nc(c(-c5cccc(S(=O)(=O)[O-])c5F)c5ccc([nH]5)c(-c5cccc(S(=O)(=O)[O-])c5F)c5nc(c(-c6cccc(S(=O)(=O)[O-])c6F)c6ccc3[nH]6)C=C5)C=C4)cc2)n1
REMARK SMILES IDX 20 1 19 2 17 3 18 4 16 5 11 6 12 7 13 8 15 9 14 10 10 11
REMARK SMILES IDX 3 12 4 13 88 14 5 15 9 16 2 17 1 18 6 19 7 20 8 21 21 22
REMARK SMILES IDX 22 23 23 24 24 25 25 26 26 27 87 28 27 29 86 30 28 31 29 32
REMARK SMILES IDX 30 33 80 34 31 35 85 36 79 37 81 38 32 39 84 40 78 41 77 42
REMARK SMILES IDX 33 44 65 45 45 46 64 47 46 48 49 49 63 50 82 51 47 52 48 53
REMARK SMILES IDX 62 55 83 56 50 57 34 58 35 59 43 60 36 61 38 62 44 63 37 64
REMARK SMILES IDX 39 65 40 66 41 67 42 68 66 69 67 70 75 71 68 72 70 73 76 74
REMARK SMILES IDX 69 75 71 76 72 77 73 78 74 79 51 80 52 81 60 82 53 83 55 84
REMARK SMILES IDX 61 85 54 86 56 87 57 88 58 89 59 90
REMARK H PARENT 81 43 49 54
REMARK Flexibility Score: inf
ROOT
ATOM      1  C   UNL A   1      35.771  20.048  24.956  1.00  0.00     0.274 C 
ENDROOT
BRANCH   1   2
ATOM      2  O   UNL A   1      34.633  20.727  25.522  1.00  0.00    -0.461 OA
BRANCH   2   3
ATOM      3  C   UNL A   1      34.040  21.684  24.740  1.00  0.00     0.328 C 
ATOM      4  O   UNL A   1      33.608  21.484  23.612  1.00  0.00    -0.250 OA
BRANCH   3   5
ATOM      5  C   UNL A   1      33.987  23.032  25.486  1.00  0.00     0.193 C 
ATOM      6  N   UNL A   1      32.638  23.633  25.387  1.00  0.00    -0.343 N 
ATOM      7  C   UNL A   1      31.584  23.021  26.198  1.00  0.00     0.119 C 
ATOM      8  C   UNL A   1      31.978  22.902  27.669  1.00  0.00     0.022 C 
ATOM      9  C   UNL A   1      34.383  22.954  26.975  1.00  0.00     0.037 C 
ATOM     10  C   UNL A   1      33.343  22.248  27.836  1.00  0.00     0.005 C 
BRANCH   6  11
ATOM     11  C   UNL A   1      32.621  25.011  25.196  1.00  0.00     0.133 A 
ATOM     12  C   UNL A   1      33.008  26.869  23.902  1.00  0.00     0.130 A 
ATOM     13  N   UNL A   1      32.524  27.720  24.822  1.00  0.00    -0.235 NA
ATOM     14  N   UNL A   1      33.100  25.534  24.058  1.00  0.00    -0.216 NA
ATOM     15  C   UNL A   1      32.098  27.180  25.980  1.00  0.00     0.072 A 
ATOM     16  C   UNL A   1      32.105  25.817  26.194  1.00  0.00     0.073 A 
BRANCH  12  17
ATOM     17  C   UNL A   1      33.450  27.449  22.586  1.00  0.00     0.074 C 
ATOM     18  C   UNL A   1      34.108  28.810  22.758  1.00  0.00     0.012 C 
ENDBRANCH  12  17
BRANCH  15  19
ATOM     19  C   UNL A   1      31.685  28.117  27.092  1.00  0.00     0.216 C 
BRANCH  19  20
ATOM     20  O   UNL A   1      32.627  29.174  27.327  1.00  0.00    -0.378 OA
ATOM     21  C   UNL A   1      32.160  30.448  26.904  1.00  0.00     0.195 C 
ENDBRANCH  19  20
ENDBRANCH  15  19
ENDBRANCH   6  11
ENDBRANCH   3   5
ENDBRANCH   2   3
ENDBRANCH   1   2
BRANCH   1  22
ATOM     22  C   UNL A   1      36.912  21.015  24.623  1.00  0.00     0.275 C 
BRANCH  22  23
ATOM     23  O   UNL A   1      37.456  21.626  25.807  1.00  0.00    -0.458 OA
BRANCH  23  24
ATOM     24  C   UNL A   1      38.763  21.366  26.032  1.00  0.00     0.338 C 
ATOM     25  O   UNL A   1      39.397  20.395  25.641  1.00  0.00    -0.246 OA
BRANCH  24  26
ATOM     26  C   UNL A   1      39.410  22.533  26.645  1.00  0.00     0.060 A 
ATOM     27  C   UNL A   1      38.991  23.778  26.183  1.00  0.00     0.016 A 
ATOM     28  C   UNL A   1      40.468  22.440  27.544  1.00  0.00     0.016 A 
ATOM     29  C   UNL A   1      39.637  24.942  26.575  1.00  0.00     0.010 A 
ATOM     30  C   UNL A   1      41.111  23.615  27.959  1.00  0.00     0.010 A 
ATOM     31  C   UNL A   1      40.717  24.874  27.458  1.00  0.00    -0.014 A 
BRANCH  31  32
ATOM     32  C   UNL A   1      41.473  26.112  27.778  1.00  0.00     0.031 A 
ATOM     33  C   UNL A   1      40.819  27.200  28.583  1.00  0.00     0.074 A 
ATOM     34  C   UNL A   1      42.752  26.253  27.378  1.00  0.00     0.049 A 
ATOM     35  N   UNL A   1      41.266  28.394  28.875  1.00  0.00    -0.248 NA
ATOM     36  C   UNL A   1      39.481  26.909  29.123  1.00  0.00     0.031 C 
ATOM     37  C   UNL A   1      43.511  25.263  26.617  1.00  0.00     0.029 A 
ATOM     38  N   UNL A   1      43.631  27.296  27.544  1.00  0.00    -0.354 N 
ATOM     39  C   UNL A   1      40.239  29.023  29.566  1.00  0.00     0.074 A 
ATOM     40  C   UNL A   1      39.151  28.072  29.665  1.00  0.00     0.031 C 
ATOM     41  C   UNL A   1      44.738  25.748  26.370  1.00  0.00     0.029 A 
ATOM     42  C   UNL A   1      44.834  27.102  26.909  1.00  0.00     0.049 A 
ATOM     43  H   UNL A   1      43.419  28.103  28.066  1.00  0.00     0.167 HD
ATOM     44  C   UNL A   1      40.206  30.275  30.080  1.00  0.00     0.034 A 
ATOM     45  C   UNL A   1      45.883  27.933  26.744  1.00  0.00     0.034 A 
ATOM     46  C   UNL A   1      41.312  31.192  30.051  1.00  0.00     0.049 A 
ATOM     47  C   UNL A   1      45.837  29.307  27.350  1.00  0.00     0.074 A 
ATOM     48  C   UNL A   1      41.393  32.461  30.597  1.00  0.00     0.029 A 
ATOM     49  N   UNL A   1      42.536  30.937  29.451  1.00  0.00    -0.354 N 
ATOM     50  N   UNL A   1      44.886  29.862  28.063  1.00  0.00    -0.248 NA
ATOM     51  C   UNL A   1      47.014  30.165  27.150  1.00  0.00     0.031 C 
ATOM     52  C   UNL A   1      42.665  32.976  30.321  1.00  0.00     0.029 A 
ATOM     53  C   UNL A   1      43.378  32.025  29.608  1.00  0.00     0.049 A 
ATOM     54  H   UNL A   1      42.771  30.104  28.981  1.00  0.00     0.167 HD
ATOM     55  C   UNL A   1      45.351  31.127  28.402  1.00  0.00     0.074 A 
ATOM     56  C   UNL A   1      46.684  31.245  27.847  1.00  0.00     0.031 C 
ATOM     57  C   UNL A   1      44.720  32.111  29.091  1.00  0.00     0.034 A 
BRANCH  44  58
ATOM     58  C   UNL A   1      38.927  30.718  30.737  1.00  0.00     0.023 A 
ATOM     59  C   UNL A   1      38.769  30.581  32.130  1.00  0.00     0.012 A 
ATOM     60  C   UNL A   1      37.889  31.289  29.976  1.00  0.00     0.148 A 
ATOM     61  C   UNL A   1      37.584  30.976  32.751  1.00  0.00     0.002 A 
ATOM     62  C   UNL A   1      36.725  31.715  30.607  1.00  0.00     0.091 A 
ATOM     63  F   UNL A   1      38.041  31.382  28.647  1.00  0.00    -0.205 F 
ATOM     64  C   UNL A   1      36.568  31.551  31.993  1.00  0.00     0.022 A 
BRANCH  62  65
ATOM     65  S   UNL A   1      35.401  32.525  29.704  1.00  0.00     0.127 S 
ATOM     66  O   UNL A   1      34.974  31.467  28.790  1.00  0.00    -0.237 OA
ATOM     67  O   UNL A   1      34.439  32.839  30.762  1.00  0.00    -0.237 OA
ATOM     68  O   UNL A   1      36.012  33.693  29.085  1.00  0.00    -0.744 OA
ENDBRANCH  62  65
ENDBRANCH  44  58
BRANCH  45  69
ATOM     69  C   UNL A   1      47.069  27.462  25.974  1.00  0.00     0.023 A 
ATOM     70  C   UNL A   1      47.969  26.555  26.563  1.00  0.00     0.012 A 
ATOM     71  C   UNL A   1      47.265  27.852  24.634  1.00  0.00     0.148 A 
ATOM     72  C   UNL A   1      49.046  26.049  25.835  1.00  0.00     0.002 A 
ATOM     73  C   UNL A   1      48.304  27.298  23.895  1.00  0.00     0.091 A 
ATOM     74  F   UNL A   1      46.411  28.736  24.097  1.00  0.00    -0.205 F 
ATOM     75  C   UNL A   1      49.203  26.406  24.497  1.00  0.00     0.022 A 
BRANCH  73  76
ATOM     76  S   UNL A   1      48.484  27.585  22.131  1.00  0.00     0.127 S 
ATOM     77  O   UNL A   1      48.711  26.233  21.629  1.00  0.00    -0.237 OA
ATOM     78  O   UNL A   1      47.184  28.160  21.783  1.00  0.00    -0.237 OA
ATOM     79  O   UNL A   1      49.601  28.509  21.996  1.00  0.00    -0.744 OA
ENDBRANCH  73  76
ENDBRANCH  45  69
BRANCH  57  80
ATOM     80  C   UNL A   1      45.461  33.407  29.287  1.00  0.00     0.023 A 
ATOM     81  C   UNL A   1      46.202  33.605  30.468  1.00  0.00     0.012 A 
ATOM     82  C   UNL A   1      45.488  34.390  28.278  1.00  0.00     0.148 A 
ATOM     83  C   UNL A   1      46.943  34.773  30.652  1.00  0.00     0.002 A 
ATOM     84  C   UNL A   1      46.260  35.533  28.453  1.00  0.00     0.091 A 
ATOM     85  F   UNL A   1      44.757  34.195  27.172  1.00  0.00    -0.205 F 
ATOM     86  C   UNL A   1      46.982  35.731  29.641  1.00  0.00     0.022 A 
BRANCH  84  87
ATOM     87  S   UNL A   1      46.430  36.772  27.162  1.00  0.00     0.127 S 
ATOM     88  O   UNL A   1      47.675  37.436  27.547  1.00  0.00    -0.237 OA
ATOM     89  O   UNL A   1      46.524  35.958  25.951  1.00  0.00    -0.237 OA
ATOM     90  O   UNL A   1      45.227  37.591  27.242  1.00  0.00    -0.744 OA
ENDBRANCH  84  87
ENDBRANCH  57  80
ENDBRANCH  31  32
ENDBRANCH  24  26
ENDBRANCH  23  24
ENDBRANCH  22  23
ENDBRANCH   1  22
TORSDOF 18
ENDMDL
MODEL 3
REMARK VINA RESULT:     -11.1      1.730      7.886
REMARK SMILES CCc1nc(COC)cc(N2CCCC[C@H]2C(=O)OCCOC(=O)c2ccc(-c3c4nc(c(-c5cccc(S(=O)(=O)[O-])c5F)c5ccc([nH]5)c(-c5cccc(S(=O)(=O)[O-])c5F)c5nc(c(-c6cccc(S(=O)(=O)[O-])c6F)c6ccc3[nH]6)C=C5)C=C4)cc2)n1
REMARK SMILES IDX 20 1 19 2 17 3 18 4 16 5 11 6 12 7 13 8 15 9 14 10 10 11
REMARK SMILES IDX 3 12 4 13 88 14 5 15 9 16 2 17 1 18 6 19 7 20 8 21 21 22
REMARK SMILES IDX 22 23 23 24 24 25 25 26 26 27 87 28 27 29 86 30 28 31 29 32
REMARK SMILES IDX 30 33 80 34 31 35 85 36 79 37 81 38 32 39 84 40 78 41 77 42
REMARK SMILES IDX 33 44 65 45 45 46 64 47 46 48 49 49 63 50 82 51 47 52 48 53
REMARK SMILES IDX 62 55 83 56 50 57 34 58 35 59 43 60 36 61 38 62 44 63 37 64
REMARK SMILES IDX 39 65 40 66 41 67 42 68 66 69 67 70 75 71 68 72 70 73 76 74
REMARK SMILES IDX 69 75 71 76 72 77 73 78 74 79 51 80 52 81 60 82 53 83 55 84
REMARK SMILES IDX 61 85 54 86 56 87 57 88 58 89 59 90
REMARK H PARENT 81 43 49 54
REMARK Flexibility Score: inf
ROOT
ATOM      1  C   UNL A   1      31.083  30.785  25.417  1.00  0.00     0.274 C 
ENDROOT
BRANCH   1   2
ATOM      2  O   UNL A   1      32.122  29.786  25.419  1.00  0.00    -0.461 OA
BRANCH   2   3
ATOM      3  C   UNL A   1      31.837  28.606  26.055  1.00  0.00     0.328 C 
ATOM      4  O   UNL A   1      31.407  28.525  27.198  1.00  0.00    -0.250 OA
BRANCH   3   5
ATOM      5  C   UNL A   1      32.123  27.410  25.125  1.00  0.00     0.193 C 
ATOM      6  N   UNL A   1      31.494  26.178  25.650  1.00  0.00    -0.343 N 
ATOM      7  C   UNL A   1      30.040  26.072  25.515  1.00  0.00     0.119 C 
ATOM      8  C   UNL A   1      29.571  26.309  24.081  1.00  0.00     0.022 C 
ATOM      9  C   UNL A   1      31.667  27.613  23.665  1.00  0.00     0.037 C 
ATOM     10  C   UNL A   1      30.152  27.591  23.501  1.00  0.00     0.005 C 
BRANCH   6  11
ATOM     11  C   UNL A   1      32.264  25.026  25.523  1.00  0.00     0.133 A 
ATOM     12  C   UNL A   1      32.458  22.744  25.344  1.00  0.00     0.130 A 
ATOM     13  N   UNL A   1      33.795  22.778  25.215  1.00  0.00    -0.235 NA
ATOM     14  N   UNL A   1      31.672  23.823  25.526  1.00  0.00    -0.216 NA
ATOM     15  C   UNL A   1      34.376  23.991  25.271  1.00  0.00     0.072 A 
ATOM     16  C   UNL A   1      33.635  25.149  25.396  1.00  0.00     0.073 A 
BRANCH  12  17
ATOM     17  C   UNL A   1      31.786  21.401  25.245  1.00  0.00     0.074 C 
ATOM     18  C   UNL A   1      32.779  20.258  25.387  1.00  0.00     0.012 C 
ENDBRANCH  12  17
BRANCH  15  19
ATOM     19  C   UNL A   1      35.886  24.057  25.277  1.00  0.00     0.216 C 
BRANCH  19  20
ATOM     20  O   UNL A   1      36.512  22.832  24.869  1.00  0.00    -0.378 OA
ATOM     21  C   UNL A   1      37.022  22.875  23.543  1.00  0.00     0.195 C 
ENDBRANCH  19  20
ENDBRANCH  15  19
ENDBRANCH   6  11
ENDBRANCH   3   5
ENDBRANCH   2   3
ENDBRANCH   1   2
BRANCH   1  22
ATOM     22  C   UNL A   1      31.417  31.964  26.337  1.00  0.00     0.275 C 
BRANCH  22  23
ATOM     23  O   UNL A   1      32.475  31.641  27.257  1.00  0.00    -0.458 OA
BRANCH  23  24
ATOM     24  C   UNL A   1      33.305  32.666  27.551  1.00  0.00     0.338 C 
ATOM     25  O   UNL A   1      33.015  33.854  27.609  1.00  0.00    -0.246 OA
BRANCH  24  26
ATOM     26  C   UNL A   1      34.598  32.148  28.019  1.00  0.00     0.060 A 
ATOM     27  C   UNL A   1      34.649  30.783  28.287  1.00  0.00     0.016 A 
ATOM     28  C   UNL A   1      35.689  32.960  28.308  1.00  0.00     0.016 A 
ATOM     29  C   UNL A   1      35.766  30.210  28.878  1.00  0.00     0.010 A 
ATOM     30  C   UNL A   1      36.830  32.383  28.887  1.00  0.00     0.010 A 
ATOM     31  C   UNL A   1      36.867  31.008  29.200  1.00  0.00    -0.014 A 
BRANCH  31  32
ATOM     32  C   UNL A   1      38.008  30.407  29.938  1.00  0.00     0.031 A 
ATOM     33  C   UNL A   1      38.250  30.783  31.373  1.00  0.00     0.074 A 
ATOM     34  C   UNL A   1      38.809  29.504  29.340  1.00  0.00     0.049 A 
ATOM     35  N   UNL A   1      39.246  30.457  32.156  1.00  0.00    -0.248 NA
ATOM     36  C   UNL A   1      37.243  31.648  32.009  1.00  0.00     0.031 C 
ATOM     37  C   UNL A   1      38.666  29.032  27.963  1.00  0.00     0.029 A 
ATOM     38  N   UNL A   1      39.913  28.836  29.811  1.00  0.00    -0.354 N 
ATOM     39  C   UNL A   1      39.026  31.134  33.348  1.00  0.00     0.074 A 
ATOM     40  C   UNL A   1      37.793  31.876  33.192  1.00  0.00     0.031 C 
ATOM     41  C   UNL A   1      39.651  28.161  27.695  1.00  0.00     0.029 A 
ATOM     42  C   UNL A   1      40.523  28.052  28.861  1.00  0.00     0.049 A 
ATOM     43  H   UNL A   1      40.234  28.912  30.738  1.00  0.00     0.167 HD
ATOM     44  C   UNL A   1      39.778  31.132  34.474  1.00  0.00     0.034 A 
ATOM     45  C   UNL A   1      41.676  27.354  28.909  1.00  0.00     0.034 A 
ATOM     46  C   UNL A   1      40.961  30.336  34.658  1.00  0.00     0.049 A 
ATOM     47  C   UNL A   1      42.478  27.341  30.180  1.00  0.00     0.074 A 
ATOM     48  C   UNL A   1      41.755  30.222  35.785  1.00  0.00     0.029 A 
ATOM     49  N   UNL A   1      41.515  29.507  33.694  1.00  0.00    -0.354 N 
ATOM     50  N   UNL A   1      42.219  27.930  31.323  1.00  0.00    -0.248 NA
ATOM     51  C   UNL A   1      43.719  26.553  30.179  1.00  0.00     0.031 C 
ATOM     52  C   UNL A   1      42.796  29.330  35.499  1.00  0.00     0.029 A 
ATOM     53  C   UNL A   1      42.643  28.883  34.196  1.00  0.00     0.049 A 
ATOM     54  H   UNL A   1      41.157  29.383  32.785  1.00  0.00     0.167 HD
ATOM     55  C   UNL A   1      43.257  27.578  32.178  1.00  0.00     0.074 A 
ATOM     56  C   UNL A   1      44.132  26.696  31.432  1.00  0.00     0.031 C 
ATOM     57  C   UNL A   1      43.479  27.970  33.457  1.00  0.00     0.034 A 
BRANCH  44  58
ATOM     58  C   UNL A   1      39.326  32.013  35.607  1.00  0.00     0.023 A 
ATOM     59  C   UNL A   1      38.418  31.517  36.563  1.00  0.00     0.012 A 
ATOM     60  C   UNL A   1      39.817  33.327  35.735  1.00  0.00     0.148 A 
ATOM     61  C   UNL A   1      37.981  32.326  37.611  1.00  0.00     0.002 A 
ATOM     62  C   UNL A   1      39.405  34.115  36.804  1.00  0.00     0.091 A 
ATOM     63  F   UNL A   1      40.655  33.795  34.798  1.00  0.00    -0.205 F 
ATOM     64  C   UNL A   1      38.481  33.620  37.738  1.00  0.00     0.022 A 
BRANCH  62  65
ATOM     65  S   UNL A   1      40.058  35.768  37.068  1.00  0.00     0.127 S 
ATOM     66  O   UNL A   1      41.492  35.507  37.179  1.00  0.00    -0.237 OA
ATOM     67  O   UNL A   1      39.660  36.466  35.844  1.00  0.00    -0.237 OA
ATOM     68  O   UNL A   1      39.403  36.255  38.274  1.00  0.00    -0.744 OA
ENDBRANCH  62  65
ENDBRANCH  44  58
BRANCH  45  69
ATOM     69  C   UNL A   1      42.121  26.602  27.702  1.00  0.00     0.023 A 
ATOM     70  C   UNL A   1      42.995  27.211  26.783  1.00  0.00     0.012 A 
ATOM     71  C   UNL A   1      41.741  25.259  27.503  1.00  0.00     0.148 A 
ATOM     72  C   UNL A   1      43.477  26.500  25.684  1.00  0.00     0.002 A 
ATOM     73  C   UNL A   1      42.273  24.539  26.441  1.00  0.00     0.091 A 
ATOM     74  F   UNL A   1      40.888  24.704  28.376  1.00  0.00    -0.205 F 
ATOM     75  C   UNL A   1      43.132  25.160  25.522  1.00  0.00     0.022 A 
BRANCH  73  76
ATOM     76  S   UNL A   1      42.000  22.773  26.250  1.00  0.00     0.127 S 
ATOM     77  O   UNL A   1      42.712  22.493  25.006  1.00  0.00    -0.237 OA
ATOM     78  O   UNL A   1      42.633  22.236  27.456  1.00  0.00    -0.237 OA
ATOM     79  O   UNL A   1      40.555  22.602  26.207  1.00  0.00    -0.744 OA
ENDBRANCH  73  76
ENDBRANCH  45  69
BRANCH  57  80
ATOM     80  C   UNL A   1      44.716  27.450  34.140  1.00  0.00     0.023 A 
ATOM     81  C   UNL A   1      45.898  28.214  34.101  1.00  0.00     0.012 A 
ATOM     82  C   UNL A   1      44.688  26.254  34.883  1.00  0.00     0.148 A 
ATOM     83  C   UNL A   1      47.043  27.783  34.772  1.00  0.00     0.002 A 
ATOM     84  C   UNL A   1      45.821  25.851  35.581  1.00  0.00     0.091 A 
ATOM     85  F   UNL A   1      43.561  25.528  34.890  1.00  0.00    -0.205 F 
ATOM     86  C   UNL A   1      47.002  26.610  35.521  1.00  0.00     0.022 A 
BRANCH  84  87
ATOM     87  S   UNL A   1      45.822  24.397  36.638  1.00  0.00     0.127 S 
ATOM     88  O   UNL A   1      44.751  24.713  37.581  1.00  0.00    -0.237 OA
ATOM     89  O   UNL A   1      45.507  23.321  35.698  1.00  0.00    -0.237 OA
ATOM     90  O   UNL A   1      47.162  24.324  37.205  1.00  0.00    -0.744 OA
ENDBRANCH  84  87
ENDBRANCH  57  80
ENDBRANCH  31  32
ENDBRANCH  24  26
ENDBRANCH  23  24
ENDBRANCH  22  23
ENDBRANCH   1  22
TORSDOF 18
ENDMDL
