MODEL 1
REMARK VINA RESULT:     -11.5      0.000      0.000
REMARK SMILES C[NH2+][C@@]1(C(=O)OCCOC(=O)c2ccc(-c3c4nc(c(-c5cccc(S(=O)(=O)[O-])c5F)c5ccc([nH]5)c(-c5cccc(S(=O)(=O)[O-])c5F)c5nc(c(-c6cccc(S(=O)(=O)[O-])c6F)c6ccc3[nH]6)C=C5)C=C4)cc2)CC[C@H](Sc2nccc(=O)[nH]2)C1
REMARK SMILES IDX 8 1 7 2 6 3 4 4 5 5 3 6 75 7 86 8 76 9 77 10 2 11 1 12 78 15
REMARK SMILES IDX 79 16 80 17 85 18 81 19 83 20 82 22 84 23 9 24 10 25 11 26
REMARK SMILES IDX 12 27 13 28 74 29 14 30 73 31 15 32 16 33 17 34 67 35 18 36
REMARK SMILES IDX 72 37 66 38 68 39 19 40 71 41 65 42 64 43 20 45 52 46 32 47
REMARK SMILES IDX 51 48 33 49 36 50 50 51 69 52 34 53 35 54 49 56 70 57 37 58
REMARK SMILES IDX 21 59 22 60 30 61 23 62 25 63 31 64 24 65 26 66 27 67 28 68
REMARK SMILES IDX 29 69 53 70 54 71 62 72 55 73 57 74 63 75 56 76 58 77 59 78
REMARK SMILES IDX 60 79 61 80 38 81 39 82 47 83 40 84 42 85 48 86 41 87 43 88
REMARK SMILES IDX 44 89 45 90 46 91
REMARK H PARENT 2 13 2 14 85 21 68 44 36 55
REMARK Flexibility Score: inf
ROOT
ATOM      1  C   UNL A   1      32.073  29.806  26.870  1.00  0.00     0.275 C 
ENDROOT
BRANCH   1   2
ATOM      2  C   UNL A   1      32.236  28.345  27.286  1.00  0.00     0.274 C 
BRANCH   2   3
ATOM      3  O   UNL A   1      31.540  27.526  26.336  1.00  0.00    -0.457 OA
BRANCH   3   4
ATOM      4  C   UNL A   1      32.292  26.799  25.476  1.00  0.00     0.368 C 
ATOM      5  O   UNL A   1      33.515  26.724  25.529  1.00  0.00    -0.245 OA
BRANCH   4   6
ATOM      6  C   UNL A   1      31.423  26.073  24.401  1.00  0.00     0.195 C 
ATOM      7  C   UNL A   1      32.154  26.155  23.057  1.00  0.00     0.082 C 
ATOM      8  C   UNL A   1      30.106  26.803  24.049  1.00  0.00     0.096 C 
ATOM      9  C   UNL A   1      31.917  27.602  22.621  1.00  0.00     0.022 C 
ATOM     10  C   UNL A   1      30.484  27.931  23.067  1.00  0.00     0.062 C 
BRANCH   6  11
ATOM     11  N   UNL A   1      31.079  24.682  24.783  1.00  0.00    -0.335 N 
ATOM     12  C   UNL A   1      31.006  23.701  23.708  1.00  0.00     0.331 C 
ATOM     13  H   UNL A   1      31.784  24.361  25.446  1.00  0.00     0.347 HD
ATOM     14  H   UNL A   1      30.131  24.736  25.156  1.00  0.00     0.347 HD
ENDBRANCH   6  11
BRANCH  10  15
ATOM     15  S   UNL A   1      30.255  29.555  23.863  1.00  0.00    -0.084 SA
BRANCH  15  16
ATOM     16  C   UNL A   1      29.335  30.451  22.708  1.00  0.00     0.168 A 
ATOM     17  N   UNL A   1      28.845  29.954  21.624  1.00  0.00    -0.233 NA
ATOM     18  N   UNL A   1      29.204  31.751  23.087  1.00  0.00    -0.301 N 
ATOM     19  C   UNL A   1      28.178  30.829  20.808  1.00  0.00     0.120 A 
ATOM     20  C   UNL A   1      28.542  32.660  22.322  1.00  0.00     0.251 A 
ATOM     21  H   UNL A   1      29.600  32.043  23.939  1.00  0.00     0.172 HD
ATOM     22  C   UNL A   1      27.994  32.128  21.064  1.00  0.00     0.091 A 
ATOM     23  O   UNL A   1      28.403  33.836  22.633  1.00  0.00    -0.269 OA
ENDBRANCH  15  16
ENDBRANCH  10  15
ENDBRANCH   4   6
ENDBRANCH   3   4
ENDBRANCH   2   3
ENDBRANCH   1   2
BRANCH   1  24
ATOM     24  O   UNL A   1      33.351  30.372  26.526  1.00  0.00    -0.458 OA
BRANCH  24  25
ATOM     25  C   UNL A   1      33.770  31.392  27.318  1.00  0.00     0.338 C 
ATOM     26  O   UNL A   1      33.173  32.429  27.561  1.00  0.00    -0.246 OA
BRANCH  25  27
ATOM     27  C   UNL A   1      35.054  31.023  27.944  1.00  0.00     0.060 A 
ATOM     28  C   UNL A   1      35.195  29.741  28.486  1.00  0.00     0.016 A 
ATOM     29  C   UNL A   1      36.110  31.935  28.008  1.00  0.00     0.016 A 
ATOM     30  C   UNL A   1      36.409  29.350  29.050  1.00  0.00     0.010 A 
ATOM     31  C   UNL A   1      37.312  31.556  28.608  1.00  0.00     0.010 A 
ATOM     32  C   UNL A   1      37.468  30.261  29.128  1.00  0.00    -0.014 A 
BRANCH  32  33
ATOM     33  C   UNL A   1      38.699  29.899  29.865  1.00  0.00     0.031 A 
ATOM     34  C   UNL A   1      39.613  28.865  29.276  1.00  0.00     0.074 A 
ATOM     35  C   UNL A   1      38.986  30.472  31.047  1.00  0.00     0.049 A 
ATOM     36  N   UNL A   1      40.735  28.391  29.745  1.00  0.00    -0.248 NA
ATOM     37  C   UNL A   1      39.208  28.295  27.981  1.00  0.00     0.031 C 
ATOM     38  C   UNL A   1      38.179  31.498  31.706  1.00  0.00     0.029 A 
ATOM     39  N   UNL A   1      40.025  30.251  31.915  1.00  0.00    -0.354 N 
ATOM     40  C   UNL A   1      41.169  27.460  28.812  1.00  0.00     0.074 A 
ATOM     41  C   UNL A   1      40.185  27.431  27.751  1.00  0.00     0.031 C 
ATOM     42  C   UNL A   1      38.737  31.794  32.893  1.00  0.00     0.029 A 
ATOM     43  C   UNL A   1      39.924  30.963  33.087  1.00  0.00     0.049 A 
ATOM     44  H   UNL A   1      40.772  29.641  31.717  1.00  0.00     0.167 HD
ATOM     45  C   UNL A   1      42.287  26.697  28.836  1.00  0.00     0.034 A 
ATOM     46  C   UNL A   1      40.691  30.926  34.196  1.00  0.00     0.034 A 
ATOM     47  C   UNL A   1      43.240  26.702  29.911  1.00  0.00     0.049 A 
ATOM     48  C   UNL A   1      41.896  30.019  34.223  1.00  0.00     0.074 A 
ATOM     49  C   UNL A   1      44.411  25.974  30.025  1.00  0.00     0.029 A 
ATOM     50  N   UNL A   1      43.117  27.447  31.074  1.00  0.00    -0.354 N 
ATOM     51  N   UNL A   1      42.360  29.231  33.283  1.00  0.00    -0.248 NA
ATOM     52  C   UNL A   1      42.701  30.018  35.454  1.00  0.00     0.031 C 
ATOM     53  C   UNL A   1      44.972  26.245  31.277  1.00  0.00     0.029 A 
ATOM     54  C   UNL A   1      44.179  27.181  31.921  1.00  0.00     0.049 A 
ATOM     55  H   UNL A   1      42.382  28.073  31.268  1.00  0.00     0.167 HD
ATOM     56  C   UNL A   1      43.530  28.674  33.792  1.00  0.00     0.074 A 
ATOM     57  C   UNL A   1      43.713  29.229  35.117  1.00  0.00     0.031 C 
ATOM     58  C   UNL A   1      44.373  27.780  33.218  1.00  0.00     0.034 A 
BRANCH  45  59
ATOM     59  C   UNL A   1      42.524  25.784  27.664  1.00  0.00     0.023 A 
ATOM     60  C   UNL A   1      43.274  26.239  26.561  1.00  0.00     0.012 A 
ATOM     61  C   UNL A   1      42.030  24.465  27.669  1.00  0.00     0.148 A 
ATOM     62  C   UNL A   1      43.496  25.408  25.463  1.00  0.00     0.002 A 
ATOM     63  C   UNL A   1      42.293  23.629  26.592  1.00  0.00     0.091 A 
ATOM     64  F   UNL A   1      41.300  24.061  28.718  1.00  0.00    -0.205 F 
ATOM     65  C   UNL A   1      43.014  24.103  25.483  1.00  0.00     0.022 A 
BRANCH  63  66
ATOM     66  S   UNL A   1      41.778  21.910  26.552  1.00  0.00     0.127 S 
ATOM     67  O   UNL A   1      42.279  21.422  27.836  1.00  0.00    -0.237 OA
ATOM     68  O   UNL A   1      40.323  22.028  26.470  1.00  0.00    -0.237 OA
ATOM     69  O   UNL A   1      42.409  21.327  25.375  1.00  0.00    -0.744 OA
ENDBRANCH  63  66
ENDBRANCH  45  59
BRANCH  46  70
ATOM     70  C   UNL A   1      40.359  31.783  35.371  1.00  0.00     0.023 A 
ATOM     71  C   UNL A   1      41.184  32.879  35.693  1.00  0.00     0.012 A 
ATOM     72  C   UNL A   1      39.239  31.508  36.181  1.00  0.00     0.148 A 
ATOM     73  C   UNL A   1      40.923  33.660  36.820  1.00  0.00     0.002 A 
ATOM     74  C   UNL A   1      38.952  32.324  37.269  1.00  0.00     0.091 A 
ATOM     75  F   UNL A   1      38.474  30.452  35.868  1.00  0.00    -0.205 F 
ATOM     76  C   UNL A   1      39.803  33.388  37.602  1.00  0.00     0.022 A 
BRANCH  74  77
ATOM     77  S   UNL A   1      37.472  32.120  38.266  1.00  0.00     0.127 S 
ATOM     78  O   UNL A   1      36.512  32.959  37.552  1.00  0.00    -0.237 OA
ATOM     79  O   UNL A   1      37.234  30.681  38.156  1.00  0.00    -0.237 OA
ATOM     80  O   UNL A   1      37.831  32.571  39.603  1.00  0.00    -0.744 OA
ENDBRANCH  74  77
ENDBRANCH  46  70
BRANCH  58  81
ATOM     81  C   UNL A   1      45.603  27.373  33.990  1.00  0.00     0.023 A 
ATOM     82  C   UNL A   1      46.786  28.131  33.889  1.00  0.00     0.012 A 
ATOM     83  C   UNL A   1      45.554  26.284  34.884  1.00  0.00     0.148 A 
ATOM     84  C   UNL A   1      47.911  27.791  34.641  1.00  0.00     0.002 A 
ATOM     85  C   UNL A   1      46.660  25.986  35.670  1.00  0.00     0.091 A 
ATOM     86  F   UNL A   1      44.424  25.565  34.954  1.00  0.00    -0.205 F 
ATOM     87  C   UNL A   1      47.844  26.728  35.539  1.00  0.00     0.022 A 
BRANCH  85  88
ATOM     88  S   UNL A   1      46.631  24.703  36.927  1.00  0.00     0.127 S 
ATOM     89  O   UNL A   1      47.952  24.851  37.535  1.00  0.00    -0.237 OA
ATOM     90  O   UNL A   1      45.518  25.128  37.776  1.00  0.00    -0.237 OA
ATOM     91  O   UNL A   1      46.409  23.449  36.220  1.00  0.00    -0.744 OA
ENDBRANCH  85  88
ENDBRANCH  58  81
ENDBRANCH  32  33
ENDBRANCH  25  27
ENDBRANCH  24  25
ENDBRANCH   1  24
TORSDOF 17
ENDMDL
MODEL 2
REMARK VINA RESULT:     -11.4      1.473      3.162
REMARK SMILES C[NH2+][C@@]1(C(=O)OCCOC(=O)c2ccc(-c3c4nc(c(-c5cccc(S(=O)(=O)[O-])c5F)c5ccc([nH]5)c(-c5cccc(S(=O)(=O)[O-])c5F)c5nc(c(-c6cccc(S(=O)(=O)[O-])c6F)c6ccc3[nH]6)C=C5)C=C4)cc2)CC[C@H](Sc2nccc(=O)[nH]2)C1
REMARK SMILES IDX 8 1 7 2 6 3 4 4 5 5 3 6 75 7 86 8 76 9 77 10 2 11 1 12 78 15
REMARK SMILES IDX 79 16 80 17 85 18 81 19 83 20 82 22 84 23 9 24 10 25 11 26
REMARK SMILES IDX 12 27 13 28 74 29 14 30 73 31 15 32 16 33 17 34 67 35 18 36
REMARK SMILES IDX 72 37 66 38 68 39 19 40 71 41 65 42 64 43 20 45 52 46 32 47
REMARK SMILES IDX 51 48 33 49 36 50 50 51 69 52 34 53 35 54 49 56 70 57 37 58
REMARK SMILES IDX 21 59 22 60 30 61 23 62 25 63 31 64 24 65 26 66 27 67 28 68
REMARK SMILES IDX 29 69 53 70 54 71 62 72 55 73 57 74 63 75 56 76 58 77 59 78
REMARK SMILES IDX 60 79 61 80 38 81 39 82 47 83 40 84 42 85 48 86 41 87 43 88
REMARK SMILES IDX 44 89 45 90 46 91
REMARK H PARENT 2 13 2 14 85 21 68 44 36 55
REMARK Flexibility Score: inf
ROOT
ATOM      1  C   UNL A   1      31.759  29.849  26.415  1.00  0.00     0.275 C 
ENDROOT
BRANCH   1   2
ATOM      2  C   UNL A   1      31.777  28.382  26.839  1.00  0.00     0.274 C 
BRANCH   2   3
ATOM      3  O   UNL A   1      32.229  27.597  25.728  1.00  0.00    -0.457 OA
BRANCH   3   4
ATOM      4  C   UNL A   1      31.321  27.297  24.770  1.00  0.00     0.368 C 
ATOM      5  O   UNL A   1      30.234  26.774  24.995  1.00  0.00    -0.245 OA
BRANCH   4   6
ATOM      6  C   UNL A   1      31.818  27.686  23.342  1.00  0.00     0.195 C 
ATOM      7  C   UNL A   1      31.174  26.731  22.332  1.00  0.00     0.082 C 
ATOM      8  C   UNL A   1      33.315  27.395  23.089  1.00  0.00     0.096 C 
ATOM      9  C   UNL A   1      31.972  25.439  22.521  1.00  0.00     0.022 C 
ATOM     10  C   UNL A   1      33.419  25.889  22.778  1.00  0.00     0.062 C 
BRANCH   6  11
ATOM     11  N   UNL A   1      31.575  29.112  23.017  1.00  0.00    -0.335 N 
ATOM     12  C   UNL A   1      30.375  29.420  22.248  1.00  0.00     0.331 C 
ATOM     13  H   UNL A   1      31.516  29.624  23.897  1.00  0.00     0.347 HD
ATOM     14  H   UNL A   1      32.352  29.383  22.413  1.00  0.00     0.347 HD
ENDBRANCH   6  11
BRANCH  10  15
ATOM     15  S   UNL A   1      34.286  25.030  24.132  1.00  0.00    -0.084 SA
BRANCH  15  16
ATOM     16  C   UNL A   1      33.130  23.876  24.693  1.00  0.00     0.168 A 
ATOM     17  N   UNL A   1      32.974  22.699  24.190  1.00  0.00    -0.233 NA
ATOM     18  N   UNL A   1      32.400  24.375  25.727  1.00  0.00    -0.301 N 
ATOM     19  C   UNL A   1      31.977  21.937  24.741  1.00  0.00     0.120 A 
ATOM     20  C   UNL A   1      31.407  23.658  26.318  1.00  0.00     0.251 A 
ATOM     21  H   UNL A   1      32.595  25.281  26.056  1.00  0.00     0.172 HD
ATOM     22  C   UNL A   1      31.187  22.320  25.749  1.00  0.00     0.091 A 
ATOM     23  O   UNL A   1      30.732  24.075  27.251  1.00  0.00    -0.269 OA
ENDBRANCH  15  16
ENDBRANCH  10  15
ENDBRANCH   4   6
ENDBRANCH   3   4
ENDBRANCH   2   3
ENDBRANCH   1   2
BRANCH   1  24
ATOM     24  O   UNL A   1      33.103  30.338  26.253  1.00  0.00    -0.458 OA
BRANCH  24  25
ATOM     25  C   UNL A   1      33.446  31.381  27.052  1.00  0.00     0.338 C 
ATOM     26  O   UNL A   1      32.796  32.394  27.260  1.00  0.00    -0.246 OA
BRANCH  25  27
ATOM     27  C   UNL A   1      34.717  31.071  27.734  1.00  0.00     0.060 A 
ATOM     28  C   UNL A   1      34.929  29.770  28.203  1.00  0.00     0.016 A 
ATOM     29  C   UNL A   1      35.689  32.056  27.924  1.00  0.00     0.016 A 
ATOM     30  C   UNL A   1      36.136  29.437  28.818  1.00  0.00     0.010 A 
ATOM     31  C   UNL A   1      36.881  31.731  28.574  1.00  0.00     0.010 A 
ATOM     32  C   UNL A   1      37.111  30.420  29.021  1.00  0.00    -0.014 A 
BRANCH  32  33
ATOM     33  C   UNL A   1      38.321  30.106  29.811  1.00  0.00     0.031 A 
ATOM     34  C   UNL A   1      39.300  29.111  29.262  1.00  0.00     0.074 A 
ATOM     35  C   UNL A   1      38.533  30.685  31.005  1.00  0.00     0.049 A 
ATOM     36  N   UNL A   1      40.419  28.680  29.780  1.00  0.00    -0.248 NA
ATOM     37  C   UNL A   1      38.977  28.528  27.950  1.00  0.00     0.031 C 
ATOM     38  C   UNL A   1      37.657  31.677  31.629  1.00  0.00     0.029 A 
ATOM     39  N   UNL A   1      39.540  30.504  31.918  1.00  0.00    -0.354 N 
ATOM     40  C   UNL A   1      40.931  27.769  28.866  1.00  0.00     0.074 A 
ATOM     41  C   UNL A   1      39.997  27.705  27.762  1.00  0.00     0.031 C 
ATOM     42  C   UNL A   1      38.150  31.992  32.840  1.00  0.00     0.029 A 
ATOM     43  C   UNL A   1      39.360  31.208  33.085  1.00  0.00     0.049 A 
ATOM     44  H   UNL A   1      40.319  29.924  31.753  1.00  0.00     0.167 HD
ATOM     45  C   UNL A   1      42.076  27.052  28.939  1.00  0.00     0.034 A 
ATOM     46  C   UNL A   1      40.077  31.199  34.227  1.00  0.00     0.034 A 
ATOM     47  C   UNL A   1      42.980  27.092  30.054  1.00  0.00     0.049 A 
ATOM     48  C   UNL A   1      41.315  30.340  34.306  1.00  0.00     0.074 A 
ATOM     49  C   UNL A   1      44.173  26.411  30.219  1.00  0.00     0.029 A 
ATOM     50  N   UNL A   1      42.776  27.828  31.211  1.00  0.00    -0.354 N 
ATOM     51  N   UNL A   1      41.852  29.574  33.387  1.00  0.00    -0.248 NA
ATOM     52  C   UNL A   1      42.065  30.368  35.572  1.00  0.00     0.031 C 
ATOM     53  C   UNL A   1      44.667  26.700  31.495  1.00  0.00     0.029 A 
ATOM     54  C   UNL A   1      43.809  27.602  32.104  1.00  0.00     0.049 A 
ATOM     55  H   UNL A   1      42.009  28.424  31.374  1.00  0.00     0.167 HD
ATOM     56  C   UNL A   1      43.019  29.063  33.946  1.00  0.00     0.074 A 
ATOM     57  C   UNL A   1      43.121  29.621  35.279  1.00  0.00     0.031 C 
ATOM     58  C   UNL A   1      43.922  28.204  33.409  1.00  0.00     0.034 A 
BRANCH  45  59
ATOM     59  C   UNL A   1      42.401  26.152  27.777  1.00  0.00     0.023 A 
ATOM     60  C   UNL A   1      43.208  26.629  26.725  1.00  0.00     0.012 A 
ATOM     61  C   UNL A   1      41.931  24.825  27.743  1.00  0.00     0.148 A 
ATOM     62  C   UNL A   1      43.512  25.811  25.637  1.00  0.00     0.002 A 
ATOM     63  C   UNL A   1      42.275  24.002  26.679  1.00  0.00     0.091 A 
ATOM     64  F   UNL A   1      41.147  24.399  28.743  1.00  0.00    -0.205 F 
ATOM     65  C   UNL A   1      43.054  24.497  25.619  1.00  0.00     0.022 A 
BRANCH  63  66
ATOM     66  S   UNL A   1      41.795  22.274  26.596  1.00  0.00     0.127 S 
ATOM     67  O   UNL A   1      42.361  21.751  27.838  1.00  0.00    -0.237 OA
ATOM     68  O   UNL A   1      40.336  22.363  26.579  1.00  0.00    -0.237 OA
ATOM     69  O   UNL A   1      42.388  21.749  25.373  1.00  0.00    -0.744 OA
ENDBRANCH  63  66
ENDBRANCH  45  59
BRANCH  46  70
ATOM     70  C   UNL A   1      39.660  32.038  35.388  1.00  0.00     0.023 A 
ATOM     71  C   UNL A   1      40.114  33.368  35.488  1.00  0.00     0.012 A 
ATOM     72  C   UNL A   1      38.828  31.521  36.399  1.00  0.00     0.148 A 
ATOM     73  C   UNL A   1      39.781  34.153  36.593  1.00  0.00     0.002 A 
ATOM     74  C   UNL A   1      38.453  32.325  37.469  1.00  0.00     0.091 A 
ATOM     75  F   UNL A   1      38.417  30.249  36.295  1.00  0.00    -0.205 F 
ATOM     76  C   UNL A   1      38.944  33.636  37.578  1.00  0.00     0.022 A 
BRANCH  74  77
ATOM     77  S   UNL A   1      37.289  31.783  38.725  1.00  0.00     0.127 S 
ATOM     78  O   UNL A   1      36.177  32.710  38.523  1.00  0.00    -0.237 OA
ATOM     79  O   UNL A   1      37.026  30.405  38.313  1.00  0.00    -0.237 OA
ATOM     80  O   UNL A   1      37.991  31.909  39.995  1.00  0.00    -0.744 OA
ENDBRANCH  74  77
ENDBRANCH  46  70
BRANCH  58  81
ATOM     81  C   UNL A   1      45.131  27.845  34.235  1.00  0.00     0.023 A 
ATOM     82  C   UNL A   1      46.284  28.654  34.194  1.00  0.00     0.012 A 
ATOM     83  C   UNL A   1      45.090  26.747  35.118  1.00  0.00     0.148 A 
ATOM     84  C   UNL A   1      47.387  28.357  34.995  1.00  0.00     0.002 A 
ATOM     85  C   UNL A   1      46.171  26.490  35.952  1.00  0.00     0.091 A 
ATOM     86  F   UNL A   1      43.990  25.979  35.131  1.00  0.00    -0.205 F 
ATOM     87  C   UNL A   1      47.326  27.285  35.881  1.00  0.00     0.022 A 
BRANCH  85  88
ATOM     88  S   UNL A   1      46.140  25.196  37.198  1.00  0.00     0.127 S 
ATOM     89  O   UNL A   1      46.032  23.993  36.376  1.00  0.00    -0.237 OA
ATOM     90  O   UNL A   1      47.435  25.371  37.857  1.00  0.00    -0.237 OA
ATOM     91  O   UNL A   1      44.989  25.478  38.045  1.00  0.00    -0.744 OA
ENDBRANCH  85  88
ENDBRANCH  58  81
ENDBRANCH  32  33
ENDBRANCH  25  27
ENDBRANCH  24  25
ENDBRANCH   1  24
TORSDOF 17
ENDMDL
MODEL 3
REMARK VINA RESULT:     -11.4      5.521     10.107
REMARK SMILES C[NH2+][C@@]1(C(=O)OCCOC(=O)c2ccc(-c3c4nc(c(-c5cccc(S(=O)(=O)[O-])c5F)c5ccc([nH]5)c(-c5cccc(S(=O)(=O)[O-])c5F)c5nc(c(-c6cccc(S(=O)(=O)[O-])c6F)c6ccc3[nH]6)C=C5)C=C4)cc2)CC[C@H](Sc2nccc(=O)[nH]2)C1
REMARK SMILES IDX 8 1 7 2 6 3 4 4 5 5 3 6 75 7 86 8 76 9 77 10 2 11 1 12 78 15
REMARK SMILES IDX 79 16 80 17 85 18 81 19 83 20 82 22 84 23 9 24 10 25 11 26
REMARK SMILES IDX 12 27 13 28 74 29 14 30 73 31 15 32 16 33 17 34 67 35 18 36
REMARK SMILES IDX 72 37 66 38 68 39 19 40 71 41 65 42 64 43 20 45 52 46 32 47
REMARK SMILES IDX 51 48 33 49 36 50 50 51 69 52 34 53 35 54 49 56 70 57 37 58
REMARK SMILES IDX 21 59 22 60 30 61 23 62 25 63 31 64 24 65 26 66 27 67 28 68
REMARK SMILES IDX 29 69 53 70 54 71 62 72 55 73 57 74 63 75 56 76 58 77 59 78
REMARK SMILES IDX 60 79 61 80 38 81 39 82 47 83 40 84 42 85 48 86 41 87 43 88
REMARK SMILES IDX 44 89 45 90 46 91
REMARK H PARENT 2 13 2 14 85 21 68 44 36 55
REMARK Flexibility Score: inf
ROOT
ATOM      1  C   UNL A   1      36.876  21.125  24.563  1.00  0.00     0.275 C 
ENDROOT
BRANCH   1   2
ATOM      2  C   UNL A   1      36.255  22.338  23.875  1.00  0.00     0.274 C 
BRANCH   2   3
ATOM      3  O   UNL A   1      35.163  22.804  24.681  1.00  0.00    -0.457 OA
BRANCH   3   4
ATOM      4  C   UNL A   1      33.919  22.395  24.337  1.00  0.00     0.368 C 
ATOM      5  O   UNL A   1      33.481  22.422  23.191  1.00  0.00    -0.245 OA
BRANCH   4   6
ATOM      6  C   UNL A   1      33.101  21.894  25.568  1.00  0.00     0.195 C 
ATOM      7  C   UNL A   1      31.617  21.888  25.188  1.00  0.00     0.082 C 
ATOM      8  C   UNL A   1      33.082  22.876  26.762  1.00  0.00     0.096 C 
ATOM      9  C   UNL A   1      31.241  23.370  25.237  1.00  0.00     0.022 C 
ATOM     10  C   UNL A   1      32.027  23.949  26.424  1.00  0.00     0.062 C 
BRANCH   6  11
ATOM     11  N   UNL A   1      33.568  20.580  26.073  1.00  0.00    -0.335 N 
ATOM     12  C   UNL A   1      32.960  19.393  25.487  1.00  0.00     0.331 C 
ATOM     13  H   UNL A   1      34.573  20.525  25.907  1.00  0.00     0.347 HD
ATOM     14  H   UNL A   1      33.293  20.561  27.055  1.00  0.00     0.347 HD
ENDBRANCH   6  11
BRANCH  10  15
ATOM     15  S   UNL A   1      32.841  25.554  26.127  1.00  0.00    -0.084 SA
BRANCH  15  16
ATOM     16  C   UNL A   1      32.269  26.021  24.567  1.00  0.00     0.168 A 
ATOM     17  N   UNL A   1      31.160  26.643  24.355  1.00  0.00    -0.233 NA
ATOM     18  N   UNL A   1      33.136  25.640  23.590  1.00  0.00    -0.301 N 
ATOM     19  C   UNL A   1      30.851  26.895  23.043  1.00  0.00     0.120 A 
ATOM     20  C   UNL A   1      32.886  25.874  22.275  1.00  0.00     0.251 A 
ATOM     21  H   UNL A   1      33.968  25.180  23.843  1.00  0.00     0.172 HD
ATOM     22  C   UNL A   1      31.614  26.560  21.999  1.00  0.00     0.091 A 
ATOM     23  O   UNL A   1      33.646  25.547  21.371  1.00  0.00    -0.269 OA
ENDBRANCH  15  16
ENDBRANCH  10  15
ENDBRANCH   4   6
ENDBRANCH   3   4
ENDBRANCH   2   3
ENDBRANCH   1   2
BRANCH   1  24
ATOM     24  O   UNL A   1      37.369  21.489  25.866  1.00  0.00    -0.458 OA
BRANCH  24  25
ATOM     25  C   UNL A   1      38.681  21.217  26.090  1.00  0.00     0.338 C 
ATOM     26  O   UNL A   1      39.254  20.154  25.910  1.00  0.00    -0.246 OA
BRANCH  25  27
ATOM     27  C   UNL A   1      39.366  22.453  26.512  1.00  0.00     0.060 A 
ATOM     28  C   UNL A   1      38.913  23.678  26.010  1.00  0.00     0.016 A 
ATOM     29  C   UNL A   1      40.456  22.409  27.384  1.00  0.00     0.016 A 
ATOM     30  C   UNL A   1      39.516  24.867  26.419  1.00  0.00     0.010 A 
ATOM     31  C   UNL A   1      41.083  23.597  27.763  1.00  0.00     0.010 A 
ATOM     32  C   UNL A   1      40.614  24.831  27.285  1.00  0.00    -0.014 A 
BRANCH  32  33
ATOM     33  C   UNL A   1      41.350  26.076  27.594  1.00  0.00     0.031 A 
ATOM     34  C   UNL A   1      40.656  27.147  28.382  1.00  0.00     0.074 A 
ATOM     35  C   UNL A   1      42.612  26.255  27.163  1.00  0.00     0.049 A 
ATOM     36  N   UNL A   1      41.101  28.314  28.762  1.00  0.00    -0.248 NA
ATOM     37  C   UNL A   1      39.275  26.859  28.804  1.00  0.00     0.031 C 
ATOM     38  C   UNL A   1      43.390  25.277  26.403  1.00  0.00     0.029 A 
ATOM     39  N   UNL A   1      43.451  27.334  27.283  1.00  0.00    -0.354 N 
ATOM     40  C   UNL A   1      40.056  28.907  29.458  1.00  0.00     0.074 A 
ATOM     41  C   UNL A   1      38.952  27.972  29.444  1.00  0.00     0.031 C 
ATOM     42  C   UNL A   1      44.583  25.815  26.095  1.00  0.00     0.029 A 
ATOM     43  C   UNL A   1      44.643  27.181  26.615  1.00  0.00     0.049 A 
ATOM     44  H   UNL A   1      43.220  28.140  27.798  1.00  0.00     0.167 HD
ATOM     45  C   UNL A   1      40.020  30.120  30.056  1.00  0.00     0.034 A 
ATOM     46  C   UNL A   1      45.653  28.055  26.427  1.00  0.00     0.034 A 
ATOM     47  C   UNL A   1      41.107  31.060  30.034  1.00  0.00     0.049 A 
ATOM     48  C   UNL A   1      45.560  29.426  27.051  1.00  0.00     0.074 A 
ATOM     49  C   UNL A   1      41.173  32.312  30.620  1.00  0.00     0.029 A 
ATOM     50  N   UNL A   1      42.305  30.867  29.364  1.00  0.00    -0.354 N 
ATOM     51  N   UNL A   1      44.614  29.928  27.808  1.00  0.00    -0.248 NA
ATOM     52  C   UNL A   1      46.688  30.340  26.819  1.00  0.00     0.031 C 
ATOM     53  C   UNL A   1      42.394  32.894  30.266  1.00  0.00     0.029 A 
ATOM     54  C   UNL A   1      43.110  31.984  29.504  1.00  0.00     0.049 A 
ATOM     55  H   UNL A   1      42.548  30.055  28.864  1.00  0.00     0.167 HD
ATOM     56  C   UNL A   1      45.051  31.198  28.175  1.00  0.00     0.074 A 
ATOM     57  C   UNL A   1      46.355  31.380  27.572  1.00  0.00     0.031 C 
ATOM     58  C   UNL A   1      44.428  32.131  28.937  1.00  0.00     0.034 A 
BRANCH  45  59
ATOM     59  C   UNL A   1      38.753  30.499  30.773  1.00  0.00     0.023 A 
ATOM     60  C   UNL A   1      38.596  30.181  32.137  1.00  0.00     0.012 A 
ATOM     61  C   UNL A   1      37.728  31.195  30.102  1.00  0.00     0.148 A 
ATOM     62  C   UNL A   1      37.424  30.517  32.814  1.00  0.00     0.002 A 
ATOM     63  C   UNL A   1      36.583  31.566  30.794  1.00  0.00     0.091 A 
ATOM     64  F   UNL A   1      37.888  31.467  28.799  1.00  0.00    -0.205 F 
ATOM     65  C   UNL A   1      36.423  31.217  32.146  1.00  0.00     0.022 A 
BRANCH  63  66
ATOM     66  S   UNL A   1      35.268  32.531  30.044  1.00  0.00     0.127 S 
ATOM     67  O   UNL A   1      34.352  32.707  31.170  1.00  0.00    -0.237 OA
ATOM     68  O   UNL A   1      35.974  33.745  29.636  1.00  0.00    -0.237 OA
ATOM     69  O   UNL A   1      34.754  31.726  28.944  1.00  0.00    -0.744 OA
ENDBRANCH  63  66
ENDBRANCH  45  59
BRANCH  46  70
ATOM     70  C   UNL A   1      46.850  27.664  25.627  1.00  0.00     0.023 A 
ATOM     71  C   UNL A   1      46.853  27.860  24.232  1.00  0.00     0.012 A 
ATOM     72  C   UNL A   1      47.978  27.086  26.240  1.00  0.00     0.148 A 
ATOM     73  C   UNL A   1      47.940  27.451  23.458  1.00  0.00     0.002 A 
ATOM     74  C   UNL A   1      49.081  26.733  25.471  1.00  0.00     0.091 A 
ATOM     75  F   UNL A   1      47.951  26.893  27.567  1.00  0.00    -0.205 F 
ATOM     76  C   UNL A   1      49.057  26.896  24.077  1.00  0.00     0.022 A 
BRANCH  74  77
ATOM     77  S   UNL A   1      50.606  26.117  26.193  1.00  0.00     0.127 S 
ATOM     78  O   UNL A   1      51.456  25.965  25.014  1.00  0.00    -0.237 OA
ATOM     79  O   UNL A   1      50.979  27.215  27.085  1.00  0.00    -0.237 OA
ATOM     80  O   UNL A   1      50.249  24.881  26.876  1.00  0.00    -0.744 OA
ENDBRANCH  74  77
ENDBRANCH  46  70
BRANCH  58  81
ATOM     81  C   UNL A   1      45.159  33.421  29.211  1.00  0.00     0.023 A 
ATOM     82  C   UNL A   1      45.993  33.538  30.340  1.00  0.00     0.012 A 
ATOM     83  C   UNL A   1      45.082  34.491  28.296  1.00  0.00     0.148 A 
ATOM     84  C   UNL A   1      46.713  34.711  30.571  1.00  0.00     0.002 A 
ATOM     85  C   UNL A   1      45.844  35.634  28.504  1.00  0.00     0.091 A 
ATOM     86  F   UNL A   1      44.269  34.367  27.236  1.00  0.00    -0.205 F 
ATOM     87  C   UNL A   1      46.649  35.751  29.648  1.00  0.00     0.022 A 
BRANCH  85  88
ATOM     88  S   UNL A   1      45.906  36.980  27.316  1.00  0.00     0.127 S 
ATOM     89  O   UNL A   1      44.510  37.415  27.286  1.00  0.00    -0.237 OA
ATOM     90  O   UNL A   1      46.823  37.920  27.961  1.00  0.00    -0.237 OA
ATOM     91  O   UNL A   1      46.404  36.402  26.076  1.00  0.00    -0.744 OA
ENDBRANCH  85  88
ENDBRANCH  58  81
ENDBRANCH  32  33
ENDBRANCH  25  27
ENDBRANCH  24  25
ENDBRANCH   1  24
TORSDOF 17
ENDMDL
