MODEL 1
REMARK VINA RESULT:     -15.2      0.000      0.000
REMARK SMILES O=C(OCCOC(=O)c1ccc(-c2c3nc(c(-c4cccc(S(=O)(=O)[O-])c4F)c4ccc([nH]4)c(-c4cccc(S(=O)(=O)[O-])c4F)c4nc(c(-c5cccc(S(=O)(=O)[O-])c5F)c5ccc2[nH]5)C=C4)C=C3)cc1)C1=Cc2cc(Cl)cc(-c3ccc(Cl)cc3)c2O[C@@H]1C(F)(F)F
REMARK SMILES IDX 5 1 4 2 3 3 2 4 1 5 72 6 73 7 89 8 74 9 88 10 75 11 87 12
REMARK SMILES IDX 76 13 79 14 77 15 78 16 90 17 91 18 92 19 93 20 80 21 81 22
REMARK SMILES IDX 86 23 82 24 85 25 83 26 84 27 6 28 7 29 8 30 9 31 10 32
REMARK SMILES IDX 71 33 11 34 70 35 12 36 13 37 14 38 64 39 15 40 69 41 63 42
REMARK SMILES IDX 65 43 16 44 68 45 62 46 61 47 17 49 49 50 29 51 48 52 30 53
REMARK SMILES IDX 33 54 47 55 66 56 31 57 32 58 46 60 67 61 34 62 18 63 19 64
REMARK SMILES IDX 27 65 20 66 22 67 28 68 21 69 23 70 24 71 25 72 26 73 50 74
REMARK SMILES IDX 51 75 59 76 52 77 54 78 60 79 53 80 55 81 56 82 57 83 58 84
REMARK SMILES IDX 35 85 36 86 44 87 37 88 39 89 45 90 38 91 40 92 41 93 42 94
REMARK SMILES IDX 43 95
REMARK H PARENT 65 48 33 59
REMARK Flexibility Score: inf
ROOT
ATOM      1  C   UNL A   1      31.872  29.743  26.575  1.00  0.00     0.275 C 
ENDROOT
BRANCH   1   2
ATOM      2  C   UNL A   1      31.686  27.612  26.904  1.00  0.00     0.275 C 
BRANCH   2   3
ATOM      3  O   UNL A   1      32.715  26.518  26.502  1.00  0.00    -0.459 OA
BRANCH   3   4
ATOM      4  C   UNL A   1      32.163  25.309  26.330  1.00  0.00     0.338 C 
ATOM      5  O   UNL A   1      31.634  24.586  27.134  1.00  0.00    -0.246 OA
BRANCH   4   6
ATOM      6  C   UNL A   1      32.782  25.071  25.047  1.00  0.00     0.087 C 
ATOM      7  C   UNL A   1      34.218  24.858  25.144  1.00  0.00     0.027 C 
ATOM      8  C   UNL A   1      31.489  23.777  24.443  1.00  0.00     0.316 C 
ATOM      9  C   UNL A   1      34.990  23.258  24.900  1.00  0.00     0.019 A 
ATOM     10  O   UNL A   1      32.287  22.019  24.255  1.00  0.00    -0.475 OA
ATOM     11  C   UNL A   1      36.318  23.184  25.224  1.00  0.00     0.032 A 
ATOM     12  C   UNL A   1      34.077  21.807  24.580  1.00  0.00     0.135 A 
ATOM     13  C   UNL A   1      36.831  21.892  25.285  1.00  0.00     0.042 A 
ATOM     14  C   UNL A   1      34.664  20.568  24.732  1.00  0.00     0.026 A 
ATOM     15  Cl  UNL A   1      38.495  21.725  25.744  1.00  0.00    -0.084 Cl
ATOM     16  C   UNL A   1      36.062  20.685  25.064  1.00  0.00     0.033 A 
BRANCH   8  17
ATOM     17  C   UNL A   1      30.761  24.815  23.470  1.00  0.00     0.430 C 
ATOM     18  F   UNL A   1      31.580  25.216  22.488  1.00  0.00    -0.167 F 
ATOM     19  F   UNL A   1      29.759  24.168  22.794  1.00  0.00    -0.167 F 
ATOM     20  F   UNL A   1      30.105  25.847  24.020  1.00  0.00    -0.167 F 
ENDBRANCH   8  17
BRANCH  14  21
ATOM     21  C   UNL A   1      34.100  19.225  24.749  1.00  0.00    -0.015 A 
ATOM     22  C   UNL A   1      32.917  18.992  25.486  1.00  0.00     0.010 A 
ATOM     23  C   UNL A   1      34.816  18.121  24.280  1.00  0.00     0.010 A 
ATOM     24  C   UNL A   1      32.473  17.697  25.760  1.00  0.00     0.021 A 
ATOM     25  C   UNL A   1      34.373  16.820  24.555  1.00  0.00     0.021 A 
ATOM     26  C   UNL A   1      33.210  16.614  25.296  1.00  0.00     0.041 A 
ATOM     27  Cl  UNL A   1      32.694  15.015  25.670  1.00  0.00    -0.084 Cl
ENDBRANCH  14  21
ENDBRANCH   4   6
ENDBRANCH   3   4
ENDBRANCH   2   3
ENDBRANCH   1   2
BRANCH   1  28
ATOM     28  O   UNL A   1      32.775  30.837  27.588  1.00  0.00    -0.458 OA
BRANCH  28  29
ATOM     29  C   UNL A   1      33.676  31.878  27.584  1.00  0.00     0.338 C 
ATOM     30  O   UNL A   1      33.487  33.061  27.800  1.00  0.00    -0.246 OA
BRANCH  29  31
ATOM     31  C   UNL A   1      35.045  31.255  27.676  1.00  0.00     0.060 A 
ATOM     32  C   UNL A   1      36.141  32.079  27.999  1.00  0.00     0.016 A 
ATOM     33  C   UNL A   1      35.163  29.876  27.840  1.00  0.00     0.016 A 
ATOM     34  C   UNL A   1      37.231  31.549  28.725  1.00  0.00     0.010 A 
ATOM     35  C   UNL A   1      36.256  29.353  28.547  1.00  0.00     0.010 A 
ATOM     36  C   UNL A   1      37.253  30.192  29.078  1.00  0.00    -0.014 A 
BRANCH  36  37
ATOM     37  C   UNL A   1      38.394  29.577  29.819  1.00  0.00     0.031 A 
ATOM     38  C   UNL A   1      38.606  30.071  31.219  1.00  0.00     0.074 A 
ATOM     39  C   UNL A   1      39.289  28.722  29.272  1.00  0.00     0.049 A 
ATOM     40  N   UNL A   1      39.570  29.817  32.059  1.00  0.00    -0.248 NA
ATOM     41  C   UNL A   1      37.593  31.018  31.721  1.00  0.00     0.031 C 
ATOM     42  C   UNL A   1      39.243  28.173  27.918  1.00  0.00     0.029 A 
ATOM     43  N   UNL A   1      40.455  28.188  29.793  1.00  0.00    -0.354 N 
ATOM     44  C   UNL A   1      39.300  30.595  33.175  1.00  0.00     0.074 A 
ATOM     45  C   UNL A   1      38.101  31.351  32.894  1.00  0.00     0.031 C 
ATOM     46  C   UNL A   1      40.338  27.411  27.704  1.00  0.00     0.029 A 
ATOM     47  C   UNL A   1      41.181  27.424  28.899  1.00  0.00     0.049 A 
ATOM     48  H   UNL A   1      40.743  28.342  30.722  1.00  0.00     0.167 HD
ATOM     49  C   UNL A   1      39.973  30.671  34.343  1.00  0.00     0.034 A 
ATOM     50  C   UNL A   1      42.383  26.815  29.030  1.00  0.00     0.034 A 
ATOM     51  C   UNL A   1      41.166  29.937  34.634  1.00  0.00     0.049 A 
ATOM     52  C   UNL A   1      43.124  26.925  30.352  1.00  0.00     0.074 A 
ATOM     53  C   UNL A   1      41.896  29.918  35.807  1.00  0.00     0.029 A 
ATOM     54  N   UNL A   1      41.819  29.111  33.735  1.00  0.00    -0.354 N 
ATOM     55  N   UNL A   1      42.763  27.533  31.458  1.00  0.00    -0.248 NA
ATOM     56  C   UNL A   1      44.424  26.237  30.456  1.00  0.00     0.031 C 
ATOM     57  C   UNL A   1      43.010  29.099  35.607  1.00  0.00     0.029 A 
ATOM     58  C   UNL A   1      42.951  28.580  34.324  1.00  0.00     0.049 A 
ATOM     59  H   UNL A   1      41.522  28.929  32.814  1.00  0.00     0.167 HD
ATOM     60  C   UNL A   1      43.759  27.258  32.392  1.00  0.00     0.074 A 
ATOM     61  C   UNL A   1      44.732  26.415  31.734  1.00  0.00     0.031 C 
ATOM     62  C   UNL A   1      43.869  27.678  33.678  1.00  0.00     0.034 A 
BRANCH  49  63
ATOM     63  C   UNL A   1      39.400  31.582  35.388  1.00  0.00     0.023 A 
ATOM     64  C   UNL A   1      38.402  31.097  36.258  1.00  0.00     0.012 A 
ATOM     65  C   UNL A   1      39.830  32.915  35.494  1.00  0.00     0.148 A 
ATOM     66  C   UNL A   1      37.803  31.943  37.189  1.00  0.00     0.002 A 
ATOM     67  C   UNL A   1      39.266  33.738  36.458  1.00  0.00     0.091 A 
ATOM     68  F   UNL A   1      40.759  33.357  34.635  1.00  0.00    -0.205 F 
ATOM     69  C   UNL A   1      38.242  33.260  37.293  1.00  0.00     0.022 A 
BRANCH  67  70
ATOM     70  S   UNL A   1      39.804  35.430  36.723  1.00  0.00     0.127 S 
ATOM     71  O   UNL A   1      39.014  35.810  37.893  1.00  0.00    -0.237 OA
ATOM     72  O   UNL A   1      41.233  35.254  36.981  1.00  0.00    -0.237 OA
ATOM     73  O   UNL A   1      39.486  36.152  35.500  1.00  0.00    -0.744 OA
ENDBRANCH  67  70
ENDBRANCH  49  63
BRANCH  50  74
ATOM     74  C   UNL A   1      42.991  26.001  27.924  1.00  0.00     0.023 A 
ATOM     75  C   UNL A   1      43.792  26.645  26.955  1.00  0.00     0.012 A 
ATOM     76  C   UNL A   1      42.714  24.629  27.764  1.00  0.00     0.148 A 
ATOM     77  C   UNL A   1      44.253  25.959  25.827  1.00  0.00     0.002 A 
ATOM     78  C   UNL A   1      43.220  23.938  26.662  1.00  0.00     0.091 A 
ATOM     79  F   UNL A   1      41.935  24.028  28.673  1.00  0.00    -0.205 F 
ATOM     80  C   UNL A   1      43.970  24.606  25.682  1.00  0.00     0.022 A 
BRANCH  78  81
ATOM     81  S   UNL A   1      42.988  22.170  26.429  1.00  0.00     0.127 S 
ATOM     82  O   UNL A   1      42.662  21.727  27.783  1.00  0.00    -0.237 OA
ATOM     83  O   UNL A   1      41.869  22.133  25.486  1.00  0.00    -0.237 OA
ATOM     84  O   UNL A   1      44.246  21.674  25.890  1.00  0.00    -0.744 OA
ENDBRANCH  78  81
ENDBRANCH  50  74
BRANCH  62  85
ATOM     85  C   UNL A   1      45.038  27.195  34.498  1.00  0.00     0.023 A 
ATOM     86  C   UNL A   1      46.242  27.924  34.510  1.00  0.00     0.012 A 
ATOM     87  C   UNL A   1      44.891  26.086  35.356  1.00  0.00     0.148 A 
ATOM     88  C   UNL A   1      47.291  27.543  35.348  1.00  0.00     0.002 A 
ATOM     89  C   UNL A   1      45.919  25.747  36.227  1.00  0.00     0.091 A 
ATOM     90  F   UNL A   1      43.743  25.396  35.318  1.00  0.00    -0.205 F 
ATOM     91  C   UNL A   1      47.124  26.467  36.216  1.00  0.00     0.022 A 
BRANCH  89  92
ATOM     92  S   UNL A   1      45.748  24.450  37.460  1.00  0.00     0.127 S 
ATOM     93  O   UNL A   1      44.665  24.971  38.292  1.00  0.00    -0.237 OA
ATOM     94  O   UNL A   1      45.387  23.291  36.642  1.00  0.00    -0.237 OA
ATOM     95  O   UNL A   1      47.044  24.345  38.117  1.00  0.00    -0.744 OA
ENDBRANCH  89  92
ENDBRANCH  62  85
ENDBRANCH  36  37
ENDBRANCH  29  31
ENDBRANCH  28  29
ENDBRANCH   1  28
TORSDOF 16
ENDMDL
MODEL 2
REMARK VINA RESULT:     -15.0      1.898      7.455
REMARK SMILES O=C(OCCOC(=O)c1ccc(-c2c3nc(c(-c4cccc(S(=O)(=O)[O-])c4F)c4ccc([nH]4)c(-c4cccc(S(=O)(=O)[O-])c4F)c4nc(c(-c5cccc(S(=O)(=O)[O-])c5F)c5ccc2[nH]5)C=C4)C=C3)cc1)C1=Cc2cc(Cl)cc(-c3ccc(Cl)cc3)c2O[C@@H]1C(F)(F)F
REMARK SMILES IDX 5 1 4 2 3 3 2 4 1 5 72 6 73 7 89 8 74 9 88 10 75 11 87 12
REMARK SMILES IDX 76 13 79 14 77 15 78 16 90 17 91 18 92 19 93 20 80 21 81 22
REMARK SMILES IDX 86 23 82 24 85 25 83 26 84 27 6 28 7 29 8 30 9 31 10 32
REMARK SMILES IDX 71 33 11 34 70 35 12 36 13 37 14 38 64 39 15 40 69 41 63 42
REMARK SMILES IDX 65 43 16 44 68 45 62 46 61 47 17 49 49 50 29 51 48 52 30 53
REMARK SMILES IDX 33 54 47 55 66 56 31 57 32 58 46 60 67 61 34 62 18 63 19 64
REMARK SMILES IDX 27 65 20 66 22 67 28 68 21 69 23 70 24 71 25 72 26 73 50 74
REMARK SMILES IDX 51 75 59 76 52 77 54 78 60 79 53 80 55 81 56 82 57 83 58 84
REMARK SMILES IDX 35 85 36 86 44 87 37 88 39 89 45 90 38 91 40 92 41 93 42 94
REMARK SMILES IDX 43 95
REMARK H PARENT 65 48 33 59
REMARK Flexibility Score: inf
ROOT
ATOM      1  C   UNL A   1      31.549  29.577  26.740  1.00  0.00     0.275 C 
ENDROOT
BRANCH   1   2
ATOM      2  C   UNL A   1      31.405  27.420  26.623  1.00  0.00     0.275 C 
BRANCH   2   3
ATOM      3  O   UNL A   1      32.584  26.419  26.465  1.00  0.00    -0.459 OA
BRANCH   3   4
ATOM      4  C   UNL A   1      32.184  25.145  26.346  1.00  0.00     0.338 C 
ATOM      5  O   UNL A   1      31.742  24.400  27.180  1.00  0.00    -0.246 OA
BRANCH   4   6
ATOM      6  C   UNL A   1      32.837  24.928  25.076  1.00  0.00     0.087 C 
ATOM      7  C   UNL A   1      34.270  24.708  25.208  1.00  0.00     0.027 C 
ATOM      8  C   UNL A   1      31.557  23.650  24.414  1.00  0.00     0.316 C 
ATOM      9  C   UNL A   1      35.043  23.109  24.956  1.00  0.00     0.019 A 
ATOM     10  O   UNL A   1      32.354  21.892  24.217  1.00  0.00    -0.475 OA
ATOM     11  C   UNL A   1      36.362  23.025  25.315  1.00  0.00     0.032 A 
ATOM     12  C   UNL A   1      34.134  21.667  24.585  1.00  0.00     0.135 A 
ATOM     13  C   UNL A   1      36.868  21.730  25.367  1.00  0.00     0.042 A 
ATOM     14  C   UNL A   1      34.713  20.424  24.732  1.00  0.00     0.026 A 
ATOM     15  Cl  UNL A   1      38.518  21.548  25.867  1.00  0.00    -0.084 Cl
ATOM     16  C   UNL A   1      36.102  20.530  25.103  1.00  0.00     0.033 A 
BRANCH   8  17
ATOM     17  C   UNL A   1      30.858  24.707  23.440  1.00  0.00     0.430 C 
ATOM     18  F   UNL A   1      31.629  24.967  22.375  1.00  0.00    -0.167 F 
ATOM     19  F   UNL A   1      29.743  24.136  22.886  1.00  0.00    -0.167 F 
ATOM     20  F   UNL A   1      30.360  25.831  23.977  1.00  0.00    -0.167 F 
ENDBRANCH   8  17
BRANCH  14  21
ATOM     21  C   UNL A   1      34.144  19.083  24.709  1.00  0.00    -0.015 A 
ATOM     22  C   UNL A   1      32.940  18.842  25.409  1.00  0.00     0.010 A 
ATOM     23  C   UNL A   1      34.870  17.984  24.241  1.00  0.00     0.010 A 
ATOM     24  C   UNL A   1      32.485  17.544  25.648  1.00  0.00     0.021 A 
ATOM     25  C   UNL A   1      34.415  16.681  24.481  1.00  0.00     0.021 A 
ATOM     26  C   UNL A   1      33.230  16.466  25.186  1.00  0.00     0.041 A 
ATOM     27  Cl  UNL A   1      32.700  14.863  25.517  1.00  0.00    -0.084 Cl
ENDBRANCH  14  21
ENDBRANCH   4   6
ENDBRANCH   3   4
ENDBRANCH   2   3
ENDBRANCH   1   2
BRANCH   1  28
ATOM     28  O   UNL A   1      33.039  30.476  26.845  1.00  0.00    -0.458 OA
BRANCH  28  29
ATOM     29  C   UNL A   1      33.613  31.636  27.313  1.00  0.00     0.338 C 
ATOM     30  O   UNL A   1      33.077  32.657  27.706  1.00  0.00    -0.246 OA
BRANCH  29  31
ATOM     31  C   UNL A   1      35.039  31.294  27.662  1.00  0.00     0.060 A 
ATOM     32  C   UNL A   1      35.957  32.345  27.851  1.00  0.00     0.016 A 
ATOM     33  C   UNL A   1      35.337  30.032  28.173  1.00  0.00     0.016 A 
ATOM     34  C   UNL A   1      37.023  32.193  28.767  1.00  0.00     0.010 A 
ATOM     35  C   UNL A   1      36.406  29.883  29.069  1.00  0.00     0.010 A 
ATOM     36  C   UNL A   1      37.201  30.979  29.448  1.00  0.00    -0.014 A 
BRANCH  36  37
ATOM     37  C   UNL A   1      38.328  30.758  30.404  1.00  0.00     0.031 A 
ATOM     38  C   UNL A   1      39.357  29.754  29.978  1.00  0.00     0.074 A 
ATOM     39  C   UNL A   1      38.399  31.302  31.640  1.00  0.00     0.049 A 
ATOM     40  N   UNL A   1      40.373  29.269  30.636  1.00  0.00    -0.248 NA
ATOM     41  C   UNL A   1      39.184  29.197  28.625  1.00  0.00     0.031 C 
ATOM     42  C   UNL A   1      37.463  32.269  32.215  1.00  0.00     0.029 A 
ATOM     43  N   UNL A   1      39.300  31.083  32.667  1.00  0.00    -0.354 N 
ATOM     44  C   UNL A   1      40.941  28.327  29.790  1.00  0.00     0.074 A 
ATOM     45  C   UNL A   1      40.141  28.288  28.588  1.00  0.00     0.031 C 
ATOM     46  C   UNL A   1      37.817  32.533  33.491  1.00  0.00     0.029 A 
ATOM     47  C   UNL A   1      38.999  31.746  33.842  1.00  0.00     0.049 A 
ATOM     48  H   UNL A   1      40.090  30.502  32.569  1.00  0.00     0.167 HD
ATOM     49  C   UNL A   1      42.041  27.567  29.979  1.00  0.00     0.034 A 
ATOM     50  C   UNL A   1      39.602  31.714  35.054  1.00  0.00     0.034 A 
ATOM     51  C   UNL A   1      42.839  27.586  31.167  1.00  0.00     0.049 A 
ATOM     52  C   UNL A   1      40.832  30.843  35.242  1.00  0.00     0.074 A 
ATOM     53  C   UNL A   1      43.997  26.881  31.434  1.00  0.00     0.029 A 
ATOM     54  N   UNL A   1      42.549  28.333  32.297  1.00  0.00    -0.354 N 
ATOM     55  N   UNL A   1      41.453  30.084  34.369  1.00  0.00    -0.248 NA
ATOM     56  C   UNL A   1      41.464  30.847  36.574  1.00  0.00     0.031 C 
ATOM     57  C   UNL A   1      44.393  27.180  32.740  1.00  0.00     0.029 A 
ATOM     58  C   UNL A   1      43.502  28.100  33.269  1.00  0.00     0.049 A 
ATOM     59  H   UNL A   1      41.778  28.939  32.392  1.00  0.00     0.167 HD
ATOM     60  C   UNL A   1      42.567  29.569  35.029  1.00  0.00     0.074 A 
ATOM     61  C   UNL A   1      42.549  30.111  36.370  1.00  0.00     0.031 C 
ATOM     62  C   UNL A   1      43.513  28.711  34.573  1.00  0.00     0.034 A 
BRANCH  49  63
ATOM     63  C   UNL A   1      42.434  26.664  28.848  1.00  0.00     0.023 A 
ATOM     64  C   UNL A   1      41.808  25.408  28.714  1.00  0.00     0.012 A 
ATOM     65  C   UNL A   1      43.433  27.047  27.937  1.00  0.00     0.148 A 
ATOM     66  C   UNL A   1      42.207  24.522  27.715  1.00  0.00     0.002 A 
ATOM     67  C   UNL A   1      43.789  26.181  26.913  1.00  0.00     0.091 A 
ATOM     68  F   UNL A   1      44.032  28.234  28.105  1.00  0.00    -0.205 F 
ATOM     69  C   UNL A   1      43.191  24.913  26.811  1.00  0.00     0.022 A 
BRANCH  67  70
ATOM     70  S   UNL A   1      44.995  26.610  25.656  1.00  0.00     0.127 S 
ATOM     71  O   UNL A   1      46.220  26.718  26.446  1.00  0.00    -0.237 OA
ATOM     72  O   UNL A   1      44.937  25.446  24.773  1.00  0.00    -0.237 OA
ATOM     73  O   UNL A   1      44.533  27.856  25.060  1.00  0.00    -0.744 OA
ENDBRANCH  67  70
ENDBRANCH  49  63
BRANCH  50  74
ATOM     74  C   UNL A   1      39.117  32.543  36.209  1.00  0.00     0.023 A 
ATOM     75  C   UNL A   1      39.602  33.861  36.363  1.00  0.00     0.012 A 
ATOM     76  C   UNL A   1      38.263  32.021  37.200  1.00  0.00     0.148 A 
ATOM     77  C   UNL A   1      39.298  34.615  37.500  1.00  0.00     0.002 A 
ATOM     78  C   UNL A   1      37.921  32.797  38.309  1.00  0.00     0.091 A 
ATOM     79  F   UNL A   1      37.823  30.763  37.062  1.00  0.00    -0.205 F 
ATOM     80  C   UNL A   1      38.455  34.085  38.471  1.00  0.00     0.022 A 
BRANCH  78  81
ATOM     81  S   UNL A   1      36.770  32.240  39.572  1.00  0.00     0.127 S 
ATOM     82  O   UNL A   1      36.995  33.213  40.637  1.00  0.00    -0.237 OA
ATOM     83  O   UNL A   1      35.483  32.368  38.887  1.00  0.00    -0.237 OA
ATOM     84  O   UNL A   1      37.154  30.869  39.879  1.00  0.00    -0.744 OA
ENDBRANCH  78  81
ENDBRANCH  50  74
BRANCH  62  85
ATOM     85  C   UNL A   1      44.652  28.340  35.489  1.00  0.00     0.023 A 
ATOM     86  C   UNL A   1      45.855  29.072  35.454  1.00  0.00     0.012 A 
ATOM     87  C   UNL A   1      44.476  27.344  36.472  1.00  0.00     0.148 A 
ATOM     88  C   UNL A   1      46.873  28.803  36.369  1.00  0.00     0.002 A 
ATOM     89  C   UNL A   1      45.472  27.122  37.414  1.00  0.00     0.091 A 
ATOM     90  F   UNL A   1      43.330  26.648  36.478  1.00  0.00    -0.205 F 
ATOM     91  C   UNL A   1      46.675  27.841  37.358  1.00  0.00     0.022 A 
BRANCH  89  92
ATOM     92  S   UNL A   1      45.258  25.986  38.791  1.00  0.00     0.127 S 
ATOM     93  O   UNL A   1      46.552  26.086  39.463  1.00  0.00    -0.237 OA
ATOM     94  O   UNL A   1      44.142  26.590  39.520  1.00  0.00    -0.237 OA
ATOM     95  O   UNL A   1      44.960  24.688  38.200  1.00  0.00    -0.744 OA
ENDBRANCH  89  92
ENDBRANCH  62  85
ENDBRANCH  36  37
ENDBRANCH  29  31
ENDBRANCH  28  29
ENDBRANCH   1  28
TORSDOF 16
ENDMDL
MODEL 3
REMARK VINA RESULT:     -14.9      1.725      2.085
REMARK SMILES O=C(OCCOC(=O)c1ccc(-c2c3nc(c(-c4cccc(S(=O)(=O)[O-])c4F)c4ccc([nH]4)c(-c4cccc(S(=O)(=O)[O-])c4F)c4nc(c(-c5cccc(S(=O)(=O)[O-])c5F)c5ccc2[nH]5)C=C4)C=C3)cc1)C1=Cc2cc(Cl)cc(-c3ccc(Cl)cc3)c2O[C@@H]1C(F)(F)F
REMARK SMILES IDX 5 1 4 2 3 3 2 4 1 5 72 6 73 7 89 8 74 9 88 10 75 11 87 12
REMARK SMILES IDX 76 13 79 14 77 15 78 16 90 17 91 18 92 19 93 20 80 21 81 22
REMARK SMILES IDX 86 23 82 24 85 25 83 26 84 27 6 28 7 29 8 30 9 31 10 32
REMARK SMILES IDX 71 33 11 34 70 35 12 36 13 37 14 38 64 39 15 40 69 41 63 42
REMARK SMILES IDX 65 43 16 44 68 45 62 46 61 47 17 49 49 50 29 51 48 52 30 53
REMARK SMILES IDX 33 54 47 55 66 56 31 57 32 58 46 60 67 61 34 62 18 63 19 64
REMARK SMILES IDX 27 65 20 66 22 67 28 68 21 69 23 70 24 71 25 72 26 73 50 74
REMARK SMILES IDX 51 75 59 76 52 77 54 78 60 79 53 80 55 81 56 82 57 83 58 84
REMARK SMILES IDX 35 85 36 86 44 87 37 88 39 89 45 90 38 91 40 92 41 93 42 94
REMARK SMILES IDX 43 95
REMARK H PARENT 65 48 33 59
REMARK Flexibility Score: inf
ROOT
ATOM      1  C   UNL A   1      31.804  29.550  27.129  1.00  0.00     0.275 C 
ENDROOT
BRANCH   1   2
ATOM      2  C   UNL A   1      31.833  27.570  26.255  1.00  0.00     0.275 C 
BRANCH   2   3
ATOM      3  O   UNL A   1      32.713  26.371  26.704  1.00  0.00    -0.459 OA
BRANCH   3   4
ATOM      4  C   UNL A   1      32.133  25.181  26.494  1.00  0.00     0.338 C 
ATOM      5  O   UNL A   1      31.600  24.439  27.278  1.00  0.00    -0.246 OA
BRANCH   4   6
ATOM      6  C   UNL A   1      32.728  24.980  25.194  1.00  0.00     0.087 C 
ATOM      7  C   UNL A   1      34.169  24.780  25.257  1.00  0.00     0.027 C 
ATOM      8  C   UNL A   1      31.437  23.686  24.585  1.00  0.00     0.316 C 
ATOM      9  C   UNL A   1      34.952  23.194  24.960  1.00  0.00     0.019 A 
ATOM     10  O   UNL A   1      32.250  21.942  24.340  1.00  0.00    -0.475 OA
ATOM     11  C   UNL A   1      36.287  23.127  25.257  1.00  0.00     0.032 A 
ATOM     12  C   UNL A   1      34.048  21.741  24.624  1.00  0.00     0.135 A 
ATOM     13  C   UNL A   1      36.814  21.840  25.277  1.00  0.00     0.042 A 
ATOM     14  C   UNL A   1      34.650  20.505  24.736  1.00  0.00     0.026 A 
ATOM     15  Cl  UNL A   1      38.488  21.679  25.698  1.00  0.00    -0.084 Cl
ATOM     16  C   UNL A   1      36.054  20.630  25.042  1.00  0.00     0.033 A 
BRANCH   8  17
ATOM     17  C   UNL A   1      30.679  24.739  23.652  1.00  0.00     0.430 C 
ATOM     18  F   UNL A   1      29.842  24.122  22.806  1.00  0.00    -0.167 F 
ATOM     19  F   UNL A   1      29.838  25.497  24.423  1.00  0.00    -0.167 F 
ATOM     20  F   UNL A   1      31.409  25.676  23.030  1.00  0.00    -0.167 F 
ENDBRANCH   8  17
BRANCH  14  21
ATOM     21  C   UNL A   1      34.101  19.157  24.732  1.00  0.00    -0.015 A 
ATOM     22  C   UNL A   1      32.905  18.906  25.441  1.00  0.00     0.010 A 
ATOM     23  C   UNL A   1      34.839  18.063  24.271  1.00  0.00     0.010 A 
ATOM     24  C   UNL A   1      32.469  17.605  25.698  1.00  0.00     0.021 A 
ATOM     25  C   UNL A   1      34.404  16.756  24.529  1.00  0.00     0.021 A 
ATOM     26  C   UNL A   1      33.227  16.532  25.243  1.00  0.00     0.041 A 
ATOM     27  Cl  UNL A   1      32.721  14.926  25.595  1.00  0.00    -0.084 Cl
ENDBRANCH  14  21
ENDBRANCH   4   6
ENDBRANCH   3   4
ENDBRANCH   2   3
ENDBRANCH   1   2
BRANCH   1  28
ATOM     28  O   UNL A   1      33.024  30.771  26.884  1.00  0.00    -0.458 OA
BRANCH  28  29
ATOM     29  C   UNL A   1      33.778  31.740  27.508  1.00  0.00     0.338 C 
ATOM     30  O   UNL A   1      33.410  32.720  28.130  1.00  0.00    -0.246 OA
BRANCH  29  31
ATOM     31  C   UNL A   1      35.164  31.168  27.658  1.00  0.00     0.060 A 
ATOM     32  C   UNL A   1      36.214  32.033  28.025  1.00  0.00     0.016 A 
ATOM     33  C   UNL A   1      35.326  29.794  27.830  1.00  0.00     0.016 A 
ATOM     34  C   UNL A   1      37.292  31.545  28.797  1.00  0.00     0.010 A 
ATOM     35  C   UNL A   1      36.408  29.314  28.582  1.00  0.00     0.010 A 
ATOM     36  C   UNL A   1      37.349  30.189  29.153  1.00  0.00    -0.014 A 
BRANCH  36  37
ATOM     37  C   UNL A   1      38.481  29.618  29.942  1.00  0.00     0.031 A 
ATOM     38  C   UNL A   1      38.653  30.166  31.328  1.00  0.00     0.074 A 
ATOM     39  C   UNL A   1      39.400  28.757  29.448  1.00  0.00     0.049 A 
ATOM     40  N   UNL A   1      39.601  29.955  32.198  1.00  0.00    -0.248 NA
ATOM     41  C   UNL A   1      37.617  31.115  31.771  1.00  0.00     0.031 C 
ATOM     42  C   UNL A   1      39.393  28.158  28.114  1.00  0.00     0.029 A 
ATOM     43  N   UNL A   1      40.560  28.258  30.015  1.00  0.00    -0.354 N 
ATOM     44  C   UNL A   1      39.293  30.770  33.279  1.00  0.00     0.074 A 
ATOM     45  C   UNL A   1      38.092  31.498  32.942  1.00  0.00     0.031 C 
ATOM     46  C   UNL A   1      40.503  27.405  27.954  1.00  0.00     0.029 A 
ATOM     47  C   UNL A   1      41.317  27.472  29.167  1.00  0.00     0.049 A 
ATOM     48  H   UNL A   1      40.824  28.449  30.944  1.00  0.00     0.167 HD
ATOM     49  C   UNL A   1      39.938  30.898  34.458  1.00  0.00     0.034 A 
ATOM     50  C   UNL A   1      42.524  26.886  29.348  1.00  0.00     0.034 A 
ATOM     51  C   UNL A   1      41.134  30.192  34.804  1.00  0.00     0.049 A 
ATOM     52  C   UNL A   1      43.231  27.054  30.682  1.00  0.00     0.074 A 
ATOM     53  C   UNL A   1      41.836  30.226  35.993  1.00  0.00     0.029 A 
ATOM     54  N   UNL A   1      41.819  29.343  33.951  1.00  0.00    -0.354 N 
ATOM     55  N   UNL A   1      42.836  27.697  31.755  1.00  0.00    -0.248 NA
ATOM     56  C   UNL A   1      44.538  26.389  30.841  1.00  0.00     0.031 C 
ATOM     57  C   UNL A   1      42.965  29.416  35.850  1.00  0.00     0.029 A 
ATOM     58  C   UNL A   1      42.943  28.850  34.585  1.00  0.00     0.049 A 
ATOM     59  H   UNL A   1      41.545  29.123  33.031  1.00  0.00     0.167 HD
ATOM     60  C   UNL A   1      43.814  27.470  32.723  1.00  0.00     0.074 A 
ATOM     61  C   UNL A   1      44.813  26.618  32.118  1.00  0.00     0.031 C 
ATOM     62  C   UNL A   1      43.888  27.938  33.994  1.00  0.00     0.034 A 
BRANCH  49  63
ATOM     63  C   UNL A   1      39.329  31.837  35.456  1.00  0.00     0.023 A 
ATOM     64  C   UNL A   1      39.526  33.227  35.310  1.00  0.00     0.012 A 
ATOM     65  C   UNL A   1      38.586  31.348  36.544  1.00  0.00     0.148 A 
ATOM     66  C   UNL A   1      39.031  34.114  36.263  1.00  0.00     0.002 A 
ATOM     67  C   UNL A   1      38.052  32.242  37.461  1.00  0.00     0.091 A 
ATOM     68  F   UNL A   1      38.439  30.023  36.673  1.00  0.00    -0.205 F 
ATOM     69  C   UNL A   1      38.288  33.622  37.332  1.00  0.00     0.022 A 
BRANCH  67  70
ATOM     70  S   UNL A   1      37.024  31.721  38.837  1.00  0.00     0.127 S 
ATOM     71  O   UNL A   1      37.904  31.977  39.976  1.00  0.00    -0.237 OA
ATOM     72  O   UNL A   1      35.887  32.634  38.725  1.00  0.00    -0.237 OA
ATOM     73  O   UNL A   1      36.711  30.319  38.600  1.00  0.00    -0.744 OA
ENDBRANCH  67  70
ENDBRANCH  49  63
BRANCH  50  74
ATOM     74  C   UNL A   1      43.169  26.041  28.286  1.00  0.00     0.023 A 
ATOM     75  C   UNL A   1      42.794  24.685  28.163  1.00  0.00     0.012 A 
ATOM     76  C   UNL A   1      44.205  26.530  27.466  1.00  0.00     0.148 A 
ATOM     77  C   UNL A   1      43.472  23.824  27.294  1.00  0.00     0.002 A 
ATOM     78  C   UNL A   1      44.843  25.678  26.564  1.00  0.00     0.091 A 
ATOM     79  F   UNL A   1      44.572  27.811  27.602  1.00  0.00    -0.205 F 
ATOM     80  C   UNL A   1      44.493  24.321  26.493  1.00  0.00     0.022 A 
BRANCH  78  81
ATOM     81  S   UNL A   1      46.112  26.241  25.420  1.00  0.00     0.127 S 
ATOM     82  O   UNL A   1      47.223  26.533  26.322  1.00  0.00    -0.237 OA
ATOM     83  O   UNL A   1      46.302  25.062  24.574  1.00  0.00    -0.237 OA
ATOM     84  O   UNL A   1      45.540  27.390  24.732  1.00  0.00    -0.744 OA
ENDBRANCH  78  81
ENDBRANCH  50  74
BRANCH  62  85
ATOM     85  C   UNL A   1      45.044  27.501  34.858  1.00  0.00     0.023 A 
ATOM     86  C   UNL A   1      46.203  28.296  34.943  1.00  0.00     0.012 A 
ATOM     87  C   UNL A   1      44.921  26.365  35.685  1.00  0.00     0.148 A 
ATOM     88  C   UNL A   1      47.232  27.954  35.820  1.00  0.00     0.002 A 
ATOM     89  C   UNL A   1      45.925  26.064  36.596  1.00  0.00     0.091 A 
ATOM     90  F   UNL A   1      43.816  25.614  35.578  1.00  0.00    -0.205 F 
ATOM     91  C   UNL A   1      47.086  26.850  36.657  1.00  0.00     0.022 A 
BRANCH  89  92
ATOM     92  S   UNL A   1      45.772  24.730  37.791  1.00  0.00     0.127 S 
ATOM     93  O   UNL A   1      47.102  24.719  38.397  1.00  0.00    -0.237 OA
ATOM     94  O   UNL A   1      44.706  25.221  38.666  1.00  0.00    -0.237 OA
ATOM     95  O   UNL A   1      45.424  23.541  37.025  1.00  0.00    -0.744 OA
ENDBRANCH  89  92
ENDBRANCH  62  85
ENDBRANCH  36  37
ENDBRANCH  29  31
ENDBRANCH  28  29
ENDBRANCH   1  28
TORSDOF 16
ENDMDL
