MODEL 1
REMARK VINA RESULT:     -12.1      0.000      0.000
REMARK SMILES CCc1noc(C[N@@H+]2CC[C@H](Cc3cccc(C(=O)OCCOC(=O)c4ccc(-c5c6nc(c(-c7cccc(S(=O)(=O)[O-])c7F)c7ccc([nH]7)c(-c7cccc(S(=O)(=O)[O-])c7F)c7nc(c(-c8cccc(S(=O)(=O)[O-])c8F)c8ccc5[nH]8)C=C7)C=C6)cc4)c3)C2)n1
REMARK SMILES IDX 21 1 20 2 18 3 19 4 17 5 13 6 14 7 89 8 15 9 16 10 12 11
REMARK SMILES IDX 11 12 8 13 9 14 90 15 10 17 7 18 6 19 3 20 4 21 91 22 5 23
REMARK SMILES IDX 2 24 1 25 22 26 23 27 24 28 25 29 26 30 27 31 88 32 28 33
REMARK SMILES IDX 87 34 29 35 30 36 31 37 81 38 32 39 86 40 80 41 82 42 33 43
REMARK SMILES IDX 85 44 79 45 78 46 34 48 66 49 46 50 65 51 47 52 50 53 64 54
REMARK SMILES IDX 83 55 48 56 49 57 63 59 84 60 51 61 35 62 36 63 44 64 37 65
REMARK SMILES IDX 39 66 45 67 38 68 40 69 41 70 42 71 43 72 67 73 68 74 76 75
REMARK SMILES IDX 69 76 71 77 77 78 70 79 72 80 73 81 74 82 75 83 52 84 53 85
REMARK SMILES IDX 61 86 54 87 56 88 62 89 55 90 57 91 58 92 59 93 60 94
REMARK H PARENT 8 16 82 47 50 58
REMARK Flexibility Score: inf
ROOT
ATOM      1  C   UNL A   1      31.105  29.580  24.332  1.00  0.00     0.275 C 
ENDROOT
BRANCH   1   2
ATOM      2  O   UNL A   1      31.944  28.840  23.427  1.00  0.00    -0.458 OA
BRANCH   2   3
ATOM      3  C   UNL A   1      31.358  27.812  22.762  1.00  0.00     0.338 C 
ATOM      4  O   UNL A   1      30.303  27.843  22.157  1.00  0.00    -0.246 OA
BRANCH   3   5
ATOM      5  C   UNL A   1      32.235  26.617  22.815  1.00  0.00     0.060 A 
ATOM      6  C   UNL A   1      33.835  25.253  24.007  1.00  0.00    -0.047 A 
ATOM      7  C   UNL A   1      33.791  24.304  22.977  1.00  0.00     0.004 A 
ATOM      8  C   UNL A   1      33.121  26.449  23.876  1.00  0.00     0.019 A 
ATOM      9  C   UNL A   1      32.938  24.485  21.894  1.00  0.00     0.001 A 
ATOM     10  C   UNL A   1      32.115  25.608  21.851  1.00  0.00     0.016 A 
BRANCH   6  11
ATOM     11  C   UNL A   1      34.479  24.920  25.328  1.00  0.00     0.045 C 
BRANCH  11  12
ATOM     12  C   UNL A   1      33.509  24.115  26.219  1.00  0.00     0.054 C 
ATOM     13  N   UNL A   1      32.526  21.915  26.007  1.00  0.00    -0.327 N 
ATOM     14  C   UNL A   1      31.453  22.892  26.219  1.00  0.00     0.263 C 
ATOM     15  C   UNL A   1      33.802  22.615  26.229  1.00  0.00     0.266 C 
ATOM     16  H   UNL A   1      32.427  21.148  26.672  1.00  0.00     0.348 HD
ATOM     17  C   UNL A   1      32.036  24.228  25.817  1.00  0.00     0.071 C 
BRANCH  13  18
ATOM     18  C   UNL A   1      32.456  21.235  24.696  1.00  0.00     0.364 C 
BRANCH  18  19
ATOM     19  C   UNL A   1      32.671  19.757  24.668  1.00  0.00     0.281 A 
ATOM     20  C   UNL A   1      33.257  17.766  24.403  1.00  0.00     0.171 A 
ATOM     21  N   UNL A   1      32.172  17.664  25.182  1.00  0.00    -0.062 NA
ATOM     22  N   UNL A   1      33.601  19.051  24.062  1.00  0.00    -0.191 NA
ATOM     23  O   UNL A   1      31.784  18.991  25.369  1.00  0.00    -0.333 OA
BRANCH  20  24
ATOM     24  C   UNL A   1      34.003  16.574  23.925  1.00  0.00     0.078 C 
ATOM     25  C   UNL A   1      34.828  15.908  25.014  1.00  0.00     0.012 C 
ENDBRANCH  20  24
ENDBRANCH  18  19
ENDBRANCH  13  18
ENDBRANCH  11  12
ENDBRANCH   6  11
ENDBRANCH   3   5
ENDBRANCH   2   3
ENDBRANCH   1   2
BRANCH   1  26
ATOM     26  C   UNL A   1      31.676  29.531  25.749  1.00  0.00     0.275 C 
BRANCH  26  27
ATOM     27  O   UNL A   1      32.985  30.125  25.786  1.00  0.00    -0.458 OA
BRANCH  27  28
ATOM     28  C   UNL A   1      33.188  31.010  26.789  1.00  0.00     0.338 C 
ATOM     29  O   UNL A   1      32.386  31.800  27.257  1.00  0.00    -0.246 OA
BRANCH  28  30
ATOM     30  C   UNL A   1      34.535  30.823  27.341  1.00  0.00     0.060 A 
ATOM     31  C   UNL A   1      34.922  29.535  27.693  1.00  0.00     0.016 A 
ATOM     32  C   UNL A   1      35.352  31.904  27.646  1.00  0.00     0.016 A 
ATOM     33  C   UNL A   1      36.064  29.318  28.452  1.00  0.00     0.010 A 
ATOM     34  C   UNL A   1      36.566  31.673  28.303  1.00  0.00     0.010 A 
ATOM     35  C   UNL A   1      36.920  30.381  28.745  1.00  0.00    -0.014 A 
BRANCH  35  36
ATOM     36  C   UNL A   1      38.174  30.154  29.515  1.00  0.00     0.031 A 
ATOM     37  C   UNL A   1      39.236  29.242  28.961  1.00  0.00     0.074 A 
ATOM     38  C   UNL A   1      38.348  30.731  30.722  1.00  0.00     0.049 A 
ATOM     39  N   UNL A   1      40.271  28.716  29.561  1.00  0.00    -0.248 NA
ATOM     40  C   UNL A   1      39.107  28.856  27.545  1.00  0.00     0.031 C 
ATOM     41  C   UNL A   1      37.421  31.670  31.361  1.00  0.00     0.029 A 
ATOM     42  N   UNL A   1      39.357  30.592  31.645  1.00  0.00    -0.354 N 
ATOM     43  C   UNL A   1      40.870  27.880  28.625  1.00  0.00     0.074 A 
ATOM     44  C   UNL A   1      40.086  27.973  27.412  1.00  0.00     0.031 C 
ATOM     45  C   UNL A   1      37.899  32.020  32.563  1.00  0.00     0.029 A 
ATOM     46  C   UNL A   1      39.110  31.257  32.827  1.00  0.00     0.049 A 
ATOM     47  H   UNL A   1      40.174  30.068  31.479  1.00  0.00     0.167 HD
ATOM     48  C   UNL A   1      41.975  27.108  28.765  1.00  0.00     0.034 A 
ATOM     49  C   UNL A   1      39.746  31.208  34.014  1.00  0.00     0.034 A 
ATOM     50  C   UNL A   1      42.774  27.067  29.961  1.00  0.00     0.049 A 
ATOM     51  C   UNL A   1      40.943  30.311  34.157  1.00  0.00     0.074 A 
ATOM     52  C   UNL A   1      43.927  26.340  30.199  1.00  0.00     0.029 A 
ATOM     53  N   UNL A   1      42.508  27.785  31.116  1.00  0.00    -0.354 N 
ATOM     54  N   UNL A   1      41.514  29.549  33.257  1.00  0.00    -0.248 NA
ATOM     55  C   UNL A   1      41.593  30.277  35.474  1.00  0.00     0.031 C 
ATOM     56  C   UNL A   1      44.343  26.599  31.509  1.00  0.00     0.029 A 
ATOM     57  C   UNL A   1      43.470  27.517  32.072  1.00  0.00     0.049 A 
ATOM     58  H   UNL A   1      41.746  28.396  31.238  1.00  0.00     0.167 HD
ATOM     59  C   UNL A   1      42.611  28.976  33.886  1.00  0.00     0.074 A 
ATOM     60  C   UNL A   1      42.634  29.491  35.240  1.00  0.00     0.031 C 
ATOM     61  C   UNL A   1      43.512  28.092  33.392  1.00  0.00     0.034 A 
BRANCH  48  62
ATOM     62  C   UNL A   1      42.393  26.254  27.597  1.00  0.00     0.023 A 
ATOM     63  C   UNL A   1      43.267  26.772  26.620  1.00  0.00     0.012 A 
ATOM     64  C   UNL A   1      41.968  24.913  27.497  1.00  0.00     0.148 A 
ATOM     65  C   UNL A   1      43.681  25.985  25.545  1.00  0.00     0.002 A 
ATOM     66  C   UNL A   1      42.422  24.119  26.450  1.00  0.00     0.091 A 
ATOM     67  F   UNL A   1      41.124  24.440  28.426  1.00  0.00    -0.205 F 
ATOM     68  C   UNL A   1      43.268  24.658  25.466  1.00  0.00     0.022 A 
BRANCH  66  69
ATOM     69  S   UNL A   1      42.013  22.376  26.303  1.00  0.00     0.127 S 
ATOM     70  O   UNL A   1      42.574  21.837  27.542  1.00  0.00    -0.237 OA
ATOM     71  O   UNL A   1      40.552  22.406  26.258  1.00  0.00    -0.237 OA
ATOM     72  O   UNL A   1      42.652  21.914  25.079  1.00  0.00    -0.744 OA
ENDBRANCH  66  69
ENDBRANCH  48  62
BRANCH  49  73
ATOM     73  C   UNL A   1      39.251  32.020  35.164  1.00  0.00     0.023 A 
ATOM     74  C   UNL A   1      38.271  31.482  36.020  1.00  0.00     0.012 A 
ATOM     75  C   UNL A   1      39.755  33.311  35.423  1.00  0.00     0.148 A 
ATOM     76  C   UNL A   1      37.777  32.228  37.091  1.00  0.00     0.002 A 
ATOM     77  C   UNL A   1      39.303  34.024  36.526  1.00  0.00     0.091 A 
ATOM     78  F   UNL A   1      40.675  33.814  34.588  1.00  0.00    -0.205 F 
ATOM     79  C   UNL A   1      38.299  33.493  37.351  1.00  0.00     0.022 A 
BRANCH  77  80
ATOM     80  S   UNL A   1      40.015  35.600  37.013  1.00  0.00     0.127 S 
ATOM     81  O   UNL A   1      39.653  36.453  35.885  1.00  0.00    -0.237 OA
ATOM     82  O   UNL A   1      39.298  35.885  38.256  1.00  0.00    -0.237 OA
ATOM     83  O   UNL A   1      41.439  35.350  37.187  1.00  0.00    -0.744 OA
ENDBRANCH  77  80
ENDBRANCH  49  73
BRANCH  61  84
ATOM     84  C   UNL A   1      44.645  27.674  34.291  1.00  0.00     0.023 A 
ATOM     85  C   UNL A   1      45.831  28.431  34.333  1.00  0.00     0.012 A 
ATOM     86  C   UNL A   1      44.489  26.577  35.162  1.00  0.00     0.148 A 
ATOM     87  C   UNL A   1      46.857  28.087  35.212  1.00  0.00     0.002 A 
ATOM     88  C   UNL A   1      45.493  26.272  36.072  1.00  0.00     0.091 A 
ATOM     89  F   UNL A   1      43.358  25.861  35.090  1.00  0.00    -0.205 F 
ATOM     90  C   UNL A   1      46.682  27.019  36.089  1.00  0.00     0.022 A 
BRANCH  88  91
ATOM     91  S   UNL A   1      45.317  24.981  37.307  1.00  0.00     0.127 S 
ATOM     92  O   UNL A   1      45.202  23.785  36.472  1.00  0.00    -0.237 OA
ATOM     93  O   UNL A   1      46.573  25.091  38.047  1.00  0.00    -0.237 OA
ATOM     94  O   UNL A   1      44.126  25.316  38.077  1.00  0.00    -0.744 OA
ENDBRANCH  88  91
ENDBRANCH  61  84
ENDBRANCH  35  36
ENDBRANCH  28  30
ENDBRANCH  27  28
ENDBRANCH  26  27
ENDBRANCH   1  26
TORSDOF 19
ENDMDL
MODEL 2
REMARK VINA RESULT:     -11.9      5.348     10.353
REMARK SMILES CCc1noc(C[N@@H+]2CC[C@H](Cc3cccc(C(=O)OCCOC(=O)c4ccc(-c5c6nc(c(-c7cccc(S(=O)(=O)[O-])c7F)c7ccc([nH]7)c(-c7cccc(S(=O)(=O)[O-])c7F)c7nc(c(-c8cccc(S(=O)(=O)[O-])c8F)c8ccc5[nH]8)C=C7)C=C6)cc4)c3)C2)n1
REMARK SMILES IDX 21 1 20 2 18 3 19 4 17 5 13 6 14 7 89 8 15 9 16 10 12 11
REMARK SMILES IDX 11 12 8 13 9 14 90 15 10 17 7 18 6 19 3 20 4 21 91 22 5 23
REMARK SMILES IDX 2 24 1 25 22 26 23 27 24 28 25 29 26 30 27 31 88 32 28 33
REMARK SMILES IDX 87 34 29 35 30 36 31 37 81 38 32 39 86 40 80 41 82 42 33 43
REMARK SMILES IDX 85 44 79 45 78 46 34 48 66 49 46 50 65 51 47 52 50 53 64 54
REMARK SMILES IDX 83 55 48 56 49 57 63 59 84 60 51 61 35 62 36 63 44 64 37 65
REMARK SMILES IDX 39 66 45 67 38 68 40 69 41 70 42 71 43 72 67 73 68 74 76 75
REMARK SMILES IDX 69 76 71 77 77 78 70 79 72 80 73 81 74 82 75 83 52 84 53 85
REMARK SMILES IDX 61 86 54 87 56 88 62 89 55 90 57 91 58 92 59 93 60 94
REMARK H PARENT 8 16 82 47 50 58
REMARK Flexibility Score: inf
ROOT
ATOM      1  C   UNL A   1      35.164  20.282  24.998  1.00  0.00     0.275 C 
ENDROOT
BRANCH   1   2
ATOM      2  O   UNL A   1      33.873  20.917  24.976  1.00  0.00    -0.458 OA
BRANCH   2   3
ATOM      3  C   UNL A   1      33.492  21.553  26.112  1.00  0.00     0.338 C 
ATOM      4  O   UNL A   1      33.869  21.313  27.243  1.00  0.00    -0.246 OA
BRANCH   3   5
ATOM      5  C   UNL A   1      32.570  22.666  25.778  1.00  0.00     0.060 A 
ATOM      6  C   UNL A   1      31.855  24.953  26.097  1.00  0.00    -0.047 A 
ATOM      7  C   UNL A   1      30.922  24.804  25.063  1.00  0.00     0.004 A 
ATOM      8  C   UNL A   1      32.614  23.851  26.508  1.00  0.00     0.019 A 
ATOM      9  C   UNL A   1      30.844  23.609  24.357  1.00  0.00     0.001 A 
ATOM     10  C   UNL A   1      31.714  22.568  24.673  1.00  0.00     0.016 A 
BRANCH   6  11
ATOM     11  C   UNL A   1      32.191  26.320  26.634  1.00  0.00     0.045 C 
BRANCH  11  12
ATOM     12  C   UNL A   1      33.136  27.068  25.672  1.00  0.00     0.054 C 
ATOM     13  N   UNL A   1      32.825  28.008  23.464  1.00  0.00    -0.327 N 
ATOM     14  C   UNL A   1      33.978  27.102  23.433  1.00  0.00     0.263 C 
ATOM     15  C   UNL A   1      32.440  28.171  24.876  1.00  0.00     0.266 C 
ATOM     16  H   UNL A   1      33.088  28.911  23.067  1.00  0.00     0.348 HD
ATOM     17  C   UNL A   1      33.802  26.179  24.617  1.00  0.00     0.071 C 
BRANCH  13  18
ATOM     18  C   UNL A   1      31.707  27.573  22.601  1.00  0.00     0.364 C 
BRANCH  18  19
ATOM     19  C   UNL A   1      30.524  28.478  22.490  1.00  0.00     0.281 A 
ATOM     20  C   UNL A   1      28.734  29.553  22.623  1.00  0.00     0.171 A 
ATOM     21  N   UNL A   1      29.338  30.096  21.558  1.00  0.00    -0.062 NA
ATOM     22  N   UNL A   1      29.439  28.544  23.231  1.00  0.00    -0.191 NA
ATOM     23  O   UNL A   1      30.537  29.388  21.472  1.00  0.00    -0.333 OA
BRANCH  20  24
ATOM     24  C   UNL A   1      27.392  29.994  23.081  1.00  0.00     0.078 C 
ATOM     25  C   UNL A   1      27.385  31.409  23.638  1.00  0.00     0.012 C 
ENDBRANCH  20  24
ENDBRANCH  18  19
ENDBRANCH  13  18
ENDBRANCH  11  12
ENDBRANCH   6  11
ENDBRANCH   3   5
ENDBRANCH   2   3
ENDBRANCH   1   2
BRANCH   1  26
ATOM     26  C   UNL A   1      36.254  21.278  24.603  1.00  0.00     0.275 C 
BRANCH  26  27
ATOM     27  O   UNL A   1      36.946  21.756  25.770  1.00  0.00    -0.458 OA
BRANCH  27  28
ATOM     28  C   UNL A   1      38.274  21.497  25.799  1.00  0.00     0.338 C 
ATOM     29  O   UNL A   1      38.859  20.555  25.293  1.00  0.00    -0.246 OA
BRANCH  28  30
ATOM     30  C   UNL A   1      38.973  22.602  26.466  1.00  0.00     0.060 A 
ATOM     31  C   UNL A   1      38.557  23.899  26.188  1.00  0.00     0.016 A 
ATOM     32  C   UNL A   1      40.109  22.384  27.235  1.00  0.00     0.016 A 
ATOM     33  C   UNL A   1      39.325  24.990  26.571  1.00  0.00     0.010 A 
ATOM     34  C   UNL A   1      40.817  23.487  27.727  1.00  0.00     0.010 A 
ATOM     35  C   UNL A   1      40.453  24.803  27.371  1.00  0.00    -0.014 A 
BRANCH  35  36
ATOM     36  C   UNL A   1      41.258  25.969  27.831  1.00  0.00     0.031 A 
ATOM     37  C   UNL A   1      40.608  27.044  28.660  1.00  0.00     0.074 A 
ATOM     38  C   UNL A   1      42.555  26.084  27.479  1.00  0.00     0.049 A 
ATOM     39  N   UNL A   1      41.044  28.242  28.951  1.00  0.00    -0.248 NA
ATOM     40  C   UNL A   1      39.283  26.737  29.225  1.00  0.00     0.031 C 
ATOM     41  C   UNL A   1      43.323  25.097  26.714  1.00  0.00     0.029 A 
ATOM     42  N   UNL A   1      43.455  27.101  27.693  1.00  0.00    -0.354 N 
ATOM     43  C   UNL A   1      40.019  28.857  29.662  1.00  0.00     0.074 A 
ATOM     44  C   UNL A   1      38.941  27.898  29.766  1.00  0.00     0.031 C 
ATOM     45  C   UNL A   1      44.569  25.552  26.524  1.00  0.00     0.029 A 
ATOM     46  C   UNL A   1      44.663  26.902  27.061  1.00  0.00     0.049 A 
ATOM     47  H   UNL A   1      43.256  27.893  28.243  1.00  0.00     0.167 HD
ATOM     48  C   UNL A   1      39.984  30.108  30.183  1.00  0.00     0.034 A 
ATOM     49  C   UNL A   1      45.705  27.734  26.871  1.00  0.00     0.034 A 
ATOM     50  C   UNL A   1      41.085  31.032  30.117  1.00  0.00     0.049 A 
ATOM     51  C   UNL A   1      45.625  29.130  27.421  1.00  0.00     0.074 A 
ATOM     52  C   UNL A   1      41.165  32.313  30.635  1.00  0.00     0.029 A 
ATOM     53  N   UNL A   1      42.300  30.773  29.501  1.00  0.00    -0.354 N 
ATOM     54  N   UNL A   1      44.663  29.690  28.115  1.00  0.00    -0.248 NA
ATOM     55  C   UNL A   1      46.778  30.009  27.176  1.00  0.00     0.031 C 
ATOM     56  C   UNL A   1      42.419  32.838  30.307  1.00  0.00     0.029 A 
ATOM     57  C   UNL A   1      43.134  31.869  29.620  1.00  0.00     0.049 A 
ATOM     58  H   UNL A   1      42.534  29.932  29.046  1.00  0.00     0.167 HD
ATOM     59  C   UNL A   1      45.110  30.968  28.421  1.00  0.00     0.074 A 
ATOM     60  C   UNL A   1      46.436  31.096  27.851  1.00  0.00     0.031 C 
ATOM     61  C   UNL A   1      44.476  31.953  29.102  1.00  0.00     0.034 A 
BRANCH  48  62
ATOM     62  C   UNL A   1      38.723  30.549  30.880  1.00  0.00     0.023 A 
ATOM     63  C   UNL A   1      38.586  30.371  32.271  1.00  0.00     0.012 A 
ATOM     64  C   UNL A   1      37.695  31.196  30.163  1.00  0.00     0.148 A 
ATOM     65  C   UNL A   1      37.433  30.796  32.932  1.00  0.00     0.002 A 
ATOM     66  C   UNL A   1      36.570  31.659  30.836  1.00  0.00     0.091 A 
ATOM     67  F   UNL A   1      37.834  31.343  28.838  1.00  0.00    -0.205 F 
ATOM     68  C   UNL A   1      36.432  31.448  32.218  1.00  0.00     0.022 A 
BRANCH  66  69
ATOM     69  S   UNL A   1      35.261  32.583  30.022  1.00  0.00     0.127 S 
ATOM     70  O   UNL A   1      34.840  31.643  28.983  1.00  0.00    -0.237 OA
ATOM     71  O   UNL A   1      34.296  32.766  31.105  1.00  0.00    -0.237 OA
ATOM     72  O   UNL A   1      35.875  33.810  29.538  1.00  0.00    -0.744 OA
ENDBRANCH  66  69
ENDBRANCH  48  62
BRANCH  49  73
ATOM     73  C   UNL A   1      46.906  27.275  26.113  1.00  0.00     0.023 A 
ATOM     74  C   UNL A   1      47.819  26.399  26.729  1.00  0.00     0.012 A 
ATOM     75  C   UNL A   1      47.139  27.688  24.786  1.00  0.00     0.148 A 
ATOM     76  C   UNL A   1      48.961  25.970  26.050  1.00  0.00     0.002 A 
ATOM     77  C   UNL A   1      48.245  27.209  24.094  1.00  0.00     0.091 A 
ATOM     78  F   UNL A   1      46.269  28.536  24.221  1.00  0.00    -0.205 F 
ATOM     79  C   UNL A   1      49.168  26.365  24.731  1.00  0.00     0.022 A 
BRANCH  77  80
ATOM     80  S   UNL A   1      48.518  27.559  22.354  1.00  0.00     0.127 S 
ATOM     81  O   UNL A   1      48.624  26.215  21.791  1.00  0.00    -0.237 OA
ATOM     82  O   UNL A   1      47.299  28.283  21.995  1.00  0.00    -0.237 OA
ATOM     83  O   UNL A   1      49.730  28.364  22.301  1.00  0.00    -0.744 OA
ENDBRANCH  77  80
ENDBRANCH  49  73
BRANCH  61  84
ATOM     84  C   UNL A   1      45.227  33.236  29.336  1.00  0.00     0.023 A 
ATOM     85  C   UNL A   1      46.107  33.351  30.428  1.00  0.00     0.012 A 
ATOM     86  C   UNL A   1      45.123  34.294  28.412  1.00  0.00     0.148 A 
ATOM     87  C   UNL A   1      46.856  34.513  30.612  1.00  0.00     0.002 A 
ATOM     88  C   UNL A   1      45.911  35.427  28.571  1.00  0.00     0.091 A 
ATOM     89  F   UNL A   1      44.264  34.168  27.390  1.00  0.00    -0.205 F 
ATOM     90  C   UNL A   1      46.768  35.543  29.678  1.00  0.00     0.022 A 
BRANCH  88  91
ATOM     91  S   UNL A   1      45.941  36.759  27.367  1.00  0.00     0.127 S 
ATOM     92  O   UNL A   1      46.812  37.733  28.025  1.00  0.00    -0.237 OA
ATOM     93  O   UNL A   1      46.530  36.103  26.200  1.00  0.00    -0.237 OA
ATOM     94  O   UNL A   1      44.558  37.180  27.194  1.00  0.00    -0.744 OA
ENDBRANCH  88  91
ENDBRANCH  61  84
ENDBRANCH  35  36
ENDBRANCH  28  30
ENDBRANCH  27  28
ENDBRANCH  26  27
ENDBRANCH   1  26
TORSDOF 19
ENDMDL
MODEL 3
REMARK VINA RESULT:     -11.8      4.117      9.653
REMARK SMILES CCc1noc(C[N@@H+]2CC[C@H](Cc3cccc(C(=O)OCCOC(=O)c4ccc(-c5c6nc(c(-c7cccc(S(=O)(=O)[O-])c7F)c7ccc([nH]7)c(-c7cccc(S(=O)(=O)[O-])c7F)c7nc(c(-c8cccc(S(=O)(=O)[O-])c8F)c8ccc5[nH]8)C=C7)C=C6)cc4)c3)C2)n1
REMARK SMILES IDX 21 1 20 2 18 3 19 4 17 5 13 6 14 7 89 8 15 9 16 10 12 11
REMARK SMILES IDX 11 12 8 13 9 14 90 15 10 17 7 18 6 19 3 20 4 21 91 22 5 23
REMARK SMILES IDX 2 24 1 25 22 26 23 27 24 28 25 29 26 30 27 31 88 32 28 33
REMARK SMILES IDX 87 34 29 35 30 36 31 37 81 38 32 39 86 40 80 41 82 42 33 43
REMARK SMILES IDX 85 44 79 45 78 46 34 48 66 49 46 50 65 51 47 52 50 53 64 54
REMARK SMILES IDX 83 55 48 56 49 57 63 59 84 60 51 61 35 62 36 63 44 64 37 65
REMARK SMILES IDX 39 66 45 67 38 68 40 69 41 70 42 71 43 72 67 73 68 74 76 75
REMARK SMILES IDX 69 76 71 77 77 78 70 79 72 80 73 81 74 82 75 83 52 84 53 85
REMARK SMILES IDX 61 86 54 87 56 88 62 89 55 90 57 91 58 92 59 93 60 94
REMARK H PARENT 8 16 82 47 50 58
REMARK Flexibility Score: inf
ROOT
ATOM      1  C   UNL A   1      33.134  34.164  28.403  1.00  0.00     0.275 C 
ENDROOT
BRANCH   1   2
ATOM      2  O   UNL A   1      34.400  33.922  27.764  1.00  0.00    -0.458 OA
BRANCH   2   3
ATOM      3  C   UNL A   1      35.393  33.437  28.553  1.00  0.00     0.338 C 
ATOM      4  O   UNL A   1      36.006  34.047  29.408  1.00  0.00    -0.246 OA
BRANCH   3   5
ATOM      5  C   UNL A   1      35.599  31.995  28.270  1.00  0.00     0.060 A 
ATOM      6  C   UNL A   1      34.696  29.840  27.655  1.00  0.00    -0.047 A 
ATOM      7  C   UNL A   1      35.993  29.310  27.613  1.00  0.00     0.004 A 
ATOM      8  C   UNL A   1      34.502  31.161  28.072  1.00  0.00     0.019 A 
ATOM      9  C   UNL A   1      37.091  30.130  27.851  1.00  0.00     0.001 A 
ATOM     10  C   UNL A   1      36.892  31.483  28.112  1.00  0.00     0.016 A 
BRANCH   6  11
ATOM     11  C   UNL A   1      33.537  29.072  27.074  1.00  0.00     0.045 C 
BRANCH  11  12
ATOM     12  C   UNL A   1      33.749  28.822  25.567  1.00  0.00     0.054 C 
ATOM     13  N   UNL A   1      32.219  28.417  23.737  1.00  0.00    -0.327 N 
ATOM     14  C   UNL A   1      33.219  27.344  23.762  1.00  0.00     0.263 C 
ATOM     15  C   UNL A   1      32.663  29.446  24.691  1.00  0.00     0.266 C 
ATOM     16  H   UNL A   1      32.164  28.811  22.797  1.00  0.00     0.348 HD
ATOM     17  C   UNL A   1      33.780  27.344  25.166  1.00  0.00     0.071 C 
BRANCH  13  18
ATOM     18  C   UNL A   1      30.840  27.946  23.987  1.00  0.00     0.364 C 
BRANCH  18  19
ATOM     19  C   UNL A   1      29.717  28.848  23.591  1.00  0.00     0.281 A 
ATOM     20  C   UNL A   1      28.372  30.385  23.139  1.00  0.00     0.171 A 
ATOM     21  N   UNL A   1      27.671  29.277  22.868  1.00  0.00    -0.062 NA
ATOM     22  N   UNL A   1      29.650  30.161  23.590  1.00  0.00    -0.191 NA
ATOM     23  O   UNL A   1      28.569  28.249  23.158  1.00  0.00    -0.333 OA
BRANCH  20  24
ATOM     24  C   UNL A   1      27.792  31.745  22.991  1.00  0.00     0.078 C 
ATOM     25  C   UNL A   1      28.844  32.839  22.914  1.00  0.00     0.012 C 
ENDBRANCH  20  24
ENDBRANCH  18  19
ENDBRANCH  13  18
ENDBRANCH  11  12
ENDBRANCH   6  11
ENDBRANCH   3   5
ENDBRANCH   2   3
ENDBRANCH   1   2
BRANCH   1  26
ATOM     26  C   UNL A   1      33.210  35.412  29.281  1.00  0.00     0.275 C 
BRANCH  26  27
ATOM     27  O   UNL A   1      32.377  35.261  30.444  1.00  0.00    -0.458 OA
BRANCH  27  28
ATOM     28  C   UNL A   1      32.792  35.935  31.541  1.00  0.00     0.338 C 
ATOM     29  O   UNL A   1      32.375  37.001  31.962  1.00  0.00    -0.246 OA
BRANCH  28  30
ATOM     30  C   UNL A   1      33.792  35.134  32.257  1.00  0.00     0.060 A 
ATOM     31  C   UNL A   1      35.083  35.640  32.357  1.00  0.00     0.016 A 
ATOM     32  C   UNL A   1      33.513  33.846  32.696  1.00  0.00     0.016 A 
ATOM     33  C   UNL A   1      36.132  34.837  32.785  1.00  0.00     0.010 A 
ATOM     34  C   UNL A   1      34.547  33.077  33.244  1.00  0.00     0.010 A 
ATOM     35  C   UNL A   1      35.875  33.551  33.262  1.00  0.00    -0.014 A 
BRANCH  35  36
ATOM     36  C   UNL A   1      36.985  32.697  33.770  1.00  0.00     0.031 A 
ATOM     37  C   UNL A   1      37.667  33.051  35.065  1.00  0.00     0.074 A 
ATOM     38  C   UNL A   1      37.404  31.629  33.060  1.00  0.00     0.049 A 
ATOM     39  N   UNL A   1      38.793  32.604  35.557  1.00  0.00    -0.248 NA
ATOM     40  C   UNL A   1      37.002  34.057  35.912  1.00  0.00     0.031 C 
ATOM     41  C   UNL A   1      36.807  31.146  31.812  1.00  0.00     0.029 A 
ATOM     42  N   UNL A   1      38.456  30.769  33.273  1.00  0.00    -0.354 N 
ATOM     43  C   UNL A   1      39.010  33.325  36.726  1.00  0.00     0.074 A 
ATOM     44  C   UNL A   1      37.896  34.236  36.874  1.00  0.00     0.031 C 
ATOM     45  C   UNL A   1      37.496  30.084  31.371  1.00  0.00     0.029 A 
ATOM     46  C   UNL A   1      38.641  29.871  32.244  1.00  0.00     0.049 A 
ATOM     47  H   UNL A   1      39.020  30.793  34.079  1.00  0.00     0.167 HD
ATOM     48  C   UNL A   1      40.044  33.232  37.597  1.00  0.00     0.034 A 
ATOM     49  C   UNL A   1      39.653  29.018  31.992  1.00  0.00     0.034 A 
ATOM     50  C   UNL A   1      41.118  32.284  37.463  1.00  0.00     0.049 A 
ATOM     51  C   UNL A   1      40.809  28.964  32.949  1.00  0.00     0.074 A 
ATOM     52  C   UNL A   1      42.201  32.088  38.302  1.00  0.00     0.029 A 
ATOM     53  N   UNL A   1      41.243  31.371  36.428  1.00  0.00    -0.354 N 
ATOM     54  N   UNL A   1      40.989  29.631  34.064  1.00  0.00    -0.248 NA
ATOM     55  C   UNL A   1      41.898  28.032  32.625  1.00  0.00     0.031 C 
ATOM     56  C   UNL A   1      42.995  31.073  37.758  1.00  0.00     0.029 A 
ATOM     57  C   UNL A   1      42.385  30.611  36.603  1.00  0.00     0.049 A 
ATOM     58  H   UNL A   1      40.611  31.276  35.679  1.00  0.00     0.167 HD
ATOM     59  C   UNL A   1      42.188  29.171  34.592  1.00  0.00     0.074 A 
ATOM     60  C   UNL A   1      42.684  28.157  33.684  1.00  0.00     0.031 C 
ATOM     61  C   UNL A   1      42.828  29.561  35.721  1.00  0.00     0.034 A 
BRANCH  48  62
ATOM     62  C   UNL A   1      40.062  34.170  38.776  1.00  0.00     0.023 A 
ATOM     63  C   UNL A   1      40.812  35.361  38.720  1.00  0.00     0.012 A 
ATOM     64  C   UNL A   1      39.284  33.899  39.921  1.00  0.00     0.148 A 
ATOM     65  C   UNL A   1      40.819  36.249  39.796  1.00  0.00     0.002 A 
ATOM     66  C   UNL A   1      39.258  34.810  40.970  1.00  0.00     0.091 A 
ATOM     67  F   UNL A   1      38.588  32.753  39.965  1.00  0.00    -0.205 F 
ATOM     68  C   UNL A   1      40.035  35.980  40.915  1.00  0.00     0.022 A 
BRANCH  66  69
ATOM     69  S   UNL A   1      38.218  34.597  42.420  1.00  0.00     0.127 S 
ATOM     70  O   UNL A   1      36.884  34.547  41.820  1.00  0.00    -0.237 OA
ATOM     71  O   UNL A   1      38.693  33.320  42.953  1.00  0.00    -0.237 OA
ATOM     72  O   UNL A   1      38.474  35.747  43.273  1.00  0.00    -0.744 OA
ENDBRANCH  66  69
ENDBRANCH  48  62
BRANCH  49  73
ATOM     73  C   UNL A   1      39.624  28.159  30.772  1.00  0.00     0.023 A 
ATOM     74  C   UNL A   1      38.872  26.969  30.781  1.00  0.00     0.012 A 
ATOM     75  C   UNL A   1      40.324  28.519  29.603  1.00  0.00     0.148 A 
ATOM     76  C   UNL A   1      38.845  26.137  29.660  1.00  0.00     0.002 A 
ATOM     77  C   UNL A   1      40.244  27.718  28.471  1.00  0.00     0.091 A 
ATOM     78  F   UNL A   1      41.050  29.646  29.617  1.00  0.00    -0.205 F 
ATOM     79  C   UNL A   1      39.521  26.516  28.503  1.00  0.00     0.022 A 
BRANCH  77  80
ATOM     80  S   UNL A   1      40.970  28.195  26.899  1.00  0.00     0.127 S 
ATOM     81  O   UNL A   1      42.333  28.542  27.292  1.00  0.00    -0.237 OA
ATOM     82  O   UNL A   1      40.848  26.962  26.122  1.00  0.00    -0.237 OA
ATOM     83  O   UNL A   1      40.153  29.296  26.406  1.00  0.00    -0.744 OA
ENDBRANCH  77  80
ENDBRANCH  49  73
BRANCH  61  84
ATOM     84  C   UNL A   1      44.101  28.846  36.084  1.00  0.00     0.023 A 
ATOM     85  C   UNL A   1      45.347  29.390  35.719  1.00  0.00     0.012 A 
ATOM     86  C   UNL A   1      44.056  27.678  36.871  1.00  0.00     0.148 A 
ATOM     87  C   UNL A   1      46.532  28.767  36.110  1.00  0.00     0.002 A 
ATOM     88  C   UNL A   1      45.239  27.092  37.301  1.00  0.00     0.091 A 
ATOM     89  F   UNL A   1      42.858  27.169  37.190  1.00  0.00    -0.205 F 
ATOM     90  C   UNL A   1      46.477  27.629  36.912  1.00  0.00     0.022 A 
BRANCH  88  91
ATOM     91  S   UNL A   1      45.270  25.686  38.418  1.00  0.00     0.127 S 
ATOM     92  O   UNL A   1      44.435  24.721  37.703  1.00  0.00    -0.237 OA
ATOM     93  O   UNL A   1      46.694  25.354  38.453  1.00  0.00    -0.237 OA
ATOM     94  O   UNL A   1      44.725  26.160  39.682  1.00  0.00    -0.744 OA
ENDBRANCH  88  91
ENDBRANCH  61  84
ENDBRANCH  35  36
ENDBRANCH  28  30
ENDBRANCH  27  28
ENDBRANCH  26  27
ENDBRANCH   1  26
TORSDOF 19
ENDMDL
