MODEL 1
REMARK VINA RESULT:     -11.9      0.000      0.000
REMARK SMILES C[C@@H]1CCC[C@H](C)N1C(=O)Cn1cccc1C(=O)OCCOC(=O)c1ccc(-c2c3nc(c(-c4cccc(S(=O)(=O)[O-])c4F)c4ccc([nH]4)c(-c4cccc(S(=O)(=O)[O-])c4F)c4nc(c(-c5cccc(S(=O)(=O)[O-])c5F)c5ccc2[nH]5)C=C4)C=C3)cc1
REMARK SMILES IDX 20 1 19 2 17 3 18 4 16 5 12 6 13 7 14 8 15 9 11 10 9 11
REMARK SMILES IDX 10 12 8 13 1 14 2 15 3 16 4 17 6 18 5 19 7 20 21 21 22 22
REMARK SMILES IDX 23 23 24 24 25 25 26 26 87 27 27 28 86 29 28 30 29 31 30 32
REMARK SMILES IDX 80 33 31 34 85 35 79 36 81 37 32 38 84 39 78 40 77 41 33 43
REMARK SMILES IDX 65 44 45 45 64 46 46 47 49 48 63 49 82 50 47 51 48 52 62 54
REMARK SMILES IDX 83 55 50 56 34 57 35 58 43 59 36 60 38 61 44 62 37 63 39 64
REMARK SMILES IDX 40 65 41 66 42 67 66 68 67 69 75 70 68 71 70 72 76 73 69 74
REMARK SMILES IDX 71 75 72 76 73 77 74 78 51 79 52 80 60 81 53 82 55 83 61 84
REMARK SMILES IDX 54 85 56 86 57 87 58 88 59 89
REMARK H PARENT 81 42 49 53
REMARK Flexibility Score: inf
ROOT
ATOM      1  C   UNL A   1      32.606  29.751  26.952  1.00  0.00     0.275 C 
ENDROOT
BRANCH   1   2
ATOM      2  O   UNL A   1      32.220  29.811  25.573  1.00  0.00    -0.457 OA
BRANCH   2   3
ATOM      3  C   UNL A   1      32.646  28.737  24.850  1.00  0.00     0.355 C 
ATOM      4  O   UNL A   1      33.808  28.496  24.562  1.00  0.00    -0.244 OA
BRANCH   3   5
ATOM      5  C   UNL A   1      31.531  27.858  24.579  1.00  0.00     0.128 A 
ATOM      6  N   UNL A   1      31.149  26.731  25.281  1.00  0.00    -0.333 N 
ATOM      7  C   UNL A   1      29.935  26.288  24.801  1.00  0.00     0.087 A 
ATOM      8  C   UNL A   1      29.577  27.070  23.730  1.00  0.00     0.020 A 
ATOM      9  C   UNL A   1      30.583  28.049  23.582  1.00  0.00     0.035 A 
BRANCH   6  10
ATOM     10  C   UNL A   1      31.809  26.127  26.436  1.00  0.00     0.222 C 
BRANCH  10  11
ATOM     11  C   UNL A   1      31.793  24.613  26.444  1.00  0.00     0.242 C 
ATOM     12  O   UNL A   1      31.065  24.031  27.257  1.00  0.00    -0.273 OA
BRANCH  11  13
ATOM     13  N   UNL A   1      32.622  23.912  25.572  1.00  0.00    -0.336 N 
ATOM     14  C   UNL A   1      32.306  21.564  24.760  1.00  0.00     0.031 C 
ATOM     15  C   UNL A   1      32.156  23.057  24.452  1.00  0.00     0.082 C 
ATOM     16  C   UNL A   1      32.854  23.416  23.138  1.00  0.00     0.025 C 
ATOM     17  C   UNL A   1      34.368  23.446  23.305  1.00  0.00     0.004 C 
ATOM     18  C   UNL A   1      34.074  24.127  25.737  1.00  0.00     0.082 C 
ATOM     19  C   UNL A   1      34.731  24.437  24.395  1.00  0.00     0.025 C 
ATOM     20  C   UNL A   1      34.797  23.029  26.506  1.00  0.00     0.031 C 
ENDBRANCH  11  13
ENDBRANCH  10  11
ENDBRANCH   6  10
ENDBRANCH   3   5
ENDBRANCH   2   3
ENDBRANCH   1   2
BRANCH   1  21
ATOM     21  C   UNL A   1      33.761  30.708  27.271  1.00  0.00     0.275 C 
BRANCH  21  22
ATOM     22  O   UNL A   1      35.030  30.140  27.629  1.00  0.00    -0.458 OA
BRANCH  22  23
ATOM     23  C   UNL A   1      36.093  30.911  27.951  1.00  0.00     0.338 C 
ATOM     24  O   UNL A   1      36.171  32.123  27.902  1.00  0.00    -0.246 OA
BRANCH  23  25
ATOM     25  C   UNL A   1      37.231  29.987  28.190  1.00  0.00     0.060 A 
ATOM     26  C   UNL A   1      38.237  29.895  27.218  1.00  0.00     0.016 A 
ATOM     27  C   UNL A   1      37.276  29.173  29.330  1.00  0.00     0.016 A 
ATOM     28  C   UNL A   1      39.307  29.020  27.406  1.00  0.00     0.010 A 
ATOM     29  C   UNL A   1      38.341  28.295  29.518  1.00  0.00     0.010 A 
ATOM     30  C   UNL A   1      39.382  28.253  28.579  1.00  0.00    -0.014 A 
BRANCH  30  31
ATOM     31  C   UNL A   1      40.700  27.694  28.987  1.00  0.00     0.031 A 
ATOM     32  C   UNL A   1      40.811  26.192  28.576  1.00  0.00     0.074 A 
ATOM     33  C   UNL A   1      41.586  28.529  29.615  1.00  0.00     0.049 A 
ATOM     34  N   UNL A   1      41.594  25.245  29.008  1.00  0.00    -0.248 NA
ATOM     35  C   UNL A   1      39.827  25.644  27.593  1.00  0.00     0.031 C 
ATOM     36  C   UNL A   1      41.340  29.956  29.922  1.00  0.00     0.029 A 
ATOM     37  N   UNL A   1      42.865  28.367  30.116  1.00  0.00    -0.354 N 
ATOM     38  C   UNL A   1      41.356  24.104  28.194  1.00  0.00     0.074 A 
ATOM     39  C   UNL A   1      40.173  24.367  27.446  1.00  0.00     0.031 C 
ATOM     40  C   UNL A   1      42.378  30.495  30.601  1.00  0.00     0.029 A 
ATOM     41  C   UNL A   1      43.421  29.499  30.771  1.00  0.00     0.049 A 
ATOM     42  H   UNL A   1      43.360  27.521  30.024  1.00  0.00     0.167 HD
ATOM     43  C   UNL A   1      42.215  23.051  28.078  1.00  0.00     0.034 A 
ATOM     44  C   UNL A   1      44.625  29.621  31.420  1.00  0.00     0.034 A 
ATOM     45  C   UNL A   1      43.359  23.273  28.891  1.00  0.00     0.049 A 
ATOM     46  C   UNL A   1      45.357  28.386  31.113  1.00  0.00     0.074 A 
ATOM     47  C   UNL A   1      43.604  23.109  30.226  1.00  0.00     0.029 A 
ATOM     48  N   UNL A   1      44.358  24.025  28.325  1.00  0.00    -0.354 N 
ATOM     49  N   UNL A   1      45.878  28.117  29.953  1.00  0.00    -0.248 NA
ATOM     50  C   UNL A   1      45.452  27.337  32.134  1.00  0.00     0.031 C 
ATOM     51  C   UNL A   1      44.567  24.093  30.517  1.00  0.00     0.029 A 
ATOM     52  C   UNL A   1      44.954  24.736  29.335  1.00  0.00     0.049 A 
ATOM     53  H   UNL A   1      44.602  24.049  27.372  1.00  0.00     0.167 HD
ATOM     54  C   UNL A   1      46.026  26.755  30.013  1.00  0.00     0.074 A 
ATOM     55  C   UNL A   1      46.080  26.413  31.414  1.00  0.00     0.031 C 
ATOM     56  C   UNL A   1      45.591  25.983  28.985  1.00  0.00     0.034 A 
BRANCH  43  57
ATOM     57  C   UNL A   1      42.276  21.849  27.161  1.00  0.00     0.023 A 
ATOM     58  C   UNL A   1      41.348  20.810  27.458  1.00  0.00     0.012 A 
ATOM     59  C   UNL A   1      43.313  21.546  26.260  1.00  0.00     0.148 A 
ATOM     60  C   UNL A   1      41.498  19.508  26.984  1.00  0.00     0.002 A 
ATOM     61  C   UNL A   1      43.434  20.246  25.749  1.00  0.00     0.091 A 
ATOM     62  F   UNL A   1      44.225  22.480  25.968  1.00  0.00    -0.205 F 
ATOM     63  C   UNL A   1      42.552  19.224  26.138  1.00  0.00     0.022 A 
BRANCH  61  64
ATOM     64  S   UNL A   1      44.714  19.769  24.580  1.00  0.00     0.127 S 
ATOM     65  O   UNL A   1      45.933  20.002  25.349  1.00  0.00    -0.237 OA
ATOM     66  O   UNL A   1      44.407  18.355  24.350  1.00  0.00    -0.237 OA
ATOM     67  O   UNL A   1      44.508  20.614  23.411  1.00  0.00    -0.744 OA
ENDBRANCH  61  64
ENDBRANCH  43  57
BRANCH  44  68
ATOM     68  C   UNL A   1      45.317  30.598  32.353  1.00  0.00     0.023 A 
ATOM     69  C   UNL A   1      46.492  31.296  32.040  1.00  0.00     0.012 A 
ATOM     70  C   UNL A   1      44.716  30.943  33.608  1.00  0.00     0.148 A 
ATOM     71  C   UNL A   1      46.975  32.334  32.866  1.00  0.00     0.002 A 
ATOM     72  C   UNL A   1      45.116  32.048  34.354  1.00  0.00     0.091 A 
ATOM     73  F   UNL A   1      43.752  30.172  34.118  1.00  0.00    -0.205 F 
ATOM     74  C   UNL A   1      46.262  32.745  33.993  1.00  0.00     0.022 A 
BRANCH  72  75
ATOM     75  S   UNL A   1      44.102  32.715  35.691  1.00  0.00     0.127 S 
ATOM     76  O   UNL A   1      42.745  32.519  35.183  1.00  0.00    -0.237 OA
ATOM     77  O   UNL A   1      44.473  31.839  36.802  1.00  0.00    -0.237 OA
ATOM     78  O   UNL A   1      44.503  34.106  35.859  1.00  0.00    -0.744 OA
ENDBRANCH  72  75
ENDBRANCH  44  68
BRANCH  56  79
ATOM     79  C   UNL A   1      45.535  26.702  27.638  1.00  0.00     0.023 A 
ATOM     80  C   UNL A   1      44.292  27.246  27.257  1.00  0.00     0.012 A 
ATOM     81  C   UNL A   1      46.587  26.772  26.693  1.00  0.00     0.148 A 
ATOM     82  C   UNL A   1      44.095  27.820  25.997  1.00  0.00     0.002 A 
ATOM     83  C   UNL A   1      46.390  27.343  25.431  1.00  0.00     0.091 A 
ATOM     84  F   UNL A   1      47.774  26.266  27.020  1.00  0.00    -0.205 F 
ATOM     85  C   UNL A   1      45.141  27.871  25.086  1.00  0.00     0.022 A 
BRANCH  83  86
ATOM     86  S   UNL A   1      47.664  27.431  24.155  1.00  0.00     0.127 S 
ATOM     87  O   UNL A   1      48.755  28.122  24.844  1.00  0.00    -0.237 OA
ATOM     88  O   UNL A   1      47.928  26.019  23.883  1.00  0.00    -0.237 OA
ATOM     89  O   UNL A   1      47.087  28.177  23.045  1.00  0.00    -0.744 OA
ENDBRANCH  83  86
ENDBRANCH  56  79
ENDBRANCH  30  31
ENDBRANCH  23  25
ENDBRANCH  22  23
ENDBRANCH  21  22
ENDBRANCH   1  21
TORSDOF 17
ENDMDL
MODEL 2
REMARK VINA RESULT:     -11.6      4.063      9.977
REMARK SMILES C[C@@H]1CCC[C@H](C)N1C(=O)Cn1cccc1C(=O)OCCOC(=O)c1ccc(-c2c3nc(c(-c4cccc(S(=O)(=O)[O-])c4F)c4ccc([nH]4)c(-c4cccc(S(=O)(=O)[O-])c4F)c4nc(c(-c5cccc(S(=O)(=O)[O-])c5F)c5ccc2[nH]5)C=C4)C=C3)cc1
REMARK SMILES IDX 20 1 19 2 17 3 18 4 16 5 12 6 13 7 14 8 15 9 11 10 9 11
REMARK SMILES IDX 10 12 8 13 1 14 2 15 3 16 4 17 6 18 5 19 7 20 21 21 22 22
REMARK SMILES IDX 23 23 24 24 25 25 26 26 87 27 27 28 86 29 28 30 29 31 30 32
REMARK SMILES IDX 80 33 31 34 85 35 79 36 81 37 32 38 84 39 78 40 77 41 33 43
REMARK SMILES IDX 65 44 45 45 64 46 46 47 49 48 63 49 82 50 47 51 48 52 62 54
REMARK SMILES IDX 83 55 50 56 34 57 35 58 43 59 36 60 38 61 44 62 37 63 39 64
REMARK SMILES IDX 40 65 41 66 42 67 66 68 67 69 75 70 68 71 70 72 76 73 69 74
REMARK SMILES IDX 71 75 72 76 73 77 74 78 51 79 52 80 60 81 53 82 55 83 61 84
REMARK SMILES IDX 54 85 56 86 57 87 58 88 59 89
REMARK H PARENT 81 42 49 53
REMARK Flexibility Score: inf
ROOT
ATOM      1  C   UNL A   1      37.328  22.298  24.684  1.00  0.00     0.275 C 
ENDROOT
BRANCH   1   2
ATOM      2  O   UNL A   1      36.101  23.008  24.907  1.00  0.00    -0.457 OA
BRANCH   2   3
ATOM      3  C   UNL A   1      35.180  22.806  23.923  1.00  0.00     0.355 C 
ATOM      4  O   UNL A   1      35.322  23.112  22.750  1.00  0.00    -0.244 OA
BRANCH   3   5
ATOM      5  C   UNL A   1      34.057  22.065  24.451  1.00  0.00     0.128 A 
ATOM      6  N   UNL A   1      32.812  22.549  24.804  1.00  0.00    -0.333 N 
ATOM      7  C   UNL A   1      31.977  21.490  25.090  1.00  0.00     0.087 A 
ATOM      8  C   UNL A   1      32.706  20.327  25.013  1.00  0.00     0.020 A 
ATOM      9  C   UNL A   1      34.013  20.688  24.623  1.00  0.00     0.035 A 
BRANCH   6  10
ATOM     10  C   UNL A   1      32.346  23.934  24.778  1.00  0.00     0.222 C 
BRANCH  10  11
ATOM     11  C   UNL A   1      32.904  24.802  25.885  1.00  0.00     0.242 C 
ATOM     12  O   UNL A   1      33.594  24.272  26.764  1.00  0.00    -0.273 OA
BRANCH  11  13
ATOM     13  N   UNL A   1      32.600  26.161  25.915  1.00  0.00    -0.336 N 
ATOM     14  C   UNL A   1      30.559  27.265  24.973  1.00  0.00     0.031 C 
ATOM     15  C   UNL A   1      31.264  26.730  26.223  1.00  0.00     0.082 C 
ATOM     16  C   UNL A   1      31.345  27.807  27.307  1.00  0.00     0.025 C 
ATOM     17  C   UNL A   1      32.400  28.853  26.973  1.00  0.00     0.004 C 
ATOM     18  C   UNL A   1      33.732  27.088  25.716  1.00  0.00     0.082 C 
ATOM     19  C   UNL A   1      33.743  28.168  26.794  1.00  0.00     0.025 C 
ATOM     20  C   UNL A   1      33.846  27.660  24.309  1.00  0.00     0.031 C 
ENDBRANCH  11  13
ENDBRANCH  10  11
ENDBRANCH   6  10
ENDBRANCH   3   5
ENDBRANCH   2   3
ENDBRANCH   1   2
BRANCH   1  21
ATOM     21  C   UNL A   1      38.255  22.350  25.903  1.00  0.00     0.275 C 
BRANCH  21  22
ATOM     22  O   UNL A   1      38.785  23.625  26.295  1.00  0.00    -0.458 OA
BRANCH  22  23
ATOM     23  C   UNL A   1      39.687  23.748  27.295  1.00  0.00     0.338 C 
ATOM     24  O   UNL A   1      40.292  22.858  27.859  1.00  0.00    -0.246 OA
BRANCH  23  25
ATOM     25  C   UNL A   1      39.658  25.170  27.722  1.00  0.00     0.060 A 
ATOM     26  C   UNL A   1      39.197  25.476  29.009  1.00  0.00     0.016 A 
ATOM     27  C   UNL A   1      40.022  26.198  26.840  1.00  0.00     0.016 A 
ATOM     28  C   UNL A   1      39.138  26.805  29.430  1.00  0.00     0.010 A 
ATOM     29  C   UNL A   1      39.960  27.526  27.256  1.00  0.00     0.010 A 
ATOM     30  C   UNL A   1      39.564  27.828  28.567  1.00  0.00    -0.014 A 
BRANCH  30  31
ATOM     31  C   UNL A   1      39.935  29.147  29.148  1.00  0.00     0.031 A 
ATOM     32  C   UNL A   1      38.781  30.180  28.946  1.00  0.00     0.074 A 
ATOM     33  C   UNL A   1      41.156  29.262  29.756  1.00  0.00     0.049 A 
ATOM     34  N   UNL A   1      38.787  31.482  28.976  1.00  0.00    -0.248 NA
ATOM     35  C   UNL A   1      37.428  29.676  28.559  1.00  0.00     0.031 C 
ATOM     36  C   UNL A   1      42.148  28.170  29.889  1.00  0.00     0.029 A 
ATOM     37  N   UNL A   1      41.817  30.297  30.393  1.00  0.00    -0.354 N 
ATOM     38  C   UNL A   1      37.436  31.908  28.856  1.00  0.00     0.074 A 
ATOM     39  C   UNL A   1      36.674  30.769  28.466  1.00  0.00     0.031 C 
ATOM     40  C   UNL A   1      43.281  28.609  30.483  1.00  0.00     0.029 A 
ATOM     41  C   UNL A   1      43.135  30.010  30.838  1.00  0.00     0.049 A 
ATOM     42  H   UNL A   1      41.399  31.179  30.529  1.00  0.00     0.167 HD
ATOM     43  C   UNL A   1      36.987  33.146  29.212  1.00  0.00     0.034 A 
ATOM     44  C   UNL A   1      44.051  30.842  31.431  1.00  0.00     0.034 A 
ATOM     45  C   UNL A   1      38.068  33.926  29.703  1.00  0.00     0.049 A 
ATOM     46  C   UNL A   1      43.314  32.075  31.734  1.00  0.00     0.074 A 
ATOM     47  C   UNL A   1      39.057  34.644  29.091  1.00  0.00     0.029 A 
ATOM     48  N   UNL A   1      38.369  33.761  31.032  1.00  0.00    -0.354 N 
ATOM     49  N   UNL A   1      42.430  32.182  32.681  1.00  0.00    -0.248 NA
ATOM     50  C   UNL A   1      43.506  33.252  30.880  1.00  0.00     0.031 C 
ATOM     51  C   UNL A   1      40.133  34.579  29.997  1.00  0.00     0.029 A 
ATOM     52  C   UNL A   1      39.723  33.927  31.167  1.00  0.00     0.049 A 
ATOM     53  H   UNL A   1      37.731  33.560  31.754  1.00  0.00     0.167 HD
ATOM     54  C   UNL A   1      41.727  33.294  32.293  1.00  0.00     0.074 A 
ATOM     55  C   UNL A   1      42.606  34.055  31.439  1.00  0.00     0.031 C 
ATOM     56  C   UNL A   1      40.371  33.260  32.270  1.00  0.00     0.034 A 
BRANCH  43  57
ATOM     57  C   UNL A   1      35.610  33.755  29.355  1.00  0.00     0.023 A 
ATOM     58  C   UNL A   1      34.981  34.132  28.134  1.00  0.00     0.012 A 
ATOM     59  C   UNL A   1      35.035  34.233  30.547  1.00  0.00     0.148 A 
ATOM     60  C   UNL A   1      33.912  35.025  28.082  1.00  0.00     0.002 A 
ATOM     61  C   UNL A   1      33.931  35.095  30.492  1.00  0.00     0.091 A 
ATOM     62  F   UNL A   1      35.603  33.928  31.720  1.00  0.00    -0.205 F 
ATOM     63  C   UNL A   1      33.396  35.517  29.265  1.00  0.00     0.022 A 
BRANCH  61  64
ATOM     64  S   UNL A   1      33.119  35.740  31.961  1.00  0.00     0.127 S 
ATOM     65  O   UNL A   1      32.860  34.524  32.726  1.00  0.00    -0.237 OA
ATOM     66  O   UNL A   1      34.159  36.602  32.531  1.00  0.00    -0.237 OA
ATOM     67  O   UNL A   1      31.954  36.466  31.475  1.00  0.00    -0.744 OA
ENDBRANCH  61  64
ENDBRANCH  43  57
BRANCH  44  68
ATOM     68  C   UNL A   1      45.531  30.843  31.772  1.00  0.00     0.023 A 
ATOM     69  C   UNL A   1      46.048  31.064  33.056  1.00  0.00     0.012 A 
ATOM     70  C   UNL A   1      46.499  30.500  30.773  1.00  0.00     0.148 A 
ATOM     71  C   UNL A   1      47.414  30.856  33.347  1.00  0.00     0.002 A 
ATOM     72  C   UNL A   1      47.815  30.170  31.084  1.00  0.00     0.091 A 
ATOM     73  F   UNL A   1      46.158  30.519  29.482  1.00  0.00    -0.205 F 
ATOM     74  C   UNL A   1      48.286  30.361  32.377  1.00  0.00     0.022 A 
BRANCH  72  75
ATOM     75  S   UNL A   1      48.898  29.343  29.899  1.00  0.00     0.127 S 
ATOM     76  O   UNL A   1      48.882  30.264  28.764  1.00  0.00    -0.237 OA
ATOM     77  O   UNL A   1      50.159  29.302  30.638  1.00  0.00    -0.237 OA
ATOM     78  O   UNL A   1      48.307  28.036  29.642  1.00  0.00    -0.744 OA
ENDBRANCH  72  75
ENDBRANCH  44  68
BRANCH  56  79
ATOM     79  C   UNL A   1      39.751  32.238  33.222  1.00  0.00     0.023 A 
ATOM     80  C   UNL A   1      39.458  30.966  32.690  1.00  0.00     0.012 A 
ATOM     81  C   UNL A   1      39.341  32.489  34.554  1.00  0.00     0.148 A 
ATOM     82  C   UNL A   1      38.783  29.994  33.434  1.00  0.00     0.002 A 
ATOM     83  C   UNL A   1      38.663  31.518  35.299  1.00  0.00     0.091 A 
ATOM     84  F   UNL A   1      39.600  33.681  35.087  1.00  0.00    -0.205 F 
ATOM     85  C   UNL A   1      38.387  30.267  34.737  1.00  0.00     0.022 A 
BRANCH  83  86
ATOM     86  S   UNL A   1      38.069  31.774  36.984  1.00  0.00     0.127 S 
ATOM     87  O   UNL A   1      37.059  32.820  36.808  1.00  0.00    -0.237 OA
ATOM     88  O   UNL A   1      37.517  30.462  37.321  1.00  0.00    -0.237 OA
ATOM     89  O   UNL A   1      39.224  32.180  37.773  1.00  0.00    -0.744 OA
ENDBRANCH  83  86
ENDBRANCH  56  79
ENDBRANCH  30  31
ENDBRANCH  23  25
ENDBRANCH  22  23
ENDBRANCH  21  22
ENDBRANCH   1  21
TORSDOF 17
ENDMDL
MODEL 3
REMARK VINA RESULT:     -11.2      1.674      2.115
REMARK SMILES C[C@@H]1CCC[C@H](C)N1C(=O)Cn1cccc1C(=O)OCCOC(=O)c1ccc(-c2c3nc(c(-c4cccc(S(=O)(=O)[O-])c4F)c4ccc([nH]4)c(-c4cccc(S(=O)(=O)[O-])c4F)c4nc(c(-c5cccc(S(=O)(=O)[O-])c5F)c5ccc2[nH]5)C=C4)C=C3)cc1
REMARK SMILES IDX 20 1 19 2 17 3 18 4 16 5 12 6 13 7 14 8 15 9 11 10 9 11
REMARK SMILES IDX 10 12 8 13 1 14 2 15 3 16 4 17 6 18 5 19 7 20 21 21 22 22
REMARK SMILES IDX 23 23 24 24 25 25 26 26 87 27 27 28 86 29 28 30 29 31 30 32
REMARK SMILES IDX 80 33 31 34 85 35 79 36 81 37 32 38 84 39 78 40 77 41 33 43
REMARK SMILES IDX 65 44 45 45 64 46 46 47 49 48 63 49 82 50 47 51 48 52 62 54
REMARK SMILES IDX 83 55 50 56 34 57 35 58 43 59 36 60 38 61 44 62 37 63 39 64
REMARK SMILES IDX 40 65 41 66 42 67 66 68 67 69 75 70 68 71 70 72 76 73 69 74
REMARK SMILES IDX 71 75 72 76 73 77 74 78 51 79 52 80 60 81 53 82 55 83 61 84
REMARK SMILES IDX 54 85 56 86 57 87 58 88 59 89
REMARK H PARENT 81 42 49 53
REMARK Flexibility Score: inf
ROOT
ATOM      1  C   UNL A   1      32.965  30.464  26.331  1.00  0.00     0.275 C 
ENDROOT
BRANCH   1   2
ATOM      2  O   UNL A   1      32.558  29.118  26.049  1.00  0.00    -0.457 OA
BRANCH   2   3
ATOM      3  C   UNL A   1      32.712  28.776  24.739  1.00  0.00     0.355 C 
ATOM      4  O   UNL A   1      33.683  29.044  24.049  1.00  0.00    -0.244 OA
BRANCH   3   5
ATOM      5  C   UNL A   1      31.608  27.942  24.319  1.00  0.00     0.128 A 
ATOM      6  N   UNL A   1      31.450  26.583  24.513  1.00  0.00    -0.333 N 
ATOM      7  C   UNL A   1      30.182  26.213  24.119  1.00  0.00     0.087 A 
ATOM      8  C   UNL A   1      29.553  27.312  23.586  1.00  0.00     0.020 A 
ATOM      9  C   UNL A   1      30.450  28.395  23.700  1.00  0.00     0.035 A 
BRANCH   6  10
ATOM     10  C   UNL A   1      32.383  25.652  25.143  1.00  0.00     0.222 C 
BRANCH  10  11
ATOM     11  C   UNL A   1      33.429  25.085  24.207  1.00  0.00     0.242 C 
ATOM     12  O   UNL A   1      33.792  25.766  23.240  1.00  0.00    -0.273 OA
BRANCH  11  13
ATOM     13  N   UNL A   1      33.928  23.804  24.426  1.00  0.00    -0.336 N 
ATOM     14  C   UNL A   1      36.090  22.867  23.578  1.00  0.00     0.031 C 
ATOM     15  C   UNL A   1      35.337  23.481  24.762  1.00  0.00     0.082 C 
ATOM     16  C   UNL A   1      35.433  22.581  25.996  1.00  0.00     0.025 C 
ATOM     17  C   UNL A   1      34.535  21.359  25.862  1.00  0.00     0.004 C 
ATOM     18  C   UNL A   1      32.939  22.707  24.411  1.00  0.00     0.082 C 
ATOM     19  C   UNL A   1      33.104  21.813  25.637  1.00  0.00     0.025 C 
ATOM     20  C   UNL A   1      32.884  21.917  23.110  1.00  0.00     0.031 C 
ENDBRANCH  11  13
ENDBRANCH  10  11
ENDBRANCH   6  10
ENDBRANCH   3   5
ENDBRANCH   2   3
ENDBRANCH   1   2
BRANCH   1  21
ATOM     21  C   UNL A   1      33.810  30.557  27.607  1.00  0.00     0.275 C 
BRANCH  21  22
ATOM     22  O   UNL A   1      35.160  30.070  27.559  1.00  0.00    -0.458 OA
BRANCH  22  23
ATOM     23  C   UNL A   1      36.205  30.817  27.984  1.00  0.00     0.338 C 
ATOM     24  O   UNL A   1      36.276  32.030  28.032  1.00  0.00    -0.246 OA
BRANCH  23  25
ATOM     25  C   UNL A   1      37.338  29.882  28.197  1.00  0.00     0.060 A 
ATOM     26  C   UNL A   1      38.333  29.797  27.214  1.00  0.00     0.016 A 
ATOM     27  C   UNL A   1      37.388  29.050  29.325  1.00  0.00     0.016 A 
ATOM     28  C   UNL A   1      39.398  28.911  27.378  1.00  0.00     0.010 A 
ATOM     29  C   UNL A   1      38.448  28.162  29.489  1.00  0.00     0.010 A 
ATOM     30  C   UNL A   1      39.479  28.125  28.539  1.00  0.00    -0.014 A 
BRANCH  30  31
ATOM     31  C   UNL A   1      40.797  27.551  28.925  1.00  0.00     0.031 A 
ATOM     32  C   UNL A   1      40.898  26.059  28.476  1.00  0.00     0.074 A 
ATOM     33  C   UNL A   1      41.690  28.366  29.568  1.00  0.00     0.049 A 
ATOM     34  N   UNL A   1      41.680  25.099  28.880  1.00  0.00    -0.248 NA
ATOM     35  C   UNL A   1      39.906  25.540  27.486  1.00  0.00     0.031 C 
ATOM     36  C   UNL A   1      41.453  29.786  29.912  1.00  0.00     0.029 A 
ATOM     37  N   UNL A   1      42.972  28.186  30.057  1.00  0.00    -0.354 N 
ATOM     38  C   UNL A   1      41.431  23.978  28.039  1.00  0.00     0.074 A 
ATOM     39  C   UNL A   1      40.245  24.265  27.304  1.00  0.00     0.031 C 
ATOM     40  C   UNL A   1      42.498  30.304  30.598  1.00  0.00     0.029 A 
ATOM     41  C   UNL A   1      43.537  29.299  30.737  1.00  0.00     0.049 A 
ATOM     42  H   UNL A   1      43.462  27.340  29.941  1.00  0.00     0.167 HD
ATOM     43  C   UNL A   1      42.285  22.925  27.892  1.00  0.00     0.034 A 
ATOM     44  C   UNL A   1      44.745  29.399  31.381  1.00  0.00     0.034 A 
ATOM     45  C   UNL A   1      43.435  23.122  28.703  1.00  0.00     0.049 A 
ATOM     46  C   UNL A   1      45.469  28.169  31.039  1.00  0.00     0.074 A 
ATOM     47  C   UNL A   1      43.686  22.924  30.032  1.00  0.00     0.029 A 
ATOM     48  N   UNL A   1      44.434  23.883  28.150  1.00  0.00    -0.354 N 
ATOM     49  N   UNL A   1      45.982  27.927  29.870  1.00  0.00    -0.248 NA
ATOM     50  C   UNL A   1      45.565  27.095  32.033  1.00  0.00     0.031 C 
ATOM     51  C   UNL A   1      44.656  23.896  30.342  1.00  0.00     0.029 A 
ATOM     52  C   UNL A   1      45.039  24.567  29.173  1.00  0.00     0.049 A 
ATOM     53  H   UNL A   1      44.672  23.929  27.196  1.00  0.00     0.167 HD
ATOM     54  C   UNL A   1      46.124  26.562  29.895  1.00  0.00     0.074 A 
ATOM     55  C   UNL A   1      46.185  26.186  31.287  1.00  0.00     0.031 C 
ATOM     56  C   UNL A   1      45.680  25.819  28.851  1.00  0.00     0.034 A 
BRANCH  43  57
ATOM     57  C   UNL A   1      42.334  21.746  26.945  1.00  0.00     0.023 A 
ATOM     58  C   UNL A   1      41.294  20.788  27.111  1.00  0.00     0.012 A 
ATOM     59  C   UNL A   1      43.429  21.373  26.143  1.00  0.00     0.148 A 
ATOM     60  C   UNL A   1      41.377  19.490  26.610  1.00  0.00     0.002 A 
ATOM     61  C   UNL A   1      43.487  20.081  25.603  1.00  0.00     0.091 A 
ATOM     62  F   UNL A   1      44.444  22.227  25.976  1.00  0.00    -0.205 F 
ATOM     63  C   UNL A   1      42.484  19.133  25.865  1.00  0.00     0.022 A 
BRANCH  61  64
ATOM     64  S   UNL A   1      44.835  19.519  24.553  1.00  0.00     0.127 S 
ATOM     65  O   UNL A   1      45.914  20.428  24.929  1.00  0.00    -0.237 OA
ATOM     66  O   UNL A   1      45.022  18.139  25.008  1.00  0.00    -0.237 OA
ATOM     67  O   UNL A   1      44.337  19.627  23.189  1.00  0.00    -0.744 OA
ENDBRANCH  61  64
ENDBRANCH  43  57
BRANCH  44  68
ATOM     68  C   UNL A   1      45.447  30.350  32.334  1.00  0.00     0.023 A 
ATOM     69  C   UNL A   1      44.916  30.781  33.558  1.00  0.00     0.012 A 
ATOM     70  C   UNL A   1      46.785  30.785  32.060  1.00  0.00     0.148 A 
ATOM     71  C   UNL A   1      45.697  31.503  34.486  1.00  0.00     0.002 A 
ATOM     72  C   UNL A   1      47.593  31.382  33.024  1.00  0.00     0.091 A 
ATOM     73  F   UNL A   1      47.290  30.651  30.830  1.00  0.00    -0.205 F 
ATOM     74  C   UNL A   1      47.046  31.758  34.244  1.00  0.00     0.022 A 
BRANCH  72  75
ATOM     75  S   UNL A   1      49.379  31.538  32.808  1.00  0.00     0.127 S 
ATOM     76  O   UNL A   1      49.482  32.569  31.778  1.00  0.00    -0.237 OA
ATOM     77  O   UNL A   1      49.797  31.962  34.144  1.00  0.00    -0.237 OA
ATOM     78  O   UNL A   1      49.864  30.221  32.414  1.00  0.00    -0.744 OA
ENDBRANCH  72  75
ENDBRANCH  44  68
BRANCH  56  79
ATOM     79  C   UNL A   1      45.620  26.571  27.523  1.00  0.00     0.023 A 
ATOM     80  C   UNL A   1      44.379  27.137  27.166  1.00  0.00     0.012 A 
ATOM     81  C   UNL A   1      46.664  26.653  26.569  1.00  0.00     0.148 A 
ATOM     82  C   UNL A   1      44.176  27.743  25.923  1.00  0.00     0.002 A 
ATOM     83  C   UNL A   1      46.461  27.258  25.324  1.00  0.00     0.091 A 
ATOM     84  F   UNL A   1      47.848  26.127  26.873  1.00  0.00    -0.205 F 
ATOM     85  C   UNL A   1      45.215  27.806  25.003  1.00  0.00     0.022 A 
BRANCH  83  86
ATOM     86  S   UNL A   1      47.724  27.364  24.039  1.00  0.00     0.127 S 
ATOM     87  O   UNL A   1      47.070  28.185  23.019  1.00  0.00    -0.237 OA
ATOM     88  O   UNL A   1      48.820  28.037  24.736  1.00  0.00    -0.237 OA
ATOM     89  O   UNL A   1      48.005  25.997  23.621  1.00  0.00    -0.744 OA
ENDBRANCH  83  86
ENDBRANCH  56  79
ENDBRANCH  30  31
ENDBRANCH  23  25
ENDBRANCH  22  23
ENDBRANCH  21  22
ENDBRANCH   1  21
TORSDOF 17
ENDMDL
