MODEL 1
REMARK VINA RESULT:     -10.8      0.000      0.000
REMARK SMILES CC(C)n1c([C@H](O)CC(=O)OCCOC(=O)c2ccc(-c3c4nc(c(-c5cccc(S(=O)(=O)[O-])c5F)c5ccc([nH]5)c(-c5cccc(S(=O)(=O)[O-])c5F)c5nc(c(-c6cccc(S(=O)(=O)[O-])c6F)c6ccc3[nH]6)C=C5)C=C4)cc2)nc2cc(Cl)ccc21
REMARK SMILES IDX 12 1 11 2 9 3 10 4 8 5 6 6 5 7 4 8 87 9 80 10 81 11 86 12
REMARK SMILES IDX 82 13 85 14 83 15 84 16 2 17 1 18 3 19 7 20 13 22 14 23
REMARK SMILES IDX 15 24 16 25 17 26 18 27 79 28 19 29 78 30 20 31 21 32 22 33
REMARK SMILES IDX 72 34 23 35 77 36 71 37 73 38 24 39 76 40 70 41 69 42 25 44
REMARK SMILES IDX 57 45 37 46 56 47 38 48 41 49 55 50 74 51 39 52 40 53 54 55
REMARK SMILES IDX 75 56 42 57 26 58 27 59 35 60 28 61 30 62 36 63 29 64 31 65
REMARK SMILES IDX 32 66 33 67 34 68 58 69 59 70 67 71 60 72 62 73 68 74 61 75
REMARK SMILES IDX 63 76 64 77 65 78 66 79 43 80 44 81 52 82 45 83 47 84 53 85
REMARK SMILES IDX 46 86 48 87 49 88 50 89 51 90
REMARK H PARENT 7 21 73 43 41 54
REMARK Flexibility Score: inf
ROOT
ATOM      1  C   UNL A   1      34.128  34.132  30.251  1.00  0.00     0.274 C 
ENDROOT
BRANCH   1   2
ATOM      2  O   UNL A   1      33.983  35.340  31.029  1.00  0.00    -0.462 OA
BRANCH   2   3
ATOM      3  C   UNL A   1      33.469  35.202  32.285  1.00  0.00     0.309 C 
ATOM      4  O   UNL A   1      32.288  34.980  32.515  1.00  0.00    -0.252 OA
BRANCH   3   5
ATOM      5  C   UNL A   1      34.503  35.490  33.353  1.00  0.00     0.162 C 
BRANCH   5   6
ATOM      6  C   UNL A   1      35.204  34.245  33.872  1.00  0.00     0.191 C 
BRANCH   6   7
ATOM      7  C   UNL A   1      36.635  34.141  33.377  1.00  0.00     0.139 A 
ATOM      8  N   UNL A   1      37.644  33.311  33.842  1.00  0.00    -0.323 N 
ATOM      9  C   UNL A   1      38.722  33.415  32.977  1.00  0.00     0.069 A 
ATOM     10  N   UNL A   1      37.085  34.851  32.348  1.00  0.00    -0.230 NA
ATOM     11  C   UNL A   1      38.345  34.384  32.057  1.00  0.00     0.090 A 
ATOM     12  C   UNL A   1      39.955  32.750  32.903  1.00  0.00     0.030 A 
ATOM     13  C   UNL A   1      39.227  34.736  31.019  1.00  0.00     0.051 A 
ATOM     14  C   UNL A   1      40.822  33.104  31.867  1.00  0.00     0.023 A 
ATOM     15  C   UNL A   1      40.466  34.087  30.948  1.00  0.00     0.043 A 
ATOM     16  Cl  UNL A   1      41.590  34.526  29.717  1.00  0.00    -0.084 Cl
BRANCH   8  17
ATOM     17  C   UNL A   1      37.653  32.449  35.017  1.00  0.00     0.083 C 
ATOM     18  C   UNL A   1      37.965  30.985  34.684  1.00  0.00     0.031 C 
ATOM     19  C   UNL A   1      38.425  33.051  36.188  1.00  0.00     0.031 C 
ENDBRANCH   8  17
ENDBRANCH   6   7
BRANCH   6  20
ATOM     20  O   UNL A   1      34.444  33.100  33.498  1.00  0.00    -0.385 OA
ATOM     21  H   UNL A   1      33.690  33.002  34.101  1.00  0.00     0.211 HD
ENDBRANCH   6  20
ENDBRANCH   5   6
ENDBRANCH   3   5
ENDBRANCH   2   3
ENDBRANCH   1   2
BRANCH   1  22
ATOM     22  C   UNL A   1      34.672  34.477  28.861  1.00  0.00     0.275 C 
BRANCH  22  23
ATOM     23  O   UNL A   1      35.703  33.535  28.526  1.00  0.00    -0.458 OA
BRANCH  23  24
ATOM     24  C   UNL A   1      35.304  32.267  28.262  1.00  0.00     0.338 C 
ATOM     25  O   UNL A   1      34.432  31.927  27.473  1.00  0.00    -0.246 OA
BRANCH  24  26
ATOM     26  C   UNL A   1      36.372  31.391  28.786  1.00  0.00     0.060 A 
ATOM     27  C   UNL A   1      37.453  31.915  29.507  1.00  0.00     0.016 A 
ATOM     28  C   UNL A   1      36.435  30.106  28.253  1.00  0.00     0.016 A 
ATOM     29  C   UNL A   1      38.670  31.239  29.500  1.00  0.00     0.010 A 
ATOM     30  C   UNL A   1      37.657  29.451  28.237  1.00  0.00     0.010 A 
ATOM     31  C   UNL A   1      38.802  30.060  28.762  1.00  0.00    -0.014 A 
BRANCH  31  32
ATOM     32  C   UNL A   1      40.064  29.314  28.776  1.00  0.00     0.031 A 
ATOM     33  C   UNL A   1      40.452  29.038  30.177  1.00  0.00     0.074 A 
ATOM     34  C   UNL A   1      40.795  28.819  27.748  1.00  0.00     0.049 A 
ATOM     35  N   UNL A   1      41.273  29.745  30.881  1.00  0.00    -0.248 NA
ATOM     36  C   UNL A   1      39.683  28.049  30.950  1.00  0.00     0.031 C 
ATOM     37  C   UNL A   1      40.488  28.779  26.319  1.00  0.00     0.029 A 
ATOM     38  N   UNL A   1      41.981  28.131  27.791  1.00  0.00    -0.354 N 
ATOM     39  C   UNL A   1      41.311  29.108  32.111  1.00  0.00     0.074 A 
ATOM     40  C   UNL A   1      40.146  28.268  32.182  1.00  0.00     0.031 C 
ATOM     41  C   UNL A   1      41.274  27.870  25.692  1.00  0.00     0.029 A 
ATOM     42  C   UNL A   1      42.290  27.428  26.624  1.00  0.00     0.049 A 
ATOM     43  H   UNL A   1      42.567  28.132  28.582  1.00  0.00     0.167 HD
ATOM     44  C   UNL A   1      42.469  29.035  32.818  1.00  0.00     0.034 A 
ATOM     45  C   UNL A   1      43.328  26.571  26.441  1.00  0.00     0.034 A 
ATOM     46  C   UNL A   1      43.492  29.869  32.251  1.00  0.00     0.049 A 
ATOM     47  C   UNL A   1      44.370  26.988  27.400  1.00  0.00     0.074 A 
ATOM     48  C   UNL A   1      43.770  31.215  32.170  1.00  0.00     0.029 A 
ATOM     49  N   UNL A   1      44.194  29.244  31.254  1.00  0.00    -0.354 N 
ATOM     50  N   UNL A   1      45.006  28.123  27.325  1.00  0.00    -0.248 NA
ATOM     51  C   UNL A   1      44.522  26.257  28.650  1.00  0.00     0.031 C 
ATOM     52  C   UNL A   1      44.538  31.392  30.980  1.00  0.00     0.029 A 
ATOM     53  C   UNL A   1      44.739  30.147  30.386  1.00  0.00     0.049 A 
ATOM     54  H   UNL A   1      44.292  28.267  31.173  1.00  0.00     0.167 HD
ATOM     55  C   UNL A   1      45.232  28.452  28.647  1.00  0.00     0.074 A 
ATOM     56  C   UNL A   1      45.100  27.205  29.387  1.00  0.00     0.031 C 
ATOM     57  C   UNL A   1      45.162  29.747  29.063  1.00  0.00     0.034 A 
BRANCH  44  58
ATOM     58  C   UNL A   1      42.822  27.859  33.687  1.00  0.00     0.023 A 
ATOM     59  C   UNL A   1      43.693  26.883  33.167  1.00  0.00     0.012 A 
ATOM     60  C   UNL A   1      42.145  27.550  34.890  1.00  0.00     0.148 A 
ATOM     61  C   UNL A   1      43.912  25.677  33.842  1.00  0.00     0.002 A 
ATOM     62  C   UNL A   1      42.437  26.396  35.602  1.00  0.00     0.091 A 
ATOM     63  F   UNL A   1      41.109  28.303  35.278  1.00  0.00    -0.205 F 
ATOM     64  C   UNL A   1      43.309  25.445  35.073  1.00  0.00     0.022 A 
BRANCH  62  65
ATOM     65  S   UNL A   1      41.715  26.082  37.216  1.00  0.00     0.127 S 
ATOM     66  O   UNL A   1      42.886  26.177  38.083  1.00  0.00    -0.237 OA
ATOM     67  O   UNL A   1      40.761  27.185  37.335  1.00  0.00    -0.237 OA
ATOM     68  O   UNL A   1      41.097  24.767  37.109  1.00  0.00    -0.744 OA
ENDBRANCH  62  65
ENDBRANCH  44  58
BRANCH  45  69
ATOM     69  C   UNL A   1      43.448  25.271  25.721  1.00  0.00     0.023 A 
ATOM     70  C   UNL A   1      44.630  25.022  24.981  1.00  0.00     0.012 A 
ATOM     71  C   UNL A   1      42.634  24.168  26.050  1.00  0.00     0.148 A 
ATOM     72  C   UNL A   1      45.060  23.720  24.706  1.00  0.00     0.002 A 
ATOM     73  C   UNL A   1      43.062  22.869  25.763  1.00  0.00     0.091 A 
ATOM     74  F   UNL A   1      41.496  24.378  26.721  1.00  0.00    -0.205 F 
ATOM     75  C   UNL A   1      44.289  22.642  25.123  1.00  0.00     0.022 A 
BRANCH  73  76
ATOM     76  S   UNL A   1      42.110  21.423  26.252  1.00  0.00     0.127 S 
ATOM     77  O   UNL A   1      42.306  21.401  27.704  1.00  0.00    -0.237 OA
ATOM     78  O   UNL A   1      40.761  21.780  25.825  1.00  0.00    -0.237 OA
ATOM     79  O   UNL A   1      42.723  20.295  25.558  1.00  0.00    -0.744 OA
ENDBRANCH  73  76
ENDBRANCH  45  69
BRANCH  57  80
ATOM     80  C   UNL A   1      45.389  30.816  28.040  1.00  0.00     0.023 A 
ATOM     81  C   UNL A   1      44.348  31.443  27.326  1.00  0.00     0.012 A 
ATOM     82  C   UNL A   1      46.709  31.260  27.863  1.00  0.00     0.148 A 
ATOM     83  C   UNL A   1      44.628  32.496  26.448  1.00  0.00     0.002 A 
ATOM     84  C   UNL A   1      46.979  32.325  27.018  1.00  0.00     0.091 A 
ATOM     85  F   UNL A   1      47.679  30.636  28.548  1.00  0.00    -0.205 F 
ATOM     86  C   UNL A   1      45.942  32.946  26.305  1.00  0.00     0.022 A 
BRANCH  84  87
ATOM     87  S   UNL A   1      48.634  32.996  26.851  1.00  0.00     0.127 S 
ATOM     88  O   UNL A   1      48.442  34.033  25.839  1.00  0.00    -0.237 OA
ATOM     89  O   UNL A   1      48.901  33.497  28.199  1.00  0.00    -0.237 OA
ATOM     90  O   UNL A   1      49.485  31.883  26.446  1.00  0.00    -0.744 OA
ENDBRANCH  84  87
ENDBRANCH  57  80
ENDBRANCH  31  32
ENDBRANCH  24  26
ENDBRANCH  23  24
ENDBRANCH  22  23
ENDBRANCH   1  22
TORSDOF 18
ENDMDL
MODEL 2
REMARK VINA RESULT:     -10.7      4.527      9.076
REMARK SMILES CC(C)n1c([C@H](O)CC(=O)OCCOC(=O)c2ccc(-c3c4nc(c(-c5cccc(S(=O)(=O)[O-])c5F)c5ccc([nH]5)c(-c5cccc(S(=O)(=O)[O-])c5F)c5nc(c(-c6cccc(S(=O)(=O)[O-])c6F)c6ccc3[nH]6)C=C5)C=C4)cc2)nc2cc(Cl)ccc21
REMARK SMILES IDX 12 1 11 2 9 3 10 4 8 5 6 6 5 7 4 8 87 9 80 10 81 11 86 12
REMARK SMILES IDX 82 13 85 14 83 15 84 16 2 17 1 18 3 19 7 20 13 22 14 23
REMARK SMILES IDX 15 24 16 25 17 26 18 27 79 28 19 29 78 30 20 31 21 32 22 33
REMARK SMILES IDX 72 34 23 35 77 36 71 37 73 38 24 39 76 40 70 41 69 42 25 44
REMARK SMILES IDX 57 45 37 46 56 47 38 48 41 49 55 50 74 51 39 52 40 53 54 55
REMARK SMILES IDX 75 56 42 57 26 58 27 59 35 60 28 61 30 62 36 63 29 64 31 65
REMARK SMILES IDX 32 66 33 67 34 68 58 69 59 70 67 71 60 72 62 73 68 74 61 75
REMARK SMILES IDX 63 76 64 77 65 78 66 79 43 80 44 81 52 82 45 83 47 84 53 85
REMARK SMILES IDX 46 86 48 87 49 88 50 89 51 90
REMARK H PARENT 7 21 73 43 41 54
REMARK Flexibility Score: inf
ROOT
ATOM      1  C   UNL A   1      35.226  22.249  23.945  1.00  0.00     0.274 C 
ENDROOT
BRANCH   1   2
ATOM      2  O   UNL A   1      33.878  22.674  23.649  1.00  0.00    -0.462 OA
BRANCH   2   3
ATOM      3  C   UNL A   1      33.741  23.828  22.935  1.00  0.00     0.309 C 
ATOM      4  O   UNL A   1      33.445  23.863  21.749  1.00  0.00    -0.252 OA
BRANCH   3   5
ATOM      5  C   UNL A   1      34.130  25.045  23.749  1.00  0.00     0.162 C 
BRANCH   5   6
ATOM      6  C   UNL A   1      33.228  25.288  24.949  1.00  0.00     0.191 C 
BRANCH   6   7
ATOM      7  C   UNL A   1      33.050  26.765  25.247  1.00  0.00     0.139 A 
ATOM      8  N   UNL A   1      32.005  27.595  24.869  1.00  0.00    -0.323 N 
ATOM      9  C   UNL A   1      32.162  28.809  25.518  1.00  0.00     0.069 A 
ATOM     10  N   UNL A   1      33.913  27.450  25.990  1.00  0.00    -0.230 NA
ATOM     11  C   UNL A   1      33.360  28.690  26.208  1.00  0.00     0.090 A 
ATOM     12  C   UNL A   1      31.371  29.967  25.582  1.00  0.00     0.030 A 
ATOM     13  C   UNL A   1      33.823  29.766  26.987  1.00  0.00     0.051 A 
ATOM     14  C   UNL A   1      31.837  31.028  26.363  1.00  0.00     0.023 A 
ATOM     15  C   UNL A   1      33.047  30.930  27.045  1.00  0.00     0.043 A 
ATOM     16  Cl  UNL A   1      33.605  32.284  27.953  1.00  0.00    -0.084 Cl
BRANCH   8  17
ATOM     17  C   UNL A   1      30.899  27.321  23.960  1.00  0.00     0.083 C 
ATOM     18  C   UNL A   1      31.352  27.126  22.508  1.00  0.00     0.031 C 
ATOM     19  C   UNL A   1      29.926  26.279  24.506  1.00  0.00     0.031 C 
ENDBRANCH   8  17
ENDBRANCH   6   7
BRANCH   6  20
ATOM     20  O   UNL A   1      33.762  24.595  26.073  1.00  0.00    -0.385 OA
ATOM     21  H   UNL A   1      33.095  23.985  26.424  1.00  0.00     0.211 HD
ENDBRANCH   6  20
ENDBRANCH   5   6
ENDBRANCH   3   5
ENDBRANCH   2   3
ENDBRANCH   1   2
BRANCH   1  22
ATOM     22  C   UNL A   1      35.209  21.252  25.108  1.00  0.00     0.275 C 
BRANCH  22  23
ATOM     23  O   UNL A   1      36.346  21.507  25.946  1.00  0.00    -0.458 OA
BRANCH  23  24
ATOM     24  C   UNL A   1      37.474  20.809  25.668  1.00  0.00     0.338 C 
ATOM     25  O   UNL A   1      37.542  19.744  25.069  1.00  0.00    -0.246 OA
BRANCH  24  26
ATOM     26  C   UNL A   1      38.591  21.757  25.857  1.00  0.00     0.060 A 
ATOM     27  C   UNL A   1      39.869  21.312  26.217  1.00  0.00     0.016 A 
ATOM     28  C   UNL A   1      38.246  23.100  25.993  1.00  0.00     0.016 A 
ATOM     29  C   UNL A   1      40.717  22.166  26.919  1.00  0.00     0.010 A 
ATOM     30  C   UNL A   1      39.090  23.935  26.708  1.00  0.00     0.010 A 
ATOM     31  C   UNL A   1      40.276  23.446  27.268  1.00  0.00    -0.014 A 
BRANCH  31  32
ATOM     32  C   UNL A   1      41.169  24.371  27.970  1.00  0.00     0.031 A 
ATOM     33  C   UNL A   1      40.491  25.677  28.132  1.00  0.00     0.074 A 
ATOM     34  C   UNL A   1      42.391  24.157  28.517  1.00  0.00     0.049 A 
ATOM     35  N   UNL A   1      40.631  26.695  27.349  1.00  0.00    -0.248 NA
ATOM     36  C   UNL A   1      39.376  25.790  29.084  1.00  0.00     0.031 C 
ATOM     37  C   UNL A   1      43.139  22.910  28.670  1.00  0.00     0.029 A 
ATOM     38  N   UNL A   1      43.210  25.047  29.162  1.00  0.00    -0.354 N 
ATOM     39  C   UNL A   1      39.805  27.665  27.893  1.00  0.00     0.074 A 
ATOM     40  C   UNL A   1      38.881  26.986  28.762  1.00  0.00     0.031 C 
ATOM     41  C   UNL A   1      44.116  23.056  29.598  1.00  0.00     0.029 A 
ATOM     42  C   UNL A   1      44.213  24.460  29.939  1.00  0.00     0.049 A 
ATOM     43  H   UNL A   1      43.101  26.023  29.085  1.00  0.00     0.167 HD
ATOM     44  C   UNL A   1      40.169  28.974  27.879  1.00  0.00     0.034 A 
ATOM     45  C   UNL A   1      45.074  25.098  30.774  1.00  0.00     0.034 A 
ATOM     46  C   UNL A   1      41.325  29.195  27.056  1.00  0.00     0.049 A 
ATOM     47  C   UNL A   1      45.195  26.474  30.254  1.00  0.00     0.074 A 
ATOM     48  C   UNL A   1      41.620  29.225  25.711  1.00  0.00     0.029 A 
ATOM     49  N   UNL A   1      42.501  28.994  27.730  1.00  0.00    -0.354 N 
ATOM     50  N   UNL A   1      45.742  26.768  29.109  1.00  0.00    -0.248 NA
ATOM     51  C   UNL A   1      44.435  27.543  30.888  1.00  0.00     0.031 C 
ATOM     52  C   UNL A   1      42.998  28.868  25.598  1.00  0.00     0.029 A 
ATOM     53  C   UNL A   1      43.516  28.665  26.876  1.00  0.00     0.049 A 
ATOM     54  H   UNL A   1      42.601  29.075  28.706  1.00  0.00     0.167 HD
ATOM     55  C   UNL A   1      45.015  27.860  28.678  1.00  0.00     0.074 A 
ATOM     56  C   UNL A   1      44.381  28.403  29.870  1.00  0.00     0.031 C 
ATOM     57  C   UNL A   1      44.715  28.019  27.358  1.00  0.00     0.034 A 
BRANCH  44  58
ATOM     58  C   UNL A   1      39.803  29.935  28.976  1.00  0.00     0.023 A 
ATOM     59  C   UNL A   1      40.617  29.978  30.123  1.00  0.00     0.012 A 
ATOM     60  C   UNL A   1      38.564  30.616  29.034  1.00  0.00     0.148 A 
ATOM     61  C   UNL A   1      40.233  30.705  31.255  1.00  0.00     0.002 A 
ATOM     62  C   UNL A   1      38.232  31.411  30.120  1.00  0.00     0.091 A 
ATOM     63  F   UNL A   1      37.636  30.381  28.098  1.00  0.00    -0.205 F 
ATOM     64  C   UNL A   1      39.056  31.446  31.244  1.00  0.00     0.022 A 
BRANCH  62  65
ATOM     65  S   UNL A   1      36.745  32.418  30.126  1.00  0.00     0.127 S 
ATOM     66  O   UNL A   1      36.811  33.045  28.810  1.00  0.00    -0.237 OA
ATOM     67  O   UNL A   1      35.700  31.404  30.280  1.00  0.00    -0.237 OA
ATOM     68  O   UNL A   1      36.889  33.305  31.273  1.00  0.00    -0.744 OA
ENDBRANCH  62  65
ENDBRANCH  44  58
BRANCH  45  69
ATOM     69  C   UNL A   1      45.617  24.752  32.118  1.00  0.00     0.023 A 
ATOM     70  C   UNL A   1      46.765  25.445  32.574  1.00  0.00     0.012 A 
ATOM     71  C   UNL A   1      44.839  24.068  33.075  1.00  0.00     0.148 A 
ATOM     72  C   UNL A   1      47.047  25.574  33.938  1.00  0.00     0.002 A 
ATOM     73  C   UNL A   1      45.131  24.191  34.435  1.00  0.00     0.091 A 
ATOM     74  F   UNL A   1      43.767  23.379  32.667  1.00  0.00    -0.205 F 
ATOM     75  C   UNL A   1      46.212  24.970  34.871  1.00  0.00     0.022 A 
BRANCH  73  76
ATOM     76  S   UNL A   1      44.110  23.422  35.701  1.00  0.00     0.127 S 
ATOM     77  O   UNL A   1      42.799  24.025  35.450  1.00  0.00    -0.237 OA
ATOM     78  O   UNL A   1      44.204  22.007  35.359  1.00  0.00    -0.237 OA
ATOM     79  O   UNL A   1      44.703  23.812  36.976  1.00  0.00    -0.744 OA
ENDBRANCH  73  76
ENDBRANCH  45  69
BRANCH  57  80
ATOM     80  C   UNL A   1      45.607  27.348  26.360  1.00  0.00     0.023 A 
ATOM     81  C   UNL A   1      46.777  27.938  25.843  1.00  0.00     0.012 A 
ATOM     82  C   UNL A   1      45.287  26.029  26.003  1.00  0.00     0.148 A 
ATOM     83  C   UNL A   1      47.610  27.217  24.980  1.00  0.00     0.002 A 
ATOM     84  C   UNL A   1      46.130  25.307  25.174  1.00  0.00     0.091 A 
ATOM     85  F   UNL A   1      44.160  25.498  26.503  1.00  0.00    -0.205 F 
ATOM     86  C   UNL A   1      47.294  25.897  24.656  1.00  0.00     0.022 A 
BRANCH  84  87
ATOM     87  S   UNL A   1      45.816  23.584  24.785  1.00  0.00     0.127 S 
ATOM     88  O   UNL A   1      46.791  23.328  23.727  1.00  0.00    -0.237 OA
ATOM     89  O   UNL A   1      46.106  22.922  26.058  1.00  0.00    -0.237 OA
ATOM     90  O   UNL A   1      44.420  23.507  24.375  1.00  0.00    -0.744 OA
ENDBRANCH  84  87
ENDBRANCH  57  80
ENDBRANCH  31  32
ENDBRANCH  24  26
ENDBRANCH  23  24
ENDBRANCH  22  23
ENDBRANCH   1  22
TORSDOF 18
ENDMDL
MODEL 3
REMARK VINA RESULT:     -10.5      5.588      9.728
REMARK SMILES CC(C)n1c([C@H](O)CC(=O)OCCOC(=O)c2ccc(-c3c4nc(c(-c5cccc(S(=O)(=O)[O-])c5F)c5ccc([nH]5)c(-c5cccc(S(=O)(=O)[O-])c5F)c5nc(c(-c6cccc(S(=O)(=O)[O-])c6F)c6ccc3[nH]6)C=C5)C=C4)cc2)nc2cc(Cl)ccc21
REMARK SMILES IDX 12 1 11 2 9 3 10 4 8 5 6 6 5 7 4 8 87 9 80 10 81 11 86 12
REMARK SMILES IDX 82 13 85 14 83 15 84 16 2 17 1 18 3 19 7 20 13 22 14 23
REMARK SMILES IDX 15 24 16 25 17 26 18 27 79 28 19 29 78 30 20 31 21 32 22 33
REMARK SMILES IDX 72 34 23 35 77 36 71 37 73 38 24 39 76 40 70 41 69 42 25 44
REMARK SMILES IDX 57 45 37 46 56 47 38 48 41 49 55 50 74 51 39 52 40 53 54 55
REMARK SMILES IDX 75 56 42 57 26 58 27 59 35 60 28 61 30 62 36 63 29 64 31 65
REMARK SMILES IDX 32 66 33 67 34 68 58 69 59 70 67 71 60 72 62 73 68 74 61 75
REMARK SMILES IDX 63 76 64 77 65 78 66 79 43 80 44 81 52 82 45 83 47 84 53 85
REMARK SMILES IDX 46 86 48 87 49 88 50 89 51 90
REMARK H PARENT 7 21 73 43 41 54
REMARK Flexibility Score: inf
ROOT
ATOM      1  C   UNL A   1      33.966  22.519  25.496  1.00  0.00     0.274 C 
ENDROOT
BRANCH   1   2
ATOM      2  O   UNL A   1      32.584  22.107  25.567  1.00  0.00    -0.462 OA
BRANCH   2   3
ATOM      3  C   UNL A   1      31.744  22.900  26.292  1.00  0.00     0.309 C 
ATOM      4  O   UNL A   1      31.842  23.070  27.499  1.00  0.00    -0.252 OA
BRANCH   3   5
ATOM      5  C   UNL A   1      30.603  23.433  25.450  1.00  0.00     0.162 C 
BRANCH   5   6
ATOM      6  C   UNL A   1      31.059  24.111  24.167  1.00  0.00     0.191 C 
BRANCH   6   7
ATOM      7  C   UNL A   1      30.612  25.560  24.091  1.00  0.00     0.139 A 
ATOM      8  N   UNL A   1      31.352  26.699  24.366  1.00  0.00    -0.323 N 
ATOM      9  C   UNL A   1      30.606  27.802  23.981  1.00  0.00     0.069 A 
ATOM     10  N   UNL A   1      29.398  25.909  23.681  1.00  0.00    -0.230 NA
ATOM     11  C   UNL A   1      29.392  27.279  23.560  1.00  0.00     0.090 A 
ATOM     12  C   UNL A   1      30.884  29.177  23.943  1.00  0.00     0.030 A 
ATOM     13  C   UNL A   1      28.387  28.144  23.093  1.00  0.00     0.051 A 
ATOM     14  C   UNL A   1      29.881  30.029  23.473  1.00  0.00     0.023 A 
ATOM     15  C   UNL A   1      28.651  29.519  23.065  1.00  0.00     0.043 A 
ATOM     16  Cl  UNL A   1      27.426  30.614  22.542  1.00  0.00    -0.084 Cl
BRANCH   8  17
ATOM     17  C   UNL A   1      32.682  26.810  24.953  1.00  0.00     0.083 C 
ATOM     18  C   UNL A   1      32.700  26.510  26.456  1.00  0.00     0.031 C 
ATOM     19  C   UNL A   1      33.758  26.122  24.117  1.00  0.00     0.031 C 
ENDBRANCH   8  17
ENDBRANCH   6   7
BRANCH   6  20
ATOM     20  O   UNL A   1      30.577  23.363  23.056  1.00  0.00    -0.385 OA
ATOM     21  H   UNL A   1      31.292  23.246  22.410  1.00  0.00     0.211 HD
ENDBRANCH   6  20
ENDBRANCH   5   6
ENDBRANCH   3   5
ENDBRANCH   2   3
ENDBRANCH   1   2
BRANCH   1  22
ATOM     22  C   UNL A   1      34.863  21.287  25.332  1.00  0.00     0.275 C 
BRANCH  22  23
ATOM     23  O   UNL A   1      36.123  21.551  25.968  1.00  0.00    -0.458 OA
BRANCH  23  24
ATOM     24  C   UNL A   1      37.203  20.902  25.467  1.00  0.00     0.338 C 
ATOM     25  O   UNL A   1      37.189  19.970  24.675  1.00  0.00    -0.246 OA
BRANCH  24  26
ATOM     26  C   UNL A   1      38.360  21.779  25.736  1.00  0.00     0.060 A 
ATOM     27  C   UNL A   1      39.568  21.261  26.220  1.00  0.00     0.016 A 
ATOM     28  C   UNL A   1      38.096  23.145  25.810  1.00  0.00     0.016 A 
ATOM     29  C   UNL A   1      40.407  22.077  26.977  1.00  0.00     0.010 A 
ATOM     30  C   UNL A   1      38.929  23.942  26.581  1.00  0.00     0.010 A 
ATOM     31  C   UNL A   1      40.024  23.392  27.256  1.00  0.00    -0.014 A 
BRANCH  31  32
ATOM     32  C   UNL A   1      40.912  24.276  28.016  1.00  0.00     0.031 A 
ATOM     33  C   UNL A   1      40.299  25.620  28.112  1.00  0.00     0.074 A 
ATOM     34  C   UNL A   1      42.074  24.001  28.657  1.00  0.00     0.049 A 
ATOM     35  N   UNL A   1      40.556  26.617  27.332  1.00  0.00    -0.248 NA
ATOM     36  C   UNL A   1      39.123  25.809  28.974  1.00  0.00     0.031 C 
ATOM     37  C   UNL A   1      42.736  22.716  28.881  1.00  0.00     0.029 A 
ATOM     38  N   UNL A   1      42.891  24.854  29.355  1.00  0.00    -0.354 N 
ATOM     39  C   UNL A   1      39.747  27.640  27.801  1.00  0.00     0.074 A 
ATOM     40  C   UNL A   1      38.723  27.026  28.603  1.00  0.00     0.031 C 
ATOM     41  C   UNL A   1      43.646  22.821  29.880  1.00  0.00     0.029 A 
ATOM     42  C   UNL A   1      43.797  24.223  30.213  1.00  0.00     0.049 A 
ATOM     43  H   UNL A   1      42.844  25.832  29.260  1.00  0.00     0.167 HD
ATOM     44  C   UNL A   1      40.186  28.926  27.801  1.00  0.00     0.034 A 
ATOM     45  C   UNL A   1      44.626  24.823  31.105  1.00  0.00     0.034 A 
ATOM     46  C   UNL A   1      41.412  29.070  27.068  1.00  0.00     0.049 A 
ATOM     47  C   UNL A   1      44.864  26.183  30.583  1.00  0.00     0.074 A 
ATOM     48  C   UNL A   1      41.810  29.064  25.750  1.00  0.00     0.029 A 
ATOM     49  N   UNL A   1      42.519  28.813  27.833  1.00  0.00    -0.354 N 
ATOM     50  N   UNL A   1      45.513  26.429  29.480  1.00  0.00    -0.248 NA
ATOM     51  C   UNL A   1      44.120  27.302  31.145  1.00  0.00     0.031 C 
ATOM     52  C   UNL A   1      43.170  28.629  25.747  1.00  0.00     0.029 A 
ATOM     53  C   UNL A   1      43.576  28.416  27.063  1.00  0.00     0.049 A 
ATOM     54  H   UNL A   1      42.549  28.902  28.813  1.00  0.00     0.167 HD
ATOM     55  C   UNL A   1      44.885  27.554  28.983  1.00  0.00     0.074 A 
ATOM     56  C   UNL A   1      44.194  28.148  30.118  1.00  0.00     0.031 C 
ATOM     57  C   UNL A   1      44.697  27.710  27.643  1.00  0.00     0.034 A 
BRANCH  44  58
ATOM     58  C   UNL A   1      39.792  29.922  28.858  1.00  0.00     0.023 A 
ATOM     59  C   UNL A   1      40.576  30.001  30.023  1.00  0.00     0.012 A 
ATOM     60  C   UNL A   1      38.553  30.604  28.861  1.00  0.00     0.148 A 
ATOM     61  C   UNL A   1      40.163  30.764  31.122  1.00  0.00     0.002 A 
ATOM     62  C   UNL A   1      38.193  31.433  29.913  1.00  0.00     0.091 A 
ATOM     63  F   UNL A   1      37.650  30.340  27.910  1.00  0.00    -0.205 F 
ATOM     64  C   UNL A   1      38.988  31.504  31.056  1.00  0.00     0.022 A 
BRANCH  62  65
ATOM     65  S   UNL A   1      36.707  32.440  29.847  1.00  0.00     0.127 S 
ATOM     66  O   UNL A   1      35.754  31.602  30.568  1.00  0.00    -0.237 OA
ATOM     67  O   UNL A   1      37.135  33.647  30.556  1.00  0.00    -0.237 OA
ATOM     68  O   UNL A   1      36.445  32.643  28.429  1.00  0.00    -0.744 OA
ENDBRANCH  62  65
ENDBRANCH  44  58
BRANCH  45  69
ATOM     69  C   UNL A   1      45.044  24.467  32.491  1.00  0.00     0.023 A 
ATOM     70  C   UNL A   1      44.279  23.503  33.193  1.00  0.00     0.012 A 
ATOM     71  C   UNL A   1      46.339  24.752  32.968  1.00  0.00     0.148 A 
ATOM     72  C   UNL A   1      44.832  22.750  34.235  1.00  0.00     0.002 A 
ATOM     73  C   UNL A   1      46.883  24.006  34.016  1.00  0.00     0.091 A 
ATOM     74  F   UNL A   1      47.071  25.682  32.342  1.00  0.00    -0.205 F 
ATOM     75  C   UNL A   1      46.144  22.982  34.627  1.00  0.00     0.022 A 
BRANCH  73  76
ATOM     76  S   UNL A   1      48.567  24.261  34.594  1.00  0.00     0.127 S 
ATOM     77  O   UNL A   1      48.529  25.652  35.051  1.00  0.00    -0.237 OA
ATOM     78  O   UNL A   1      48.683  23.272  35.660  1.00  0.00    -0.237 OA
ATOM     79  O   UNL A   1      49.420  24.048  33.429  1.00  0.00    -0.744 OA
ENDBRANCH  73  76
ENDBRANCH  45  69
BRANCH  57  80
ATOM     80  C   UNL A   1      45.623  26.976  26.724  1.00  0.00     0.023 A 
ATOM     81  C   UNL A   1      46.916  27.430  26.399  1.00  0.00     0.012 A 
ATOM     82  C   UNL A   1      45.190  25.730  26.243  1.00  0.00     0.148 A 
ATOM     83  C   UNL A   1      47.760  26.648  25.602  1.00  0.00     0.002 A 
ATOM     84  C   UNL A   1      46.039  24.944  25.481  1.00  0.00     0.091 A 
ATOM     85  F   UNL A   1      43.949  25.330  26.561  1.00  0.00    -0.205 F 
ATOM     86  C   UNL A   1      47.326  25.399  25.155  1.00  0.00     0.022 A 
BRANCH  84  87
ATOM     87  S   UNL A   1      45.566  23.299  24.943  1.00  0.00     0.127 S 
ATOM     88  O   UNL A   1      44.426  23.578  24.073  1.00  0.00    -0.237 OA
ATOM     89  O   UNL A   1      46.771  22.844  24.248  1.00  0.00    -0.237 OA
ATOM     90  O   UNL A   1      45.254  22.549  26.154  1.00  0.00    -0.744 OA
ENDBRANCH  84  87
ENDBRANCH  57  80
ENDBRANCH  31  32
ENDBRANCH  24  26
ENDBRANCH  23  24
ENDBRANCH  22  23
ENDBRANCH   1  22
TORSDOF 18
ENDMDL
