MODEL 1
REMARK VINA RESULT:     -10.7      0.000      0.000
REMARK SMILES CCCSc1nc(=O)cc(CC(=O)OCCOC(=O)c2ccc(-c3c4nc(c(-c5cccc(S(=O)(=O)[O-])c5F)c5ccc([nH]5)c(-c5cccc(S(=O)(=O)[O-])c5F)c5nc(c(-c6cccc(S(=O)(=O)[O-])c6F)c6ccc3[nH]6)C=C5)C=C4)cc2)[nH]1
REMARK SMILES IDX 15 1 14 2 12 3 13 4 11 5 10 6 5 7 6 8 83 9 7 10 8 12 9 13
REMARK SMILES IDX 4 14 3 15 2 16 1 17 16 18 17 19 18 20 19 21 20 22 21 23
REMARK SMILES IDX 82 24 22 25 81 26 23 27 24 28 25 29 75 30 26 31 80 32 74 33
REMARK SMILES IDX 76 34 27 35 79 36 73 37 72 38 28 40 60 41 40 42 59 43 41 44
REMARK SMILES IDX 44 45 58 46 77 47 42 48 43 49 57 51 78 52 45 53 29 54 30 55
REMARK SMILES IDX 38 56 31 57 33 58 39 59 32 60 34 61 35 62 36 63 37 64 61 65
REMARK SMILES IDX 62 66 70 67 63 68 65 69 71 70 64 71 66 72 67 73 68 74 69 75
REMARK SMILES IDX 46 76 47 77 55 78 48 79 50 80 56 81 49 82 51 83 52 84 53 85
REMARK SMILES IDX 54 86
REMARK H PARENT 83 11 76 39 44 50
REMARK Flexibility Score: inf
ROOT
ATOM      1  C   UNL A   1      34.822  20.738  25.259  1.00  0.00     0.274 C 
ENDROOT
BRANCH   1   2
ATOM      2  O   UNL A   1      33.961  20.062  24.321  1.00  0.00    -0.462 OA
BRANCH   2   3
ATOM      3  C   UNL A   1      32.672  20.492  24.267  1.00  0.00     0.311 C 
ATOM      4  O   UNL A   1      31.817  20.240  25.108  1.00  0.00    -0.252 OA
BRANCH   3   5
ATOM      5  C   UNL A   1      32.358  21.280  23.002  1.00  0.00     0.176 C 
BRANCH   5   6
ATOM      6  C   UNL A   1      32.481  22.778  23.122  1.00  0.00     0.034 A 
ATOM      7  C   UNL A   1      32.095  24.757  24.385  1.00  0.00     0.169 A 
ATOM      8  N   UNL A   1      32.609  25.549  23.514  1.00  0.00    -0.185 NA
ATOM      9  N   UNL A   1      31.977  23.408  24.235  1.00  0.00    -0.337 N 
ATOM     10  C   UNL A   1      33.143  25.015  22.368  1.00  0.00     0.273 A 
ATOM     11  H   UNL A   1      31.525  22.878  24.932  1.00  0.00     0.168 HD
ATOM     12  O   UNL A   1      33.659  25.702  21.496  1.00  0.00    -0.267 OA
ATOM     13  C   UNL A   1      33.112  23.535  22.209  1.00  0.00     0.095 A 
BRANCH   7  14
ATOM     14  S   UNL A   1      31.524  25.392  25.907  1.00  0.00    -0.088 SA
BRANCH  14  15
ATOM     15  C   UNL A   1      31.062  27.096  25.451  1.00  0.00     0.078 C 
BRANCH  15  16
ATOM     16  C   UNL A   1      31.889  28.206  26.108  1.00  0.00     0.008 C 
ATOM     17  C   UNL A   1      31.665  28.385  27.603  1.00  0.00     0.005 C 
ENDBRANCH  15  16
ENDBRANCH  14  15
ENDBRANCH   7  14
ENDBRANCH   5   6
ENDBRANCH   3   5
ENDBRANCH   2   3
ENDBRANCH   1   2
BRANCH   1  18
ATOM     18  C   UNL A   1      36.285  20.358  25.040  1.00  0.00     0.275 C 
BRANCH  18  19
ATOM     19  O   UNL A   1      37.143  21.456  25.396  1.00  0.00    -0.458 OA
BRANCH  19  20
ATOM     20  C   UNL A   1      38.393  21.114  25.782  1.00  0.00     0.338 C 
ATOM     21  O   UNL A   1      38.922  20.022  25.693  1.00  0.00    -0.246 OA
BRANCH  20  22
ATOM     22  C   UNL A   1      39.078  22.311  26.284  1.00  0.00     0.060 A 
ATOM     23  C   UNL A   1      40.249  22.167  27.024  1.00  0.00     0.016 A 
ATOM     24  C   UNL A   1      38.586  23.578  25.960  1.00  0.00     0.016 A 
ATOM     25  C   UNL A   1      40.908  23.309  27.480  1.00  0.00     0.010 A 
ATOM     26  C   UNL A   1      39.271  24.717  26.377  1.00  0.00     0.010 A 
ATOM     27  C   UNL A   1      40.423  24.593  27.163  1.00  0.00    -0.014 A 
BRANCH  27  28
ATOM     28  C   UNL A   1      41.138  25.793  27.654  1.00  0.00     0.031 A 
ATOM     29  C   UNL A   1      42.565  26.052  27.259  1.00  0.00     0.074 A 
ATOM     30  C   UNL A   1      40.492  26.661  28.455  1.00  0.00     0.049 A 
ATOM     31  N   UNL A   1      43.285  27.124  27.461  1.00  0.00    -0.248 NA
ATOM     32  C   UNL A   1      43.281  24.972  26.558  1.00  0.00     0.031 C 
ATOM     33  C   UNL A   1      39.138  26.472  28.980  1.00  0.00     0.029 A 
ATOM     34  N   UNL A   1      40.879  27.878  28.956  1.00  0.00    -0.354 N 
ATOM     35  C   UNL A   1      44.535  26.848  26.923  1.00  0.00     0.074 A 
ATOM     36  C   UNL A   1      44.491  25.496  26.414  1.00  0.00     0.031 C 
ATOM     37  C   UNL A   1      38.793  27.554  29.696  1.00  0.00     0.029 A 
ATOM     38  C   UNL A   1      39.897  28.508  29.683  1.00  0.00     0.049 A 
ATOM     39  H   UNL A   1      41.773  28.261  28.811  1.00  0.00     0.167 HD
ATOM     40  C   UNL A   1      45.610  27.664  26.828  1.00  0.00     0.034 A 
ATOM     41  C   UNL A   1      39.876  29.732  30.246  1.00  0.00     0.034 A 
ATOM     42  C   UNL A   1      45.633  29.024  27.290  1.00  0.00     0.049 A 
ATOM     43  C   UNL A   1      41.062  30.640  30.080  1.00  0.00     0.074 A 
ATOM     44  C   UNL A   1      46.640  29.961  27.146  1.00  0.00     0.029 A 
ATOM     45  N   UNL A   1      44.609  29.639  27.991  1.00  0.00    -0.354 N 
ATOM     46  N   UNL A   1      42.171  30.427  29.415  1.00  0.00    -0.248 NA
ATOM     47  C   UNL A   1      40.984  31.966  30.711  1.00  0.00     0.031 C 
ATOM     48  C   UNL A   1      46.229  31.142  27.769  1.00  0.00     0.029 A 
ATOM     49  C   UNL A   1      44.963  30.940  28.296  1.00  0.00     0.049 A 
ATOM     50  H   UNL A   1      43.755  29.213  28.235  1.00  0.00     0.167 HD
ATOM     51  C   UNL A   1      42.917  31.594  29.533  1.00  0.00     0.074 A 
ATOM     52  C   UNL A   1      42.127  32.519  30.319  1.00  0.00     0.031 C 
ATOM     53  C   UNL A   1      44.150  31.865  29.043  1.00  0.00     0.034 A 
BRANCH  40  54
ATOM     54  C   UNL A   1      46.832  27.148  26.123  1.00  0.00     0.023 A 
ATOM     55  C   UNL A   1      46.962  27.368  24.737  1.00  0.00     0.012 A 
ATOM     56  C   UNL A   1      47.891  26.553  26.836  1.00  0.00     0.148 A 
ATOM     57  C   UNL A   1      48.126  26.997  24.067  1.00  0.00     0.002 A 
ATOM     58  C   UNL A   1      49.059  26.209  26.166  1.00  0.00     0.091 A 
ATOM     59  F   UNL A   1      47.736  26.344  28.150  1.00  0.00    -0.205 F 
ATOM     60  C   UNL A   1      49.177  26.428  24.782  1.00  0.00     0.022 A 
BRANCH  58  61
ATOM     61  S   UNL A   1      50.493  25.518  26.996  1.00  0.00     0.127 S 
ATOM     62  O   UNL A   1      50.834  26.587  27.934  1.00  0.00    -0.237 OA
ATOM     63  O   UNL A   1      49.938  24.316  27.618  1.00  0.00    -0.237 OA
ATOM     64  O   UNL A   1      51.483  25.270  25.957  1.00  0.00    -0.744 OA
ENDBRANCH  58  61
ENDBRANCH  40  54
BRANCH  41  65
ATOM     65  C   UNL A   1      38.635  30.197  30.920  1.00  0.00     0.023 A 
ATOM     66  C   UNL A   1      38.493  29.993  32.306  1.00  0.00     0.012 A 
ATOM     67  C   UNL A   1      37.644  30.909  30.220  1.00  0.00     0.148 A 
ATOM     68  C   UNL A   1      37.379  30.489  32.984  1.00  0.00     0.002 A 
ATOM     69  C   UNL A   1      36.555  31.431  30.907  1.00  0.00     0.091 A 
ATOM     70  F   UNL A   1      37.806  31.086  28.901  1.00  0.00    -0.205 F 
ATOM     71  C   UNL A   1      36.417  31.216  32.288  1.00  0.00     0.022 A 
BRANCH  69  72
ATOM     72  S   UNL A   1      35.312  32.461  30.120  1.00  0.00     0.127 S 
ATOM     73  O   UNL A   1      34.354  32.653  31.207  1.00  0.00    -0.237 OA
ATOM     74  O   UNL A   1      36.089  33.649  29.766  1.00  0.00    -0.237 OA
ATOM     75  O   UNL A   1      34.822  31.693  28.985  1.00  0.00    -0.744 OA
ENDBRANCH  69  72
ENDBRANCH  41  65
BRANCH  53  76
ATOM     76  C   UNL A   1      44.753  33.210  29.336  1.00  0.00     0.023 A 
ATOM     77  C   UNL A   1      45.541  33.368  30.492  1.00  0.00     0.012 A 
ATOM     78  C   UNL A   1      44.670  34.257  28.399  1.00  0.00     0.148 A 
ATOM     79  C   UNL A   1      46.238  34.553  30.713  1.00  0.00     0.002 A 
ATOM     80  C   UNL A   1      45.395  35.424  28.609  1.00  0.00     0.091 A 
ATOM     81  F   UNL A   1      43.911  34.079  27.309  1.00  0.00    -0.205 F 
ATOM     82  C   UNL A   1      46.176  35.574  29.768  1.00  0.00     0.022 A 
BRANCH  80  83
ATOM     83  S   UNL A   1      45.446  36.764  27.415  1.00  0.00     0.127 S 
ATOM     84  O   UNL A   1      45.995  36.093  26.238  1.00  0.00    -0.237 OA
ATOM     85  O   UNL A   1      44.035  37.134  27.305  1.00  0.00    -0.237 OA
ATOM     86  O   UNL A   1      46.302  37.791  27.995  1.00  0.00    -0.744 OA
ENDBRANCH  80  83
ENDBRANCH  53  76
ENDBRANCH  27  28
ENDBRANCH  20  22
ENDBRANCH  19  20
ENDBRANCH  18  19
ENDBRANCH   1  18
TORSDOF 18
ENDMDL
MODEL 2
REMARK VINA RESULT:     -10.5      4.885     10.154
REMARK SMILES CCCSc1nc(=O)cc(CC(=O)OCCOC(=O)c2ccc(-c3c4nc(c(-c5cccc(S(=O)(=O)[O-])c5F)c5ccc([nH]5)c(-c5cccc(S(=O)(=O)[O-])c5F)c5nc(c(-c6cccc(S(=O)(=O)[O-])c6F)c6ccc3[nH]6)C=C5)C=C4)cc2)[nH]1
REMARK SMILES IDX 15 1 14 2 12 3 13 4 11 5 10 6 5 7 6 8 83 9 7 10 8 12 9 13
REMARK SMILES IDX 4 14 3 15 2 16 1 17 16 18 17 19 18 20 19 21 20 22 21 23
REMARK SMILES IDX 82 24 22 25 81 26 23 27 24 28 25 29 75 30 26 31 80 32 74 33
REMARK SMILES IDX 76 34 27 35 79 36 73 37 72 38 28 40 60 41 40 42 59 43 41 44
REMARK SMILES IDX 44 45 58 46 77 47 42 48 43 49 57 51 78 52 45 53 29 54 30 55
REMARK SMILES IDX 38 56 31 57 33 58 39 59 32 60 34 61 35 62 36 63 37 64 61 65
REMARK SMILES IDX 62 66 70 67 63 68 65 69 71 70 64 71 66 72 67 73 68 74 69 75
REMARK SMILES IDX 46 76 47 77 55 78 48 79 50 80 56 81 49 82 51 83 52 84 53 85
REMARK SMILES IDX 54 86
REMARK H PARENT 83 11 76 39 44 50
REMARK Flexibility Score: inf
ROOT
ATOM      1  C   UNL A   1      31.762  28.344  26.002  1.00  0.00     0.274 C 
ENDROOT
BRANCH   1   2
ATOM      2  O   UNL A   1      32.402  27.750  24.855  1.00  0.00    -0.462 OA
BRANCH   2   3
ATOM      3  C   UNL A   1      31.632  26.929  24.093  1.00  0.00     0.311 C 
ATOM      4  O   UNL A   1      30.551  27.239  23.605  1.00  0.00    -0.252 OA
BRANCH   3   5
ATOM      5  C   UNL A   1      32.214  25.528  23.950  1.00  0.00     0.176 C 
BRANCH   5   6
ATOM      6  C   UNL A   1      31.972  24.602  25.115  1.00  0.00     0.034 A 
ATOM      7  C   UNL A   1      32.819  22.981  26.636  1.00  0.00     0.169 A 
ATOM      8  N   UNL A   1      31.707  22.816  27.257  1.00  0.00    -0.185 NA
ATOM      9  N   UNL A   1      33.000  23.809  25.570  1.00  0.00    -0.337 N 
ATOM     10  C   UNL A   1      30.621  23.565  26.879  1.00  0.00     0.273 A 
ATOM     11  H   UNL A   1      33.875  23.841  25.120  1.00  0.00     0.168 HD
ATOM     12  O   UNL A   1      29.530  23.473  27.427  1.00  0.00    -0.267 OA
ATOM     13  C   UNL A   1      30.802  24.546  25.774  1.00  0.00     0.095 A 
BRANCH   7  14
ATOM     14  S   UNL A   1      34.249  22.138  27.176  1.00  0.00    -0.088 SA
BRANCH  14  15
ATOM     15  C   UNL A   1      34.841  21.377  25.629  1.00  0.00     0.078 C 
BRANCH  15  16
ATOM     16  C   UNL A   1      36.363  21.317  25.459  1.00  0.00     0.008 C 
ATOM     17  C   UNL A   1      36.904  20.002  24.914  1.00  0.00     0.005 C 
ENDBRANCH  15  16
ENDBRANCH  14  15
ENDBRANCH   7  14
ENDBRANCH   5   6
ENDBRANCH   3   5
ENDBRANCH   2   3
ENDBRANCH   1   2
BRANCH   1  18
ATOM     18  C   UNL A   1      31.676  29.862  25.864  1.00  0.00     0.275 C 
BRANCH  18  19
ATOM     19  O   UNL A   1      32.991  30.442  25.913  1.00  0.00    -0.458 OA
BRANCH  19  20
ATOM     20  C   UNL A   1      33.174  31.384  26.865  1.00  0.00     0.338 C 
ATOM     21  O   UNL A   1      32.433  32.308  27.144  1.00  0.00    -0.246 OA
BRANCH  20  22
ATOM     22  C   UNL A   1      34.414  31.089  27.592  1.00  0.00     0.060 A 
ATOM     23  C   UNL A   1      34.692  29.776  27.964  1.00  0.00     0.016 A 
ATOM     24  C   UNL A   1      35.330  32.114  27.845  1.00  0.00     0.016 A 
ATOM     25  C   UNL A   1      35.883  29.499  28.635  1.00  0.00     0.010 A 
ATOM     26  C   UNL A   1      36.539  31.827  28.474  1.00  0.00     0.010 A 
ATOM     27  C   UNL A   1      36.814  30.521  28.898  1.00  0.00    -0.014 A 
BRANCH  27  28
ATOM     28  C   UNL A   1      38.074  30.206  29.610  1.00  0.00     0.031 A 
ATOM     29  C   UNL A   1      38.319  30.721  31.001  1.00  0.00     0.074 A 
ATOM     30  C   UNL A   1      39.000  29.441  29.001  1.00  0.00     0.049 A 
ATOM     31  N   UNL A   1      39.283  30.411  31.827  1.00  0.00    -0.248 NA
ATOM     32  C   UNL A   1      37.372  31.717  31.532  1.00  0.00     0.031 C 
ATOM     33  C   UNL A   1      38.916  28.958  27.621  1.00  0.00     0.029 A 
ATOM     34  N   UNL A   1      40.183  28.925  29.465  1.00  0.00    -0.354 N 
ATOM     35  C   UNL A   1      39.066  31.174  32.967  1.00  0.00     0.074 A 
ATOM     36  C   UNL A   1      37.899  31.989  32.719  1.00  0.00     0.031 C 
ATOM     37  C   UNL A   1      39.982  28.184  27.364  1.00  0.00     0.029 A 
ATOM     38  C   UNL A   1      40.822  28.117  28.557  1.00  0.00     0.049 A 
ATOM     39  H   UNL A   1      40.540  29.117  30.362  1.00  0.00     0.167 HD
ATOM     40  C   UNL A   1      39.758  31.166  34.130  1.00  0.00     0.034 A 
ATOM     41  C   UNL A   1      41.941  27.376  28.680  1.00  0.00     0.034 A 
ATOM     42  C   UNL A   1      40.888  30.319  34.391  1.00  0.00     0.049 A 
ATOM     43  C   UNL A   1      42.660  27.342  29.999  1.00  0.00     0.074 A 
ATOM     44  C   UNL A   1      41.588  30.165  35.573  1.00  0.00     0.029 A 
ATOM     45  N   UNL A   1      41.485  29.488  33.458  1.00  0.00    -0.354 N 
ATOM     46  N   UNL A   1      42.340  27.935  31.123  1.00  0.00    -0.248 NA
ATOM     47  C   UNL A   1      43.873  26.515  30.079  1.00  0.00     0.031 C 
ATOM     48  C   UNL A   1      42.619  29.247  35.352  1.00  0.00     0.029 A 
ATOM     49  C   UNL A   1      42.554  28.827  34.033  1.00  0.00     0.049 A 
ATOM     50  H   UNL A   1      41.193  29.384  32.523  1.00  0.00     0.167 HD
ATOM     51  C   UNL A   1      43.299  27.542  32.048  1.00  0.00     0.074 A 
ATOM     52  C   UNL A   1      44.205  26.646  31.360  1.00  0.00     0.031 C 
ATOM     53  C   UNL A   1      43.422  27.905  33.348  1.00  0.00     0.034 A 
BRANCH  40  54
ATOM     54  C   UNL A   1      39.268  32.038  35.252  1.00  0.00     0.023 A 
ATOM     55  C   UNL A   1      38.360  31.500  36.185  1.00  0.00     0.012 A 
ATOM     56  C   UNL A   1      39.782  33.334  35.448  1.00  0.00     0.148 A 
ATOM     57  C   UNL A   1      37.963  32.241  37.296  1.00  0.00     0.002 A 
ATOM     58  C   UNL A   1      39.402  34.058  36.572  1.00  0.00     0.091 A 
ATOM     59  F   UNL A   1      40.634  33.826  34.538  1.00  0.00    -0.205 F 
ATOM     60  C   UNL A   1      38.491  33.514  37.495  1.00  0.00     0.022 A 
BRANCH  58  61
ATOM     61  S   UNL A   1      40.059  35.685  36.954  1.00  0.00     0.127 S 
ATOM     62  O   UNL A   1      39.610  36.463  35.800  1.00  0.00    -0.237 OA
ATOM     63  O   UNL A   1      39.377  36.004  38.208  1.00  0.00    -0.237 OA
ATOM     64  O   UNL A   1      41.503  35.523  37.064  1.00  0.00    -0.744 OA
ENDBRANCH  58  61
ENDBRANCH  40  54
BRANCH  41  65
ATOM     65  C   UNL A   1      42.372  26.522  27.542  1.00  0.00     0.023 A 
ATOM     66  C   UNL A   1      43.269  27.050  26.593  1.00  0.00     0.012 A 
ATOM     67  C   UNL A   1      41.972  25.177  27.443  1.00  0.00     0.148 A 
ATOM     68  C   UNL A   1      43.758  26.250  25.560  1.00  0.00     0.002 A 
ATOM     69  C   UNL A   1      42.490  24.376  26.432  1.00  0.00     0.091 A 
ATOM     70  F   UNL A   1      41.116  24.703  28.360  1.00  0.00    -0.205 F 
ATOM     71  C   UNL A   1      43.377  24.912  25.485  1.00  0.00     0.022 A 
BRANCH  69  72
ATOM     72  S   UNL A   1      42.136  22.620  26.307  1.00  0.00     0.127 S 
ATOM     73  O   UNL A   1      40.676  22.614  26.250  1.00  0.00    -0.237 OA
ATOM     74  O   UNL A   1      42.803  22.270  25.053  1.00  0.00    -0.237 OA
ATOM     75  O   UNL A   1      42.717  22.012  27.495  1.00  0.00    -0.744 OA
ENDBRANCH  69  72
ENDBRANCH  41  65
BRANCH  53  76
ATOM     76  C   UNL A   1      44.577  27.353  34.135  1.00  0.00     0.023 A 
ATOM     77  C   UNL A   1      45.785  28.075  34.173  1.00  0.00     0.012 A 
ATOM     78  C   UNL A   1      44.418  26.216  34.950  1.00  0.00     0.148 A 
ATOM     79  C   UNL A   1      46.821  27.673  35.013  1.00  0.00     0.002 A 
ATOM     80  C   UNL A   1      45.442  25.840  35.810  1.00  0.00     0.091 A 
ATOM     81  F   UNL A   1      43.257  25.547  34.891  1.00  0.00    -0.205 F 
ATOM     82  C   UNL A   1      46.645  26.566  35.840  1.00  0.00     0.022 A 
BRANCH  80  83
ATOM     83  S   UNL A   1      45.285  24.480  36.972  1.00  0.00     0.127 S 
ATOM     84  O   UNL A   1      46.563  24.544  37.680  1.00  0.00    -0.237 OA
ATOM     85  O   UNL A   1      44.125  24.883  37.766  1.00  0.00    -0.237 OA
ATOM     86  O   UNL A   1      45.085  23.281  36.167  1.00  0.00    -0.744 OA
ENDBRANCH  80  83
ENDBRANCH  53  76
ENDBRANCH  27  28
ENDBRANCH  20  22
ENDBRANCH  19  20
ENDBRANCH  18  19
ENDBRANCH   1  18
TORSDOF 18
ENDMDL
MODEL 3
REMARK VINA RESULT:     -10.3      1.714      2.210
REMARK SMILES CCCSc1nc(=O)cc(CC(=O)OCCOC(=O)c2ccc(-c3c4nc(c(-c5cccc(S(=O)(=O)[O-])c5F)c5ccc([nH]5)c(-c5cccc(S(=O)(=O)[O-])c5F)c5nc(c(-c6cccc(S(=O)(=O)[O-])c6F)c6ccc3[nH]6)C=C5)C=C4)cc2)[nH]1
REMARK SMILES IDX 15 1 14 2 12 3 13 4 11 5 10 6 5 7 6 8 83 9 7 10 8 12 9 13
REMARK SMILES IDX 4 14 3 15 2 16 1 17 16 18 17 19 18 20 19 21 20 22 21 23
REMARK SMILES IDX 82 24 22 25 81 26 23 27 24 28 25 29 75 30 26 31 80 32 74 33
REMARK SMILES IDX 76 34 27 35 79 36 73 37 72 38 28 40 60 41 40 42 59 43 41 44
REMARK SMILES IDX 44 45 58 46 77 47 42 48 43 49 57 51 78 52 45 53 29 54 30 55
REMARK SMILES IDX 38 56 31 57 33 58 39 59 32 60 34 61 35 62 36 63 37 64 61 65
REMARK SMILES IDX 62 66 70 67 63 68 65 69 71 70 64 71 66 72 67 73 68 74 69 75
REMARK SMILES IDX 46 76 47 77 55 78 48 79 50 80 56 81 49 82 51 83 52 84 53 85
REMARK SMILES IDX 54 86
REMARK H PARENT 83 11 76 39 44 50
REMARK Flexibility Score: inf
ROOT
ATOM      1  C   UNL A   1      35.867  20.770  25.100  1.00  0.00     0.274 C 
ENDROOT
BRANCH   1   2
ATOM      2  O   UNL A   1      35.531  21.876  25.962  1.00  0.00    -0.462 OA
BRANCH   2   3
ATOM      3  C   UNL A   1      34.503  22.667  25.554  1.00  0.00     0.311 C 
ATOM      4  O   UNL A   1      33.398  22.257  25.217  1.00  0.00    -0.252 OA
BRANCH   3   5
ATOM      5  C   UNL A   1      34.876  24.143  25.486  1.00  0.00     0.176 C 
BRANCH   5   6
ATOM      6  C   UNL A   1      34.055  24.978  24.537  1.00  0.00     0.034 A 
ATOM      7  C   UNL A   1      32.391  26.647  24.213  1.00  0.00     0.169 A 
ATOM      8  N   UNL A   1      32.434  26.602  22.930  1.00  0.00    -0.185 NA
ATOM      9  N   UNL A   1      33.131  25.861  25.044  1.00  0.00    -0.337 N 
ATOM     10  C   UNL A   1      33.327  25.753  22.327  1.00  0.00     0.273 A 
ATOM     11  H   UNL A   1      33.002  25.926  26.018  1.00  0.00     0.168 HD
ATOM     12  O   UNL A   1      33.435  25.659  21.111  1.00  0.00    -0.267 OA
ATOM     13  C   UNL A   1      34.216  24.941  23.203  1.00  0.00     0.095 A 
BRANCH   7  14
ATOM     14  S   UNL A   1      31.358  27.808  25.007  1.00  0.00    -0.088 SA
BRANCH  14  15
ATOM     15  C   UNL A   1      30.073  28.089  23.745  1.00  0.00     0.078 C 
BRANCH  15  16
ATOM     16  C   UNL A   1      30.217  29.376  22.925  1.00  0.00     0.008 C 
ATOM     17  C   UNL A   1      28.995  29.764  22.105  1.00  0.00     0.005 C 
ENDBRANCH  15  16
ENDBRANCH  14  15
ENDBRANCH   7  14
ENDBRANCH   5   6
ENDBRANCH   3   5
ENDBRANCH   2   3
ENDBRANCH   1   2
BRANCH   1  18
ATOM     18  C   UNL A   1      37.379  20.563  25.031  1.00  0.00     0.275 C 
BRANCH  18  19
ATOM     19  O   UNL A   1      38.063  21.698  25.589  1.00  0.00    -0.458 OA
BRANCH  19  20
ATOM     20  C   UNL A   1      39.243  21.428  26.189  1.00  0.00     0.338 C 
ATOM     21  O   UNL A   1      39.784  20.344  26.303  1.00  0.00    -0.246 OA
BRANCH  20  22
ATOM     22  C   UNL A   1      39.841  22.686  26.649  1.00  0.00     0.060 A 
ATOM     23  C   UNL A   1      39.386  23.892  26.120  1.00  0.00     0.016 A 
ATOM     24  C   UNL A   1      40.811  22.666  27.655  1.00  0.00     0.016 A 
ATOM     25  C   UNL A   1      39.943  25.086  26.578  1.00  0.00     0.010 A 
ATOM     26  C   UNL A   1      41.333  23.862  28.142  1.00  0.00     0.010 A 
ATOM     27  C   UNL A   1      40.922  25.081  27.589  1.00  0.00    -0.014 A 
BRANCH  27  28
ATOM     28  C   UNL A   1      41.500  26.360  28.062  1.00  0.00     0.031 A 
ATOM     29  C   UNL A   1      42.926  26.719  27.752  1.00  0.00     0.074 A 
ATOM     30  C   UNL A   1      40.730  27.208  28.769  1.00  0.00     0.049 A 
ATOM     31  N   UNL A   1      43.542  27.856  27.944  1.00  0.00    -0.248 NA
ATOM     32  C   UNL A   1      43.776  25.671  27.162  1.00  0.00     0.031 C 
ATOM     33  C   UNL A   1      39.361  26.932  29.210  1.00  0.00     0.029 A 
ATOM     34  N   UNL A   1      40.980  28.476  29.229  1.00  0.00    -0.354 N 
ATOM     35  C   UNL A   1      44.846  27.661  27.509  1.00  0.00     0.074 A 
ATOM     36  C   UNL A   1      44.948  26.288  27.072  1.00  0.00     0.031 C 
ATOM     37  C   UNL A   1      38.878  28.014  29.841  1.00  0.00     0.029 A 
ATOM     38  C   UNL A   1      39.901  29.056  29.852  1.00  0.00     0.049 A 
ATOM     39  H   UNL A   1      41.849  28.926  29.124  1.00  0.00     0.167 HD
ATOM     40  C   UNL A   1      45.855  28.560  27.444  1.00  0.00     0.034 A 
ATOM     41  C   UNL A   1      39.740  30.300  30.344  1.00  0.00     0.034 A 
ATOM     42  C   UNL A   1      45.735  29.937  27.832  1.00  0.00     0.049 A 
ATOM     43  C   UNL A   1      40.858  31.295  30.211  1.00  0.00     0.074 A 
ATOM     44  C   UNL A   1      46.671  30.948  27.706  1.00  0.00     0.029 A 
ATOM     45  N   UNL A   1      44.616  30.497  28.427  1.00  0.00    -0.354 N 
ATOM     46  N   UNL A   1      42.026  31.144  29.636  1.00  0.00    -0.248 NA
ATOM     47  C   UNL A   1      40.627  32.639  30.762  1.00  0.00     0.031 C 
ATOM     48  C   UNL A   1      46.122  32.118  28.235  1.00  0.00     0.029 A 
ATOM     49  C   UNL A   1      44.841  31.836  28.685  1.00  0.00     0.049 A 
ATOM     50  H   UNL A   1      43.784  30.013  28.635  1.00  0.00     0.167 HD
ATOM     51  C   UNL A   1      42.664  32.374  29.741  1.00  0.00     0.074 A 
ATOM     52  C   UNL A   1      41.748  33.267  30.420  1.00  0.00     0.031 C 
ATOM     53  C   UNL A   1      43.904  32.724  29.323  1.00  0.00     0.034 A 
BRANCH  40  54
ATOM     54  C   UNL A   1      47.163  28.115  26.853  1.00  0.00     0.023 A 
ATOM     55  C   UNL A   1      48.199  27.712  27.718  1.00  0.00     0.012 A 
ATOM     56  C   UNL A   1      47.330  27.988  25.460  1.00  0.00     0.148 A 
ATOM     57  C   UNL A   1      49.389  27.196  27.208  1.00  0.00     0.002 A 
ATOM     58  C   UNL A   1      48.509  27.447  24.959  1.00  0.00     0.091 A 
ATOM     59  F   UNL A   1      46.333  28.390  24.660  1.00  0.00    -0.205 F 
ATOM     60  C   UNL A   1      49.539  27.053  25.831  1.00  0.00     0.022 A 
BRANCH  58  61
ATOM     61  S   UNL A   1      48.787  27.171  23.207  1.00  0.00     0.127 S 
ATOM     62  O   UNL A   1      48.125  25.884  23.002  1.00  0.00    -0.237 OA
ATOM     63  O   UNL A   1      48.100  28.313  22.603  1.00  0.00    -0.237 OA
ATOM     64  O   UNL A   1      50.232  27.159  23.023  1.00  0.00    -0.744 OA
ENDBRANCH  58  61
ENDBRANCH  40  54
BRANCH  41  65
ATOM     65  C   UNL A   1      38.420  30.690  30.906  1.00  0.00     0.023 A 
ATOM     66  C   UNL A   1      38.161  30.456  32.270  1.00  0.00     0.012 A 
ATOM     67  C   UNL A   1      37.462  31.364  30.125  1.00  0.00     0.148 A 
ATOM     68  C   UNL A   1      36.966  30.884  32.848  1.00  0.00     0.002 A 
ATOM     69  C   UNL A   1      36.289  31.819  30.715  1.00  0.00     0.091 A 
ATOM     70  F   UNL A   1      37.735  31.570  28.829  1.00  0.00    -0.205 F 
ATOM     71  C   UNL A   1      36.036  31.574  32.074  1.00  0.00     0.022 A 
BRANCH  69  72
ATOM     72  S   UNL A   1      35.072  32.798  29.828  1.00  0.00     0.127 S 
ATOM     73  O   UNL A   1      35.894  33.885  29.299  1.00  0.00    -0.237 OA
ATOM     74  O   UNL A   1      34.593  31.844  28.827  1.00  0.00    -0.237 OA
ATOM     75  O   UNL A   1      34.081  33.191  30.818  1.00  0.00    -0.744 OA
ENDBRANCH  69  72
ENDBRANCH  41  65
BRANCH  53  76
ATOM     76  C   UNL A   1      44.374  34.128  29.583  1.00  0.00     0.023 A 
ATOM     77  C   UNL A   1      45.027  34.415  30.796  1.00  0.00     0.012 A 
ATOM     78  C   UNL A   1      44.308  35.109  28.576  1.00  0.00     0.148 A 
ATOM     79  C   UNL A   1      45.610  35.664  31.005  1.00  0.00     0.002 A 
ATOM     80  C   UNL A   1      44.920  36.340  28.777  1.00  0.00     0.091 A 
ATOM     81  F   UNL A   1      43.678  34.807  27.431  1.00  0.00    -0.205 F 
ATOM     82  C   UNL A   1      45.568  36.619  29.992  1.00  0.00     0.022 A 
BRANCH  80  83
ATOM     83  S   UNL A   1      44.993  37.608  27.508  1.00  0.00     0.127 S 
ATOM     84  O   UNL A   1      45.690  38.688  28.205  1.00  0.00    -0.237 OA
ATOM     85  O   UNL A   1      45.775  36.953  26.460  1.00  0.00    -0.237 OA
ATOM     86  O   UNL A   1      43.611  37.899  27.146  1.00  0.00    -0.744 OA
ENDBRANCH  80  83
ENDBRANCH  53  76
ENDBRANCH  27  28
ENDBRANCH  20  22
ENDBRANCH  19  20
ENDBRANCH  18  19
ENDBRANCH   1  18
TORSDOF 18
ENDMDL
