MODEL 1
REMARK VINA RESULT:     -12.4      0.000      0.000
REMARK SMILES Cc1ccc([C@H](C)Nc2ccc(C(=O)OCCOC(=O)c3ccc(-c4c5nc(c(-c6cccc(S(=O)(=O)[O-])c6F)c6ccc([nH]6)c(-c6cccc(S(=O)(=O)[O-])c6F)c6nc(c(-c7cccc(S(=O)(=O)[O-])c7F)c7ccc4[nH]7)C=C6)C=C5)cc3)cc2Cl)cc1F
REMARK SMILES IDX 16 1 15 2 13 3 14 4 12 5 9 6 10 7 85 8 11 9 84 10 86 11 8 12
REMARK SMILES IDX 6 14 7 15 5 16 1 17 2 18 3 19 88 20 4 21 87 22 89 23 17 24
REMARK SMILES IDX 18 25 19 26 20 27 21 28 22 29 83 30 23 31 82 32 24 33 25 34
REMARK SMILES IDX 26 35 76 36 27 37 81 38 75 39 77 40 28 41 80 42 74 43 73 44
REMARK SMILES IDX 29 46 61 47 41 48 60 49 42 50 45 51 59 52 78 53 43 54 44 55
REMARK SMILES IDX 58 57 79 58 46 59 30 60 31 61 39 62 32 63 34 64 40 65 33 66
REMARK SMILES IDX 35 67 36 68 37 69 38 70 62 71 63 72 71 73 64 74 66 75 72 76
REMARK SMILES IDX 65 77 67 78 68 79 69 80 70 81 47 82 48 83 56 84 49 85 51 86
REMARK SMILES IDX 57 87 50 88 52 89 53 90 54 91 55 92
REMARK H PARENT 8 13 77 45 45 56
REMARK Flexibility Score: inf
ROOT
ATOM      1  C   UNL A   1      32.690  30.471  27.230  1.00  0.00     0.275 C 
ENDROOT
BRANCH   1   2
ATOM      2  O   UNL A   1      33.092  29.727  26.060  1.00  0.00    -0.458 OA
BRANCH   2   3
ATOM      3  C   UNL A   1      32.116  29.082  25.359  1.00  0.00     0.338 C 
ATOM      4  O   UNL A   1      31.121  29.584  24.881  1.00  0.00    -0.246 OA
BRANCH   3   5
ATOM      5  C   UNL A   1      32.484  27.649  25.157  1.00  0.00     0.061 A 
ATOM      6  C   UNL A   1      33.283  24.950  24.761  1.00  0.00     0.053 A 
ATOM      7  C   UNL A   1      33.766  25.983  23.941  1.00  0.00     0.028 A 
ATOM      8  C   UNL A   1      32.359  25.308  25.768  1.00  0.00     0.065 A 
ATOM      9  C   UNL A   1      33.344  27.307  24.108  1.00  0.00     0.018 A 
ATOM     10  C   UNL A   1      32.006  26.645  25.992  1.00  0.00     0.038 A 
ATOM     11  Cl  UNL A   1      31.606  24.164  26.827  1.00  0.00    -0.082 Cl
BRANCH   6  12
ATOM     12  N   UNL A   1      33.721  23.666  24.472  1.00  0.00    -0.377 N 
ATOM     13  H   UNL A   1      34.615  23.403  24.789  1.00  0.00     0.161 HD
BRANCH  12  14
ATOM     14  C   UNL A   1      32.944  22.681  23.732  1.00  0.00     0.106 C 
ATOM     15  C   UNL A   1      33.094  23.017  22.240  1.00  0.00     0.036 C 
BRANCH  14  16
ATOM     16  C   UNL A   1      33.364  21.268  24.139  1.00  0.00    -0.023 A 
ATOM     17  C   UNL A   1      34.606  17.139  24.614  1.00  0.00     0.047 C 
ATOM     18  C   UNL A   1      34.183  18.570  24.513  1.00  0.00    -0.015 A 
ATOM     19  C   UNL A   1      35.051  19.625  24.806  1.00  0.00     0.007 A 
ATOM     20  C   UNL A   1      32.900  18.874  24.067  1.00  0.00     0.126 A 
ATOM     21  C   UNL A   1      34.648  20.956  24.616  1.00  0.00     0.006 A 
ATOM     22  C   UNL A   1      32.489  20.192  23.899  1.00  0.00     0.045 A 
ATOM     23  F   UNL A   1      32.054  17.883  23.758  1.00  0.00    -0.207 F 
ENDBRANCH  14  16
ENDBRANCH  12  14
ENDBRANCH   6  12
ENDBRANCH   3   5
ENDBRANCH   2   3
ENDBRANCH   1   2
BRANCH   1  24
ATOM     24  C   UNL A   1      33.518  31.739  27.454  1.00  0.00     0.275 C 
BRANCH  24  25
ATOM     25  O   UNL A   1      34.323  31.620  28.629  1.00  0.00    -0.458 OA
BRANCH  25  26
ATOM     26  C   UNL A   1      35.638  31.686  28.341  1.00  0.00     0.338 C 
ATOM     27  O   UNL A   1      36.285  32.675  28.035  1.00  0.00    -0.246 OA
BRANCH  26  28
ATOM     28  C   UNL A   1      36.247  30.369  28.289  1.00  0.00     0.060 A 
ATOM     29  C   UNL A   1      36.274  29.679  29.513  1.00  0.00     0.016 A 
ATOM     30  C   UNL A   1      37.211  30.203  27.301  1.00  0.00     0.016 A 
ATOM     31  C   UNL A   1      37.426  29.028  29.881  1.00  0.00     0.010 A 
ATOM     32  C   UNL A   1      38.361  29.563  27.672  1.00  0.00     0.010 A 
ATOM     33  C   UNL A   1      38.481  29.071  28.983  1.00  0.00    -0.014 A 
BRANCH  33  34
ATOM     34  C   UNL A   1      39.781  28.552  29.300  1.00  0.00     0.031 A 
ATOM     35  C   UNL A   1      40.066  27.179  28.887  1.00  0.00     0.074 A 
ATOM     36  C   UNL A   1      40.714  29.408  29.752  1.00  0.00     0.049 A 
ATOM     37  N   UNL A   1      41.071  26.495  29.295  1.00  0.00    -0.248 NA
ATOM     38  C   UNL A   1      39.155  26.417  28.033  1.00  0.00     0.031 C 
ATOM     39  C   UNL A   1      42.155  29.290  29.619  1.00  0.00     0.029 A 
ATOM     40  N   UNL A   1      40.524  30.491  30.604  1.00  0.00    -0.354 N 
ATOM     41  C   UNL A   1      41.158  25.405  28.465  1.00  0.00     0.074 A 
ATOM     42  C   UNL A   1      39.859  25.298  27.845  1.00  0.00     0.031 C 
ATOM     43  C   UNL A   1      42.740  30.126  30.492  1.00  0.00     0.029 A 
ATOM     44  C   UNL A   1      41.695  30.634  31.370  1.00  0.00     0.049 A 
ATOM     45  H   UNL A   1      39.719  31.053  30.661  1.00  0.00     0.167 HD
ATOM     46  C   UNL A   1      42.385  24.852  28.249  1.00  0.00     0.034 A 
ATOM     47  C   UNL A   1      41.662  30.428  32.724  1.00  0.00     0.034 A 
ATOM     48  C   UNL A   1      43.405  25.528  29.049  1.00  0.00     0.049 A 
ATOM     49  C   UNL A   1      42.498  29.248  33.185  1.00  0.00     0.074 A 
ATOM     50  C   UNL A   1      44.400  26.449  28.760  1.00  0.00     0.029 A 
ATOM     51  N   UNL A   1      43.287  25.519  30.425  1.00  0.00    -0.354 N 
ATOM     52  N   UNL A   1      42.983  28.345  32.377  1.00  0.00    -0.248 NA
ATOM     53  C   UNL A   1      42.791  28.939  34.584  1.00  0.00     0.031 C 
ATOM     54  C   UNL A   1      44.912  26.951  29.990  1.00  0.00     0.029 A 
ATOM     55  C   UNL A   1      44.228  26.331  31.018  1.00  0.00     0.049 A 
ATOM     56  H   UNL A   1      42.616  24.996  30.920  1.00  0.00     0.167 HD
ATOM     57  C   UNL A   1      43.663  27.395  33.088  1.00  0.00     0.074 A 
ATOM     58  C   UNL A   1      43.480  27.787  34.472  1.00  0.00     0.031 C 
ATOM     59  C   UNL A   1      44.296  26.357  32.469  1.00  0.00     0.034 A 
BRANCH  46  60
ATOM     60  C   UNL A   1      42.707  23.896  27.121  1.00  0.00     0.023 A 
ATOM     61  C   UNL A   1      43.554  24.224  26.041  1.00  0.00     0.012 A 
ATOM     62  C   UNL A   1      42.195  22.581  27.118  1.00  0.00     0.148 A 
ATOM     63  C   UNL A   1      43.971  23.285  25.089  1.00  0.00     0.002 A 
ATOM     64  C   UNL A   1      42.599  21.647  26.165  1.00  0.00     0.091 A 
ATOM     65  F   UNL A   1      41.295  22.204  28.036  1.00  0.00    -0.205 F 
ATOM     66  C   UNL A   1      43.503  21.985  25.160  1.00  0.00     0.022 A 
BRANCH  64  67
ATOM     67  S   UNL A   1      41.957  19.976  26.265  1.00  0.00     0.127 S 
ATOM     68  O   UNL A   1      42.408  19.535  27.581  1.00  0.00    -0.237 OA
ATOM     69  O   UNL A   1      40.522  20.164  26.084  1.00  0.00    -0.237 OA
ATOM     70  O   UNL A   1      42.618  19.300  25.147  1.00  0.00    -0.744 OA
ENDBRANCH  64  67
ENDBRANCH  46  60
BRANCH  47  71
ATOM     71  C   UNL A   1      40.361  30.842  33.332  1.00  0.00     0.023 A 
ATOM     72  C   UNL A   1      39.311  29.911  33.442  1.00  0.00     0.012 A 
ATOM     73  C   UNL A   1      40.052  32.220  33.350  1.00  0.00     0.148 A 
ATOM     74  C   UNL A   1      37.979  30.348  33.449  1.00  0.00     0.002 A 
ATOM     75  C   UNL A   1      38.725  32.642  33.311  1.00  0.00     0.091 A 
ATOM     76  F   UNL A   1      41.058  33.106  33.272  1.00  0.00    -0.205 F 
ATOM     77  C   UNL A   1      37.683  31.709  33.345  1.00  0.00     0.022 A 
BRANCH  75  78
ATOM     78  S   UNL A   1      38.379  34.378  32.993  1.00  0.00     0.127 S 
ATOM     79  O   UNL A   1      39.100  34.629  31.750  1.00  0.00    -0.237 OA
ATOM     80  O   UNL A   1      36.920  34.413  32.913  1.00  0.00    -0.237 OA
ATOM     81  O   UNL A   1      38.932  35.064  34.160  1.00  0.00    -0.744 OA
ENDBRANCH  75  78
ENDBRANCH  47  71
BRANCH  59  82
ATOM     82  C   UNL A   1      44.982  25.206  33.159  1.00  0.00     0.023 A 
ATOM     83  C   UNL A   1      44.217  24.051  33.470  1.00  0.00     0.012 A 
ATOM     84  C   UNL A   1      46.348  25.158  33.455  1.00  0.00     0.148 A 
ATOM     85  C   UNL A   1      44.761  22.930  34.094  1.00  0.00     0.002 A 
ATOM     86  C   UNL A   1      46.882  24.056  34.129  1.00  0.00     0.091 A 
ATOM     87  F   UNL A   1      47.152  26.152  33.052  1.00  0.00    -0.205 F 
ATOM     88  C   UNL A   1      46.098  22.942  34.448  1.00  0.00     0.022 A 
BRANCH  86  89
ATOM     89  S   UNL A   1      48.587  24.121  34.674  1.00  0.00     0.127 S 
ATOM     90  O   UNL A   1      48.776  22.834  35.335  1.00  0.00    -0.237 OA
ATOM     91  O   UNL A   1      49.314  24.325  33.423  1.00  0.00    -0.237 OA
ATOM     92  O   UNL A   1      48.613  25.274  35.574  1.00  0.00    -0.744 OA
ENDBRANCH  86  89
ENDBRANCH  59  82
ENDBRANCH  33  34
ENDBRANCH  26  28
ENDBRANCH  25  26
ENDBRANCH  24  25
ENDBRANCH   1  24
TORSDOF 17
ENDMDL
MODEL 2
REMARK VINA RESULT:     -12.3      1.773      2.081
REMARK SMILES Cc1ccc([C@H](C)Nc2ccc(C(=O)OCCOC(=O)c3ccc(-c4c5nc(c(-c6cccc(S(=O)(=O)[O-])c6F)c6ccc([nH]6)c(-c6cccc(S(=O)(=O)[O-])c6F)c6nc(c(-c7cccc(S(=O)(=O)[O-])c7F)c7ccc4[nH]7)C=C6)C=C5)cc3)cc2Cl)cc1F
REMARK SMILES IDX 16 1 15 2 13 3 14 4 12 5 9 6 10 7 85 8 11 9 84 10 86 11 8 12
REMARK SMILES IDX 6 14 7 15 5 16 1 17 2 18 3 19 88 20 4 21 87 22 89 23 17 24
REMARK SMILES IDX 18 25 19 26 20 27 21 28 22 29 83 30 23 31 82 32 24 33 25 34
REMARK SMILES IDX 26 35 76 36 27 37 81 38 75 39 77 40 28 41 80 42 74 43 73 44
REMARK SMILES IDX 29 46 61 47 41 48 60 49 42 50 45 51 59 52 78 53 43 54 44 55
REMARK SMILES IDX 58 57 79 58 46 59 30 60 31 61 39 62 32 63 34 64 40 65 33 66
REMARK SMILES IDX 35 67 36 68 37 69 38 70 62 71 63 72 71 73 64 74 66 75 72 76
REMARK SMILES IDX 65 77 67 78 68 79 69 80 70 81 47 82 48 83 56 84 49 85 51 86
REMARK SMILES IDX 57 87 50 88 52 89 53 90 54 91 55 92
REMARK H PARENT 8 13 77 45 45 56
REMARK Flexibility Score: inf
ROOT
ATOM      1  C   UNL A   1      32.950  32.946  27.581  1.00  0.00     0.275 C 
ENDROOT
BRANCH   1   2
ATOM      2  O   UNL A   1      32.802  31.549  27.252  1.00  0.00    -0.458 OA
BRANCH   2   3
ATOM      3  C   UNL A   1      31.802  31.209  26.389  1.00  0.00     0.338 C 
ATOM      4  O   UNL A   1      30.775  31.826  26.198  1.00  0.00    -0.246 OA
BRANCH   3   5
ATOM      5  C   UNL A   1      32.183  29.997  25.606  1.00  0.00     0.061 A 
ATOM      6  C   UNL A   1      32.935  27.643  24.202  1.00  0.00     0.053 A 
ATOM      7  C   UNL A   1      33.745  28.178  25.218  1.00  0.00     0.028 A 
ATOM      8  C   UNL A   1      31.750  28.343  23.889  1.00  0.00     0.065 A 
ATOM      9  C   UNL A   1      33.397  29.360  25.883  1.00  0.00     0.018 A 
ATOM     10  C   UNL A   1      31.357  29.475  24.616  1.00  0.00     0.038 A 
ATOM     11  Cl  UNL A   1      30.665  27.874  22.624  1.00  0.00    -0.082 Cl
BRANCH   6  12
ATOM     12  N   UNL A   1      33.402  26.500  23.568  1.00  0.00    -0.377 N 
ATOM     13  H   UNL A   1      34.061  26.612  22.845  1.00  0.00     0.161 HD
BRANCH  12  14
ATOM     14  C   UNL A   1      32.982  25.146  23.903  1.00  0.00     0.106 C 
ATOM     15  C   UNL A   1      32.238  24.590  22.678  1.00  0.00     0.036 C 
BRANCH  14  16
ATOM     16  C   UNL A   1      34.182  24.327  24.378  1.00  0.00    -0.023 A 
ATOM     17  C   UNL A   1      37.971  22.494  25.427  1.00  0.00     0.047 C 
ATOM     18  C   UNL A   1      36.635  23.083  25.101  1.00  0.00    -0.015 A 
ATOM     19  C   UNL A   1      35.844  23.710  26.066  1.00  0.00     0.007 A 
ATOM     20  C   UNL A   1      36.177  23.054  23.788  1.00  0.00     0.126 A 
ATOM     21  C   UNL A   1      34.635  24.329  25.708  1.00  0.00     0.006 A 
ATOM     22  C   UNL A   1      34.971  23.646  23.432  1.00  0.00     0.045 A 
ATOM     23  F   UNL A   1      36.927  22.479  22.837  1.00  0.00    -0.207 F 
ENDBRANCH  14  16
ENDBRANCH  12  14
ENDBRANCH   6  12
ENDBRANCH   3   5
ENDBRANCH   2   3
ENDBRANCH   1   2
BRANCH   1  24
ATOM     24  C   UNL A   1      34.393  33.339  27.913  1.00  0.00     0.275 C 
BRANCH  24  25
ATOM     25  O   UNL A   1      35.291  32.265  27.627  1.00  0.00    -0.458 OA
BRANCH  25  26
ATOM     26  C   UNL A   1      35.892  31.807  28.744  1.00  0.00     0.338 C 
ATOM     27  O   UNL A   1      36.067  32.404  29.794  1.00  0.00    -0.246 OA
BRANCH  26  28
ATOM     28  C   UNL A   1      36.477  30.493  28.543  1.00  0.00     0.060 A 
ATOM     29  C   UNL A   1      36.432  29.646  29.663  1.00  0.00     0.016 A 
ATOM     30  C   UNL A   1      37.485  30.437  27.587  1.00  0.00     0.016 A 
ATOM     31  C   UNL A   1      37.551  28.923  29.993  1.00  0.00     0.010 A 
ATOM     32  C   UNL A   1      38.604  29.724  27.922  1.00  0.00     0.010 A 
ATOM     33  C   UNL A   1      38.650  29.059  29.159  1.00  0.00    -0.014 A 
BRANCH  33  34
ATOM     34  C   UNL A   1      39.923  28.469  29.463  1.00  0.00     0.031 A 
ATOM     35  C   UNL A   1      40.142  27.095  29.014  1.00  0.00     0.074 A 
ATOM     36  C   UNL A   1      40.895  29.268  29.937  1.00  0.00     0.049 A 
ATOM     37  N   UNL A   1      41.113  26.353  29.404  1.00  0.00    -0.248 NA
ATOM     38  C   UNL A   1      39.197  26.401  28.139  1.00  0.00     0.031 C 
ATOM     39  C   UNL A   1      42.329  29.084  29.802  1.00  0.00     0.029 A 
ATOM     40  N   UNL A   1      40.756  30.335  30.817  1.00  0.00    -0.354 N 
ATOM     41  C   UNL A   1      41.148  25.283  28.545  1.00  0.00     0.074 A 
ATOM     42  C   UNL A   1      39.846  25.255  27.923  1.00  0.00     0.031 C 
ATOM     43  C   UNL A   1      42.953  29.867  30.697  1.00  0.00     0.029 A 
ATOM     44  C   UNL A   1      41.931  30.402  31.587  1.00  0.00     0.049 A 
ATOM     45  H   UNL A   1      39.979  30.934  30.889  1.00  0.00     0.167 HD
ATOM     46  C   UNL A   1      42.347  24.677  28.316  1.00  0.00     0.034 A 
ATOM     47  C   UNL A   1      41.886  30.162  32.935  1.00  0.00     0.034 A 
ATOM     48  C   UNL A   1      43.397  25.282  29.133  1.00  0.00     0.049 A 
ATOM     49  C   UNL A   1      42.664  28.931  33.365  1.00  0.00     0.074 A 
ATOM     50  C   UNL A   1      44.436  26.161  28.869  1.00  0.00     0.029 A 
ATOM     51  N   UNL A   1      43.277  25.242  30.509  1.00  0.00    -0.354 N 
ATOM     52  N   UNL A   1      43.106  28.028  32.534  1.00  0.00    -0.248 NA
ATOM     53  C   UNL A   1      42.939  28.572  34.756  1.00  0.00     0.031 C 
ATOM     54  C   UNL A   1      44.970  26.605  30.113  1.00  0.00     0.029 A 
ATOM     55  C   UNL A   1      44.255  25.992  31.123  1.00  0.00     0.049 A 
ATOM     56  H   UNL A   1      42.580  24.739  30.990  1.00  0.00     0.167 HD
ATOM     57  C   UNL A   1      43.739  27.028  33.220  1.00  0.00     0.074 A 
ATOM     58  C   UNL A   1      43.572  27.391  34.614  1.00  0.00     0.031 C 
ATOM     59  C   UNL A   1      44.322  25.977  32.575  1.00  0.00     0.034 A 
BRANCH  46  60
ATOM     60  C   UNL A   1      42.625  23.737  27.163  1.00  0.00     0.023 A 
ATOM     61  C   UNL A   1      43.432  24.078  26.057  1.00  0.00     0.012 A 
ATOM     62  C   UNL A   1      42.109  22.423  27.161  1.00  0.00     0.148 A 
ATOM     63  C   UNL A   1      43.810  23.151  25.077  1.00  0.00     0.002 A 
ATOM     64  C   UNL A   1      42.476  21.501  26.180  1.00  0.00     0.091 A 
ATOM     65  F   UNL A   1      41.244  22.034  28.106  1.00  0.00    -0.205 F 
ATOM     66  C   UNL A   1      43.342  21.852  25.147  1.00  0.00     0.022 A 
BRANCH  64  67
ATOM     67  S   UNL A   1      41.834  19.830  26.280  1.00  0.00     0.127 S 
ATOM     68  O   UNL A   1      40.394  20.029  26.145  1.00  0.00    -0.237 OA
ATOM     69  O   UNL A   1      42.516  19.150  25.185  1.00  0.00    -0.237 OA
ATOM     70  O   UNL A   1      42.255  19.393  27.612  1.00  0.00    -0.744 OA
ENDBRANCH  64  67
ENDBRANCH  46  60
BRANCH  47  71
ATOM     71  C   UNL A   1      40.605  30.623  33.554  1.00  0.00     0.023 A 
ATOM     72  C   UNL A   1      39.458  29.812  33.473  1.00  0.00     0.012 A 
ATOM     73  C   UNL A   1      40.446  32.007  33.780  1.00  0.00     0.148 A 
ATOM     74  C   UNL A   1      38.182  30.391  33.502  1.00  0.00     0.002 A 
ATOM     75  C   UNL A   1      39.176  32.579  33.761  1.00  0.00     0.091 A 
ATOM     76  F   UNL A   1      41.543  32.774  33.883  1.00  0.00    -0.205 F 
ATOM     77  C   UNL A   1      38.039  31.777  33.606  1.00  0.00     0.022 A 
BRANCH  75  78
ATOM     78  S   UNL A   1      39.034  34.371  33.713  1.00  0.00     0.127 S 
ATOM     79  O   UNL A   1      39.619  34.776  34.988  1.00  0.00    -0.237 OA
ATOM     80  O   UNL A   1      39.787  34.729  32.513  1.00  0.00    -0.237 OA
ATOM     81  O   UNL A   1      37.594  34.605  33.610  1.00  0.00    -0.744 OA
ENDBRANCH  75  78
ENDBRANCH  47  71
BRANCH  59  82
ATOM     82  C   UNL A   1      44.950  24.777  33.234  1.00  0.00     0.023 A 
ATOM     83  C   UNL A   1      44.158  23.611  33.414  1.00  0.00     0.012 A 
ATOM     84  C   UNL A   1      46.291  24.695  33.622  1.00  0.00     0.148 A 
ATOM     85  C   UNL A   1      44.650  22.447  34.000  1.00  0.00     0.002 A 
ATOM     86  C   UNL A   1      46.769  23.546  34.259  1.00  0.00     0.091 A 
ATOM     87  F   UNL A   1      47.128  25.705  33.343  1.00  0.00    -0.205 F 
ATOM     88  C   UNL A   1      45.958  22.422  34.448  1.00  0.00     0.022 A 
BRANCH  86  89
ATOM     89  S   UNL A   1      48.431  23.558  34.926  1.00  0.00     0.127 S 
ATOM     90  O   UNL A   1      48.559  22.235  35.529  1.00  0.00    -0.237 OA
ATOM     91  O   UNL A   1      49.249  23.817  33.743  1.00  0.00    -0.237 OA
ATOM     92  O   UNL A   1      48.405  24.662  35.886  1.00  0.00    -0.744 OA
ENDBRANCH  86  89
ENDBRANCH  59  82
ENDBRANCH  33  34
ENDBRANCH  26  28
ENDBRANCH  25  26
ENDBRANCH  24  25
ENDBRANCH   1  24
TORSDOF 17
ENDMDL
MODEL 3
REMARK VINA RESULT:     -12.2      3.772     10.107
REMARK SMILES Cc1ccc([C@H](C)Nc2ccc(C(=O)OCCOC(=O)c3ccc(-c4c5nc(c(-c6cccc(S(=O)(=O)[O-])c6F)c6ccc([nH]6)c(-c6cccc(S(=O)(=O)[O-])c6F)c6nc(c(-c7cccc(S(=O)(=O)[O-])c7F)c7ccc4[nH]7)C=C6)C=C5)cc3)cc2Cl)cc1F
REMARK SMILES IDX 16 1 15 2 13 3 14 4 12 5 9 6 10 7 85 8 11 9 84 10 86 11 8 12
REMARK SMILES IDX 6 14 7 15 5 16 1 17 2 18 3 19 88 20 4 21 87 22 89 23 17 24
REMARK SMILES IDX 18 25 19 26 20 27 21 28 22 29 83 30 23 31 82 32 24 33 25 34
REMARK SMILES IDX 26 35 76 36 27 37 81 38 75 39 77 40 28 41 80 42 74 43 73 44
REMARK SMILES IDX 29 46 61 47 41 48 60 49 42 50 45 51 59 52 78 53 43 54 44 55
REMARK SMILES IDX 58 57 79 58 46 59 30 60 31 61 39 62 32 63 34 64 40 65 33 66
REMARK SMILES IDX 35 67 36 68 37 69 38 70 62 71 63 72 71 73 64 74 66 75 72 76
REMARK SMILES IDX 65 77 67 78 68 79 69 80 70 81 47 82 48 83 56 84 49 85 51 86
REMARK SMILES IDX 57 87 50 88 52 89 53 90 54 91 55 92
REMARK H PARENT 8 13 77 45 45 56
REMARK Flexibility Score: inf
ROOT
ATOM      1  C   UNL A   1      39.929  20.364  26.047  1.00  0.00     0.275 C 
ENDROOT
BRANCH   1   2
ATOM      2  O   UNL A   1      38.691  21.065  25.807  1.00  0.00    -0.458 OA
BRANCH   2   3
ATOM      3  C   UNL A   1      37.770  20.459  25.003  1.00  0.00     0.338 C 
ATOM      4  O   UNL A   1      37.808  19.316  24.600  1.00  0.00    -0.246 OA
BRANCH   3   5
ATOM      5  C   UNL A   1      36.617  21.374  24.755  1.00  0.00     0.061 A 
ATOM      6  C   UNL A   1      34.464  23.142  24.192  1.00  0.00     0.053 A 
ATOM      7  C   UNL A   1      35.800  23.532  23.997  1.00  0.00     0.028 A 
ATOM      8  C   UNL A   1      34.241  21.847  24.709  1.00  0.00     0.065 A 
ATOM      9  C   UNL A   1      36.863  22.677  24.311  1.00  0.00     0.018 A 
ATOM     10  C   UNL A   1      35.301  20.960  24.938  1.00  0.00     0.038 A 
ATOM     11  Cl  UNL A   1      32.670  21.220  25.078  1.00  0.00    -0.082 Cl
BRANCH   6  12
ATOM     12  N   UNL A   1      33.489  24.087  23.903  1.00  0.00    -0.377 N 
ATOM     13  H   UNL A   1      32.560  23.878  24.149  1.00  0.00     0.161 HD
BRANCH  12  14
ATOM     14  C   UNL A   1      33.753  25.367  23.261  1.00  0.00     0.106 C 
ATOM     15  C   UNL A   1      32.960  25.382  21.945  1.00  0.00     0.036 C 
BRANCH  14  16
ATOM     16  C   UNL A   1      33.452  26.511  24.229  1.00  0.00    -0.023 A 
ATOM     17  C   UNL A   1      31.957  29.496  27.000  1.00  0.00     0.047 C 
ATOM     18  C   UNL A   1      32.531  28.490  26.053  1.00  0.00    -0.015 A 
ATOM     19  C   UNL A   1      33.401  27.483  26.476  1.00  0.00     0.007 A 
ATOM     20  C   UNL A   1      32.154  28.519  24.714  1.00  0.00     0.126 A 
ATOM     21  C   UNL A   1      33.851  26.503  25.576  1.00  0.00     0.006 A 
ATOM     22  C   UNL A   1      32.615  27.564  23.814  1.00  0.00     0.045 A 
ATOM     23  F   UNL A   1      31.302  29.461  24.285  1.00  0.00    -0.207 F 
ENDBRANCH  14  16
ENDBRANCH  12  14
ENDBRANCH   6  12
ENDBRANCH   3   5
ENDBRANCH   2   3
ENDBRANCH   1   2
BRANCH   1  24
ATOM     24  C   UNL A   1      40.753  20.966  27.188  1.00  0.00     0.275 C 
BRANCH  24  25
ATOM     25  O   UNL A   1      40.241  22.246  27.566  1.00  0.00    -0.458 OA
BRANCH  25  26
ATOM     26  C   UNL A   1      40.820  23.241  26.866  1.00  0.00     0.338 C 
ATOM     27  O   UNL A   1      41.884  23.211  26.269  1.00  0.00    -0.246 OA
BRANCH  26  28
ATOM     28  C   UNL A   1      40.089  24.490  26.996  1.00  0.00     0.060 A 
ATOM     29  C   UNL A   1      40.485  25.504  26.107  1.00  0.00     0.016 A 
ATOM     30  C   UNL A   1      39.579  24.746  28.264  1.00  0.00     0.016 A 
ATOM     31  C   UNL A   1      40.644  26.780  26.587  1.00  0.00     0.010 A 
ATOM     32  C   UNL A   1      39.748  26.015  28.744  1.00  0.00     0.010 A 
ATOM     33  C   UNL A   1      40.362  26.982  27.929  1.00  0.00    -0.014 A 
BRANCH  33  34
ATOM     34  C   UNL A   1      40.616  28.231  28.589  1.00  0.00     0.031 A 
ATOM     35  C   UNL A   1      39.552  29.232  28.549  1.00  0.00     0.074 A 
ATOM     36  C   UNL A   1      41.704  28.325  29.373  1.00  0.00     0.049 A 
ATOM     37  N   UNL A   1      39.703  30.463  28.875  1.00  0.00    -0.248 NA
ATOM     38  C   UNL A   1      38.218  28.931  28.028  1.00  0.00     0.031 C 
ATOM     39  C   UNL A   1      41.892  29.197  30.519  1.00  0.00     0.029 A 
ATOM     40  N   UNL A   1      42.954  27.754  29.154  1.00  0.00    -0.354 N 
ATOM     41  C   UNL A   1      38.441  30.987  29.000  1.00  0.00     0.074 A 
ATOM     42  C   UNL A   1      37.582  30.076  28.282  1.00  0.00     0.031 C 
ATOM     43  C   UNL A   1      43.203  29.262  30.804  1.00  0.00     0.029 A 
ATOM     44  C   UNL A   1      43.914  28.619  29.708  1.00  0.00     0.049 A 
ATOM     45  H   UNL A   1      43.133  26.902  28.696  1.00  0.00     0.167 HD
ATOM     46  C   UNL A   1      38.252  32.017  29.871  1.00  0.00     0.034 A 
ATOM     47  C   UNL A   1      44.815  29.259  28.897  1.00  0.00     0.034 A 
ATOM     48  C   UNL A   1      39.519  32.423  30.477  1.00  0.00     0.049 A 
ATOM     49  C   UNL A   1      44.668  30.770  28.891  1.00  0.00     0.074 A 
ATOM     50  C   UNL A   1      40.097  32.227  31.721  1.00  0.00     0.029 A 
ATOM     51  N   UNL A   1      40.532  32.880  29.657  1.00  0.00    -0.354 N 
ATOM     52  N   UNL A   1      43.634  31.398  29.378  1.00  0.00    -0.248 NA
ATOM     53  C   UNL A   1      45.623  31.690  28.273  1.00  0.00     0.031 C 
ATOM     54  C   UNL A   1      41.462  32.626  31.645  1.00  0.00     0.029 A 
ATOM     55  C   UNL A   1      41.704  33.063  30.357  1.00  0.00     0.049 A 
ATOM     56  H   UNL A   1      40.430  33.054  28.693  1.00  0.00     0.167 HD
ATOM     57  C   UNL A   1      43.777  32.747  29.200  1.00  0.00     0.074 A 
ATOM     58  C   UNL A   1      45.020  32.879  28.465  1.00  0.00     0.031 C 
ATOM     59  C   UNL A   1      42.842  33.631  29.654  1.00  0.00     0.034 A 
BRANCH  46  60
ATOM     60  C   UNL A   1      36.901  32.470  30.382  1.00  0.00     0.023 A 
ATOM     61  C   UNL A   1      36.495  32.341  31.728  1.00  0.00     0.012 A 
ATOM     62  C   UNL A   1      35.974  33.096  29.522  1.00  0.00     0.148 A 
ATOM     63  C   UNL A   1      35.310  32.904  32.221  1.00  0.00     0.002 A 
ATOM     64  C   UNL A   1      34.789  33.647  30.009  1.00  0.00     0.091 A 
ATOM     65  F   UNL A   1      36.215  33.168  28.206  1.00  0.00    -0.205 F 
ATOM     66  C   UNL A   1      34.460  33.573  31.361  1.00  0.00     0.022 A 
BRANCH  64  67
ATOM     67  S   UNL A   1      33.692  34.487  28.866  1.00  0.00     0.127 S 
ATOM     68  O   UNL A   1      33.347  33.434  27.917  1.00  0.00    -0.237 OA
ATOM     69  O   UNL A   1      32.626  34.975  29.734  1.00  0.00    -0.237 OA
ATOM     70  O   UNL A   1      34.540  35.542  28.308  1.00  0.00    -0.744 OA
ENDBRANCH  64  67
ENDBRANCH  46  60
BRANCH  47  71
ATOM     71  C   UNL A   1      45.202  28.433  27.713  1.00  0.00     0.023 A 
ATOM     72  C   UNL A   1      44.415  28.469  26.546  1.00  0.00     0.012 A 
ATOM     73  C   UNL A   1      46.039  27.317  27.934  1.00  0.00     0.148 A 
ATOM     74  C   UNL A   1      44.379  27.365  25.686  1.00  0.00     0.002 A 
ATOM     75  C   UNL A   1      45.961  26.206  27.098  1.00  0.00     0.091 A 
ATOM     76  F   UNL A   1      46.809  27.298  29.034  1.00  0.00    -0.205 F 
ATOM     77  C   UNL A   1      45.120  26.217  25.979  1.00  0.00     0.022 A 
BRANCH  75  78
ATOM     78  S   UNL A   1      46.782  24.687  27.600  1.00  0.00     0.127 S 
ATOM     79  O   UNL A   1      45.983  24.250  28.741  1.00  0.00    -0.237 OA
ATOM     80  O   UNL A   1      46.703  23.857  26.400  1.00  0.00    -0.237 OA
ATOM     81  O   UNL A   1      48.136  25.118  27.943  1.00  0.00    -0.744 OA
ENDBRANCH  75  78
ENDBRANCH  47  71
BRANCH  59  82
ATOM     82  C   UNL A   1      42.850  35.119  29.421  1.00  0.00     0.023 A 
ATOM     83  C   UNL A   1      42.132  35.634  28.310  1.00  0.00     0.012 A 
ATOM     84  C   UNL A   1      43.459  36.052  30.267  1.00  0.00     0.148 A 
ATOM     85  C   UNL A   1      42.067  36.995  28.017  1.00  0.00     0.002 A 
ATOM     86  C   UNL A   1      43.439  37.412  29.943  1.00  0.00     0.091 A 
ATOM     87  F   UNL A   1      44.024  35.643  31.412  1.00  0.00    -0.205 F 
ATOM     88  C   UNL A   1      42.745  37.888  28.826  1.00  0.00     0.022 A 
BRANCH  86  89
ATOM     89  S   UNL A   1      44.402  38.549  30.936  1.00  0.00     0.127 S 
ATOM     90  O   UNL A   1      44.188  39.833  30.276  1.00  0.00    -0.237 OA
ATOM     91  O   UNL A   1      43.814  38.392  32.264  1.00  0.00    -0.237 OA
ATOM     92  O   UNL A   1      45.766  38.030  30.821  1.00  0.00    -0.744 OA
ENDBRANCH  86  89
ENDBRANCH  59  82
ENDBRANCH  33  34
ENDBRANCH  26  28
ENDBRANCH  25  26
ENDBRANCH  24  25
ENDBRANCH   1  24
TORSDOF 17
ENDMDL
