MODEL 1
REMARK VINA RESULT:     -12.6      0.000      0.000
REMARK SMILES Cc1cc(Br)cc2c1O[C@H](C(F)(F)F)C(C(=O)OCCOC(=O)c1ccc(-c3c4nc(c(-c5cccc(S(=O)(=O)[O-])c5F)c5ccc([nH]5)c(-c5cccc(S(=O)(=O)[O-])c5F)c5nc(c(-c6cccc(S(=O)(=O)[O-])c6F)c6ccc3[nH]6)C=C5)C=C4)cc1)=C2
REMARK SMILES IDX 20 1 19 2 18 3 16 4 17 5 15 6 1 7 2 8 3 9 8 10 4 11 7 12
REMARK SMILES IDX 9 13 5 14 6 15 87 16 10 17 11 18 12 19 13 20 14 21 21 22
REMARK SMILES IDX 22 23 23 24 24 25 25 26 86 27 26 28 85 29 27 30 28 31 29 32
REMARK SMILES IDX 79 33 30 34 84 35 78 36 80 37 31 38 83 39 77 40 76 41 32 43
REMARK SMILES IDX 64 44 44 45 63 46 45 47 48 48 62 49 81 50 46 51 47 52 61 54
REMARK SMILES IDX 82 55 49 56 33 57 34 58 42 59 35 60 37 61 43 62 36 63 38 64
REMARK SMILES IDX 39 65 40 66 41 67 65 68 66 69 74 70 67 71 69 72 75 73 68 74
REMARK SMILES IDX 70 75 71 76 72 77 73 78 50 79 51 80 59 81 52 82 54 83 60 84
REMARK SMILES IDX 53 85 55 86 56 87 57 88 58 89
REMARK H PARENT 80 42 48 53
REMARK Flexibility Score: inf
ROOT
ATOM      1  C   UNL A   1      31.825  30.009  25.382  1.00  0.00     0.275 C 
ENDROOT
BRANCH   1   2
ATOM      2  C   UNL A   1      31.827  28.587  24.820  1.00  0.00     0.275 C 
BRANCH   2   3
ATOM      3  O   UNL A   1      32.456  27.657  25.730  1.00  0.00    -0.459 OA
BRANCH   3   4
ATOM      4  C   UNL A   1      31.632  26.738  26.284  1.00  0.00     0.338 C 
ATOM      5  O   UNL A   1      30.653  26.966  26.979  1.00  0.00    -0.246 OA
BRANCH   4   6
ATOM      6  C   UNL A   1      32.063  25.372  25.940  1.00  0.00     0.087 C 
ATOM      7  C   UNL A   1      32.526  20.663  23.869  1.00  0.00     0.048 C 
ATOM      8  C   UNL A   1      33.422  21.659  24.548  1.00  0.00    -0.007 A 
ATOM      9  C   UNL A   1      34.797  21.375  24.628  1.00  0.00     0.023 A 
ATOM     10  C   UNL A   1      32.942  22.880  25.050  1.00  0.00     0.130 A 
ATOM     11  C   UNL A   1      35.672  22.277  25.229  1.00  0.00     0.019 A 
ATOM     12  C   UNL A   1      33.833  23.779  25.644  1.00  0.00     0.019 A 
ATOM     13  O   UNL A   1      31.599  23.129  24.950  1.00  0.00    -0.475 OA
ATOM     14  Br  UNL A   1      37.517  21.882  25.323  1.00  0.00    -0.051 Br
ATOM     15  C   UNL A   1      35.196  23.475  25.744  1.00  0.00     0.027 A 
ATOM     16  C   UNL A   1      33.350  25.057  26.124  1.00  0.00     0.027 C 
ATOM     17  C   UNL A   1      31.093  24.458  25.258  1.00  0.00     0.316 C 
BRANCH  17  18
ATOM     18  C   UNL A   1      30.546  25.093  23.969  1.00  0.00     0.430 C 
ATOM     19  F   UNL A   1      30.043  24.153  23.133  1.00  0.00    -0.167 F 
ATOM     20  F   UNL A   1      29.532  25.953  24.228  1.00  0.00    -0.167 F 
ATOM     21  F   UNL A   1      31.493  25.776  23.287  1.00  0.00    -0.167 F 
ENDBRANCH  17  18
ENDBRANCH   4   6
ENDBRANCH   3   4
ENDBRANCH   2   3
ENDBRANCH   1   2
BRANCH   1  22
ATOM     22  O   UNL A   1      32.296  30.017  26.741  1.00  0.00    -0.458 OA
BRANCH  22  23
ATOM     23  C   UNL A   1      32.921  31.156  27.114  1.00  0.00     0.338 C 
ATOM     24  O   UNL A   1      32.413  32.249  27.299  1.00  0.00    -0.246 OA
BRANCH  23  25
ATOM     25  C   UNL A   1      34.343  30.903  27.389  1.00  0.00     0.060 A 
ATOM     26  C   UNL A   1      34.743  29.594  27.622  1.00  0.00     0.016 A 
ATOM     27  C   UNL A   1      35.205  31.958  27.675  1.00  0.00     0.016 A 
ATOM     28  C   UNL A   1      35.907  29.346  28.341  1.00  0.00     0.010 A 
ATOM     29  C   UNL A   1      36.456  31.686  28.240  1.00  0.00     0.010 A 
ATOM     30  C   UNL A   1      36.793  30.384  28.654  1.00  0.00    -0.014 A 
BRANCH  30  31
ATOM     31  C   UNL A   1      38.036  30.125  29.442  1.00  0.00     0.031 A 
ATOM     32  C   UNL A   1      39.130  29.251  28.871  1.00  0.00     0.074 A 
ATOM     33  C   UNL A   1      38.199  30.662  30.671  1.00  0.00     0.049 A 
ATOM     34  N   UNL A   1      40.156  28.708  29.475  1.00  0.00    -0.248 NA
ATOM     35  C   UNL A   1      39.049  28.930  27.435  1.00  0.00     0.031 C 
ATOM     36  C   UNL A   1      37.259  31.567  31.337  1.00  0.00     0.029 A 
ATOM     37  N   UNL A   1      39.213  30.515  31.588  1.00  0.00    -0.354 N 
ATOM     38  C   UNL A   1      40.788  27.915  28.520  1.00  0.00     0.074 A 
ATOM     39  C   UNL A   1      40.034  28.052  27.294  1.00  0.00     0.031 C 
ATOM     40  C   UNL A   1      37.752  31.921  32.531  1.00  0.00     0.029 A 
ATOM     41  C   UNL A   1      38.976  31.174  32.774  1.00  0.00     0.049 A 
ATOM     42  H   UNL A   1      40.027  29.990  31.414  1.00  0.00     0.167 HD
ATOM     43  C   UNL A   1      41.899  27.151  28.653  1.00  0.00     0.034 A 
ATOM     44  C   UNL A   1      39.628  31.137  33.954  1.00  0.00     0.034 A 
ATOM     45  C   UNL A   1      42.689  27.088  29.854  1.00  0.00     0.049 A 
ATOM     46  C   UNL A   1      40.835  30.257  34.087  1.00  0.00     0.074 A 
ATOM     47  C   UNL A   1      43.851  26.369  30.081  1.00  0.00     0.029 A 
ATOM     48  N   UNL A   1      42.415  27.779  31.025  1.00  0.00    -0.354 N 
ATOM     49  N   UNL A   1      41.422  29.517  33.177  1.00  0.00    -0.248 NA
ATOM     50  C   UNL A   1      41.475  30.205  35.409  1.00  0.00     0.031 C 
ATOM     51  C   UNL A   1      44.261  26.603  31.395  1.00  0.00     0.029 A 
ATOM     52  C   UNL A   1      43.376  27.495  31.980  1.00  0.00     0.049 A 
ATOM     53  H   UNL A   1      41.648  28.384  31.156  1.00  0.00     0.167 HD
ATOM     54  C   UNL A   1      42.507  28.925  33.810  1.00  0.00     0.074 A 
ATOM     55  C   UNL A   1      42.519  29.422  35.171  1.00  0.00     0.031 C 
ATOM     56  C   UNL A   1      43.399  28.030  33.318  1.00  0.00     0.034 A 
BRANCH  43  57
ATOM     57  C   UNL A   1      42.352  26.332  27.469  1.00  0.00     0.023 A 
ATOM     58  C   UNL A   1      43.188  26.906  26.491  1.00  0.00     0.012 A 
ATOM     59  C   UNL A   1      42.024  24.963  27.375  1.00  0.00     0.148 A 
ATOM     60  C   UNL A   1      43.668  26.143  25.427  1.00  0.00     0.002 A 
ATOM     61  C   UNL A   1      42.546  24.196  26.339  1.00  0.00     0.091 A 
ATOM     62  F   UNL A   1      41.214  24.435  28.305  1.00  0.00    -0.205 F 
ATOM     63  C   UNL A   1      43.358  24.786  25.358  1.00  0.00     0.022 A 
BRANCH  61  64
ATOM     64  S   UNL A   1      42.284  22.422  26.211  1.00  0.00     0.127 S 
ATOM     65  O   UNL A   1      43.028  22.102  24.992  1.00  0.00    -0.237 OA
ATOM     66  O   UNL A   1      42.898  21.932  27.445  1.00  0.00    -0.237 OA
ATOM     67  O   UNL A   1      40.844  22.231  26.126  1.00  0.00    -0.744 OA
ENDBRANCH  61  64
ENDBRANCH  43  57
BRANCH  44  68
ATOM     68  C   UNL A   1      39.136  31.962  35.097  1.00  0.00     0.023 A 
ATOM     69  C   UNL A   1      38.217  31.401  36.005  1.00  0.00     0.012 A 
ATOM     70  C   UNL A   1      39.616  33.268  35.326  1.00  0.00     0.148 A 
ATOM     71  C   UNL A   1      37.775  32.131  37.110  1.00  0.00     0.002 A 
ATOM     72  C   UNL A   1      39.225  33.961  36.466  1.00  0.00     0.091 A 
ATOM     73  F   UNL A   1      40.476  33.793  34.442  1.00  0.00    -0.205 F 
ATOM     74  C   UNL A   1      38.290  33.402  37.350  1.00  0.00     0.022 A 
BRANCH  72  75
ATOM     75  S   UNL A   1      39.953  35.535  36.937  1.00  0.00     0.127 S 
ATOM     76  O   UNL A   1      39.275  35.812  38.200  1.00  0.00    -0.237 OA
ATOM     77  O   UNL A   1      41.369  35.185  37.060  1.00  0.00    -0.237 OA
ATOM     78  O   UNL A   1      39.653  36.452  35.846  1.00  0.00    -0.744 OA
ENDBRANCH  72  75
ENDBRANCH  44  68
BRANCH  56  79
ATOM     79  C   UNL A   1      44.473  27.530  34.250  1.00  0.00     0.023 A 
ATOM     80  C   UNL A   1      45.664  28.268  34.398  1.00  0.00     0.012 A 
ATOM     81  C   UNL A   1      44.269  26.381  35.040  1.00  0.00     0.148 A 
ATOM     82  C   UNL A   1      46.649  27.855  35.293  1.00  0.00     0.002 A 
ATOM     83  C   UNL A   1      45.231  26.006  35.969  1.00  0.00     0.091 A 
ATOM     84  F   UNL A   1      43.137  25.682  34.873  1.00  0.00    -0.205 F 
ATOM     85  C   UNL A   1      46.427  26.733  36.087  1.00  0.00     0.022 A 
BRANCH  83  86
ATOM     86  S   UNL A   1      44.992  24.639  37.111  1.00  0.00     0.127 S 
ATOM     87  O   UNL A   1      43.777  25.049  37.814  1.00  0.00    -0.237 OA
ATOM     88  O   UNL A   1      44.817  23.506  36.202  1.00  0.00    -0.237 OA
ATOM     89  O   UNL A   1      46.196  24.581  37.929  1.00  0.00    -0.744 OA
ENDBRANCH  83  86
ENDBRANCH  56  79
ENDBRANCH  30  31
ENDBRANCH  23  25
ENDBRANCH  22  23
ENDBRANCH   1  22
TORSDOF 15
ENDMDL
MODEL 2
REMARK VINA RESULT:     -12.5      4.898      9.926
REMARK SMILES Cc1cc(Br)cc2c1O[C@H](C(F)(F)F)C(C(=O)OCCOC(=O)c1ccc(-c3c4nc(c(-c5cccc(S(=O)(=O)[O-])c5F)c5ccc([nH]5)c(-c5cccc(S(=O)(=O)[O-])c5F)c5nc(c(-c6cccc(S(=O)(=O)[O-])c6F)c6ccc3[nH]6)C=C5)C=C4)cc1)=C2
REMARK SMILES IDX 20 1 19 2 18 3 16 4 17 5 15 6 1 7 2 8 3 9 8 10 4 11 7 12
REMARK SMILES IDX 9 13 5 14 6 15 87 16 10 17 11 18 12 19 13 20 14 21 21 22
REMARK SMILES IDX 22 23 23 24 24 25 25 26 86 27 26 28 85 29 27 30 28 31 29 32
REMARK SMILES IDX 79 33 30 34 84 35 78 36 80 37 31 38 83 39 77 40 76 41 32 43
REMARK SMILES IDX 64 44 44 45 63 46 45 47 48 48 62 49 81 50 46 51 47 52 61 54
REMARK SMILES IDX 82 55 49 56 33 57 34 58 42 59 35 60 37 61 43 62 36 63 38 64
REMARK SMILES IDX 39 65 40 66 41 67 65 68 66 69 74 70 67 71 69 72 75 73 68 74
REMARK SMILES IDX 70 75 71 76 72 77 73 78 50 79 51 80 59 81 52 82 54 83 60 84
REMARK SMILES IDX 53 85 55 86 56 87 57 88 58 89
REMARK H PARENT 80 42 48 53
REMARK Flexibility Score: inf
ROOT
ATOM      1  C   UNL A   1      36.235  20.757  25.100  1.00  0.00     0.275 C 
ENDROOT
BRANCH   1   2
ATOM      2  C   UNL A   1      34.899  21.409  24.741  1.00  0.00     0.275 C 
BRANCH   2   3
ATOM      3  O   UNL A   1      34.997  22.851  24.730  1.00  0.00    -0.459 OA
BRANCH   3   4
ATOM      4  C   UNL A   1      34.857  23.433  23.517  1.00  0.00     0.338 C 
ATOM      5  O   UNL A   1      35.419  23.103  22.483  1.00  0.00    -0.246 OA
BRANCH   4   6
ATOM      6  C   UNL A   1      33.909  24.559  23.582  1.00  0.00     0.087 C 
ATOM      7  C   UNL A   1      29.702  27.550  23.407  1.00  0.00     0.048 C 
ATOM      8  C   UNL A   1      31.017  27.543  24.132  1.00  0.00    -0.007 A 
ATOM      9  C   UNL A   1      31.244  28.525  25.113  1.00  0.00     0.023 A 
ATOM     10  C   UNL A   1      31.995  26.561  23.903  1.00  0.00     0.130 A 
ATOM     11  C   UNL A   1      32.439  28.546  25.828  1.00  0.00     0.019 A 
ATOM     12  C   UNL A   1      33.186  26.591  24.633  1.00  0.00     0.019 A 
ATOM     13  O   UNL A   1      31.739  25.615  22.946  1.00  0.00    -0.475 OA
ATOM     14  Br  UNL A   1      32.726  29.870  27.146  1.00  0.00    -0.051 Br
ATOM     15  C   UNL A   1      33.416  27.589  25.588  1.00  0.00     0.027 A 
ATOM     16  C   UNL A   1      34.179  25.556  24.431  1.00  0.00     0.027 C 
ATOM     17  C   UNL A   1      32.620  24.463  22.825  1.00  0.00     0.316 C 
BRANCH  17  18
ATOM     18  C   UNL A   1      31.840  23.198  23.217  1.00  0.00     0.430 C 
ATOM     19  F   UNL A   1      30.522  23.322  22.928  1.00  0.00    -0.167 F 
ATOM     20  F   UNL A   1      32.278  22.111  22.536  1.00  0.00    -0.167 F 
ATOM     21  F   UNL A   1      31.940  22.917  24.536  1.00  0.00    -0.167 F 
ENDBRANCH  17  18
ENDBRANCH   4   6
ENDBRANCH   3   4
ENDBRANCH   2   3
ENDBRANCH   1   2
BRANCH   1  22
ATOM     22  O   UNL A   1      37.311  21.701  24.963  1.00  0.00    -0.458 OA
BRANCH  22  23
ATOM     23  C   UNL A   1      38.453  21.349  25.595  1.00  0.00     0.338 C 
ATOM     24  O   UNL A   1      39.087  20.317  25.452  1.00  0.00    -0.246 OA
BRANCH  23  25
ATOM     25  C   UNL A   1      38.936  22.447  26.447  1.00  0.00     0.060 A 
ATOM     26  C   UNL A   1      38.432  23.721  26.222  1.00  0.00     0.016 A 
ATOM     27  C   UNL A   1      40.051  22.270  27.261  1.00  0.00     0.016 A 
ATOM     28  C   UNL A   1      39.163  24.833  26.625  1.00  0.00     0.010 A 
ATOM     29  C   UNL A   1      40.682  23.392  27.810  1.00  0.00     0.010 A 
ATOM     30  C   UNL A   1      40.295  24.692  27.437  1.00  0.00    -0.014 A 
BRANCH  30  31
ATOM     31  C   UNL A   1      41.095  25.883  27.857  1.00  0.00     0.031 A 
ATOM     32  C   UNL A   1      40.470  26.951  28.725  1.00  0.00     0.074 A 
ATOM     33  C   UNL A   1      42.380  26.024  27.465  1.00  0.00     0.049 A 
ATOM     34  N   UNL A   1      40.898  28.158  28.991  1.00  0.00    -0.248 NA
ATOM     35  C   UNL A   1      39.183  26.624  29.364  1.00  0.00     0.031 C 
ATOM     36  C   UNL A   1      43.140  25.057  26.671  1.00  0.00     0.029 A 
ATOM     37  N   UNL A   1      43.276  27.046  27.675  1.00  0.00    -0.354 N 
ATOM     38  C   UNL A   1      39.899  28.762  29.749  1.00  0.00     0.074 A 
ATOM     39  C   UNL A   1      38.843  27.786  29.908  1.00  0.00     0.031 C 
ATOM     40  C   UNL A   1      44.388  25.510  26.491  1.00  0.00     0.029 A 
ATOM     41  C   UNL A   1      44.484  26.852  27.044  1.00  0.00     0.049 A 
ATOM     42  H   UNL A   1      43.073  27.839  28.221  1.00  0.00     0.167 HD
ATOM     43  C   UNL A   1      39.869  30.012  30.273  1.00  0.00     0.034 A 
ATOM     44  C   UNL A   1      45.534  27.678  26.866  1.00  0.00     0.034 A 
ATOM     45  C   UNL A   1      40.960  30.945  30.180  1.00  0.00     0.049 A 
ATOM     46  C   UNL A   1      45.464  29.069  27.424  1.00  0.00     0.074 A 
ATOM     47  C   UNL A   1      41.042  32.225  30.703  1.00  0.00     0.029 A 
ATOM     48  N   UNL A   1      42.165  30.700  29.539  1.00  0.00    -0.354 N 
ATOM     49  N   UNL A   1      44.516  29.625  28.141  1.00  0.00    -0.248 NA
ATOM     50  C   UNL A   1      46.608  29.951  27.152  1.00  0.00     0.031 C 
ATOM     51  C   UNL A   1      42.284  32.762  30.354  1.00  0.00     0.029 A 
ATOM     52  C   UNL A   1      42.991  31.806  29.642  1.00  0.00     0.049 A 
ATOM     53  H   UNL A   1      42.399  29.861  29.078  1.00  0.00     0.167 HD
ATOM     54  C   UNL A   1      44.954  30.913  28.419  1.00  0.00     0.074 A 
ATOM     55  C   UNL A   1      46.270  31.043  27.826  1.00  0.00     0.031 C 
ATOM     56  C   UNL A   1      44.316  31.907  29.082  1.00  0.00     0.034 A 
BRANCH  43  57
ATOM     57  C   UNL A   1      38.630  30.449  31.015  1.00  0.00     0.023 A 
ATOM     58  C   UNL A   1      38.535  30.254  32.407  1.00  0.00     0.012 A 
ATOM     59  C   UNL A   1      37.597  31.139  30.346  1.00  0.00     0.148 A 
ATOM     60  C   UNL A   1      37.425  30.712  33.117  1.00  0.00     0.002 A 
ATOM     61  C   UNL A   1      36.518  31.638  31.067  1.00  0.00     0.091 A 
ATOM     62  F   UNL A   1      37.695  31.303  29.019  1.00  0.00    -0.205 F 
ATOM     63  C   UNL A   1      36.424  31.415  32.450  1.00  0.00     0.022 A 
BRANCH  61  64
ATOM     64  S   UNL A   1      35.222  32.635  30.319  1.00  0.00     0.127 S 
ATOM     65  O   UNL A   1      34.284  32.781  31.432  1.00  0.00    -0.237 OA
ATOM     66  O   UNL A   1      35.943  33.858  29.967  1.00  0.00    -0.237 OA
ATOM     67  O   UNL A   1      34.724  31.869  29.186  1.00  0.00    -0.744 OA
ENDBRANCH  61  64
ENDBRANCH  43  57
BRANCH  44  68
ATOM     68  C   UNL A   1      46.735  27.201  26.119  1.00  0.00     0.023 A 
ATOM     69  C   UNL A   1      46.833  27.456  24.737  1.00  0.00     0.012 A 
ATOM     70  C   UNL A   1      47.803  26.552  26.773  1.00  0.00     0.148 A 
ATOM     71  C   UNL A   1      47.964  27.063  24.020  1.00  0.00     0.002 A 
ATOM     72  C   UNL A   1      48.954  26.226  26.066  1.00  0.00     0.091 A 
ATOM     73  F   UNL A   1      47.685  26.299  28.084  1.00  0.00    -0.205 F 
ATOM     74  C   UNL A   1      49.030  26.464  24.686  1.00  0.00     0.022 A 
BRANCH  72  75
ATOM     75  S   UNL A   1      50.434  25.596  26.867  1.00  0.00     0.127 S 
ATOM     76  O   UNL A   1      51.342  25.435  25.736  1.00  0.00    -0.237 OA
ATOM     77  O   UNL A   1      50.771  26.691  27.778  1.00  0.00    -0.237 OA
ATOM     78  O   UNL A   1      50.031  24.364  27.532  1.00  0.00    -0.744 OA
ENDBRANCH  72  75
ENDBRANCH  44  68
BRANCH  56  79
ATOM     79  C   UNL A   1      45.029  33.228  29.215  1.00  0.00     0.023 A 
ATOM     80  C   UNL A   1      45.841  33.470  30.341  1.00  0.00     0.012 A 
ATOM     81  C   UNL A   1      44.965  34.192  28.189  1.00  0.00     0.148 A 
ATOM     82  C   UNL A   1      46.553  34.663  30.460  1.00  0.00     0.002 A 
ATOM     83  C   UNL A   1      45.719  35.354  28.289  1.00  0.00     0.091 A 
ATOM     84  F   UNL A   1      44.174  33.952  27.133  1.00  0.00    -0.205 F 
ATOM     85  C   UNL A   1      46.502  35.598  29.429  1.00  0.00     0.022 A 
BRANCH  83  86
ATOM     86  S   UNL A   1      45.804  36.569  26.967  1.00  0.00     0.127 S 
ATOM     87  O   UNL A   1      44.432  37.072  26.937  1.00  0.00    -0.237 OA
ATOM     88  O   UNL A   1      46.791  37.518  27.484  1.00  0.00    -0.237 OA
ATOM     89  O   UNL A   1      46.228  35.842  25.778  1.00  0.00    -0.744 OA
ENDBRANCH  83  86
ENDBRANCH  56  79
ENDBRANCH  30  31
ENDBRANCH  23  25
ENDBRANCH  22  23
ENDBRANCH   1  22
TORSDOF 15
ENDMDL
MODEL 3
REMARK VINA RESULT:     -12.3      1.398      1.671
REMARK SMILES Cc1cc(Br)cc2c1O[C@H](C(F)(F)F)C(C(=O)OCCOC(=O)c1ccc(-c3c4nc(c(-c5cccc(S(=O)(=O)[O-])c5F)c5ccc([nH]5)c(-c5cccc(S(=O)(=O)[O-])c5F)c5nc(c(-c6cccc(S(=O)(=O)[O-])c6F)c6ccc3[nH]6)C=C5)C=C4)cc1)=C2
REMARK SMILES IDX 20 1 19 2 18 3 16 4 17 5 15 6 1 7 2 8 3 9 8 10 4 11 7 12
REMARK SMILES IDX 9 13 5 14 6 15 87 16 10 17 11 18 12 19 13 20 14 21 21 22
REMARK SMILES IDX 22 23 23 24 24 25 25 26 86 27 26 28 85 29 27 30 28 31 29 32
REMARK SMILES IDX 79 33 30 34 84 35 78 36 80 37 31 38 83 39 77 40 76 41 32 43
REMARK SMILES IDX 64 44 44 45 63 46 45 47 48 48 62 49 81 50 46 51 47 52 61 54
REMARK SMILES IDX 82 55 49 56 33 57 34 58 42 59 35 60 37 61 43 62 36 63 38 64
REMARK SMILES IDX 39 65 40 66 41 67 65 68 66 69 74 70 67 71 69 72 75 73 68 74
REMARK SMILES IDX 70 75 71 76 72 77 73 78 50 79 51 80 59 81 52 82 54 83 60 84
REMARK SMILES IDX 53 85 55 86 56 87 57 88 58 89
REMARK H PARENT 80 42 48 53
REMARK Flexibility Score: inf
ROOT
ATOM      1  C   UNL A   1      31.587  31.027  26.500  1.00  0.00     0.275 C 
ENDROOT
BRANCH   1   2
ATOM      2  C   UNL A   1      31.432  30.081  25.309  1.00  0.00     0.275 C 
BRANCH   2   3
ATOM      3  O   UNL A   1      31.894  28.748  25.627  1.00  0.00    -0.459 OA
BRANCH   3   4
ATOM      4  C   UNL A   1      32.697  28.175  24.701  1.00  0.00     0.338 C 
ATOM      5  O   UNL A   1      33.275  28.746  23.788  1.00  0.00    -0.246 OA
BRANCH   4   6
ATOM      6  C   UNL A   1      32.803  26.723  24.924  1.00  0.00     0.087 C 
ATOM      7  C   UNL A   1      31.934  21.637  25.144  1.00  0.00     0.048 C 
ATOM      8  C   UNL A   1      33.126  22.548  25.092  1.00  0.00    -0.007 A 
ATOM      9  C   UNL A   1      34.404  21.968  24.992  1.00  0.00     0.023 A 
ATOM     10  C   UNL A   1      33.003  23.946  25.082  1.00  0.00     0.130 A 
ATOM     11  C   UNL A   1      35.540  22.772  24.918  1.00  0.00     0.019 A 
ATOM     12  C   UNL A   1      34.151  24.740  25.001  1.00  0.00     0.019 A 
ATOM     13  O   UNL A   1      31.744  24.478  25.173  1.00  0.00    -0.475 OA
ATOM     14  Br  UNL A   1      37.250  21.978  24.780  1.00  0.00    -0.051 Br
ATOM     15  C   UNL A   1      35.421  24.155  24.930  1.00  0.00     0.027 A 
ATOM     16  C   UNL A   1      34.025  26.181  24.947  1.00  0.00     0.027 C 
ATOM     17  C   UNL A   1      31.551  25.903  24.952  1.00  0.00     0.316 C 
BRANCH  17  18
ATOM     18  C   UNL A   1      30.729  26.100  23.668  1.00  0.00     0.430 C 
ATOM     19  F   UNL A   1      29.943  25.026  23.417  1.00  0.00    -0.167 F 
ATOM     20  F   UNL A   1      29.897  27.166  23.766  1.00  0.00    -0.167 F 
ATOM     21  F   UNL A   1      31.510  26.294  22.580  1.00  0.00    -0.167 F 
ENDBRANCH  17  18
ENDBRANCH   4   6
ENDBRANCH   3   4
ENDBRANCH   2   3
ENDBRANCH   1   2
BRANCH   1  22
ATOM     22  O   UNL A   1      32.783  30.721  27.238  1.00  0.00    -0.458 OA
BRANCH  22  23
ATOM     23  C   UNL A   1      33.546  31.793  27.546  1.00  0.00     0.338 C 
ATOM     24  O   UNL A   1      33.169  32.938  27.726  1.00  0.00    -0.246 OA
BRANCH  23  25
ATOM     25  C   UNL A   1      34.946  31.393  27.752  1.00  0.00     0.060 A 
ATOM     26  C   UNL A   1      35.215  30.053  27.998  1.00  0.00     0.016 A 
ATOM     27  C   UNL A   1      35.930  32.354  27.967  1.00  0.00     0.016 A 
ATOM     28  C   UNL A   1      36.384  29.694  28.661  1.00  0.00     0.010 A 
ATOM     29  C   UNL A   1      37.173  31.960  28.473  1.00  0.00     0.010 A 
ATOM     30  C   UNL A   1      37.391  30.637  28.901  1.00  0.00    -0.014 A 
BRANCH  30  31
ATOM     31  C   UNL A   1      38.641  30.260  29.630  1.00  0.00     0.031 A 
ATOM     32  C   UNL A   1      39.624  29.298  29.005  1.00  0.00     0.074 A 
ATOM     33  C   UNL A   1      38.906  30.769  30.853  1.00  0.00     0.049 A 
ATOM     34  N   UNL A   1      40.623  28.659  29.559  1.00  0.00    -0.248 NA
ATOM     35  C   UNL A   1      39.450  28.998  27.573  1.00  0.00     0.031 C 
ATOM     36  C   UNL A   1      38.082  31.748  31.566  1.00  0.00     0.029 A 
ATOM     37  N   UNL A   1      39.943  30.524  31.722  1.00  0.00    -0.354 N 
ATOM     38  C   UNL A   1      41.138  27.822  28.572  1.00  0.00     0.074 A 
ATOM     39  C   UNL A   1      40.345  28.037  27.382  1.00  0.00     0.031 C 
ATOM     40  C   UNL A   1      38.658  32.046  32.738  1.00  0.00     0.029 A 
ATOM     41  C   UNL A   1      39.821  31.190  32.921  1.00  0.00     0.049 A 
ATOM     42  H   UNL A   1      40.698  29.930  31.509  1.00  0.00     0.167 HD
ATOM     43  C   UNL A   1      42.181  26.960  28.650  1.00  0.00     0.034 A 
ATOM     44  C   UNL A   1      40.519  31.084  34.069  1.00  0.00     0.034 A 
ATOM     45  C   UNL A   1      43.016  26.816  29.813  1.00  0.00     0.049 A 
ATOM     46  C   UNL A   1      41.647  30.098  34.143  1.00  0.00     0.074 A 
ATOM     47  C   UNL A   1      44.117  25.993  29.982  1.00  0.00     0.029 A 
ATOM     48  N   UNL A   1      42.858  27.517  30.998  1.00  0.00    -0.354 N 
ATOM     49  N   UNL A   1      42.124  29.317  33.203  1.00  0.00    -0.248 NA
ATOM     50  C   UNL A   1      42.338  29.978  35.434  1.00  0.00     0.031 C 
ATOM     51  C   UNL A   1      44.606  26.178  31.278  1.00  0.00     0.029 A 
ATOM     52  C   UNL A   1      43.831  27.140  31.907  1.00  0.00     0.049 A 
ATOM     53  H   UNL A   1      42.155  28.187  31.168  1.00  0.00     0.167 HD
ATOM     54  C   UNL A   1      43.178  28.624  33.782  1.00  0.00     0.074 A 
ATOM     55  C   UNL A   1      43.296  29.106  35.144  1.00  0.00     0.031 C 
ATOM     56  C   UNL A   1      43.963  27.658  33.246  1.00  0.00     0.034 A 
BRANCH  43  57
ATOM     57  C   UNL A   1      42.504  26.115  27.442  1.00  0.00     0.023 A 
ATOM     58  C   UNL A   1      43.317  26.633  26.414  1.00  0.00     0.012 A 
ATOM     59  C   UNL A   1      42.078  24.772  27.370  1.00  0.00     0.148 A 
ATOM     60  C   UNL A   1      43.678  25.842  25.324  1.00  0.00     0.002 A 
ATOM     61  C   UNL A   1      42.483  23.974  26.306  1.00  0.00     0.091 A 
ATOM     62  F   UNL A   1      41.292  24.299  28.348  1.00  0.00    -0.205 F 
ATOM     63  C   UNL A   1      43.273  24.510  25.276  1.00  0.00     0.022 A 
BRANCH  61  64
ATOM     64  S   UNL A   1      42.093  22.222  26.197  1.00  0.00     0.127 S 
ATOM     65  O   UNL A   1      42.802  21.838  24.976  1.00  0.00    -0.237 OA
ATOM     66  O   UNL A   1      42.681  21.701  27.431  1.00  0.00    -0.237 OA
ATOM     67  O   UNL A   1      40.642  22.134  26.124  1.00  0.00    -0.744 OA
ENDBRANCH  61  64
ENDBRANCH  43  57
BRANCH  44  68
ATOM     68  C   UNL A   1      40.156  31.939  35.239  1.00  0.00     0.023 A 
ATOM     69  C   UNL A   1      40.696  33.236  35.338  1.00  0.00     0.012 A 
ATOM     70  C   UNL A   1      39.238  31.502  36.216  1.00  0.00     0.148 A 
ATOM     71  C   UNL A   1      40.339  34.075  36.394  1.00  0.00     0.002 A 
ATOM     72  C   UNL A   1      38.835  32.368  37.226  1.00  0.00     0.091 A 
ATOM     73  F   UNL A   1      38.749  30.258  36.118  1.00  0.00    -0.205 F 
ATOM     74  C   UNL A   1      39.398  33.649  37.328  1.00  0.00     0.022 A 
BRANCH  72  75
ATOM     75  S   UNL A   1      37.517  31.963  38.378  1.00  0.00     0.127 S 
ATOM     76  O   UNL A   1      38.165  32.188  39.667  1.00  0.00    -0.237 OA
ATOM     77  O   UNL A   1      36.494  32.947  38.020  1.00  0.00    -0.237 OA
ATOM     78  O   UNL A   1      37.149  30.583  38.090  1.00  0.00    -0.744 OA
ENDBRANCH  72  75
ENDBRANCH  44  68
BRANCH  56  79
ATOM     79  C   UNL A   1      45.029  27.056  34.124  1.00  0.00     0.023 A 
ATOM     80  C   UNL A   1      46.308  27.645  34.169  1.00  0.00     0.012 A 
ATOM     81  C   UNL A   1      44.741  25.963  34.967  1.00  0.00     0.148 A 
ATOM     82  C   UNL A   1      47.294  27.138  35.014  1.00  0.00     0.002 A 
ATOM     83  C   UNL A   1      45.711  25.498  35.846  1.00  0.00     0.091 A 
ATOM     84  F   UNL A   1      43.523  25.405  34.898  1.00  0.00    -0.205 F 
ATOM     85  C   UNL A   1      46.992  26.074  35.861  1.00  0.00     0.022 A 
BRANCH  83  86
ATOM     86  S   UNL A   1      45.385  24.204  37.050  1.00  0.00     0.127 S 
ATOM     87  O   UNL A   1      44.305  24.796  37.838  1.00  0.00    -0.237 OA
ATOM     88  O   UNL A   1      44.975  23.087  36.197  1.00  0.00    -0.237 OA
ATOM     89  O   UNL A   1      46.636  23.994  37.765  1.00  0.00    -0.744 OA
ENDBRANCH  83  86
ENDBRANCH  56  79
ENDBRANCH  30  31
ENDBRANCH  23  25
ENDBRANCH  22  23
ENDBRANCH   1  22
TORSDOF 15
ENDMDL
