MODEL 1
REMARK VINA RESULT:     -11.4      0.000      0.000
REMARK SMILES N#CCCn1cc(C(=O)OCCOC(=O)c2ccc(-c3c4nc(c(-c5cccc(S(=O)(=O)[O-])c5F)c5ccc([nH]5)c(-c5cccc(S(=O)(=O)[O-])c5F)c5nc(c(-c6cccc(S(=O)(=O)[O-])c6F)c6ccc3[nH]6)C=C5)C=C4)cc2)c(-c2cccc([N+](=O)[O-])c2)n1
REMARK SMILES IDX 11 1 10 2 8 3 9 4 7 5 5 6 6 7 89 8 79 9 4 10 3 11 2 12 1 13
REMARK SMILES IDX 80 14 81 15 88 16 82 17 84 18 83 19 85 20 86 21 87 22 12 23
REMARK SMILES IDX 13 24 14 25 15 26 16 27 17 28 78 29 18 30 77 31 19 32 20 33
REMARK SMILES IDX 21 34 71 35 22 36 76 37 70 38 72 39 23 40 75 41 69 42 68 43
REMARK SMILES IDX 24 45 56 46 36 47 55 48 37 49 40 50 54 51 73 52 38 53 39 54
REMARK SMILES IDX 53 56 74 57 41 58 25 59 26 60 34 61 27 62 29 63 35 64 28 65
REMARK SMILES IDX 30 66 31 67 32 68 33 69 57 70 58 71 66 72 59 73 61 74 67 75
REMARK SMILES IDX 60 76 62 77 63 78 64 79 65 80 42 81 43 82 51 83 44 84 46 85
REMARK SMILES IDX 52 86 45 87 47 88 48 89 49 90 50 91
REMARK H PARENT 72 44 40 55
REMARK Flexibility Score: inf
ROOT
ATOM      1  C   UNL A   1      37.884  21.446  25.035  1.00  0.00     0.275 C 
ENDROOT
BRANCH   1   2
ATOM      2  O   UNL A   1      36.733  21.102  25.826  1.00  0.00    -0.458 OA
BRANCH   2   3
ATOM      3  C   UNL A   1      35.603  21.855  25.651  1.00  0.00     0.342 C 
ATOM      4  O   UNL A   1      35.489  23.025  26.014  1.00  0.00    -0.246 OA
BRANCH   3   5
ATOM      5  C   UNL A   1      34.547  21.113  24.992  1.00  0.00     0.106 A 
ATOM      6  N   UNL A   1      33.313  19.463  24.244  1.00  0.00    -0.270 N 
ATOM      7  C   UNL A   1      34.503  19.741  24.836  1.00  0.00     0.125 A 
ATOM      8  N   UNL A   1      32.611  20.553  23.908  1.00  0.00    -0.172 NA
ATOM      9  C   UNL A   1      33.372  21.578  24.329  1.00  0.00     0.107 A 
BRANCH   6  10
ATOM     10  C   UNL A   1      32.740  18.145  24.050  1.00  0.00     0.159 C 
BRANCH  10  11
ATOM     11  C   UNL A   1      32.599  17.378  25.359  1.00  0.00     0.144 C 
BRANCH  11  12
ATOM     12  C   UNL A   1      33.395  16.085  25.314  1.00  0.00     0.064 C 
ATOM     13  N   UNL A   1      34.056  15.012  25.277  1.00  0.00    -0.198 NA
ENDBRANCH  11  12
ENDBRANCH  10  11
ENDBRANCH   6  10
BRANCH   9  14
ATOM     14  C   UNL A   1      32.985  22.952  24.045  1.00  0.00     0.010 A 
ATOM     15  C   UNL A   1      33.564  23.612  22.953  1.00  0.00     0.011 A 
ATOM     16  C   UNL A   1      32.064  23.623  24.852  1.00  0.00     0.096 A 
ATOM     17  C   UNL A   1      33.289  24.957  22.702  1.00  0.00     0.008 A 
ATOM     18  C   UNL A   1      31.774  24.968  24.581  1.00  0.00     0.270 A 
ATOM     19  C   UNL A   1      32.400  25.646  23.524  1.00  0.00     0.085 A 
BRANCH  18  20
ATOM     20  N   UNL A   1      30.792  25.676  25.407  1.00  0.00     0.062 N 
ATOM     21  O   UNL A   1      30.220  26.660  24.916  1.00  0.00    -0.258 OA
ATOM     22  O   UNL A   1      30.578  25.241  26.549  1.00  0.00    -0.258 OA
ENDBRANCH  18  20
ENDBRANCH   9  14
ENDBRANCH   3   5
ENDBRANCH   2   3
ENDBRANCH   1   2
BRANCH   1  23
ATOM     23  C   UNL A   1      39.152  21.551  25.875  1.00  0.00     0.275 C 
BRANCH  23  24
ATOM     24  O   UNL A   1      39.151  22.736  26.667  1.00  0.00    -0.458 OA
BRANCH  24  25
ATOM     25  C   UNL A   1      40.241  22.882  27.450  1.00  0.00     0.338 C 
ATOM     26  O   UNL A   1      40.822  22.002  28.068  1.00  0.00    -0.246 OA
BRANCH  25  27
ATOM     27  C   UNL A   1      40.582  24.298  27.573  1.00  0.00     0.060 A 
ATOM     28  C   UNL A   1      41.646  24.605  28.428  1.00  0.00     0.016 A 
ATOM     29  C   UNL A   1      39.748  25.290  27.038  1.00  0.00     0.016 A 
ATOM     30  C   UNL A   1      41.794  25.898  28.862  1.00  0.00     0.010 A 
ATOM     31  C   UNL A   1      39.886  26.584  27.485  1.00  0.00     0.010 A 
ATOM     32  C   UNL A   1      40.865  26.850  28.441  1.00  0.00    -0.014 A 
BRANCH  32  33
ATOM     33  C   UNL A   1      40.973  28.167  29.026  1.00  0.00     0.031 A 
ATOM     34  C   UNL A   1      42.022  28.997  28.385  1.00  0.00     0.074 A 
ATOM     35  C   UNL A   1      40.137  28.532  30.017  1.00  0.00     0.049 A 
ATOM     36  N   UNL A   1      43.098  29.468  28.923  1.00  0.00    -0.248 NA
ATOM     37  C   UNL A   1      41.966  29.156  26.922  1.00  0.00     0.031 C 
ATOM     38  C   UNL A   1      38.939  27.815  30.477  1.00  0.00     0.029 A 
ATOM     39  N   UNL A   1      40.084  29.692  30.723  1.00  0.00    -0.354 N 
ATOM     40  C   UNL A   1      43.714  30.210  27.914  1.00  0.00     0.074 A 
ATOM     41  C   UNL A   1      43.108  29.798  26.680  1.00  0.00     0.031 C 
ATOM     42  C   UNL A   1      38.146  28.672  31.157  1.00  0.00     0.029 A 
ATOM     43  C   UNL A   1      38.834  29.944  31.279  1.00  0.00     0.049 A 
ATOM     44  H   UNL A   1      40.855  30.294  30.829  1.00  0.00     0.167 HD
ATOM     45  C   UNL A   1      44.445  31.317  28.214  1.00  0.00     0.034 A 
ATOM     46  C   UNL A   1      38.360  31.147  31.690  1.00  0.00     0.034 A 
ATOM     47  C   UNL A   1      44.871  31.296  29.591  1.00  0.00     0.049 A 
ATOM     48  C   UNL A   1      39.523  32.047  31.865  1.00  0.00     0.074 A 
ATOM     49  C   UNL A   1      45.649  30.458  30.362  1.00  0.00     0.029 A 
ATOM     50  N   UNL A   1      44.148  32.067  30.468  1.00  0.00    -0.354 N 
ATOM     51  N   UNL A   1      40.442  31.861  32.772  1.00  0.00    -0.248 NA
ATOM     52  C   UNL A   1      39.917  32.871  30.735  1.00  0.00     0.031 C 
ATOM     53  C   UNL A   1      45.028  30.456  31.644  1.00  0.00     0.029 A 
ATOM     54  C   UNL A   1      43.947  31.342  31.608  1.00  0.00     0.049 A 
ATOM     55  H   UNL A   1      43.828  32.984  30.302  1.00  0.00     0.167 HD
ATOM     56  C   UNL A   1      41.634  32.138  32.114  1.00  0.00     0.074 A 
ATOM     57  C   UNL A   1      41.242  32.856  30.903  1.00  0.00     0.031 C 
ATOM     58  C   UNL A   1      42.789  31.495  32.460  1.00  0.00     0.034 A 
BRANCH  45  59
ATOM     59  C   UNL A   1      44.389  32.612  27.427  1.00  0.00     0.023 A 
ATOM     60  C   UNL A   1      45.394  32.804  26.449  1.00  0.00     0.012 A 
ATOM     61  C   UNL A   1      43.632  33.752  27.791  1.00  0.00     0.148 A 
ATOM     62  C   UNL A   1      45.689  34.072  25.937  1.00  0.00     0.002 A 
ATOM     63  C   UNL A   1      43.886  34.998  27.229  1.00  0.00     0.091 A 
ATOM     64  F   UNL A   1      42.735  33.684  28.773  1.00  0.00    -0.205 F 
ATOM     65  C   UNL A   1      44.937  35.170  26.329  1.00  0.00     0.022 A 
BRANCH  63  66
ATOM     66  S   UNL A   1      42.923  36.449  27.678  1.00  0.00     0.127 S 
ATOM     67  O   UNL A   1      43.252  36.589  29.094  1.00  0.00    -0.237 OA
ATOM     68  O   UNL A   1      43.500  37.469  26.802  1.00  0.00    -0.237 OA
ATOM     69  O   UNL A   1      41.537  36.116  27.376  1.00  0.00    -0.744 OA
ENDBRANCH  63  66
ENDBRANCH  45  59
BRANCH  46  70
ATOM     70  C   UNL A   1      36.972  31.658  31.590  1.00  0.00     0.023 A 
ATOM     71  C   UNL A   1      36.298  32.119  32.736  1.00  0.00     0.012 A 
ATOM     72  C   UNL A   1      36.393  31.922  30.326  1.00  0.00     0.148 A 
ATOM     73  C   UNL A   1      35.089  32.823  32.626  1.00  0.00     0.002 A 
ATOM     74  C   UNL A   1      35.185  32.602  30.222  1.00  0.00     0.091 A 
ATOM     75  F   UNL A   1      37.073  31.583  29.223  1.00  0.00    -0.205 F 
ATOM     76  C   UNL A   1      34.534  33.065  31.372  1.00  0.00     0.022 A 
BRANCH  74  77
ATOM     77  S   UNL A   1      34.413  32.947  28.635  1.00  0.00     0.127 S 
ATOM     78  O   UNL A   1      33.970  31.614  28.223  1.00  0.00    -0.237 OA
ATOM     79  O   UNL A   1      33.337  33.860  29.012  1.00  0.00    -0.237 OA
ATOM     80  O   UNL A   1      35.458  33.517  27.795  1.00  0.00    -0.744 OA
ENDBRANCH  74  77
ENDBRANCH  46  70
BRANCH  58  81
ATOM     81  C   UNL A   1      42.794  30.687  33.731  1.00  0.00     0.023 A 
ATOM     82  C   UNL A   1      42.990  31.264  35.003  1.00  0.00     0.012 A 
ATOM     83  C   UNL A   1      42.404  29.341  33.646  1.00  0.00     0.148 A 
ATOM     84  C   UNL A   1      42.817  30.506  36.165  1.00  0.00     0.002 A 
ATOM     85  C   UNL A   1      42.185  28.605  34.802  1.00  0.00     0.091 A 
ATOM     86  F   UNL A   1      42.217  28.813  32.426  1.00  0.00    -0.205 F 
ATOM     87  C   UNL A   1      42.400  29.180  36.065  1.00  0.00     0.022 A 
BRANCH  85  88
ATOM     88  S   UNL A   1      41.520  26.942  34.735  1.00  0.00     0.127 S 
ATOM     89  O   UNL A   1      42.648  26.184  34.200  1.00  0.00    -0.237 OA
ATOM     90  O   UNL A   1      41.210  26.671  36.140  1.00  0.00    -0.237 OA
ATOM     91  O   UNL A   1      40.346  27.013  33.873  1.00  0.00    -0.744 OA
ENDBRANCH  85  88
ENDBRANCH  58  81
ENDBRANCH  32  33
ENDBRANCH  25  27
ENDBRANCH  24  25
ENDBRANCH  23  24
ENDBRANCH   1  23
TORSDOF 19
ENDMDL
MODEL 2
REMARK VINA RESULT:     -11.4      1.835      2.221
REMARK SMILES N#CCCn1cc(C(=O)OCCOC(=O)c2ccc(-c3c4nc(c(-c5cccc(S(=O)(=O)[O-])c5F)c5ccc([nH]5)c(-c5cccc(S(=O)(=O)[O-])c5F)c5nc(c(-c6cccc(S(=O)(=O)[O-])c6F)c6ccc3[nH]6)C=C5)C=C4)cc2)c(-c2cccc([N+](=O)[O-])c2)n1
REMARK SMILES IDX 11 1 10 2 8 3 9 4 7 5 5 6 6 7 89 8 79 9 4 10 3 11 2 12 1 13
REMARK SMILES IDX 80 14 81 15 88 16 82 17 84 18 83 19 85 20 86 21 87 22 12 23
REMARK SMILES IDX 13 24 14 25 15 26 16 27 17 28 78 29 18 30 77 31 19 32 20 33
REMARK SMILES IDX 21 34 71 35 22 36 76 37 70 38 72 39 23 40 75 41 69 42 68 43
REMARK SMILES IDX 24 45 56 46 36 47 55 48 37 49 40 50 54 51 73 52 38 53 39 54
REMARK SMILES IDX 53 56 74 57 41 58 25 59 26 60 34 61 27 62 29 63 35 64 28 65
REMARK SMILES IDX 30 66 31 67 32 68 33 69 57 70 58 71 66 72 59 73 61 74 67 75
REMARK SMILES IDX 60 76 62 77 63 78 64 79 65 80 42 81 43 82 51 83 44 84 46 85
REMARK SMILES IDX 52 86 45 87 47 88 48 89 49 90 50 91
REMARK H PARENT 72 44 40 55
REMARK Flexibility Score: inf
ROOT
ATOM      1  C   UNL A   1      36.697  22.010  24.412  1.00  0.00     0.275 C 
ENDROOT
BRANCH   1   2
ATOM      2  O   UNL A   1      35.558  22.584  25.077  1.00  0.00    -0.458 OA
BRANCH   2   3
ATOM      3  C   UNL A   1      34.737  21.731  25.764  1.00  0.00     0.342 C 
ATOM      4  O   UNL A   1      34.690  21.655  26.992  1.00  0.00    -0.246 OA
BRANCH   3   5
ATOM      5  C   UNL A   1      33.928  20.918  24.878  1.00  0.00     0.106 A 
ATOM      6  N   UNL A   1      33.083  19.192  23.824  1.00  0.00    -0.270 N 
ATOM      7  C   UNL A   1      34.097  19.567  24.645  1.00  0.00     0.125 A 
ATOM      8  N   UNL A   1      32.315  20.210  23.418  1.00  0.00    -0.172 NA
ATOM      9  C   UNL A   1      32.841  21.286  24.029  1.00  0.00     0.107 A 
BRANCH   6  10
ATOM     10  C   UNL A   1      32.738  17.833  23.457  1.00  0.00     0.159 C 
BRANCH  10  11
ATOM     11  C   UNL A   1      33.966  16.943  23.312  1.00  0.00     0.144 C 
BRANCH  11  12
ATOM     12  C   UNL A   1      34.029  15.925  24.438  1.00  0.00     0.064 C 
ATOM     13  N   UNL A   1      34.081  15.080  25.372  1.00  0.00    -0.198 NA
ENDBRANCH  11  12
ENDBRANCH  10  11
ENDBRANCH   6  10
BRANCH   9  14
ATOM     14  C   UNL A   1      32.331  22.620  23.749  1.00  0.00     0.010 A 
ATOM     15  C   UNL A   1      31.231  23.096  24.476  1.00  0.00     0.011 A 
ATOM     16  C   UNL A   1      32.907  23.419  22.760  1.00  0.00     0.096 A 
ATOM     17  C   UNL A   1      30.656  24.332  24.175  1.00  0.00     0.008 A 
ATOM     18  C   UNL A   1      32.338  24.670  22.477  1.00  0.00     0.270 A 
ATOM     19  C   UNL A   1      31.200  25.120  23.164  1.00  0.00     0.085 A 
BRANCH  18  20
ATOM     20  N   UNL A   1      32.948  25.527  21.458  1.00  0.00     0.062 N 
ATOM     21  O   UNL A   1      33.971  26.157  21.764  1.00  0.00    -0.258 OA
ATOM     22  O   UNL A   1      32.413  25.564  20.339  1.00  0.00    -0.258 OA
ENDBRANCH  18  20
ENDBRANCH   9  14
ENDBRANCH   3   5
ENDBRANCH   2   3
ENDBRANCH   1   2
BRANCH   1  23
ATOM     23  C   UNL A   1      37.807  21.634  25.389  1.00  0.00     0.275 C 
BRANCH  23  24
ATOM     24  O   UNL A   1      38.254  22.770  26.124  1.00  0.00    -0.458 OA
BRANCH  24  25
ATOM     25  C   UNL A   1      39.501  22.651  26.628  1.00  0.00     0.338 C 
ATOM     26  O   UNL A   1      40.093  21.612  26.878  1.00  0.00    -0.246 OA
BRANCH  25  27
ATOM     27  C   UNL A   1      40.032  23.970  26.967  1.00  0.00     0.060 A 
ATOM     28  C   UNL A   1      41.155  23.988  27.801  1.00  0.00     0.016 A 
ATOM     29  C   UNL A   1      39.319  25.137  26.653  1.00  0.00     0.016 A 
ATOM     30  C   UNL A   1      41.488  25.158  28.436  1.00  0.00     0.010 A 
ATOM     31  C   UNL A   1      39.643  26.306  27.302  1.00  0.00     0.010 A 
ATOM     32  C   UNL A   1      40.680  26.277  28.233  1.00  0.00    -0.014 A 
BRANCH  32  33
ATOM     33  C   UNL A   1      40.982  27.448  29.023  1.00  0.00     0.031 A 
ATOM     34  C   UNL A   1      42.162  28.193  28.520  1.00  0.00     0.074 A 
ATOM     35  C   UNL A   1      40.194  27.777  30.065  1.00  0.00     0.049 A 
ATOM     36  N   UNL A   1      43.288  28.395  29.122  1.00  0.00    -0.248 NA
ATOM     37  C   UNL A   1      42.162  28.593  27.103  1.00  0.00     0.031 C 
ATOM     38  C   UNL A   1      38.889  27.194  30.409  1.00  0.00     0.029 A 
ATOM     39  N   UNL A   1      40.309  28.802  30.950  1.00  0.00    -0.354 N 
ATOM     40  C   UNL A   1      44.033  29.182  28.244  1.00  0.00     0.074 A 
ATOM     41  C   UNL A   1      43.396  29.076  26.962  1.00  0.00     0.031 C 
ATOM     42  C   UNL A   1      38.227  28.046  31.222  1.00  0.00     0.029 A 
ATOM     43  C   UNL A   1      39.104  29.156  31.546  1.00  0.00     0.049 A 
ATOM     44  H   UNL A   1      41.163  29.249  31.148  1.00  0.00     0.167 HD
ATOM     45  C   UNL A   1      44.923  30.096  28.716  1.00  0.00     0.034 A 
ATOM     46  C   UNL A   1      38.816  30.337  32.149  1.00  0.00     0.034 A 
ATOM     47  C   UNL A   1      45.311  29.786  30.068  1.00  0.00     0.049 A 
ATOM     48  C   UNL A   1      40.103  31.001  32.462  1.00  0.00     0.074 A 
ATOM     49  C   UNL A   1      45.932  28.723  30.689  1.00  0.00     0.029 A 
ATOM     50  N   UNL A   1      44.701  30.511  31.062  1.00  0.00    -0.354 N 
ATOM     51  N   UNL A   1      40.962  30.528  33.322  1.00  0.00    -0.248 NA
ATOM     52  C   UNL A   1      40.645  31.924  31.478  1.00  0.00     0.031 C 
ATOM     53  C   UNL A   1      45.292  28.613  31.958  1.00  0.00     0.029 A 
ATOM     54  C   UNL A   1      44.365  29.653  32.071  1.00  0.00     0.049 A 
ATOM     55  H   UNL A   1      44.533  31.482  31.049  1.00  0.00     0.167 HD
ATOM     56  C   UNL A   1      42.196  30.714  32.711  1.00  0.00     0.074 A 
ATOM     57  C   UNL A   1      41.948  31.671  31.634  1.00  0.00     0.031 C 
ATOM     58  C   UNL A   1      43.228  29.849  32.943  1.00  0.00     0.034 A 
BRANCH  45  59
ATOM     59  C   UNL A   1      45.088  31.494  28.149  1.00  0.00     0.023 A 
ATOM     60  C   UNL A   1      46.401  31.881  27.788  1.00  0.00     0.012 A 
ATOM     61  C   UNL A   1      44.125  32.527  28.242  1.00  0.00     0.148 A 
ATOM     62  C   UNL A   1      46.752  33.225  27.624  1.00  0.00     0.002 A 
ATOM     63  C   UNL A   1      44.465  33.855  28.012  1.00  0.00     0.091 A 
ATOM     64  F   UNL A   1      42.891  32.266  28.672  1.00  0.00    -0.205 F 
ATOM     65  C   UNL A   1      45.785  34.213  27.739  1.00  0.00     0.022 A 
BRANCH  63  66
ATOM     66  S   UNL A   1      43.246  35.173  28.120  1.00  0.00     0.127 S 
ATOM     67  O   UNL A   1      44.098  36.342  28.317  1.00  0.00    -0.237 OA
ATOM     68  O   UNL A   1      42.602  35.087  26.809  1.00  0.00    -0.237 OA
ATOM     69  O   UNL A   1      42.377  34.822  29.236  1.00  0.00    -0.744 OA
ENDBRANCH  63  66
ENDBRANCH  45  59
BRANCH  46  70
ATOM     70  C   UNL A   1      37.529  31.071  32.140  1.00  0.00     0.023 A 
ATOM     71  C   UNL A   1      36.979  31.562  33.340  1.00  0.00     0.012 A 
ATOM     72  C   UNL A   1      36.957  31.505  30.921  1.00  0.00     0.148 A 
ATOM     73  C   UNL A   1      35.900  32.457  33.324  1.00  0.00     0.002 A 
ATOM     74  C   UNL A   1      35.874  32.378  30.909  1.00  0.00     0.091 A 
ATOM     75  F   UNL A   1      37.534  31.132  29.771  1.00  0.00    -0.205 F 
ATOM     76  C   UNL A   1      35.349  32.865  32.111  1.00  0.00     0.022 A 
BRANCH  74  77
ATOM     77  S   UNL A   1      35.115  32.943  29.380  1.00  0.00     0.127 S 
ATOM     78  O   UNL A   1      36.186  33.750  28.796  1.00  0.00    -0.237 OA
ATOM     79  O   UNL A   1      34.850  31.684  28.689  1.00  0.00    -0.237 OA
ATOM     80  O   UNL A   1      33.937  33.705  29.774  1.00  0.00    -0.744 OA
ENDBRANCH  74  77
ENDBRANCH  46  70
BRANCH  58  81
ATOM     81  C   UNL A   1      43.080  28.856  34.065  1.00  0.00     0.023 A 
ATOM     82  C   UNL A   1      42.439  27.609  33.902  1.00  0.00     0.012 A 
ATOM     83  C   UNL A   1      43.772  29.116  35.258  1.00  0.00     0.148 A 
ATOM     84  C   UNL A   1      42.476  26.650  34.920  1.00  0.00     0.002 A 
ATOM     85  C   UNL A   1      43.848  28.144  36.245  1.00  0.00     0.091 A 
ATOM     86  F   UNL A   1      44.379  30.305  35.389  1.00  0.00    -0.205 F 
ATOM     87  C   UNL A   1      43.193  26.912  36.085  1.00  0.00     0.022 A 
BRANCH  85  88
ATOM     88  S   UNL A   1      44.865  28.375  37.703  1.00  0.00     0.127 S 
ATOM     89  O   UNL A   1      44.512  27.209  38.509  1.00  0.00    -0.237 OA
ATOM     90  O   UNL A   1      46.219  28.348  37.147  1.00  0.00    -0.237 OA
ATOM     91  O   UNL A   1      44.480  29.665  38.262  1.00  0.00    -0.744 OA
ENDBRANCH  85  88
ENDBRANCH  58  81
ENDBRANCH  32  33
ENDBRANCH  25  27
ENDBRANCH  24  25
ENDBRANCH  23  24
ENDBRANCH   1  23
TORSDOF 19
ENDMDL
MODEL 3
REMARK VINA RESULT:     -11.3      3.361      9.260
REMARK SMILES N#CCCn1cc(C(=O)OCCOC(=O)c2ccc(-c3c4nc(c(-c5cccc(S(=O)(=O)[O-])c5F)c5ccc([nH]5)c(-c5cccc(S(=O)(=O)[O-])c5F)c5nc(c(-c6cccc(S(=O)(=O)[O-])c6F)c6ccc3[nH]6)C=C5)C=C4)cc2)c(-c2cccc([N+](=O)[O-])c2)n1
REMARK SMILES IDX 11 1 10 2 8 3 9 4 7 5 5 6 6 7 89 8 79 9 4 10 3 11 2 12 1 13
REMARK SMILES IDX 80 14 81 15 88 16 82 17 84 18 83 19 85 20 86 21 87 22 12 23
REMARK SMILES IDX 13 24 14 25 15 26 16 27 17 28 78 29 18 30 77 31 19 32 20 33
REMARK SMILES IDX 21 34 71 35 22 36 76 37 70 38 72 39 23 40 75 41 69 42 68 43
REMARK SMILES IDX 24 45 56 46 36 47 55 48 37 49 40 50 54 51 73 52 38 53 39 54
REMARK SMILES IDX 53 56 74 57 41 58 25 59 26 60 34 61 27 62 29 63 35 64 28 65
REMARK SMILES IDX 30 66 31 67 32 68 33 69 57 70 58 71 66 72 59 73 61 74 67 75
REMARK SMILES IDX 60 76 62 77 63 78 64 79 65 80 42 81 43 82 51 83 44 84 46 85
REMARK SMILES IDX 52 86 45 87 47 88 48 89 49 90 50 91
REMARK H PARENT 72 44 40 55
REMARK Flexibility Score: inf
ROOT
ATOM      1  C   UNL A   1      33.856  30.035  26.673  1.00  0.00     0.275 C 
ENDROOT
BRANCH   1   2
ATOM      2  O   UNL A   1      32.424  29.893  26.685  1.00  0.00    -0.458 OA
BRANCH   2   3
ATOM      3  C   UNL A   1      31.915  28.647  26.431  1.00  0.00     0.342 C 
ATOM      4  O   UNL A   1      31.953  27.709  27.228  1.00  0.00    -0.246 OA
BRANCH   3   5
ATOM      5  C   UNL A   1      31.329  28.554  25.109  1.00  0.00     0.106 A 
ATOM      6  N   UNL A   1      30.376  29.089  23.209  1.00  0.00    -0.270 N 
ATOM      7  C   UNL A   1      30.697  29.580  24.433  1.00  0.00     0.125 A 
ATOM      8  N   UNL A   1      30.660  27.789  23.059  1.00  0.00    -0.172 NA
ATOM      9  C   UNL A   1      31.214  27.434  24.231  1.00  0.00     0.107 A 
BRANCH   6  10
ATOM     10  C   UNL A   1      29.868  29.853  22.087  1.00  0.00     0.159 C 
BRANCH  10  11
ATOM     11  C   UNL A   1      28.353  29.755  21.960  1.00  0.00     0.144 C 
BRANCH  11  12
ATOM     12  C   UNL A   1      27.669  30.725  22.908  1.00  0.00     0.064 C 
ATOM     13  N   UNL A   1      27.102  31.530  23.695  1.00  0.00    -0.198 NA
ENDBRANCH  11  12
ENDBRANCH  10  11
ENDBRANCH   6  10
BRANCH   9  14
ATOM     14  C   UNL A   1      31.567  26.047  24.494  1.00  0.00     0.010 A 
ATOM     15  C   UNL A   1      32.706  25.505  23.881  1.00  0.00     0.011 A 
ATOM     16  C   UNL A   1      30.782  25.248  25.327  1.00  0.00     0.096 A 
ATOM     17  C   UNL A   1      33.026  24.155  24.034  1.00  0.00     0.008 A 
ATOM     18  C   UNL A   1      31.122  23.898  25.495  1.00  0.00     0.270 A 
ATOM     19  C   UNL A   1      32.227  23.341  24.833  1.00  0.00     0.085 A 
BRANCH  18  20
ATOM     20  N   UNL A   1      30.319  23.056  26.386  1.00  0.00     0.062 N 
ATOM     21  O   UNL A   1      30.293  21.836  26.167  1.00  0.00    -0.258 OA
ATOM     22  O   UNL A   1      29.718  23.611  27.318  1.00  0.00    -0.258 OA
ENDBRANCH  18  20
ENDBRANCH   9  14
ENDBRANCH   3   5
ENDBRANCH   2   3
ENDBRANCH   1   2
BRANCH   1  23
ATOM     23  C   UNL A   1      34.328  31.183  27.559  1.00  0.00     0.275 C 
BRANCH  23  24
ATOM     24  O   UNL A   1      35.750  31.217  27.645  1.00  0.00    -0.458 OA
BRANCH  24  25
ATOM     25  C   UNL A   1      36.226  31.865  28.730  1.00  0.00     0.338 C 
ATOM     26  O   UNL A   1      35.922  32.988  29.103  1.00  0.00    -0.246 OA
BRANCH  25  27
ATOM     27  C   UNL A   1      37.284  31.077  29.359  1.00  0.00     0.060 A 
ATOM     28  C   UNL A   1      38.475  31.755  29.640  1.00  0.00     0.016 A 
ATOM     29  C   UNL A   1      37.179  29.682  29.465  1.00  0.00     0.016 A 
ATOM     30  C   UNL A   1      39.608  31.024  29.896  1.00  0.00     0.010 A 
ATOM     31  C   UNL A   1      38.318  28.949  29.705  1.00  0.00     0.010 A 
ATOM     32  C   UNL A   1      39.524  29.632  29.849  1.00  0.00    -0.014 A 
BRANCH  32  33
ATOM     33  C   UNL A   1      40.763  28.901  29.988  1.00  0.00     0.031 A 
ATOM     34  C   UNL A   1      41.175  28.729  31.402  1.00  0.00     0.074 A 
ATOM     35  C   UNL A   1      41.388  28.426  28.893  1.00  0.00     0.049 A 
ATOM     36  N   UNL A   1      42.232  29.193  31.983  1.00  0.00    -0.248 NA
ATOM     37  C   UNL A   1      40.196  28.137  32.330  1.00  0.00     0.031 C 
ATOM     38  C   UNL A   1      40.859  28.371  27.523  1.00  0.00     0.029 A 
ATOM     39  N   UNL A   1      42.563  27.750  28.791  1.00  0.00    -0.354 N 
ATOM     40  C   UNL A   1      42.169  28.713  33.291  1.00  0.00     0.074 A 
ATOM     41  C   UNL A   1      40.817  28.279  33.500  1.00  0.00     0.031 C 
ATOM     42  C   UNL A   1      41.566  27.464  26.813  1.00  0.00     0.029 A 
ATOM     43  C   UNL A   1      42.657  26.977  27.638  1.00  0.00     0.049 A 
ATOM     44  H   UNL A   1      43.275  27.803  29.467  1.00  0.00     0.167 HD
ATOM     45  C   UNL A   1      43.306  28.428  33.981  1.00  0.00     0.034 A 
ATOM     46  C   UNL A   1      43.491  25.927  27.435  1.00  0.00     0.034 A 
ATOM     47  C   UNL A   1      44.439  29.115  33.415  1.00  0.00     0.049 A 
ATOM     48  C   UNL A   1      44.573  26.018  28.443  1.00  0.00     0.074 A 
ATOM     49  C   UNL A   1      44.781  30.436  33.213  1.00  0.00     0.029 A 
ATOM     50  N   UNL A   1      45.262  28.374  32.604  1.00  0.00    -0.354 N 
ATOM     51  N   UNL A   1      45.450  26.983  28.467  1.00  0.00    -0.248 NA
ATOM     52  C   UNL A   1      44.390  25.306  29.697  1.00  0.00     0.031 C 
ATOM     53  C   UNL A   1      45.477  30.448  31.969  1.00  0.00     0.029 A 
ATOM     54  C   UNL A   1      45.581  29.131  31.513  1.00  0.00     0.049 A 
ATOM     55  H   UNL A   1      45.569  27.454  32.779  1.00  0.00     0.167 HD
ATOM     56  C   UNL A   1      45.574  27.300  29.814  1.00  0.00     0.074 A 
ATOM     57  C   UNL A   1      44.985  26.168  30.527  1.00  0.00     0.031 C 
ATOM     58  C   UNL A   1      45.864  28.576  30.208  1.00  0.00     0.034 A 
BRANCH  45  59
ATOM     59  C   UNL A   1      43.485  27.200  34.855  1.00  0.00     0.023 A 
ATOM     60  C   UNL A   1      43.837  27.430  36.206  1.00  0.00     0.012 A 
ATOM     61  C   UNL A   1      43.637  25.877  34.376  1.00  0.00     0.148 A 
ATOM     62  C   UNL A   1      44.396  26.424  37.002  1.00  0.00     0.002 A 
ATOM     63  C   UNL A   1      44.130  24.865  35.190  1.00  0.00     0.091 A 
ATOM     64  F   UNL A   1      43.424  25.593  33.091  1.00  0.00    -0.205 F 
ATOM     65  C   UNL A   1      44.546  25.142  36.492  1.00  0.00     0.022 A 
BRANCH  63  66
ATOM     66  S   UNL A   1      44.319  23.179  34.592  1.00  0.00     0.127 S 
ATOM     67  O   UNL A   1      44.709  22.480  35.813  1.00  0.00    -0.237 OA
ATOM     68  O   UNL A   1      42.970  22.885  34.110  1.00  0.00    -0.237 OA
ATOM     69  O   UNL A   1      45.329  23.241  33.542  1.00  0.00    -0.744 OA
ENDBRANCH  63  66
ENDBRANCH  45  59
BRANCH  46  70
ATOM     70  C   UNL A   1      43.216  24.682  26.679  1.00  0.00     0.023 A 
ATOM     71  C   UNL A   1      44.173  24.165  25.785  1.00  0.00     0.012 A 
ATOM     72  C   UNL A   1      42.112  23.865  27.018  1.00  0.00     0.148 A 
ATOM     73  C   UNL A   1      44.035  22.875  25.250  1.00  0.00     0.002 A 
ATOM     74  C   UNL A   1      41.968  22.595  26.470  1.00  0.00     0.091 A 
ATOM     75  F   UNL A   1      41.250  24.300  27.947  1.00  0.00    -0.205 F 
ATOM     76  C   UNL A   1      42.935  22.091  25.592  1.00  0.00     0.022 A 
BRANCH  74  77
ATOM     77  S   UNL A   1      40.573  21.532  26.868  1.00  0.00     0.127 S 
ATOM     78  O   UNL A   1      40.747  21.339  28.308  1.00  0.00    -0.237 OA
ATOM     79  O   UNL A   1      39.437  22.370  26.495  1.00  0.00    -0.237 OA
ATOM     80  O   UNL A   1      40.751  20.322  26.076  1.00  0.00    -0.744 OA
ENDBRANCH  74  77
ENDBRANCH  46  70
BRANCH  58  81
ATOM     81  C   UNL A   1      46.302  29.558  29.155  1.00  0.00     0.023 A 
ATOM     82  C   UNL A   1      47.625  29.619  28.669  1.00  0.00     0.012 A 
ATOM     83  C   UNL A   1      45.305  30.307  28.511  1.00  0.00     0.148 A 
ATOM     84  C   UNL A   1      47.947  30.426  27.573  1.00  0.00     0.002 A 
ATOM     85  C   UNL A   1      45.618  31.069  27.393  1.00  0.00     0.091 A 
ATOM     86  F   UNL A   1      44.052  30.230  28.984  1.00  0.00    -0.205 F 
ATOM     87  C   UNL A   1      46.940  31.139  26.926  1.00  0.00     0.022 A 
BRANCH  85  88
ATOM     88  S   UNL A   1      44.343  31.896  26.443  1.00  0.00     0.127 S 
ATOM     89  O   UNL A   1      43.882  32.919  27.379  1.00  0.00    -0.237 OA
ATOM     90  O   UNL A   1      45.091  32.410  25.294  1.00  0.00    -0.237 OA
ATOM     91  O   UNL A   1      43.365  30.870  26.103  1.00  0.00    -0.744 OA
ENDBRANCH  85  88
ENDBRANCH  58  81
ENDBRANCH  32  33
ENDBRANCH  25  27
ENDBRANCH  24  25
ENDBRANCH  23  24
ENDBRANCH   1  23
TORSDOF 19
ENDMDL
