MODEL 1
REMARK VINA RESULT:     -11.5      0.000      0.000
REMARK SMILES O=C(CCc1cccnc1)Nc1cccc(F)c1C(=O)OCCOC(=O)c1ccc(-c2c3nc(c(-c4cccc(S(=O)(=O)[O-])c4F)c4ccc([nH]4)c(-c4cccc(S(=O)(=O)[O-])c4F)c4nc(c(-c5cccc(S(=O)(=O)[O-])c5F)c5ccc2[nH]5)C=C4)C=C3)cc1
REMARK SMILES IDX 22 1 21 2 19 3 20 4 18 5 12 6 13 7 14 8 16 9 15 10 17 11
REMARK SMILES IDX 11 12 1 13 2 14 3 16 4 17 5 18 6 19 10 20 7 21 9 22 8 23
REMARK SMILES IDX 23 24 24 25 25 26 26 27 27 28 28 29 89 30 29 31 88 32 30 33
REMARK SMILES IDX 31 34 32 35 82 36 33 37 87 38 81 39 83 40 34 41 86 42 80 43
REMARK SMILES IDX 79 44 35 46 67 47 47 48 66 49 48 50 51 51 65 52 84 53 49 54
REMARK SMILES IDX 50 55 64 57 85 58 52 59 36 60 37 61 45 62 38 63 40 64 46 65
REMARK SMILES IDX 39 66 41 67 42 68 43 69 44 70 68 71 69 72 77 73 70 74 72 75
REMARK SMILES IDX 78 76 71 77 73 78 74 79 75 80 76 81 53 82 54 83 62 84 55 85
REMARK SMILES IDX 57 86 63 87 56 88 58 89 59 90 60 91 61 92
REMARK H PARENT 11 15 83 45 51 56
REMARK Flexibility Score: inf
ROOT
ATOM      1  C   UNL A   1      35.594  22.072  24.046  1.00  0.00     0.275 C 
ENDROOT
BRANCH   1   2
ATOM      2  O   UNL A   1      35.453  23.490  23.857  1.00  0.00    -0.458 OA
BRANCH   2   3
ATOM      3  C   UNL A   1      34.363  23.887  23.153  1.00  0.00     0.343 C 
ATOM      4  O   UNL A   1      34.039  23.480  22.055  1.00  0.00    -0.246 OA
BRANCH   3   5
ATOM      5  C   UNL A   1      33.639  24.864  23.994  1.00  0.00     0.119 A 
ATOM      6  C   UNL A   1      33.203  24.595  25.305  1.00  0.00     0.058 A 
ATOM      7  C   UNL A   1      32.839  25.670  26.134  1.00  0.00     0.027 A 
ATOM      8  C   UNL A   1      32.837  26.983  25.652  1.00  0.00     0.005 A 
ATOM      9  C   UNL A   1      33.615  26.180  23.521  1.00  0.00     0.139 A 
ATOM     10  C   UNL A   1      33.212  27.235  24.337  1.00  0.00     0.040 A 
ATOM     11  F   UNL A   1      34.023  26.468  22.275  1.00  0.00    -0.206 F 
BRANCH   6  12
ATOM     12  N   UNL A   1      33.206  23.322  25.908  1.00  0.00    -0.325 N 
ATOM     13  O   UNL A   1      31.116  22.535  25.357  1.00  0.00    -0.275 OA
ATOM     14  C   UNL A   1      32.288  22.321  25.646  1.00  0.00     0.224 C 
ATOM     15  H   UNL A   1      33.914  23.132  26.566  1.00  0.00     0.169 HD
BRANCH  14  16
ATOM     16  C   UNL A   1      32.849  20.944  25.924  1.00  0.00     0.105 C 
BRANCH  16  17
ATOM     17  C   UNL A   1      32.522  19.897  24.853  1.00  0.00     0.047 C 
BRANCH  17  18
ATOM     18  C   UNL A   1      33.128  18.513  24.991  1.00  0.00    -0.029 A 
ATOM     19  C   UNL A   1      34.264  18.162  24.261  1.00  0.00     0.007 A 
ATOM     20  C   UNL A   1      32.530  17.473  25.691  1.00  0.00     0.114 A 
ATOM     21  C   UNL A   1      34.743  16.849  24.278  1.00  0.00     0.020 A 
ATOM     22  N   UNL A   1      32.972  16.192  25.747  1.00  0.00    -0.264 NA
ATOM     23  C   UNL A   1      34.066  15.906  25.029  1.00  0.00     0.111 A 
ENDBRANCH  17  18
ENDBRANCH  16  17
ENDBRANCH  14  16
ENDBRANCH   6  12
ENDBRANCH   3   5
ENDBRANCH   2   3
ENDBRANCH   1   2
BRANCH   1  24
ATOM     24  C   UNL A   1      37.074  21.762  24.241  1.00  0.00     0.275 C 
BRANCH  24  25
ATOM     25  O   UNL A   1      37.348  21.598  25.644  1.00  0.00    -0.458 OA
BRANCH  25  26
ATOM     26  C   UNL A   1      38.639  21.412  26.013  1.00  0.00     0.338 C 
ATOM     27  O   UNL A   1      39.311  20.415  25.918  1.00  0.00    -0.246 OA
BRANCH  26  28
ATOM     28  C   UNL A   1      39.141  22.721  26.486  1.00  0.00     0.060 A 
ATOM     29  C   UNL A   1      40.284  22.758  27.288  1.00  0.00     0.016 A 
ATOM     30  C   UNL A   1      38.522  23.905  26.086  1.00  0.00     0.016 A 
ATOM     31  C   UNL A   1      40.861  23.989  27.628  1.00  0.00     0.010 A 
ATOM     32  C   UNL A   1      39.102  25.133  26.424  1.00  0.00     0.010 A 
ATOM     33  C   UNL A   1      40.294  25.188  27.171  1.00  0.00    -0.014 A 
BRANCH  33  34
ATOM     34  C   UNL A   1      40.882  26.506  27.540  1.00  0.00     0.031 A 
ATOM     35  C   UNL A   1      42.267  26.820  27.075  1.00  0.00     0.074 A 
ATOM     36  C   UNL A   1      40.234  27.401  28.314  1.00  0.00     0.049 A 
ATOM     37  N   UNL A   1      42.996  27.872  27.326  1.00  0.00    -0.248 NA
ATOM     38  C   UNL A   1      42.919  25.808  26.229  1.00  0.00     0.031 C 
ATOM     39  C   UNL A   1      38.901  27.219  28.857  1.00  0.00     0.029 A 
ATOM     40  N   UNL A   1      40.607  28.633  28.801  1.00  0.00    -0.354 N 
ATOM     41  C   UNL A   1      44.219  27.625  26.724  1.00  0.00     0.074 A 
ATOM     42  C   UNL A   1      44.125  26.330  26.082  1.00  0.00     0.031 C 
ATOM     43  C   UNL A   1      38.548  28.280  29.595  1.00  0.00     0.029 A 
ATOM     44  C   UNL A   1      39.657  29.220  29.613  1.00  0.00     0.049 A 
ATOM     45  H   UNL A   1      41.471  29.055  28.591  1.00  0.00     0.167 HD
ATOM     46  C   UNL A   1      45.322  28.406  26.708  1.00  0.00     0.034 A 
ATOM     47  C   UNL A   1      39.669  30.376  30.307  1.00  0.00     0.034 A 
ATOM     48  C   UNL A   1      45.413  29.697  27.329  1.00  0.00     0.049 A 
ATOM     49  C   UNL A   1      40.887  31.250  30.231  1.00  0.00     0.074 A 
ATOM     50  C   UNL A   1      46.481  30.574  27.326  1.00  0.00     0.029 A 
ATOM     51  N   UNL A   1      44.407  30.292  28.074  1.00  0.00    -0.354 N 
ATOM     52  N   UNL A   1      41.994  31.051  29.559  1.00  0.00    -0.248 NA
ATOM     53  C   UNL A   1      40.856  32.512  30.983  1.00  0.00     0.031 C 
ATOM     54  C   UNL A   1      46.126  31.695  28.084  1.00  0.00     0.029 A 
ATOM     55  C   UNL A   1      44.828  31.525  28.538  1.00  0.00     0.049 A 
ATOM     56  H   UNL A   1      43.523  29.894  28.249  1.00  0.00     0.167 HD
ATOM     57  C   UNL A   1      42.785  32.169  29.790  1.00  0.00     0.074 A 
ATOM     58  C   UNL A   1      42.018  33.055  30.643  1.00  0.00     0.031 C 
ATOM     59  C   UNL A   1      44.040  32.422  29.347  1.00  0.00     0.034 A 
BRANCH  46  60
ATOM     60  C   UNL A   1      46.519  27.853  25.991  1.00  0.00     0.023 A 
ATOM     61  C   UNL A   1      46.641  28.027  24.597  1.00  0.00     0.012 A 
ATOM     62  C   UNL A   1      47.500  27.132  26.693  1.00  0.00     0.148 A 
ATOM     63  C   UNL A   1      47.702  27.447  23.905  1.00  0.00     0.002 A 
ATOM     64  C   UNL A   1      48.578  26.595  26.003  1.00  0.00     0.091 A 
ATOM     65  F   UNL A   1      47.342  26.951  28.012  1.00  0.00    -0.205 F 
ATOM     66  C   UNL A   1      48.672  26.738  24.608  1.00  0.00     0.022 A 
BRANCH  64  67
ATOM     67  S   UNL A   1      49.908  25.722  26.832  1.00  0.00     0.127 S 
ATOM     68  O   UNL A   1      50.885  25.578  25.753  1.00  0.00    -0.237 OA
ATOM     69  O   UNL A   1      50.292  26.668  27.880  1.00  0.00    -0.237 OA
ATOM     70  O   UNL A   1      49.325  24.481  27.323  1.00  0.00    -0.744 OA
ENDBRANCH  64  67
ENDBRANCH  46  60
BRANCH  47  71
ATOM     71  C   UNL A   1      38.453  30.801  31.065  1.00  0.00     0.023 A 
ATOM     72  C   UNL A   1      38.415  30.605  32.459  1.00  0.00     0.012 A 
ATOM     73  C   UNL A   1      37.376  31.458  30.436  1.00  0.00     0.148 A 
ATOM     74  C   UNL A   1      37.324  31.041  33.212  1.00  0.00     0.002 A 
ATOM     75  C   UNL A   1      36.317  31.937  31.199  1.00  0.00     0.091 A 
ATOM     76  F   UNL A   1      37.428  31.631  29.108  1.00  0.00    -0.205 F 
ATOM     77  C   UNL A   1      36.281  31.717  32.585  1.00  0.00     0.022 A 
BRANCH  75  78
ATOM     78  S   UNL A   1      34.994  32.938  30.508  1.00  0.00     0.127 S 
ATOM     79  O   UNL A   1      34.492  32.077  29.442  1.00  0.00    -0.237 OA
ATOM     80  O   UNL A   1      34.099  33.083  31.658  1.00  0.00    -0.237 OA
ATOM     81  O   UNL A   1      35.623  34.177  30.073  1.00  0.00    -0.744 OA
ENDBRANCH  75  78
ENDBRANCH  47  71
BRANCH  59  82
ATOM     82  C   UNL A   1      44.680  33.723  29.752  1.00  0.00     0.023 A 
ATOM     83  C   UNL A   1      45.515  33.767  30.885  1.00  0.00     0.012 A 
ATOM     84  C   UNL A   1      44.552  34.866  28.938  1.00  0.00     0.148 A 
ATOM     85  C   UNL A   1      46.206  34.934  31.208  1.00  0.00     0.002 A 
ATOM     86  C   UNL A   1      45.280  36.009  29.240  1.00  0.00     0.091 A 
ATOM     87  F   UNL A   1      43.730  34.809  27.880  1.00  0.00    -0.205 F 
ATOM     88  C   UNL A   1      46.102  36.048  30.378  1.00  0.00     0.022 A 
BRANCH  86  89
ATOM     89  S   UNL A   1      45.289  37.449  28.165  1.00  0.00     0.127 S 
ATOM     90  O   UNL A   1      43.913  37.926  28.293  1.00  0.00    -0.237 OA
ATOM     91  O   UNL A   1      46.294  38.305  28.797  1.00  0.00    -0.237 OA
ATOM     92  O   UNL A   1      45.663  36.957  26.845  1.00  0.00    -0.744 OA
ENDBRANCH  86  89
ENDBRANCH  59  82
ENDBRANCH  33  34
ENDBRANCH  26  28
ENDBRANCH  25  26
ENDBRANCH  24  25
ENDBRANCH   1  24
TORSDOF 18
ENDMDL
MODEL 2
REMARK VINA RESULT:     -11.2      5.087      8.170
REMARK SMILES O=C(CCc1cccnc1)Nc1cccc(F)c1C(=O)OCCOC(=O)c1ccc(-c2c3nc(c(-c4cccc(S(=O)(=O)[O-])c4F)c4ccc([nH]4)c(-c4cccc(S(=O)(=O)[O-])c4F)c4nc(c(-c5cccc(S(=O)(=O)[O-])c5F)c5ccc2[nH]5)C=C4)C=C3)cc1
REMARK SMILES IDX 22 1 21 2 19 3 20 4 18 5 12 6 13 7 14 8 16 9 15 10 17 11
REMARK SMILES IDX 11 12 1 13 2 14 3 16 4 17 5 18 6 19 10 20 7 21 9 22 8 23
REMARK SMILES IDX 23 24 24 25 25 26 26 27 27 28 28 29 89 30 29 31 88 32 30 33
REMARK SMILES IDX 31 34 32 35 82 36 33 37 87 38 81 39 83 40 34 41 86 42 80 43
REMARK SMILES IDX 79 44 35 46 67 47 47 48 66 49 48 50 51 51 65 52 84 53 49 54
REMARK SMILES IDX 50 55 64 57 85 58 52 59 36 60 37 61 45 62 38 63 40 64 46 65
REMARK SMILES IDX 39 66 41 67 42 68 43 69 44 70 68 71 69 72 77 73 70 74 72 75
REMARK SMILES IDX 78 76 71 77 73 78 74 79 75 80 76 81 53 82 54 83 62 84 55 85
REMARK SMILES IDX 57 86 63 87 56 88 58 89 59 90 60 91 61 92
REMARK H PARENT 11 15 83 45 51 56
REMARK Flexibility Score: inf
ROOT
ATOM      1  C   UNL A   1      31.632  28.146  26.715  1.00  0.00     0.275 C 
ENDROOT
BRANCH   1   2
ATOM      2  O   UNL A   1      32.498  27.229  26.024  1.00  0.00    -0.458 OA
BRANCH   2   3
ATOM      3  C   UNL A   1      32.076  25.940  25.980  1.00  0.00     0.343 C 
ATOM      4  O   UNL A   1      31.606  25.313  26.908  1.00  0.00    -0.246 OA
BRANCH   3   5
ATOM      5  C   UNL A   1      32.263  25.474  24.589  1.00  0.00     0.119 A 
ATOM      6  C   UNL A   1      31.385  25.789  23.535  1.00  0.00     0.058 A 
ATOM      7  C   UNL A   1      31.816  25.596  22.211  1.00  0.00     0.027 A 
ATOM      8  C   UNL A   1      33.066  25.034  21.935  1.00  0.00     0.005 A 
ATOM      9  C   UNL A   1      33.503  24.896  24.297  1.00  0.00     0.139 A 
ATOM     10  C   UNL A   1      33.904  24.669  22.983  1.00  0.00     0.040 A 
ATOM     11  F   UNL A   1      34.361  24.583  25.280  1.00  0.00    -0.206 F 
BRANCH   6  12
ATOM     12  N   UNL A   1      30.125  26.399  23.693  1.00  0.00    -0.325 N 
ATOM     13  O   UNL A   1      30.592  28.589  23.162  1.00  0.00    -0.275 OA
ATOM     14  C   UNL A   1      29.794  27.660  23.229  1.00  0.00     0.224 C 
ATOM     15  H   UNL A   1      29.429  25.890  24.168  1.00  0.00     0.169 HD
BRANCH  14  16
ATOM     16  C   UNL A   1      28.309  27.807  22.984  1.00  0.00     0.105 C 
BRANCH  16  17
ATOM     17  C   UNL A   1      27.685  29.064  23.602  1.00  0.00     0.047 C 
BRANCH  17  18
ATOM     18  C   UNL A   1      27.743  30.358  22.812  1.00  0.00    -0.029 A 
ATOM     19  C   UNL A   1      27.951  30.336  21.432  1.00  0.00     0.007 A 
ATOM     20  C   UNL A   1      27.765  31.619  23.394  1.00  0.00     0.114 A 
ATOM     21  C   UNL A   1      28.144  31.525  20.722  1.00  0.00     0.020 A 
ATOM     22  N   UNL A   1      27.932  32.796  22.739  1.00  0.00    -0.264 NA
ATOM     23  C   UNL A   1      28.129  32.721  21.416  1.00  0.00     0.111 A 
ENDBRANCH  17  18
ENDBRANCH  16  17
ENDBRANCH  14  16
ENDBRANCH   6  12
ENDBRANCH   3   5
ENDBRANCH   2   3
ENDBRANCH   1   2
BRANCH   1  24
ATOM     24  C   UNL A   1      31.672  29.482  25.983  1.00  0.00     0.275 C 
BRANCH  24  25
ATOM     25  O   UNL A   1      32.997  30.037  26.071  1.00  0.00    -0.458 OA
BRANCH  25  26
ATOM     26  C   UNL A   1      33.153  31.178  26.786  1.00  0.00     0.338 C 
ATOM     27  O   UNL A   1      32.436  32.147  26.819  1.00  0.00    -0.246 OA
BRANCH  26  28
ATOM     28  C   UNL A   1      34.352  30.991  27.633  1.00  0.00     0.060 A 
ATOM     29  C   UNL A   1      34.660  29.710  28.097  1.00  0.00     0.016 A 
ATOM     30  C   UNL A   1      35.197  32.064  27.912  1.00  0.00     0.016 A 
ATOM     31  C   UNL A   1      35.864  29.484  28.778  1.00  0.00     0.010 A 
ATOM     32  C   UNL A   1      36.401  31.835  28.589  1.00  0.00     0.010 A 
ATOM     33  C   UNL A   1      36.762  30.538  29.002  1.00  0.00    -0.014 A 
BRANCH  33  34
ATOM     34  C   UNL A   1      38.036  30.319  29.741  1.00  0.00     0.031 A 
ATOM     35  C   UNL A   1      39.085  29.462  29.109  1.00  0.00     0.074 A 
ATOM     36  C   UNL A   1      38.258  30.822  30.973  1.00  0.00     0.049 A 
ATOM     37  N   UNL A   1      40.237  29.088  29.593  1.00  0.00    -0.248 NA
ATOM     38  C   UNL A   1      38.787  28.948  27.763  1.00  0.00     0.031 C 
ATOM     39  C   UNL A   1      37.323  31.646  31.715  1.00  0.00     0.029 A 
ATOM     40  N   UNL A   1      39.325  30.704  31.834  1.00  0.00    -0.354 N 
ATOM     41  C   UNL A   1      40.779  28.242  28.639  1.00  0.00     0.074 A 
ATOM     42  C   UNL A   1      39.835  28.172  27.544  1.00  0.00     0.031 C 
ATOM     43  C   UNL A   1      37.833  31.971  32.911  1.00  0.00     0.029 A 
ATOM     44  C   UNL A   1      39.137  31.343  33.043  1.00  0.00     0.049 A 
ATOM     45  H   UNL A   1      40.145  30.209  31.608  1.00  0.00     0.167 HD
ATOM     46  C   UNL A   1      41.958  27.580  28.675  1.00  0.00     0.034 A 
ATOM     47  C   UNL A   1      39.912  31.413  34.144  1.00  0.00     0.034 A 
ATOM     48  C   UNL A   1      42.903  27.660  29.752  1.00  0.00     0.049 A 
ATOM     49  C   UNL A   1      41.239  30.711  34.138  1.00  0.00     0.074 A 
ATOM     50  C   UNL A   1      44.141  27.055  29.850  1.00  0.00     0.029 A 
ATOM     51  N   UNL A   1      42.713  28.378  30.923  1.00  0.00    -0.354 N 
ATOM     52  N   UNL A   1      41.786  30.009  33.178  1.00  0.00    -0.248 NA
ATOM     53  C   UNL A   1      42.065  30.828  35.347  1.00  0.00     0.031 C 
ATOM     54  C   UNL A   1      44.695  27.393  31.089  1.00  0.00     0.029 A 
ATOM     55  C   UNL A   1      43.811  28.230  31.752  1.00  0.00     0.049 A 
ATOM     56  H   UNL A   1      41.914  28.912  31.134  1.00  0.00     0.167 HD
ATOM     57  C   UNL A   1      43.028  29.613  33.656  1.00  0.00     0.074 A 
ATOM     58  C   UNL A   1      43.164  30.179  34.983  1.00  0.00     0.031 C 
ATOM     59  C   UNL A   1      43.959  28.836  33.052  1.00  0.00     0.034 A 
BRANCH  46  60
ATOM     60  C   UNL A   1      42.264  26.705  27.495  1.00  0.00     0.023 A 
ATOM     61  C   UNL A   1      42.841  27.268  26.338  1.00  0.00     0.012 A 
ATOM     62  C   UNL A   1      41.948  25.336  27.522  1.00  0.00     0.148 A 
ATOM     63  C   UNL A   1      43.054  26.485  25.205  1.00  0.00     0.002 A 
ATOM     64  C   UNL A   1      42.204  24.553  26.405  1.00  0.00     0.091 A 
ATOM     65  F   UNL A   1      41.368  24.833  28.622  1.00  0.00    -0.205 F 
ATOM     66  C   UNL A   1      42.742  25.129  25.241  1.00  0.00     0.022 A 
BRANCH  64  67
ATOM     67  S   UNL A   1      41.895  22.786  26.381  1.00  0.00     0.127 S 
ATOM     68  O   UNL A   1      40.433  22.742  26.386  1.00  0.00    -0.237 OA
ATOM     69  O   UNL A   1      42.514  22.381  25.119  1.00  0.00    -0.237 OA
ATOM     70  O   UNL A   1      42.545  22.253  27.571  1.00  0.00    -0.744 OA
ENDBRANCH  64  67
ENDBRANCH  46  60
BRANCH  47  71
ATOM     71  C   UNL A   1      39.477  32.244  35.308  1.00  0.00     0.023 A 
ATOM     72  C   UNL A   1      38.704  31.647  36.322  1.00  0.00     0.012 A 
ATOM     73  C   UNL A   1      39.880  33.587  35.454  1.00  0.00     0.148 A 
ATOM     74  C   UNL A   1      38.328  32.373  37.454  1.00  0.00     0.002 A 
ATOM     75  C   UNL A   1      39.547  34.288  36.608  1.00  0.00     0.091 A 
ATOM     76  F   UNL A   1      40.611  34.140  34.476  1.00  0.00    -0.205 F 
ATOM     77  C   UNL A   1      38.758  33.688  37.603  1.00  0.00     0.022 A 
BRANCH  75  78
ATOM     78  S   UNL A   1      40.166  35.939  36.958  1.00  0.00     0.127 S 
ATOM     79  O   UNL A   1      39.709  36.684  35.789  1.00  0.00    -0.237 OA
ATOM     80  O   UNL A   1      39.470  36.259  38.205  1.00  0.00    -0.237 OA
ATOM     81  O   UNL A   1      41.610  35.799  37.090  1.00  0.00    -0.744 OA
ENDBRANCH  75  78
ENDBRANCH  47  71
BRANCH  59  82
ATOM     82  C   UNL A   1      45.232  28.552  33.801  1.00  0.00     0.023 A 
ATOM     83  C   UNL A   1      46.348  29.393  33.626  1.00  0.00     0.012 A 
ATOM     84  C   UNL A   1      45.278  27.528  34.769  1.00  0.00     0.148 A 
ATOM     85  C   UNL A   1      47.496  29.213  34.397  1.00  0.00     0.002 A 
ATOM     86  C   UNL A   1      46.406  27.386  35.566  1.00  0.00     0.091 A 
ATOM     87  F   UNL A   1      44.214  26.724  34.900  1.00  0.00    -0.205 F 
ATOM     88  C   UNL A   1      47.519  28.222  35.376  1.00  0.00     0.022 A 
BRANCH  86  89
ATOM     89  S   UNL A   1      46.478  26.210  36.922  1.00  0.00     0.127 S 
ATOM     90  O   UNL A   1      47.091  25.049  36.278  1.00  0.00    -0.237 OA
ATOM     91  O   UNL A   1      47.336  26.897  37.887  1.00  0.00    -0.237 OA
ATOM     92  O   UNL A   1      45.101  26.028  37.364  1.00  0.00    -0.744 OA
ENDBRANCH  86  89
ENDBRANCH  59  82
ENDBRANCH  33  34
ENDBRANCH  26  28
ENDBRANCH  25  26
ENDBRANCH  24  25
ENDBRANCH   1  24
TORSDOF 18
ENDMDL
MODEL 3
REMARK VINA RESULT:     -11.1      5.556     11.889
REMARK SMILES O=C(CCc1cccnc1)Nc1cccc(F)c1C(=O)OCCOC(=O)c1ccc(-c2c3nc(c(-c4cccc(S(=O)(=O)[O-])c4F)c4ccc([nH]4)c(-c4cccc(S(=O)(=O)[O-])c4F)c4nc(c(-c5cccc(S(=O)(=O)[O-])c5F)c5ccc2[nH]5)C=C4)C=C3)cc1
REMARK SMILES IDX 22 1 21 2 19 3 20 4 18 5 12 6 13 7 14 8 16 9 15 10 17 11
REMARK SMILES IDX 11 12 1 13 2 14 3 16 4 17 5 18 6 19 10 20 7 21 9 22 8 23
REMARK SMILES IDX 23 24 24 25 25 26 26 27 27 28 28 29 89 30 29 31 88 32 30 33
REMARK SMILES IDX 31 34 32 35 82 36 33 37 87 38 81 39 83 40 34 41 86 42 80 43
REMARK SMILES IDX 79 44 35 46 67 47 47 48 66 49 48 50 51 51 65 52 84 53 49 54
REMARK SMILES IDX 50 55 64 57 85 58 52 59 36 60 37 61 45 62 38 63 40 64 46 65
REMARK SMILES IDX 39 66 41 67 42 68 43 69 44 70 68 71 69 72 77 73 70 74 72 75
REMARK SMILES IDX 78 76 71 77 73 78 74 79 75 80 76 81 53 82 54 83 62 84 55 85
REMARK SMILES IDX 57 86 63 87 56 88 58 89 59 90 60 91 61 92
REMARK H PARENT 11 15 83 45 51 56
REMARK Flexibility Score: inf
ROOT
ATOM      1  C   UNL A   1      34.114  33.980  29.516  1.00  0.00     0.275 C 
ENDROOT
BRANCH   1   2
ATOM      2  O   UNL A   1      35.545  34.006  29.657  1.00  0.00    -0.458 OA
BRANCH   2   3
ATOM      3  C   UNL A   1      36.045  33.334  30.725  1.00  0.00     0.343 C 
ATOM      4  O   UNL A   1      35.461  32.486  31.369  1.00  0.00    -0.246 OA
BRANCH   3   5
ATOM      5  C   UNL A   1      37.433  33.804  30.917  1.00  0.00     0.119 A 
ATOM      6  C   UNL A   1      37.990  34.104  32.175  1.00  0.00     0.058 A 
ATOM      7  C   UNL A   1      39.387  34.209  32.292  1.00  0.00     0.027 A 
ATOM      8  C   UNL A   1      40.215  34.092  31.172  1.00  0.00     0.005 A 
ATOM      9  C   UNL A   1      38.274  33.708  29.803  1.00  0.00     0.139 A 
ATOM     10  C   UNL A   1      39.653  33.856  29.921  1.00  0.00     0.040 A 
ATOM     11  F   UNL A   1      37.772  33.425  28.590  1.00  0.00    -0.206 F 
BRANCH   6  12
ATOM     12  N   UNL A   1      37.260  34.199  33.376  1.00  0.00    -0.325 N 
ATOM     13  O   UNL A   1      37.270  32.017  34.107  1.00  0.00    -0.275 OA
ATOM     14  C   UNL A   1      37.210  33.217  34.350  1.00  0.00     0.224 C 
ATOM     15  H   UNL A   1      36.747  35.024  33.533  1.00  0.00     0.169 HD
BRANCH  14  16
ATOM     16  C   UNL A   1      36.900  33.784  35.717  1.00  0.00     0.105 C 
BRANCH  16  17
ATOM     17  C   UNL A   1      38.107  33.862  36.660  1.00  0.00     0.047 C 
BRANCH  17  18
ATOM     18  C   UNL A   1      38.023  33.146  37.995  1.00  0.00    -0.029 A 
ATOM     19  C   UNL A   1      36.803  32.648  38.456  1.00  0.00     0.007 A 
ATOM     20  C   UNL A   1      39.070  33.083  38.906  1.00  0.00     0.114 A 
ATOM     21  C   UNL A   1      36.694  32.114  39.743  1.00  0.00     0.020 A 
ATOM     22  N   UNL A   1      39.009  32.558  40.155  1.00  0.00    -0.264 NA
ATOM     23  C   UNL A   1      37.816  32.093  40.550  1.00  0.00     0.111 A 
ENDBRANCH  17  18
ENDBRANCH  16  17
ENDBRANCH  14  16
ENDBRANCH   6  12
ENDBRANCH   3   5
ENDBRANCH   2   3
ENDBRANCH   1   2
BRANCH   1  24
ATOM     24  C   UNL A   1      33.780  33.373  28.159  1.00  0.00     0.275 C 
BRANCH  24  25
ATOM     25  O   UNL A   1      34.843  32.491  27.754  1.00  0.00    -0.458 OA
BRANCH  25  26
ATOM     26  C   UNL A   1      34.560  31.168  27.664  1.00  0.00     0.338 C 
ATOM     27  O   UNL A   1      33.568  30.642  27.223  1.00  0.00    -0.246 OA
BRANCH  26  28
ATOM     28  C   UNL A   1      35.762  30.440  28.126  1.00  0.00     0.060 A 
ATOM     29  C   UNL A   1      36.918  30.476  27.342  1.00  0.00     0.016 A 
ATOM     30  C   UNL A   1      35.763  29.780  29.354  1.00  0.00     0.016 A 
ATOM     31  C   UNL A   1      38.109  29.917  27.827  1.00  0.00     0.010 A 
ATOM     32  C   UNL A   1      36.955  29.226  29.837  1.00  0.00     0.010 A 
ATOM     33  C   UNL A   1      38.147  29.315  29.093  1.00  0.00    -0.014 A 
BRANCH  33  34
ATOM     34  C   UNL A   1      39.398  28.699  29.614  1.00  0.00     0.031 A 
ATOM     35  C   UNL A   1      40.016  29.280  30.844  1.00  0.00     0.074 A 
ATOM     36  C   UNL A   1      40.017  27.674  28.992  1.00  0.00     0.049 A 
ATOM     37  N   UNL A   1      41.130  28.946  31.437  1.00  0.00    -0.248 NA
ATOM     38  C   UNL A   1      39.291  30.390  31.480  1.00  0.00     0.031 C 
ATOM     39  C   UNL A   1      39.548  27.031  27.780  1.00  0.00     0.029 A 
ATOM     40  N   UNL A   1      41.184  27.000  29.274  1.00  0.00    -0.354 N 
ATOM     41  C   UNL A   1      41.275  29.845  32.480  1.00  0.00     0.074 A 
ATOM     42  C   UNL A   1      40.128  30.728  32.447  1.00  0.00     0.031 C 
ATOM     43  C   UNL A   1      40.392  26.060  27.408  1.00  0.00     0.029 A 
ATOM     44  C   UNL A   1      41.502  26.028  28.347  1.00  0.00     0.049 A 
ATOM     45  H   UNL A   1      41.740  27.195  30.062  1.00  0.00     0.167 HD
ATOM     46  C   UNL A   1      42.277  29.930  33.384  1.00  0.00     0.034 A 
ATOM     47  C   UNL A   1      42.567  25.206  28.246  1.00  0.00     0.034 A 
ATOM     48  C   UNL A   1      43.408  29.047  33.430  1.00  0.00     0.049 A 
ATOM     49  C   UNL A   1      43.641  25.287  29.291  1.00  0.00     0.074 A 
ATOM     50  C   UNL A   1      44.449  29.037  34.338  1.00  0.00     0.029 A 
ATOM     51  N   UNL A   1      43.656  28.027  32.523  1.00  0.00    -0.354 N 
ATOM     52  N   UNL A   1      43.703  26.070  30.339  1.00  0.00    -0.248 NA
ATOM     53  C   UNL A   1      44.775  24.361  29.160  1.00  0.00     0.031 C 
ATOM     54  C   UNL A   1      45.336  28.019  33.973  1.00  0.00     0.029 A 
ATOM     55  C   UNL A   1      44.835  27.380  32.850  1.00  0.00     0.049 A 
ATOM     56  H   UNL A   1      43.078  27.799  31.759  1.00  0.00     0.167 HD
ATOM     57  C   UNL A   1      44.871  25.722  31.005  1.00  0.00     0.074 A 
ATOM     58  C   UNL A   1      45.473  24.637  30.256  1.00  0.00     0.031 C 
ATOM     59  C   UNL A   1      45.401  26.270  32.126  1.00  0.00     0.034 A 
BRANCH  46  60
ATOM     60  C   UNL A   1      42.174  31.040  34.389  1.00  0.00     0.023 A 
ATOM     61  C   UNL A   1      41.570  30.796  35.639  1.00  0.00     0.012 A 
ATOM     62  C   UNL A   1      42.643  32.328  34.079  1.00  0.00     0.148 A 
ATOM     63  C   UNL A   1      41.391  31.835  36.549  1.00  0.00     0.002 A 
ATOM     64  C   UNL A   1      42.500  33.349  35.009  1.00  0.00     0.091 A 
ATOM     65  F   UNL A   1      43.181  32.541  32.869  1.00  0.00    -0.205 F 
ATOM     66  C   UNL A   1      41.861  33.108  36.237  1.00  0.00     0.022 A 
BRANCH  64  67
ATOM     67  S   UNL A   1      43.133  35.003  34.720  1.00  0.00     0.127 S 
ATOM     68  O   UNL A   1      42.952  35.621  36.034  1.00  0.00    -0.237 OA
ATOM     69  O   UNL A   1      44.525  34.742  34.355  1.00  0.00    -0.237 OA
ATOM     70  O   UNL A   1      42.320  35.558  33.646  1.00  0.00    -0.744 OA
ENDBRANCH  64  67
ENDBRANCH  46  60
BRANCH  47  71
ATOM     71  C   UNL A   1      42.620  24.189  27.153  1.00  0.00     0.023 A 
ATOM     72  C   UNL A   1      43.369  24.470  25.994  1.00  0.00     0.012 A 
ATOM     73  C   UNL A   1      42.001  22.929  27.280  1.00  0.00     0.148 A 
ATOM     74  C   UNL A   1      43.492  23.522  24.976  1.00  0.00     0.002 A 
ATOM     75  C   UNL A   1      42.172  21.970  26.287  1.00  0.00     0.091 A 
ATOM     76  F   UNL A   1      41.288  22.681  28.387  1.00  0.00    -0.205 F 
ATOM     77  C   UNL A   1      42.904  22.270  25.127  1.00  0.00     0.022 A 
BRANCH  75  78
ATOM     78  S   UNL A   1      41.571  20.284  26.447  1.00  0.00     0.127 S 
ATOM     79  O   UNL A   1      42.241  19.619  25.333  1.00  0.00    -0.237 OA
ATOM     80  O   UNL A   1      42.068  19.916  27.774  1.00  0.00    -0.237 OA
ATOM     81  O   UNL A   1      40.121  20.370  26.348  1.00  0.00    -0.744 OA
ENDBRANCH  75  78
ENDBRANCH  47  71
BRANCH  59  82
ATOM     82  C   UNL A   1      46.696  25.703  32.641  1.00  0.00     0.023 A 
ATOM     83  C   UNL A   1      46.682  24.798  33.720  1.00  0.00     0.012 A 
ATOM     84  C   UNL A   1      47.908  25.970  31.974  1.00  0.00     0.148 A 
ATOM     85  C   UNL A   1      47.859  24.176  34.136  1.00  0.00     0.002 A 
ATOM     86  C   UNL A   1      49.066  25.310  32.362  1.00  0.00     0.091 A 
ATOM     87  F   UNL A   1      47.902  26.854  30.966  1.00  0.00    -0.205 F 
ATOM     88  C   UNL A   1      49.045  24.419  33.448  1.00  0.00     0.022 A 
BRANCH  86  89
ATOM     89  S   UNL A   1      50.612  25.481  31.463  1.00  0.00     0.127 S 
ATOM     90  O   UNL A   1      50.195  25.186  30.093  1.00  0.00    -0.237 OA
ATOM     91  O   UNL A   1      50.963  26.880  31.707  1.00  0.00    -0.237 OA
ATOM     92  O   UNL A   1      51.528  24.518  32.061  1.00  0.00    -0.744 OA
ENDBRANCH  86  89
ENDBRANCH  59  82
ENDBRANCH  33  34
ENDBRANCH  26  28
ENDBRANCH  25  26
ENDBRANCH  24  25
ENDBRANCH   1  24
TORSDOF 18
ENDMDL
