MODEL 1
REMARK VINA RESULT:     -11.7      0.000      0.000
REMARK SMILES O=C(OCCOC(=O)c1cc2nn[nH]n2n1)c1ccc(-c2c3nc(c(-c4cccc(S(=O)(=O)[O-])c4F)c4ccc([nH]4)c(-c4cccc(S(=O)(=O)[O-])c4F)c4nc(c(-c5cccc(S(=O)(=O)[O-])c5F)c5ccc2[nH]5)C=C4)C=C3)cc1
REMARK SMILES IDX 3 1 2 2 1 3 17 4 18 5 79 6 19 7 78 8 20 9 21 10 22 11 72 12
REMARK SMILES IDX 23 13 77 14 71 15 73 16 24 17 76 18 70 19 69 20 25 22 57 23
REMARK SMILES IDX 37 24 56 25 38 26 41 27 55 28 74 29 39 30 40 31 54 33 75 34
REMARK SMILES IDX 42 35 26 36 27 37 35 38 28 39 30 40 36 41 29 42 31 43 32 44
REMARK SMILES IDX 33 45 34 46 58 47 59 48 67 49 60 50 62 51 68 52 61 53 63 54
REMARK SMILES IDX 64 55 65 56 66 57 43 58 44 59 52 60 45 61 47 62 53 63 46 64
REMARK SMILES IDX 48 65 49 66 50 67 51 68 4 69 5 70 6 71 7 72 8 73 9 74 10 75
REMARK SMILES IDX 16 76 11 77 15 78 12 79 14 80 13 81
REMARK H PARENT 73 21 41 32 14 82
REMARK Flexibility Score: inf
ROOT
ATOM      1  O   UNL A   1      37.584  22.007  25.964  1.00  0.00    -0.458 OA
ENDROOT
BRANCH   1   2
ATOM      2  C   UNL A   1      38.890  21.812  26.262  1.00  0.00     0.338 C 
ATOM      3  O   UNL A   1      39.511  20.818  25.919  1.00  0.00    -0.246 OA
BRANCH   2   4
ATOM      4  C   UNL A   1      39.543  23.045  26.759  1.00  0.00     0.060 A 
ATOM      5  C   UNL A   1      40.724  23.023  27.511  1.00  0.00     0.016 A 
ATOM      6  C   UNL A   1      38.905  24.263  26.493  1.00  0.00     0.016 A 
ATOM      7  C   UNL A   1      41.193  24.187  28.095  1.00  0.00     0.010 A 
ATOM      8  C   UNL A   1      39.373  25.430  27.076  1.00  0.00     0.010 A 
ATOM      9  C   UNL A   1      40.485  25.375  27.916  1.00  0.00    -0.014 A 
BRANCH   9  10
ATOM     10  C   UNL A   1      41.023  26.590  28.513  1.00  0.00     0.031 A 
ATOM     11  C   UNL A   1      42.375  26.952  28.009  1.00  0.00     0.074 A 
ATOM     12  C   UNL A   1      40.298  27.376  29.335  1.00  0.00     0.049 A 
ATOM     13  N   UNL A   1      43.487  26.982  28.669  1.00  0.00    -0.248 NA
ATOM     14  C   UNL A   1      42.540  27.142  26.560  1.00  0.00     0.031 C 
ATOM     15  C   UNL A   1      38.876  27.244  29.662  1.00  0.00     0.029 A 
ATOM     16  N   UNL A   1      40.642  28.549  29.937  1.00  0.00    -0.354 N 
ATOM     17  C   UNL A   1      44.442  27.452  27.767  1.00  0.00     0.074 A 
ATOM     18  C   UNL A   1      43.859  27.317  26.460  1.00  0.00     0.031 C 
ATOM     19  C   UNL A   1      38.426  28.417  30.163  1.00  0.00     0.029 A 
ATOM     20  C   UNL A   1      39.547  29.326  30.317  1.00  0.00     0.049 A 
ATOM     21  H   UNL A   1      41.574  28.824  30.088  1.00  0.00     0.167 HD
ATOM     22  C   UNL A   1      45.517  28.173  28.194  1.00  0.00     0.034 A 
ATOM     23  C   UNL A   1      39.558  30.643  30.650  1.00  0.00     0.034 A 
ATOM     24  C   UNL A   1      45.715  28.017  29.613  1.00  0.00     0.049 A 
ATOM     25  C   UNL A   1      40.949  30.997  31.008  1.00  0.00     0.074 A 
ATOM     26  C   UNL A   1      45.940  26.953  30.463  1.00  0.00     0.029 A 
ATOM     27  N   UNL A   1      45.311  29.060  30.408  1.00  0.00    -0.354 N 
ATOM     28  N   UNL A   1      41.557  30.530  32.061  1.00  0.00    -0.248 NA
ATOM     29  C   UNL A   1      41.810  31.518  29.961  1.00  0.00     0.031 C 
ATOM     30  C   UNL A   1      45.203  27.268  31.642  1.00  0.00     0.029 A 
ATOM     31  C   UNL A   1      44.639  28.535  31.476  1.00  0.00     0.049 A 
ATOM     32  H   UNL A   1      45.476  30.016  30.240  1.00  0.00     0.167 HD
ATOM     33  C   UNL A   1      42.838  30.248  31.610  1.00  0.00     0.074 A 
ATOM     34  C   UNL A   1      42.970  30.981  30.352  1.00  0.00     0.031 C 
ATOM     35  C   UNL A   1      43.553  29.214  32.142  1.00  0.00     0.034 A 
BRANCH  22  36
ATOM     36  C   UNL A   1      46.132  29.349  27.453  1.00  0.00     0.023 A 
ATOM     37  C   UNL A   1      47.544  29.455  27.489  1.00  0.00     0.012 A 
ATOM     38  C   UNL A   1      45.422  30.488  27.011  1.00  0.00     0.148 A 
ATOM     39  C   UNL A   1      48.201  30.655  27.201  1.00  0.00     0.002 A 
ATOM     40  C   UNL A   1      46.086  31.659  26.657  1.00  0.00     0.091 A 
ATOM     41  F   UNL A   1      44.089  30.506  27.038  1.00  0.00    -0.205 F 
ATOM     42  C   UNL A   1      47.471  31.761  26.789  1.00  0.00     0.022 A 
BRANCH  40  43
ATOM     43  S   UNL A   1      45.197  33.113  26.081  1.00  0.00     0.127 S 
ATOM     44  O   UNL A   1      44.436  33.479  27.271  1.00  0.00    -0.237 OA
ATOM     45  O   UNL A   1      46.299  34.016  25.744  1.00  0.00    -0.237 OA
ATOM     46  O   UNL A   1      44.415  32.670  24.935  1.00  0.00    -0.744 OA
ENDBRANCH  40  43
ENDBRANCH  22  36
BRANCH  23  47
ATOM     47  C   UNL A   1      38.533  31.692  30.420  1.00  0.00     0.023 A 
ATOM     48  C   UNL A   1      37.920  31.809  29.155  1.00  0.00     0.012 A 
ATOM     49  C   UNL A   1      37.946  32.376  31.507  1.00  0.00     0.148 A 
ATOM     50  C   UNL A   1      36.745  32.554  28.985  1.00  0.00     0.002 A 
ATOM     51  C   UNL A   1      36.780  33.119  31.333  1.00  0.00     0.091 A 
ATOM     52  F   UNL A   1      38.473  32.218  32.728  1.00  0.00    -0.205 F 
ATOM     53  C   UNL A   1      36.171  33.200  30.075  1.00  0.00     0.022 A 
BRANCH  51  54
ATOM     54  S   UNL A   1      35.963  33.949  32.702  1.00  0.00     0.127 S 
ATOM     55  O   UNL A   1      34.833  34.595  32.032  1.00  0.00    -0.237 OA
ATOM     56  O   UNL A   1      35.602  32.827  33.565  1.00  0.00    -0.237 OA
ATOM     57  O   UNL A   1      36.945  34.876  33.249  1.00  0.00    -0.744 OA
ENDBRANCH  51  54
ENDBRANCH  23  47
BRANCH  35  58
ATOM     58  C   UNL A   1      43.040  28.569  33.403  1.00  0.00     0.023 A 
ATOM     59  C   UNL A   1      41.986  27.630  33.408  1.00  0.00     0.012 A 
ATOM     60  C   UNL A   1      43.760  28.790  34.586  1.00  0.00     0.148 A 
ATOM     61  C   UNL A   1      41.647  26.946  34.579  1.00  0.00     0.002 A 
ATOM     62  C   UNL A   1      43.454  28.072  35.733  1.00  0.00     0.091 A 
ATOM     63  F   UNL A   1      44.761  29.683  34.559  1.00  0.00    -0.205 F 
ATOM     64  C   UNL A   1      42.390  27.156  35.738  1.00  0.00     0.022 A 
BRANCH  62  65
ATOM     65  S   UNL A   1      44.459  28.207  37.211  1.00  0.00     0.127 S 
ATOM     66  O   UNL A   1      45.800  27.953  36.691  1.00  0.00    -0.237 OA
ATOM     67  O   UNL A   1      44.215  29.587  37.632  1.00  0.00    -0.237 OA
ATOM     68  O   UNL A   1      43.944  27.206  38.139  1.00  0.00    -0.744 OA
ENDBRANCH  62  65
ENDBRANCH  35  58
ENDBRANCH   9  10
ENDBRANCH   2   4
ENDBRANCH   1   2
BRANCH   1  69
ATOM     69  C   UNL A   1      36.929  21.161  25.001  1.00  0.00     0.275 C 
BRANCH  69  70
ATOM     70  C   UNL A   1      35.469  21.472  24.673  1.00  0.00     0.275 C 
BRANCH  70  71
ATOM     71  O   UNL A   1      34.595  20.541  25.329  1.00  0.00    -0.457 OA
BRANCH  71  72
ATOM     72  C   UNL A   1      33.608  19.987  24.551  1.00  0.00     0.359 C 
ATOM     73  O   UNL A   1      32.854  20.615  23.828  1.00  0.00    -0.244 OA
BRANCH  72  74
ATOM     74  C   UNL A   1      33.540  18.539  24.752  1.00  0.00     0.174 A 
ATOM     75  C   UNL A   1      34.647  17.626  24.653  1.00  0.00     0.091 A 
ATOM     76  N   UNL A   1      32.388  17.898  25.072  1.00  0.00    -0.142 NA
ATOM     77  C   UNL A   1      34.092  16.414  24.947  1.00  0.00     0.199 A 
ATOM     78  N   UNL A   1      32.785  16.639  25.117  1.00  0.00    -0.135 N 
ATOM     79  N   UNL A   1      34.348  15.102  25.136  1.00  0.00    -0.109 NA
ATOM     80  N   UNL A   1      32.249  15.484  25.457  1.00  0.00    -0.177 N 
ATOM     81  N   UNL A   1      33.240  14.517  25.400  1.00  0.00    -0.050 NA
ATOM     82  H   UNL A   1      31.308  15.333  25.707  1.00  0.00     0.216 HD
ENDBRANCH  72  74
ENDBRANCH  71  72
ENDBRANCH  70  71
ENDBRANCH  69  70
ENDBRANCH   1  69
TORSDOF 14
ENDMDL
MODEL 2
REMARK VINA RESULT:     -11.6      3.702      5.032
REMARK SMILES O=C(OCCOC(=O)c1cc2nn[nH]n2n1)c1ccc(-c2c3nc(c(-c4cccc(S(=O)(=O)[O-])c4F)c4ccc([nH]4)c(-c4cccc(S(=O)(=O)[O-])c4F)c4nc(c(-c5cccc(S(=O)(=O)[O-])c5F)c5ccc2[nH]5)C=C4)C=C3)cc1
REMARK SMILES IDX 3 1 2 2 1 3 17 4 18 5 79 6 19 7 78 8 20 9 21 10 22 11 72 12
REMARK SMILES IDX 23 13 77 14 71 15 73 16 24 17 76 18 70 19 69 20 25 22 57 23
REMARK SMILES IDX 37 24 56 25 38 26 41 27 55 28 74 29 39 30 40 31 54 33 75 34
REMARK SMILES IDX 42 35 26 36 27 37 35 38 28 39 30 40 36 41 29 42 31 43 32 44
REMARK SMILES IDX 33 45 34 46 58 47 59 48 67 49 60 50 62 51 68 52 61 53 63 54
REMARK SMILES IDX 64 55 65 56 66 57 43 58 44 59 52 60 45 61 47 62 53 63 46 64
REMARK SMILES IDX 48 65 49 66 50 67 51 68 4 69 5 70 6 71 7 72 8 73 9 74 10 75
REMARK SMILES IDX 16 76 11 77 15 78 12 79 14 80 13 81
REMARK H PARENT 73 21 41 32 14 82
REMARK Flexibility Score: inf
ROOT
ATOM      1  O   UNL A   1      40.980  20.997  26.085  1.00  0.00    -0.458 OA
ENDROOT
BRANCH   1   2
ATOM      2  C   UNL A   1      39.871  21.764  26.200  1.00  0.00     0.338 C 
ATOM      3  O   UNL A   1      38.743  21.338  26.010  1.00  0.00    -0.246 OA
BRANCH   2   4
ATOM      4  C   UNL A   1      40.149  23.055  26.873  1.00  0.00     0.060 A 
ATOM      5  C   UNL A   1      39.468  24.235  26.549  1.00  0.00     0.016 A 
ATOM      6  C   UNL A   1      41.171  23.075  27.830  1.00  0.00     0.016 A 
ATOM      7  C   UNL A   1      39.887  25.442  27.082  1.00  0.00     0.010 A 
ATOM      8  C   UNL A   1      41.591  24.282  28.366  1.00  0.00     0.010 A 
ATOM      9  C   UNL A   1      40.980  25.464  27.948  1.00  0.00    -0.014 A 
BRANCH   9  10
ATOM     10  C   UNL A   1      41.374  26.744  28.521  1.00  0.00     0.031 A 
ATOM     11  C   UNL A   1      42.680  27.247  28.015  1.00  0.00     0.074 A 
ATOM     12  C   UNL A   1      40.561  27.458  29.325  1.00  0.00     0.049 A 
ATOM     13  N   UNL A   1      43.778  27.416  28.677  1.00  0.00    -0.248 NA
ATOM     14  C   UNL A   1      42.829  27.426  26.562  1.00  0.00     0.031 C 
ATOM     15  C   UNL A   1      39.161  27.173  29.650  1.00  0.00     0.029 A 
ATOM     16  N   UNL A   1      40.766  28.675  29.904  1.00  0.00    -0.354 N 
ATOM     17  C   UNL A   1      44.678  27.973  27.768  1.00  0.00     0.074 A 
ATOM     18  C   UNL A   1      44.120  27.748  26.463  1.00  0.00     0.031 C 
ATOM     19  C   UNL A   1      38.578  28.297  30.127  1.00  0.00     0.029 A 
ATOM     20  C   UNL A   1      39.588  29.330  30.265  1.00  0.00     0.049 A 
ATOM     21  H   UNL A   1      41.661  29.057  30.053  1.00  0.00     0.167 HD
ATOM     22  C   UNL A   1      45.662  28.820  28.184  1.00  0.00     0.034 A 
ATOM     23  C   UNL A   1      39.448  30.646  30.571  1.00  0.00     0.034 A 
ATOM     24  C   UNL A   1      45.869  28.715  29.606  1.00  0.00     0.049 A 
ATOM     25  C   UNL A   1      40.788  31.162  30.927  1.00  0.00     0.074 A 
ATOM     26  C   UNL A   1      46.208  27.700  30.479  1.00  0.00     0.029 A 
ATOM     27  N   UNL A   1      45.345  29.722  30.379  1.00  0.00    -0.354 N 
ATOM     28  N   UNL A   1      41.439  30.788  31.991  1.00  0.00    -0.248 NA
ATOM     29  C   UNL A   1      41.590  31.757  29.872  1.00  0.00     0.031 C 
ATOM     30  C   UNL A   1      45.434  27.953  31.649  1.00  0.00     0.029 A 
ATOM     31  C   UNL A   1      44.731  29.144  31.455  1.00  0.00     0.049 A 
ATOM     32  H   UNL A   1      45.401  30.686  30.192  1.00  0.00     0.167 HD
ATOM     33  C   UNL A   1      42.747  30.645  31.550  1.00  0.00     0.074 A 
ATOM     34  C   UNL A   1      42.801  31.363  30.277  1.00  0.00     0.031 C 
ATOM     35  C   UNL A   1      43.572  29.709  32.104  1.00  0.00     0.034 A 
BRANCH  22  36
ATOM     36  C   UNL A   1      46.143  30.043  27.421  1.00  0.00     0.023 A 
ATOM     37  C   UNL A   1      47.524  30.344  27.508  1.00  0.00     0.012 A 
ATOM     38  C   UNL A   1      45.306  31.058  26.906  1.00  0.00     0.148 A 
ATOM     39  C   UNL A   1      48.025  31.613  27.199  1.00  0.00     0.002 A 
ATOM     40  C   UNL A   1      45.818  32.297  26.532  1.00  0.00     0.091 A 
ATOM     41  F   UNL A   1      43.983  30.894  26.880  1.00  0.00    -0.205 F 
ATOM     42  C   UNL A   1      47.170  32.593  26.714  1.00  0.00     0.022 A 
BRANCH  40  43
ATOM     43  S   UNL A   1      44.767  33.593  25.863  1.00  0.00     0.127 S 
ATOM     44  O   UNL A   1      44.176  32.922  24.710  1.00  0.00    -0.237 OA
ATOM     45  O   UNL A   1      43.852  33.835  26.979  1.00  0.00    -0.237 OA
ATOM     46  O   UNL A   1      45.656  34.709  25.565  1.00  0.00    -0.744 OA
ENDBRANCH  40  43
ENDBRANCH  22  36
BRANCH  23  47
ATOM     47  C   UNL A   1      38.312  31.567  30.317  1.00  0.00     0.023 A 
ATOM     48  C   UNL A   1      37.713  31.607  29.041  1.00  0.00     0.012 A 
ATOM     49  C   UNL A   1      37.629  32.182  31.390  1.00  0.00     0.148 A 
ATOM     50  C   UNL A   1      36.463  32.209  28.846  1.00  0.00     0.002 A 
ATOM     51  C   UNL A   1      36.389  32.783  31.191  1.00  0.00     0.091 A 
ATOM     52  F   UNL A   1      38.149  32.092  32.621  1.00  0.00    -0.205 F 
ATOM     53  C   UNL A   1      35.797  32.788  29.922  1.00  0.00     0.022 A 
BRANCH  51  54
ATOM     54  S   UNL A   1      35.455  33.518  32.541  1.00  0.00     0.127 S 
ATOM     55  O   UNL A   1      36.150  34.791  32.730  1.00  0.00    -0.237 OA
ATOM     56  O   UNL A   1      34.120  33.630  31.958  1.00  0.00    -0.237 OA
ATOM     57  O   UNL A   1      35.580  32.594  33.660  1.00  0.00    -0.744 OA
ENDBRANCH  51  54
ENDBRANCH  23  47
BRANCH  35  58
ATOM     58  C   UNL A   1      43.128  29.035  33.376  1.00  0.00     0.023 A 
ATOM     59  C   UNL A   1      42.237  27.941  33.392  1.00  0.00     0.012 A 
ATOM     60  C   UNL A   1      43.766  29.410  34.568  1.00  0.00     0.148 A 
ATOM     61  C   UNL A   1      41.975  27.252  34.580  1.00  0.00     0.002 A 
ATOM     62  C   UNL A   1      43.542  28.694  35.734  1.00  0.00     0.091 A 
ATOM     63  F   UNL A   1      44.613  30.451  34.531  1.00  0.00    -0.205 F 
ATOM     64  C   UNL A   1      42.638  27.619  35.748  1.00  0.00     0.022 A 
BRANCH  62  65
ATOM     65  S   UNL A   1      44.466  29.040  37.231  1.00  0.00     0.127 S 
ATOM     66  O   UNL A   1      43.807  30.247  37.723  1.00  0.00    -0.237 OA
ATOM     67  O   UNL A   1      44.226  27.840  38.033  1.00  0.00    -0.237 OA
ATOM     68  O   UNL A   1      45.854  29.206  36.816  1.00  0.00    -0.744 OA
ENDBRANCH  62  65
ENDBRANCH  35  58
ENDBRANCH   9  10
ENDBRANCH   2   4
ENDBRANCH   1   2
BRANCH   1  69
ATOM     69  C   UNL A   1      40.896  19.572  26.278  1.00  0.00     0.275 C 
BRANCH  69  70
ATOM     70  C   UNL A   1      42.180  18.764  26.104  1.00  0.00     0.275 C 
BRANCH  70  71
ATOM     71  O   UNL A   1      42.864  19.153  24.903  1.00  0.00    -0.457 OA
BRANCH  71  72
ATOM     72  C   UNL A   1      44.233  19.231  24.985  1.00  0.00     0.359 C 
ATOM     73  O   UNL A   1      44.974  18.287  25.199  1.00  0.00    -0.244 OA
BRANCH  72  74
ATOM     74  C   UNL A   1      44.684  20.616  24.842  1.00  0.00     0.174 A 
ATOM     75  C   UNL A   1      46.015  21.032  24.495  1.00  0.00     0.091 A 
ATOM     76  N   UNL A   1      43.857  21.677  25.018  1.00  0.00    -0.142 NA
ATOM     77  C   UNL A   1      45.928  22.394  24.460  1.00  0.00     0.199 A 
ATOM     78  N   UNL A   1      44.678  22.693  24.828  1.00  0.00    -0.135 N 
ATOM     79  N   UNL A   1      46.601  23.535  24.195  1.00  0.00    -0.109 NA
ATOM     80  N   UNL A   1      44.567  24.003  24.743  1.00  0.00    -0.177 N 
ATOM     81  N   UNL A   1      45.809  24.518  24.404  1.00  0.00    -0.050 NA
ATOM     82  H   UNL A   1      43.746  24.526  24.894  1.00  0.00     0.216 HD
ENDBRANCH  72  74
ENDBRANCH  71  72
ENDBRANCH  70  71
ENDBRANCH  69  70
ENDBRANCH   1  69
TORSDOF 14
ENDMDL
MODEL 3
REMARK VINA RESULT:     -11.6      5.370     11.218
REMARK SMILES O=C(OCCOC(=O)c1cc2nn[nH]n2n1)c1ccc(-c2c3nc(c(-c4cccc(S(=O)(=O)[O-])c4F)c4ccc([nH]4)c(-c4cccc(S(=O)(=O)[O-])c4F)c4nc(c(-c5cccc(S(=O)(=O)[O-])c5F)c5ccc2[nH]5)C=C4)C=C3)cc1
REMARK SMILES IDX 3 1 2 2 1 3 17 4 18 5 79 6 19 7 78 8 20 9 21 10 22 11 72 12
REMARK SMILES IDX 23 13 77 14 71 15 73 16 24 17 76 18 70 19 69 20 25 22 57 23
REMARK SMILES IDX 37 24 56 25 38 26 41 27 55 28 74 29 39 30 40 31 54 33 75 34
REMARK SMILES IDX 42 35 26 36 27 37 35 38 28 39 30 40 36 41 29 42 31 43 32 44
REMARK SMILES IDX 33 45 34 46 58 47 59 48 67 49 60 50 62 51 68 52 61 53 63 54
REMARK SMILES IDX 64 55 65 56 66 57 43 58 44 59 52 60 45 61 47 62 53 63 46 64
REMARK SMILES IDX 48 65 49 66 50 67 51 68 4 69 5 70 6 71 7 72 8 73 9 74 10 75
REMARK SMILES IDX 16 76 11 77 15 78 12 79 14 80 13 81
REMARK H PARENT 73 21 41 32 14 82
REMARK Flexibility Score: inf
ROOT
ATOM      1  O   UNL A   1      34.407  32.822  28.845  1.00  0.00    -0.458 OA
ENDROOT
BRANCH   1   2
ATOM      2  C   UNL A   1      34.571  31.551  28.409  1.00  0.00     0.338 C 
ATOM      3  O   UNL A   1      33.791  31.002  27.647  1.00  0.00    -0.246 OA
BRANCH   2   4
ATOM      4  C   UNL A   1      35.927  31.029  28.697  1.00  0.00     0.060 A 
ATOM      5  C   UNL A   1      37.002  31.865  29.025  1.00  0.00     0.016 A 
ATOM      6  C   UNL A   1      36.124  29.647  28.582  1.00  0.00     0.016 A 
ATOM      7  C   UNL A   1      38.281  31.343  29.113  1.00  0.00     0.010 A 
ATOM      8  C   UNL A   1      37.404  29.122  28.670  1.00  0.00     0.010 A 
ATOM      9  C   UNL A   1      38.481  29.982  28.883  1.00  0.00    -0.014 A 
BRANCH   9  10
ATOM     10  C   UNL A   1      39.832  29.456  29.019  1.00  0.00     0.031 A 
ATOM     11  C   UNL A   1      40.293  29.354  30.430  1.00  0.00     0.074 A 
ATOM     12  C   UNL A   1      40.533  28.981  27.969  1.00  0.00     0.049 A 
ATOM     13  N   UNL A   1      41.251  30.007  31.002  1.00  0.00    -0.248 NA
ATOM     14  C   UNL A   1      39.484  28.551  31.359  1.00  0.00     0.031 C 
ATOM     15  C   UNL A   1      40.055  28.787  26.598  1.00  0.00     0.029 A 
ATOM     16  N   UNL A   1      41.779  28.428  27.938  1.00  0.00    -0.354 N 
ATOM     17  C   UNL A   1      41.326  29.496  32.299  1.00  0.00     0.074 A 
ATOM     18  C   UNL A   1      40.097  28.785  32.521  1.00  0.00     0.031 C 
ATOM     19  C   UNL A   1      40.882  27.930  25.956  1.00  0.00     0.029 A 
ATOM     20  C   UNL A   1      42.009  27.627  26.820  1.00  0.00     0.049 A 
ATOM     21  H   UNL A   1      42.452  28.578  28.640  1.00  0.00     0.167 HD
ATOM     22  C   UNL A   1      42.511  29.463  32.972  1.00  0.00     0.034 A 
ATOM     23  C   UNL A   1      43.007  26.720  26.658  1.00  0.00     0.034 A 
ATOM     24  C   UNL A   1      43.478  30.341  32.364  1.00  0.00     0.049 A 
ATOM     25  C   UNL A   1      44.070  27.054  27.631  1.00  0.00     0.074 A 
ATOM     26  C   UNL A   1      43.541  31.690  32.079  1.00  0.00     0.029 A 
ATOM     27  N   UNL A   1      44.452  29.746  31.599  1.00  0.00    -0.354 N 
ATOM     28  N   UNL A   1      44.787  28.140  27.563  1.00  0.00    -0.248 NA
ATOM     29  C   UNL A   1      44.036  26.401  28.928  1.00  0.00     0.031 C 
ATOM     30  C   UNL A   1      44.207  31.767  30.821  1.00  0.00     0.029 A 
ATOM     31  C   UNL A   1      44.581  30.473  30.450  1.00  0.00     0.049 A 
ATOM     32  H   UNL A   1      44.964  28.940  31.837  1.00  0.00     0.167 HD
ATOM     33  C   UNL A   1      44.878  28.564  28.880  1.00  0.00     0.074 A 
ATOM     34  C   UNL A   1      44.500  27.401  29.683  1.00  0.00     0.031 C 
ATOM     35  C   UNL A   1      44.955  29.893  29.182  1.00  0.00     0.034 A 
BRANCH  22  36
ATOM     36  C   UNL A   1      42.958  28.346  33.901  1.00  0.00     0.023 A 
ATOM     37  C   UNL A   1      43.931  27.450  33.396  1.00  0.00     0.012 A 
ATOM     38  C   UNL A   1      42.277  27.947  35.074  1.00  0.00     0.148 A 
ATOM     39  C   UNL A   1      44.139  26.189  33.964  1.00  0.00     0.002 A 
ATOM     40  C   UNL A   1      42.538  26.720  35.677  1.00  0.00     0.091 A 
ATOM     41  F   UNL A   1      41.280  28.685  35.561  1.00  0.00    -0.205 F 
ATOM     42  C   UNL A   1      43.439  25.821  35.104  1.00  0.00     0.022 A 
BRANCH  40  43
ATOM     43  S   UNL A   1      41.690  26.203  37.177  1.00  0.00     0.127 S 
ATOM     44  O   UNL A   1      41.301  24.839  36.834  1.00  0.00    -0.237 OA
ATOM     45  O   UNL A   1      42.758  26.314  38.171  1.00  0.00    -0.237 OA
ATOM     46  O   UNL A   1      40.599  27.151  37.361  1.00  0.00    -0.744 OA
ENDBRANCH  40  43
ENDBRANCH  22  36
BRANCH  23  47
ATOM     47  C   UNL A   1      43.009  25.425  25.932  1.00  0.00     0.023 A 
ATOM     48  C   UNL A   1      44.044  25.134  25.019  1.00  0.00     0.012 A 
ATOM     49  C   UNL A   1      42.175  24.364  26.350  1.00  0.00     0.148 A 
ATOM     50  C   UNL A   1      44.261  23.826  24.563  1.00  0.00     0.002 A 
ATOM     51  C   UNL A   1      42.391  23.068  25.890  1.00  0.00     0.091 A 
ATOM     52  F   UNL A   1      41.234  24.609  27.270  1.00  0.00    -0.205 F 
ATOM     53  C   UNL A   1      43.441  22.793  25.005  1.00  0.00     0.022 A 
BRANCH  51  54
ATOM     54  S   UNL A   1      41.395  21.678  26.447  1.00  0.00     0.127 S 
ATOM     55  O   UNL A   1      41.993  20.564  25.709  1.00  0.00    -0.237 OA
ATOM     56  O   UNL A   1      41.660  21.673  27.883  1.00  0.00    -0.237 OA
ATOM     57  O   UNL A   1      40.026  21.988  26.058  1.00  0.00    -0.744 OA
ENDBRANCH  51  54
ENDBRANCH  23  47
BRANCH  35  58
ATOM     58  C   UNL A   1      45.217  30.863  28.059  1.00  0.00     0.023 A 
ATOM     59  C   UNL A   1      44.182  31.487  27.330  1.00  0.00     0.012 A 
ATOM     60  C   UNL A   1      46.541  31.280  27.856  1.00  0.00     0.148 A 
ATOM     61  C   UNL A   1      44.471  32.492  26.402  1.00  0.00     0.002 A 
ATOM     62  C   UNL A   1      46.818  32.312  26.971  1.00  0.00     0.091 A 
ATOM     63  F   UNL A   1      47.509  30.676  28.562  1.00  0.00    -0.205 F 
ATOM     64  C   UNL A   1      45.787  32.915  26.233  1.00  0.00     0.022 A 
BRANCH  62  65
ATOM     65  S   UNL A   1      48.474  32.982  26.814  1.00  0.00     0.127 S 
ATOM     66  O   UNL A   1      48.300  33.975  25.757  1.00  0.00    -0.237 OA
ATOM     67  O   UNL A   1      48.715  33.539  28.145  1.00  0.00    -0.237 OA
ATOM     68  O   UNL A   1      49.333  31.853  26.480  1.00  0.00    -0.744 OA
ENDBRANCH  62  65
ENDBRANCH  35  58
ENDBRANCH   9  10
ENDBRANCH   2   4
ENDBRANCH   1   2
BRANCH   1  69
ATOM     69  C   UNL A   1      33.694  33.777  28.035  1.00  0.00     0.275 C 
BRANCH  69  70
ATOM     70  C   UNL A   1      33.337  35.115  28.680  1.00  0.00     0.275 C 
BRANCH  70  71
ATOM     71  O   UNL A   1      32.663  34.909  29.931  1.00  0.00    -0.457 OA
BRANCH  71  72
ATOM     72  C   UNL A   1      32.964  35.798  30.934  1.00  0.00     0.359 C 
ATOM     73  O   UNL A   1      32.632  36.971  30.949  1.00  0.00    -0.244 OA
BRANCH  72  74
ATOM     74  C   UNL A   1      33.792  35.164  31.959  1.00  0.00     0.174 A 
ATOM     75  C   UNL A   1      34.262  35.791  33.164  1.00  0.00     0.091 A 
ATOM     76  N   UNL A   1      34.202  33.873  31.873  1.00  0.00    -0.142 NA
ATOM     77  C   UNL A   1      34.958  34.799  33.794  1.00  0.00     0.199 A 
ATOM     78  N   UNL A   1      34.930  33.749  32.968  1.00  0.00    -0.135 N 
ATOM     79  N   UNL A   1      35.644  34.473  34.910  1.00  0.00    -0.109 NA
ATOM     80  N   UNL A   1      35.551  32.767  33.591  1.00  0.00    -0.177 N 
ATOM     81  N   UNL A   1      36.048  33.264  34.786  1.00  0.00    -0.050 NA
ATOM     82  H   UNL A   1      35.647  31.842  33.265  1.00  0.00     0.216 HD
ENDBRANCH  72  74
ENDBRANCH  71  72
ENDBRANCH  70  71
ENDBRANCH  69  70
ENDBRANCH   1  69
TORSDOF 14
ENDMDL
