MODEL 1
REMARK VINA RESULT:     -11.9      0.000      0.000
REMARK SMILES C[C@H](O)[C@H](C)[N@H+]1Cc2ccccc2C[C@@H]1C(=O)OCCOC(=O)c1ccc(-c2c3nc(c(-c4cccc(S(=O)(=O)[O-])c4F)c4ccc([nH]4)c(-c4cccc(S(=O)(=O)[O-])c4F)c4nc(c(-c5cccc(S(=O)(=O)[O-])c5F)c5ccc2[nH]5)C=C4)C=C3)cc1
REMARK SMILES IDX 19 1 18 2 16 3 17 4 15 5 6 6 7 7 8 9 14 10 9 11 13 12 10 13
REMARK SMILES IDX 12 14 11 15 4 16 5 17 2 18 1 19 3 20 20 22 21 23 22 24 23 25
REMARK SMILES IDX 24 26 25 27 86 28 26 29 85 30 27 31 28 32 29 33 79 34 30 35
REMARK SMILES IDX 84 36 78 37 80 38 31 39 83 40 77 41 76 42 32 44 64 45 44 46
REMARK SMILES IDX 63 47 45 48 48 49 62 50 81 51 46 52 47 53 61 55 82 56 49 57
REMARK SMILES IDX 33 58 34 59 42 60 35 61 37 62 43 63 36 64 38 65 39 66 40 67
REMARK SMILES IDX 41 68 65 69 66 70 74 71 67 72 69 73 75 74 68 75 70 76 71 77
REMARK SMILES IDX 72 78 73 79 50 80 51 81 59 82 52 83 54 84 60 85 53 86 55 87
REMARK SMILES IDX 56 88 57 89 58 90
REMARK H PARENT 6 8 3 21 80 43 48 54
REMARK Flexibility Score: inf
ROOT
ATOM      1  C   UNL A   1      35.056  21.789  26.217  1.00  0.00     0.274 C 
ENDROOT
BRANCH   1   2
ATOM      2  O   UNL A   1      34.562  22.978  25.569  1.00  0.00    -0.458 OA
BRANCH   2   3
ATOM      3  C   UNL A   1      33.317  23.397  25.936  1.00  0.00     0.365 C 
ATOM      4  O   UNL A   1      32.762  23.072  26.983  1.00  0.00    -0.245 OA
BRANCH   3   5
ATOM      5  C   UNL A   1      32.599  24.253  24.869  1.00  0.00     0.300 C 
ATOM      6  N   UNL A   1      33.571  24.907  23.984  1.00  0.00    -0.315 N 
ATOM      7  C   UNL A   1      33.904  26.306  24.289  1.00  0.00     0.300 C 
ATOM      8  H   UNL A   1      34.364  24.352  24.306  1.00  0.00     0.349 HD
ATOM      9  C   UNL A   1      33.315  26.900  25.548  1.00  0.00     0.010 A 
ATOM     10  C   UNL A   1      31.522  25.171  25.463  1.00  0.00     0.113 C 
ATOM     11  C   UNL A   1      33.887  28.047  26.120  1.00  0.00     0.010 A 
ATOM     12  C   UNL A   1      32.099  26.424  26.048  1.00  0.00    -0.033 A 
ATOM     13  C   UNL A   1      33.236  28.727  27.148  1.00  0.00     0.001 A 
ATOM     14  C   UNL A   1      31.418  27.150  27.029  1.00  0.00     0.004 A 
ATOM     15  C   UNL A   1      31.989  28.293  27.582  1.00  0.00     0.000 A 
BRANCH   6  16
ATOM     16  C   UNL A   1      33.616  24.580  22.548  1.00  0.00     0.210 C 
ATOM     17  C   UNL A   1      33.002  23.179  22.370  1.00  0.00     0.078 C 
BRANCH  16  18
ATOM     18  C   UNL A   1      32.998  25.582  21.519  1.00  0.00     0.169 C 
ATOM     19  C   UNL A   1      31.549  25.980  21.782  1.00  0.00     0.045 C 
BRANCH  18  20
ATOM     20  O   UNL A   1      33.064  25.011  20.205  1.00  0.00    -0.387 OA
ATOM     21  H   UNL A   1      32.463  25.490  19.613  1.00  0.00     0.211 HD
ENDBRANCH  18  20
ENDBRANCH  16  18
ENDBRANCH   6  16
ENDBRANCH   3   5
ENDBRANCH   2   3
ENDBRANCH   1   2
BRANCH   1  22
ATOM     22  C   UNL A   1      35.847  20.927  25.238  1.00  0.00     0.275 C 
BRANCH  22  23
ATOM     23  O   UNL A   1      37.036  21.635  24.863  1.00  0.00    -0.458 OA
BRANCH  23  24
ATOM     24  C   UNL A   1      38.171  21.260  25.499  1.00  0.00     0.338 C 
ATOM     25  O   UNL A   1      38.668  20.146  25.497  1.00  0.00    -0.246 OA
BRANCH  24  26
ATOM     26  C   UNL A   1      38.763  22.426  26.198  1.00  0.00     0.060 A 
ATOM     27  C   UNL A   1      38.192  23.695  26.098  1.00  0.00     0.016 A 
ATOM     28  C   UNL A   1      39.970  22.273  26.881  1.00  0.00     0.016 A 
ATOM     29  C   UNL A   1      38.887  24.816  26.552  1.00  0.00     0.010 A 
ATOM     30  C   UNL A   1      40.613  23.390  27.429  1.00  0.00     0.010 A 
ATOM     31  C   UNL A   1      40.119  24.686  27.210  1.00  0.00    -0.014 A 
BRANCH  31  32
ATOM     32  C   UNL A   1      40.903  25.897  27.608  1.00  0.00     0.031 A 
ATOM     33  C   UNL A   1      40.265  27.010  28.412  1.00  0.00     0.074 A 
ATOM     34  C   UNL A   1      42.209  25.999  27.283  1.00  0.00     0.049 A 
ATOM     35  N   UNL A   1      40.778  28.152  28.798  1.00  0.00    -0.248 NA
ATOM     36  C   UNL A   1      38.875  26.813  28.851  1.00  0.00     0.031 C 
ATOM     37  C   UNL A   1      42.976  25.002  26.537  1.00  0.00     0.029 A 
ATOM     38  N   UNL A   1      43.120  27.000  27.530  1.00  0.00    -0.354 N 
ATOM     39  C   UNL A   1      39.771  28.811  29.497  1.00  0.00     0.074 A 
ATOM     40  C   UNL A   1      38.614  27.946  29.487  1.00  0.00     0.031 C 
ATOM     41  C   UNL A   1      44.239  25.428  26.402  1.00  0.00     0.029 A 
ATOM     42  C   UNL A   1      44.350  26.770  26.961  1.00  0.00     0.049 A 
ATOM     43  H   UNL A   1      42.912  27.802  28.062  1.00  0.00     0.167 HD
ATOM     44  C   UNL A   1      39.798  30.024  30.098  1.00  0.00     0.034 A 
ATOM     45  C   UNL A   1      45.434  27.564  26.837  1.00  0.00     0.034 A 
ATOM     46  C   UNL A   1      40.933  30.906  30.107  1.00  0.00     0.049 A 
ATOM     47  C   UNL A   1      45.405  28.949  27.412  1.00  0.00     0.074 A 
ATOM     48  C   UNL A   1      41.045  32.157  30.689  1.00  0.00     0.029 A 
ATOM     49  N   UNL A   1      42.143  30.642  29.488  1.00  0.00    -0.354 N 
ATOM     50  N   UNL A   1      44.466  29.524  28.123  1.00  0.00    -0.248 NA
ATOM     51  C   UNL A   1      46.582  29.794  27.170  1.00  0.00     0.031 C 
ATOM     52  C   UNL A   1      42.315  32.663  30.392  1.00  0.00     0.029 A 
ATOM     53  C   UNL A   1      42.998  31.719  29.645  1.00  0.00     0.049 A 
ATOM     54  H   UNL A   1      42.362  29.812  29.007  1.00  0.00     0.167 HD
ATOM     55  C   UNL A   1      44.940  30.798  28.416  1.00  0.00     0.074 A 
ATOM     56  C   UNL A   1      46.263  30.897  27.836  1.00  0.00     0.031 C 
ATOM     57  C   UNL A   1      44.323  31.800  29.088  1.00  0.00     0.034 A 
BRANCH  44  58
ATOM     58  C   UNL A   1      38.553  30.479  30.813  1.00  0.00     0.023 A 
ATOM     59  C   UNL A   1      38.413  30.219  32.191  1.00  0.00     0.012 A 
ATOM     60  C   UNL A   1      37.562  31.219  30.142  1.00  0.00     0.148 A 
ATOM     61  C   UNL A   1      37.298  30.683  32.888  1.00  0.00     0.002 A 
ATOM     62  C   UNL A   1      36.467  31.702  30.849  1.00  0.00     0.091 A 
ATOM     63  F   UNL A   1      37.703  31.427  28.824  1.00  0.00    -0.205 F 
ATOM     64  C   UNL A   1      36.332  31.434  32.221  1.00  0.00     0.022 A 
BRANCH  62  65
ATOM     65  S   UNL A   1      35.199  32.721  30.086  1.00  0.00     0.127 S 
ATOM     66  O   UNL A   1      35.998  33.802  29.513  1.00  0.00    -0.237 OA
ATOM     67  O   UNL A   1      34.615  31.808  29.103  1.00  0.00    -0.237 OA
ATOM     68  O   UNL A   1      34.298  33.109  31.162  1.00  0.00    -0.744 OA
ENDBRANCH  62  65
ENDBRANCH  44  58
BRANCH  45  69
ATOM     69  C   UNL A   1      46.624  27.052  26.101  1.00  0.00     0.023 A 
ATOM     70  C   UNL A   1      46.761  27.306  24.724  1.00  0.00     0.012 A 
ATOM     71  C   UNL A   1      47.667  26.395  26.784  1.00  0.00     0.148 A 
ATOM     72  C   UNL A   1      47.920  26.922  24.046  1.00  0.00     0.002 A 
ATOM     73  C   UNL A   1      48.848  26.088  26.120  1.00  0.00     0.091 A 
ATOM     74  F   UNL A   1      47.502  26.118  28.086  1.00  0.00    -0.205 F 
ATOM     75  C   UNL A   1      48.972  26.336  24.747  1.00  0.00     0.022 A 
BRANCH  73  76
ATOM     76  S   UNL A   1      50.299  25.523  27.018  1.00  0.00     0.127 S 
ATOM     77  O   UNL A   1      50.547  26.638  27.926  1.00  0.00    -0.237 OA
ATOM     78  O   UNL A   1      49.812  24.301  27.661  1.00  0.00    -0.237 OA
ATOM     79  O   UNL A   1      51.307  25.288  25.991  1.00  0.00    -0.744 OA
ENDBRANCH  73  76
ENDBRANCH  45  69
BRANCH  57  80
ATOM     80  C   UNL A   1      45.067  33.099  29.229  1.00  0.00     0.023 A 
ATOM     81  C   UNL A   1      45.993  33.254  30.279  1.00  0.00     0.012 A 
ATOM     82  C   UNL A   1      44.894  34.141  28.298  1.00  0.00     0.148 A 
ATOM     83  C   UNL A   1      46.716  34.439  30.417  1.00  0.00     0.002 A 
ATOM     84  C   UNL A   1      45.647  35.304  28.420  1.00  0.00     0.091 A 
ATOM     85  F   UNL A   1      43.991  33.985  27.320  1.00  0.00    -0.205 F 
ATOM     86  C   UNL A   1      46.551  35.458  29.482  1.00  0.00     0.022 A 
BRANCH  84  87
ATOM     87  S   UNL A   1      45.548  36.625  27.207  1.00  0.00     0.127 S 
ATOM     88  O   UNL A   1      46.197  37.728  27.913  1.00  0.00    -0.237 OA
ATOM     89  O   UNL A   1      46.315  36.085  26.083  1.00  0.00    -0.237 OA
ATOM     90  O   UNL A   1      44.127  36.798  26.932  1.00  0.00    -0.744 OA
ENDBRANCH  84  87
ENDBRANCH  57  80
ENDBRANCH  31  32
ENDBRANCH  24  26
ENDBRANCH  23  24
ENDBRANCH  22  23
ENDBRANCH   1  22
TORSDOF 17
ENDMDL
MODEL 2
REMARK VINA RESULT:     -11.8      4.952      9.826
REMARK SMILES C[C@H](O)[C@H](C)[N@H+]1Cc2ccccc2C[C@@H]1C(=O)OCCOC(=O)c1ccc(-c2c3nc(c(-c4cccc(S(=O)(=O)[O-])c4F)c4ccc([nH]4)c(-c4cccc(S(=O)(=O)[O-])c4F)c4nc(c(-c5cccc(S(=O)(=O)[O-])c5F)c5ccc2[nH]5)C=C4)C=C3)cc1
REMARK SMILES IDX 19 1 18 2 16 3 17 4 15 5 6 6 7 7 8 9 14 10 9 11 13 12 10 13
REMARK SMILES IDX 12 14 11 15 4 16 5 17 2 18 1 19 3 20 20 22 21 23 22 24 23 25
REMARK SMILES IDX 24 26 25 27 86 28 26 29 85 30 27 31 28 32 29 33 79 34 30 35
REMARK SMILES IDX 84 36 78 37 80 38 31 39 83 40 77 41 76 42 32 44 64 45 44 46
REMARK SMILES IDX 63 47 45 48 48 49 62 50 81 51 46 52 47 53 61 55 82 56 49 57
REMARK SMILES IDX 33 58 34 59 42 60 35 61 37 62 43 63 36 64 38 65 39 66 40 67
REMARK SMILES IDX 41 68 65 69 66 70 74 71 67 72 69 73 75 74 68 75 70 76 71 77
REMARK SMILES IDX 72 78 73 79 50 80 51 81 59 82 52 83 54 84 60 85 53 86 55 87
REMARK SMILES IDX 56 88 57 89 58 90
REMARK H PARENT 6 8 3 21 80 43 48 54
REMARK Flexibility Score: inf
ROOT
ATOM      1  C   UNL A   1      31.530  28.685  26.593  1.00  0.00     0.274 C 
ENDROOT
BRANCH   1   2
ATOM      2  O   UNL A   1      31.552  27.769  25.481  1.00  0.00    -0.458 OA
BRANCH   2   3
ATOM      3  C   UNL A   1      30.762  26.663  25.588  1.00  0.00     0.365 C 
ATOM      4  O   UNL A   1      30.471  26.125  26.654  1.00  0.00    -0.245 OA
BRANCH   3   5
ATOM      5  C   UNL A   1      30.327  26.064  24.232  1.00  0.00     0.300 C 
ATOM      6  N   UNL A   1      31.351  26.296  23.206  1.00  0.00    -0.315 N 
ATOM      7  C   UNL A   1      31.136  27.437  22.305  1.00  0.00     0.300 C 
ATOM      8  H   UNL A   1      32.067  26.592  23.870  1.00  0.00     0.349 HD
ATOM      9  C   UNL A   1      29.953  28.334  22.592  1.00  0.00     0.010 A 
ATOM     10  C   UNL A   1      28.895  26.452  23.838  1.00  0.00     0.113 C 
ATOM     11  C   UNL A   1      29.908  29.633  22.062  1.00  0.00     0.010 A 
ATOM     12  C   UNL A   1      28.821  27.820  23.232  1.00  0.00    -0.033 A 
ATOM     13  C   UNL A   1      28.740  30.390  22.138  1.00  0.00     0.001 A 
ATOM     14  C   UNL A   1      27.632  28.557  23.242  1.00  0.00     0.004 A 
ATOM     15  C   UNL A   1      27.596  29.840  22.703  1.00  0.00     0.000 A 
BRANCH   6  16
ATOM     16  C   UNL A   1      32.056  25.163  22.581  1.00  0.00     0.210 C 
ATOM     17  C   UNL A   1      32.427  25.581  21.146  1.00  0.00     0.078 C 
BRANCH  16  18
ATOM     18  C   UNL A   1      33.294  24.543  23.307  1.00  0.00     0.169 C 
ATOM     19  C   UNL A   1      34.010  25.469  24.286  1.00  0.00     0.045 C 
BRANCH  18  20
ATOM     20  O   UNL A   1      34.252  24.116  22.328  1.00  0.00    -0.387 OA
ATOM     21  H   UNL A   1      35.016  23.717  22.774  1.00  0.00     0.211 HD
ENDBRANCH  18  20
ENDBRANCH  16  18
ENDBRANCH   6  16
ENDBRANCH   3   5
ENDBRANCH   2   3
ENDBRANCH   1   2
BRANCH   1  22
ATOM     22  C   UNL A   1      31.544  30.130  26.107  1.00  0.00     0.275 C 
BRANCH  22  23
ATOM     23  O   UNL A   1      32.905  30.576  26.039  1.00  0.00    -0.458 OA
BRANCH  23  24
ATOM     24  C   UNL A   1      33.298  31.424  27.018  1.00  0.00     0.338 C 
ATOM     25  O   UNL A   1      32.661  32.364  27.460  1.00  0.00    -0.246 OA
BRANCH  24  26
ATOM     26  C   UNL A   1      34.639  31.029  27.515  1.00  0.00     0.060 A 
ATOM     27  C   UNL A   1      34.924  29.706  27.852  1.00  0.00     0.016 A 
ATOM     28  C   UNL A   1      35.597  32.015  27.750  1.00  0.00     0.016 A 
ATOM     29  C   UNL A   1      36.096  29.394  28.543  1.00  0.00     0.010 A 
ATOM     30  C   UNL A   1      36.819  31.679  28.348  1.00  0.00     0.010 A 
ATOM     31  C   UNL A   1      37.057  30.377  28.819  1.00  0.00    -0.014 A 
BRANCH  31  32
ATOM     32  C   UNL A   1      38.264  30.055  29.643  1.00  0.00     0.031 A 
ATOM     33  C   UNL A   1      39.329  29.111  29.128  1.00  0.00     0.074 A 
ATOM     34  C   UNL A   1      38.438  30.632  30.850  1.00  0.00     0.049 A 
ATOM     35  N   UNL A   1      40.412  28.678  29.726  1.00  0.00    -0.248 NA
ATOM     36  C   UNL A   1      39.168  28.592  27.761  1.00  0.00     0.031 C 
ATOM     37  C   UNL A   1      37.519  31.583  31.474  1.00  0.00     0.029 A 
ATOM     38  N   UNL A   1      39.446  30.491  31.775  1.00  0.00    -0.354 N 
ATOM     39  C   UNL A   1      41.038  27.826  28.822  1.00  0.00     0.074 A 
ATOM     40  C   UNL A   1      40.221  27.798  27.632  1.00  0.00     0.031 C 
ATOM     41  C   UNL A   1      38.009  31.955  32.664  1.00  0.00     0.029 A 
ATOM     42  C   UNL A   1      39.224  31.195  32.936  1.00  0.00     0.049 A 
ATOM     43  H   UNL A   1      40.249  29.943  31.622  1.00  0.00     0.167 HD
ATOM     44  C   UNL A   1      42.190  27.127  28.960  1.00  0.00     0.034 A 
ATOM     45  C   UNL A   1      39.876  31.190  34.116  1.00  0.00     0.034 A 
ATOM     46  C   UNL A   1      43.010  27.129  30.141  1.00  0.00     0.049 A 
ATOM     47  C   UNL A   1      41.088  30.323  34.287  1.00  0.00     0.074 A 
ATOM     48  C   UNL A   1      44.192  26.446  30.367  1.00  0.00     0.029 A 
ATOM     49  N   UNL A   1      42.724  27.830  31.300  1.00  0.00    -0.354 N 
ATOM     50  N   UNL A   1      41.696  29.576  33.399  1.00  0.00    -0.248 NA
ATOM     51  C   UNL A   1      41.703  30.297  35.621  1.00  0.00     0.031 C 
ATOM     52  C   UNL A   1      44.603  26.709  31.679  1.00  0.00     0.029 A 
ATOM     53  C   UNL A   1      43.689  27.572  32.258  1.00  0.00     0.049 A 
ATOM     54  H   UNL A   1      41.949  28.423  31.424  1.00  0.00     0.167 HD
ATOM     55  C   UNL A   1      42.768  28.993  34.064  1.00  0.00     0.074 A 
ATOM     56  C   UNL A   1      42.746  29.501  35.420  1.00  0.00     0.031 C 
ATOM     57  C   UNL A   1      43.676  28.101  33.597  1.00  0.00     0.034 A 
BRANCH  44  58
ATOM     58  C   UNL A   1      42.648  26.294  27.792  1.00  0.00     0.023 A 
ATOM     59  C   UNL A   1      43.559  26.842  26.867  1.00  0.00     0.012 A 
ATOM     60  C   UNL A   1      42.234  24.956  27.650  1.00  0.00     0.148 A 
ATOM     61  C   UNL A   1      44.045  26.071  25.811  1.00  0.00     0.002 A 
ATOM     62  C   UNL A   1      42.743  24.185  26.611  1.00  0.00     0.091 A 
ATOM     63  F   UNL A   1      41.343  24.467  28.525  1.00  0.00    -0.205 F 
ATOM     64  C   UNL A   1      43.647  24.741  25.691  1.00  0.00     0.022 A 
BRANCH  62  65
ATOM     65  S   UNL A   1      42.329  22.450  26.406  1.00  0.00     0.127 S 
ATOM     66  O   UNL A   1      42.786  21.887  27.676  1.00  0.00    -0.237 OA
ATOM     67  O   UNL A   1      40.874  22.493  26.248  1.00  0.00    -0.237 OA
ATOM     68  O   UNL A   1      43.053  22.003  25.225  1.00  0.00    -0.744 OA
ENDBRANCH  62  65
ENDBRANCH  44  58
BRANCH  45  69
ATOM     69  C   UNL A   1      39.355  32.028  35.233  1.00  0.00     0.023 A 
ATOM     70  C   UNL A   1      38.500  31.461  36.196  1.00  0.00     0.012 A 
ATOM     71  C   UNL A   1      39.781  33.361  35.395  1.00  0.00     0.148 A 
ATOM     72  C   UNL A   1      38.089  32.206  37.303  1.00  0.00     0.002 A 
ATOM     73  C   UNL A   1      39.433  34.069  36.538  1.00  0.00     0.091 A 
ATOM     74  F   UNL A   1      40.558  33.903  34.445  1.00  0.00    -0.205 F 
ATOM     75  C   UNL A   1      38.573  33.499  37.487  1.00  0.00     0.022 A 
BRANCH  73  76
ATOM     76  S   UNL A   1      40.191  35.653  36.918  1.00  0.00     0.127 S 
ATOM     77  O   UNL A   1      39.659  36.505  35.859  1.00  0.00    -0.237 OA
ATOM     78  O   UNL A   1      39.671  35.936  38.257  1.00  0.00    -0.237 OA
ATOM     79  O   UNL A   1      41.626  35.400  36.884  1.00  0.00    -0.744 OA
ENDBRANCH  73  76
ENDBRANCH  45  69
BRANCH  57  80
ATOM     80  C   UNL A   1      44.720  27.607  34.559  1.00  0.00     0.023 A 
ATOM     81  C   UNL A   1      45.887  28.369  34.763  1.00  0.00     0.012 A 
ATOM     82  C   UNL A   1      44.525  26.425  35.299  1.00  0.00     0.148 A 
ATOM     83  C   UNL A   1      46.859  27.947  35.669  1.00  0.00     0.002 A 
ATOM     84  C   UNL A   1      45.480  26.032  36.229  1.00  0.00     0.091 A 
ATOM     85  F   UNL A   1      43.419  25.701  35.074  1.00  0.00    -0.205 F 
ATOM     86  C   UNL A   1      46.650  26.785  36.410  1.00  0.00     0.022 A 
BRANCH  84  87
ATOM     87  S   UNL A   1      45.242  24.592  37.278  1.00  0.00     0.127 S 
ATOM     88  O   UNL A   1      46.559  24.451  37.896  1.00  0.00    -0.237 OA
ATOM     89  O   UNL A   1      44.185  25.032  38.189  1.00  0.00    -0.237 OA
ATOM     90  O   UNL A   1      44.846  23.515  36.379  1.00  0.00    -0.744 OA
ENDBRANCH  84  87
ENDBRANCH  57  80
ENDBRANCH  31  32
ENDBRANCH  24  26
ENDBRANCH  23  24
ENDBRANCH  22  23
ENDBRANCH   1  22
TORSDOF 17
ENDMDL
MODEL 3
REMARK VINA RESULT:     -11.5      5.091      9.861
REMARK SMILES C[C@H](O)[C@H](C)[N@H+]1Cc2ccccc2C[C@@H]1C(=O)OCCOC(=O)c1ccc(-c2c3nc(c(-c4cccc(S(=O)(=O)[O-])c4F)c4ccc([nH]4)c(-c4cccc(S(=O)(=O)[O-])c4F)c4nc(c(-c5cccc(S(=O)(=O)[O-])c5F)c5ccc2[nH]5)C=C4)C=C3)cc1
REMARK SMILES IDX 19 1 18 2 16 3 17 4 15 5 6 6 7 7 8 9 14 10 9 11 13 12 10 13
REMARK SMILES IDX 12 14 11 15 4 16 5 17 2 18 1 19 3 20 20 22 21 23 22 24 23 25
REMARK SMILES IDX 24 26 25 27 86 28 26 29 85 30 27 31 28 32 29 33 79 34 30 35
REMARK SMILES IDX 84 36 78 37 80 38 31 39 83 40 77 41 76 42 32 44 64 45 44 46
REMARK SMILES IDX 63 47 45 48 48 49 62 50 81 51 46 52 47 53 61 55 82 56 49 57
REMARK SMILES IDX 33 58 34 59 42 60 35 61 37 62 43 63 36 64 38 65 39 66 40 67
REMARK SMILES IDX 41 68 65 69 66 70 74 71 67 72 69 73 75 74 68 75 70 76 71 77
REMARK SMILES IDX 72 78 73 79 50 80 51 81 59 82 52 83 54 84 60 85 53 86 55 87
REMARK SMILES IDX 56 88 57 89 58 90
REMARK H PARENT 6 8 3 21 80 43 48 54
REMARK Flexibility Score: inf
ROOT
ATOM      1  C   UNL A   1      31.659  28.877  26.691  1.00  0.00     0.274 C 
ENDROOT
BRANCH   1   2
ATOM      2  O   UNL A   1      31.678  28.004  25.544  1.00  0.00    -0.458 OA
BRANCH   2   3
ATOM      3  C   UNL A   1      30.918  26.875  25.628  1.00  0.00     0.365 C 
ATOM      4  O   UNL A   1      30.603  26.333  26.685  1.00  0.00    -0.245 OA
BRANCH   3   5
ATOM      5  C   UNL A   1      30.555  26.255  24.260  1.00  0.00     0.300 C 
ATOM      6  N   UNL A   1      31.568  26.588  23.250  1.00  0.00    -0.315 N 
ATOM      7  C   UNL A   1      31.265  27.716  22.358  1.00  0.00     0.300 C 
ATOM      8  H   UNL A   1      32.247  26.939  23.927  1.00  0.00     0.349 HD
ATOM      9  C   UNL A   1      30.004  28.502  22.638  1.00  0.00     0.010 A 
ATOM     10  C   UNL A   1      29.100  26.521  23.850  1.00  0.00     0.113 C 
ATOM     11  C   UNL A   1      29.852  29.798  22.121  1.00  0.00     0.010 A 
ATOM     12  C   UNL A   1      28.914  27.883  23.257  1.00  0.00    -0.033 A 
ATOM     13  C   UNL A   1      28.621  30.449  22.188  1.00  0.00     0.001 A 
ATOM     14  C   UNL A   1      27.664  28.513  23.258  1.00  0.00     0.004 A 
ATOM     15  C   UNL A   1      27.522  29.794  22.732  1.00  0.00     0.000 A 
BRANCH   6  16
ATOM     16  C   UNL A   1      32.379  25.529  22.623  1.00  0.00     0.210 C 
ATOM     17  C   UNL A   1      32.317  25.737  21.098  1.00  0.00     0.078 C 
BRANCH  16  18
ATOM     18  C   UNL A   1      33.857  25.326  23.088  1.00  0.00     0.169 C 
ATOM     19  C   UNL A   1      34.288  23.875  23.286  1.00  0.00     0.045 C 
BRANCH  18  20
ATOM     20  O   UNL A   1      34.062  26.017  24.328  1.00  0.00    -0.387 OA
ATOM     21  H   UNL A   1      34.192  25.372  25.041  1.00  0.00     0.211 HD
ENDBRANCH  18  20
ENDBRANCH  16  18
ENDBRANCH   6  16
ENDBRANCH   3   5
ENDBRANCH   2   3
ENDBRANCH   1   2
BRANCH   1  22
ATOM     22  C   UNL A   1      32.450  30.152  26.416  1.00  0.00     0.275 C 
BRANCH  22  23
ATOM     23  O   UNL A   1      32.948  30.657  27.662  1.00  0.00    -0.458 OA
BRANCH  23  24
ATOM     24  C   UNL A   1      33.849  31.663  27.573  1.00  0.00     0.338 C 
ATOM     25  O   UNL A   1      33.616  32.819  27.262  1.00  0.00    -0.246 OA
BRANCH  24  26
ATOM     26  C   UNL A   1      35.197  31.163  27.939  1.00  0.00     0.060 A 
ATOM     27  C   UNL A   1      35.435  29.803  28.129  1.00  0.00     0.016 A 
ATOM     28  C   UNL A   1      36.216  32.078  28.201  1.00  0.00     0.016 A 
ATOM     29  C   UNL A   1      36.630  29.372  28.707  1.00  0.00     0.010 A 
ATOM     30  C   UNL A   1      37.454  31.631  28.682  1.00  0.00     0.010 A 
ATOM     31  C   UNL A   1      37.655  30.281  29.011  1.00  0.00    -0.014 A 
BRANCH  31  32
ATOM     32  C   UNL A   1      38.893  29.827  29.718  1.00  0.00     0.031 A 
ATOM     33  C   UNL A   1      39.788  28.764  29.117  1.00  0.00     0.074 A 
ATOM     34  C   UNL A   1      39.250  30.386  30.893  1.00  0.00     0.049 A 
ATOM     35  N   UNL A   1      40.869  28.213  29.613  1.00  0.00    -0.248 NA
ATOM     36  C   UNL A   1      39.435  28.261  27.780  1.00  0.00     0.031 C 
ATOM     37  C   UNL A   1      38.511  31.438  31.588  1.00  0.00     0.029 A 
ATOM     38  N   UNL A   1      40.322  30.135  31.717  1.00  0.00    -0.354 N 
ATOM     39  C   UNL A   1      41.302  27.291  28.666  1.00  0.00     0.074 A 
ATOM     40  C   UNL A   1      40.373  27.351  27.562  1.00  0.00     0.031 C 
ATOM     41  C   UNL A   1      39.155  31.757  32.719  1.00  0.00     0.029 A 
ATOM     42  C   UNL A   1      40.297  30.865  32.883  1.00  0.00     0.049 A 
ATOM     43  H   UNL A   1      41.038  29.497  31.495  1.00  0.00     0.167 HD
ATOM     44  C   UNL A   1      42.375  26.465  28.702  1.00  0.00     0.034 A 
ATOM     45  C   UNL A   1      41.058  30.791  33.994  1.00  0.00     0.034 A 
ATOM     46  C   UNL A   1      43.303  26.379  29.796  1.00  0.00     0.049 A 
ATOM     47  C   UNL A   1      42.174  29.792  34.059  1.00  0.00     0.074 A 
ATOM     48  C   UNL A   1      44.417  25.567  29.917  1.00  0.00     0.029 A 
ATOM     49  N   UNL A   1      43.214  27.114  30.967  1.00  0.00    -0.354 N 
ATOM     50  N   UNL A   1      42.603  28.976  33.128  1.00  0.00    -0.248 NA
ATOM     51  C   UNL A   1      42.912  29.701  35.327  1.00  0.00     0.031 C 
ATOM     52  C   UNL A   1      44.983  25.787  31.178  1.00  0.00     0.029 A 
ATOM     53  C   UNL A   1      44.233  26.751  31.830  1.00  0.00     0.049 A 
ATOM     54  H   UNL A   1      42.527  27.793  31.156  1.00  0.00     0.167 HD
ATOM     55  C   UNL A   1      43.663  28.277  33.694  1.00  0.00     0.074 A 
ATOM     56  C   UNL A   1      43.833  28.790  35.038  1.00  0.00     0.031 C 
ATOM     57  C   UNL A   1      44.413  27.285  33.155  1.00  0.00     0.034 A 
BRANCH  44  58
ATOM     58  C   UNL A   1      42.618  25.580  27.508  1.00  0.00     0.023 A 
ATOM     59  C   UNL A   1      43.367  26.075  26.421  1.00  0.00     0.012 A 
ATOM     60  C   UNL A   1      42.168  24.246  27.492  1.00  0.00     0.148 A 
ATOM     61  C   UNL A   1      43.657  25.255  25.331  1.00  0.00     0.002 A 
ATOM     62  C   UNL A   1      42.485  23.427  26.415  1.00  0.00     0.091 A 
ATOM     63  F   UNL A   1      41.432  23.809  28.524  1.00  0.00    -0.205 F 
ATOM     64  C   UNL A   1      43.227  23.930  25.333  1.00  0.00     0.022 A 
BRANCH  62  65
ATOM     65  S   UNL A   1      42.019  21.694  26.353  1.00  0.00     0.127 S 
ATOM     66  O   UNL A   1      40.594  21.784  26.037  1.00  0.00    -0.237 OA
ATOM     67  O   UNL A   1      42.853  21.185  25.263  1.00  0.00    -0.237 OA
ATOM     68  O   UNL A   1      42.337  21.147  27.664  1.00  0.00    -0.744 OA
ENDBRANCH  62  65
ENDBRANCH  44  58
BRANCH  45  69
ATOM     69  C   UNL A   1      40.748  31.688  35.143  1.00  0.00     0.023 A 
ATOM     70  C   UNL A   1      41.511  32.851  35.352  1.00  0.00     0.012 A 
ATOM     71  C   UNL A   1      39.636  31.439  35.973  1.00  0.00     0.148 A 
ATOM     72  C   UNL A   1      41.166  33.752  36.361  1.00  0.00     0.002 A 
ATOM     73  C   UNL A   1      39.253  32.378  36.921  1.00  0.00     0.091 A 
ATOM     74  F   UNL A   1      38.946  30.304  35.792  1.00  0.00    -0.205 F 
ATOM     75  C   UNL A   1      40.025  33.529  37.129  1.00  0.00     0.022 A 
BRANCH  73  76
ATOM     76  S   UNL A   1      37.685  32.236  37.789  1.00  0.00     0.127 S 
ATOM     77  O   UNL A   1      37.974  32.915  39.049  1.00  0.00    -0.237 OA
ATOM     78  O   UNL A   1      36.769  32.951  36.899  1.00  0.00    -0.237 OA
ATOM     79  O   UNL A   1      37.430  30.803  37.871  1.00  0.00    -0.744 OA
ENDBRANCH  73  76
ENDBRANCH  45  69
BRANCH  57  80
ATOM     80  C   UNL A   1      45.484  26.679  34.018  1.00  0.00     0.023 A 
ATOM     81  C   UNL A   1      46.782  27.226  33.995  1.00  0.00     0.012 A 
ATOM     82  C   UNL A   1      45.198  25.611  34.890  1.00  0.00     0.148 A 
ATOM     83  C   UNL A   1      47.787  26.701  34.805  1.00  0.00     0.002 A 
ATOM     84  C   UNL A   1      46.195  25.118  35.723  1.00  0.00     0.091 A 
ATOM     85  F   UNL A   1      43.964  25.088  34.881  1.00  0.00    -0.205 F 
ATOM     86  C   UNL A   1      47.491  25.654  35.677  1.00  0.00     0.022 A 
BRANCH  84  87
ATOM     87  S   UNL A   1      45.867  23.827  36.929  1.00  0.00     0.127 S 
ATOM     88  O   UNL A   1      44.868  24.464  37.785  1.00  0.00    -0.237 OA
ATOM     89  O   UNL A   1      45.352  22.737  36.098  1.00  0.00    -0.237 OA
ATOM     90  O   UNL A   1      47.151  23.544  37.558  1.00  0.00    -0.744 OA
ENDBRANCH  84  87
ENDBRANCH  57  80
ENDBRANCH  31  32
ENDBRANCH  24  26
ENDBRANCH  23  24
ENDBRANCH  22  23
ENDBRANCH   1  22
TORSDOF 17
ENDMDL
