MODEL 1
REMARK VINA RESULT:     -11.0      0.000      0.000
REMARK SMILES CC(C)(C[NH+]1CCC(C(N)=S)CC1)C(=O)OCCOC(=O)c1ccc(-c2c3nc(c(-c4cccc(S(=O)(=O)[O-])c4F)c4ccc([nH]4)c(-c4cccc(S(=O)(=O)[O-])c4F)c4nc(c(-c5cccc(S(=O)(=O)[O-])c5F)c5ccc2[nH]5)C=C4)C=C3)cc1
REMARK SMILES IDX 17 1 16 2 14 3 15 4 2 5 1 6 3 7 4 8 5 9 6 10 13 11 7 13
REMARK SMILES IDX 12 14 8 15 9 16 11 17 10 18 18 21 19 22 20 23 21 24 22 25
REMARK SMILES IDX 23 26 84 27 24 28 83 29 25 30 26 31 27 32 77 33 28 34 82 35
REMARK SMILES IDX 76 36 78 37 29 38 81 39 75 40 74 41 30 43 62 44 42 45 61 46
REMARK SMILES IDX 43 47 46 48 60 49 79 50 44 51 45 52 59 54 80 55 47 56 31 57
REMARK SMILES IDX 32 58 40 59 33 60 35 61 41 62 34 63 36 64 37 65 38 66 39 67
REMARK SMILES IDX 63 68 64 69 72 70 65 71 67 72 73 73 66 74 68 75 69 76 70 77
REMARK SMILES IDX 71 78 48 79 49 80 57 81 50 82 52 83 58 84 51 85 53 86 54 87
REMARK SMILES IDX 55 88 56 89
REMARK H PARENT 5 12 10 19 10 20 78 42 46 53
REMARK Flexibility Score: inf
ROOT
ATOM      1  C   UNL A   1      35.466  21.195  25.387  1.00  0.00     0.274 C 
ENDROOT
BRANCH   1   2
ATOM      2  O   UNL A   1      34.944  21.787  24.180  1.00  0.00    -0.461 OA
BRANCH   2   3
ATOM      3  C   UNL A   1      34.027  22.773  24.305  1.00  0.00     0.317 C 
ATOM      4  O   UNL A   1      34.120  23.681  25.126  1.00  0.00    -0.251 OA
BRANCH   3   5
ATOM      5  C   UNL A   1      32.844  22.660  23.318  1.00  0.00     0.111 C 
ATOM      6  C   UNL A   1      33.255  23.275  21.983  1.00  0.00     0.029 C 
ATOM      7  C   UNL A   1      31.758  23.599  23.910  1.00  0.00     0.029 C 
BRANCH   5   8
ATOM      8  C   UNL A   1      32.187  21.243  23.142  1.00  0.00     0.280 C 
BRANCH   8   9
ATOM      9  N   UNL A   1      32.667  19.964  23.721  1.00  0.00    -0.334 N 
ATOM     10  C   UNL A   1      32.257  19.672  25.098  1.00  0.00     0.262 C 
ATOM     11  C   UNL A   1      32.537  18.822  22.830  1.00  0.00     0.262 C 
ATOM     12  H   UNL A   1      33.667  20.142  23.814  1.00  0.00     0.348 HD
ATOM     13  C   UNL A   1      32.924  18.401  25.656  1.00  0.00     0.072 C 
ATOM     14  C   UNL A   1      33.221  17.559  23.336  1.00  0.00     0.072 C 
ATOM     15  C   UNL A   1      32.691  17.208  24.724  1.00  0.00     0.058 C 
BRANCH  15  16
ATOM     16  C   UNL A   1      33.266  15.881  25.203  1.00  0.00     0.076 C 
ATOM     17  S   UNL A   1      32.369  14.552  25.659  1.00  0.00    -0.066 S 
BRANCH  16  18
ATOM     18  N   UNL A   1      34.627  15.837  25.321  1.00  0.00    -0.393 N 
ATOM     19  H   UNL A   1      35.086  16.450  25.941  1.00  0.00     0.157 HD
ATOM     20  H   UNL A   1      35.147  15.194  24.788  1.00  0.00     0.157 HD
ENDBRANCH  16  18
ENDBRANCH  15  16
ENDBRANCH   8   9
ENDBRANCH   5   8
ENDBRANCH   3   5
ENDBRANCH   2   3
ENDBRANCH   1   2
BRANCH   1  21
ATOM     21  C   UNL A   1      36.804  20.483  25.098  1.00  0.00     0.275 C 
BRANCH  21  22
ATOM     22  O   UNL A   1      37.972  21.323  24.930  1.00  0.00    -0.458 OA
BRANCH  22  23
ATOM     23  C   UNL A   1      39.004  21.156  25.786  1.00  0.00     0.338 C 
ATOM     24  O   UNL A   1      39.476  20.097  26.161  1.00  0.00    -0.246 OA
BRANCH  23  25
ATOM     25  C   UNL A   1      39.360  22.457  26.388  1.00  0.00     0.060 A 
ATOM     26  C   UNL A   1      40.492  22.476  27.200  1.00  0.00     0.016 A 
ATOM     27  C   UNL A   1      38.657  23.642  26.153  1.00  0.00     0.016 A 
ATOM     28  C   UNL A   1      40.886  23.642  27.843  1.00  0.00     0.010 A 
ATOM     29  C   UNL A   1      39.145  24.851  26.682  1.00  0.00     0.010 A 
ATOM     30  C   UNL A   1      40.276  24.860  27.519  1.00  0.00    -0.014 A 
BRANCH  30  31
ATOM     31  C   UNL A   1      40.978  26.119  27.896  1.00  0.00     0.031 A 
ATOM     32  C   UNL A   1      40.314  27.197  28.700  1.00  0.00     0.074 A 
ATOM     33  C   UNL A   1      42.261  26.266  27.502  1.00  0.00     0.049 A 
ATOM     34  N   UNL A   1      40.768  28.382  29.017  1.00  0.00    -0.248 NA
ATOM     35  C   UNL A   1      38.970  26.911  29.220  1.00  0.00     0.031 C 
ATOM     36  C   UNL A   1      43.022  25.272  26.736  1.00  0.00     0.029 A 
ATOM     37  N   UNL A   1      43.159  27.288  27.688  1.00  0.00    -0.354 N 
ATOM     38  C   UNL A   1      39.750  29.006  29.730  1.00  0.00     0.074 A 
ATOM     39  C   UNL A   1      38.657  28.058  29.812  1.00  0.00     0.031 C 
ATOM     40  C   UNL A   1      44.270  25.717  26.541  1.00  0.00     0.029 A 
ATOM     41  C   UNL A   1      44.370  27.068  27.073  1.00  0.00     0.049 A 
ATOM     42  H   UNL A   1      42.956  28.098  28.209  1.00  0.00     0.167 HD
ATOM     43  C   UNL A   1      39.739  30.251  30.266  1.00  0.00     0.034 A 
ATOM     44  C   UNL A   1      45.431  27.878  26.896  1.00  0.00     0.034 A 
ATOM     45  C   UNL A   1      40.854  31.164  30.209  1.00  0.00     0.049 A 
ATOM     46  C   UNL A   1      45.374  29.261  27.468  1.00  0.00     0.074 A 
ATOM     47  C   UNL A   1      40.952  32.440  30.739  1.00  0.00     0.029 A 
ATOM     48  N   UNL A   1      42.065  30.903  29.583  1.00  0.00    -0.354 N 
ATOM     49  N   UNL A   1      44.418  29.820  28.167  1.00  0.00    -0.248 NA
ATOM     50  C   UNL A   1      46.542  30.119  27.241  1.00  0.00     0.031 C 
ATOM     51  C   UNL A   1      42.209  32.958  30.412  1.00  0.00     0.029 A 
ATOM     52  C   UNL A   1      42.910  31.994  29.705  1.00  0.00     0.049 A 
ATOM     53  H   UNL A   1      42.290  30.064  29.120  1.00  0.00     0.167 HD
ATOM     54  C   UNL A   1      44.876  31.089  28.489  1.00  0.00     0.074 A 
ATOM     55  C   UNL A   1      46.208  31.204  27.926  1.00  0.00     0.031 C 
ATOM     56  C   UNL A   1      44.248  32.074  29.175  1.00  0.00     0.034 A 
BRANCH  43  57
ATOM     57  C   UNL A   1      38.483  30.713  30.961  1.00  0.00     0.023 A 
ATOM     58  C   UNL A   1      38.327  30.518  32.347  1.00  0.00     0.012 A 
ATOM     59  C   UNL A   1      37.488  31.413  30.247  1.00  0.00     0.148 A 
ATOM     60  C   UNL A   1      37.190  30.988  33.007  1.00  0.00     0.002 A 
ATOM     61  C   UNL A   1      36.379  31.917  30.919  1.00  0.00     0.091 A 
ATOM     62  F   UNL A   1      37.642  31.571  28.925  1.00  0.00    -0.205 F 
ATOM     63  C   UNL A   1      36.224  31.697  32.297  1.00  0.00     0.022 A 
BRANCH  61  64
ATOM     64  S   UNL A   1      35.123  32.910  30.104  1.00  0.00     0.127 S 
ATOM     65  O   UNL A   1      34.560  31.952  29.153  1.00  0.00    -0.237 OA
ATOM     66  O   UNL A   1      34.236  33.260  31.213  1.00  0.00    -0.237 OA
ATOM     67  O   UNL A   1      35.826  34.038  29.510  1.00  0.00    -0.744 OA
ENDBRANCH  61  64
ENDBRANCH  43  57
BRANCH  44  68
ATOM     68  C   UNL A   1      46.612  27.392  26.128  1.00  0.00     0.023 A 
ATOM     69  C   UNL A   1      46.726  27.682  24.756  1.00  0.00     0.012 A 
ATOM     70  C   UNL A   1      47.655  26.695  26.772  1.00  0.00     0.148 A 
ATOM     71  C   UNL A   1      47.850  27.273  24.036  1.00  0.00     0.002 A 
ATOM     72  C   UNL A   1      48.799  26.349  26.065  1.00  0.00     0.091 A 
ATOM     73  F   UNL A   1      47.518  26.409  28.074  1.00  0.00    -0.205 F 
ATOM     74  C   UNL A   1      48.893  26.623  24.692  1.00  0.00     0.022 A 
BRANCH  72  75
ATOM     75  S   UNL A   1      50.245  25.651  26.871  1.00  0.00     0.127 S 
ATOM     76  O   UNL A   1      51.166  25.495  25.748  1.00  0.00    -0.237 OA
ATOM     77  O   UNL A   1      50.603  26.705  27.820  1.00  0.00    -0.237 OA
ATOM     78  O   UNL A   1      49.786  24.418  27.496  1.00  0.00    -0.744 OA
ENDBRANCH  72  75
ENDBRANCH  44  68
BRANCH  56  79
ATOM     79  C   UNL A   1      45.015  33.351  29.390  1.00  0.00     0.023 A 
ATOM     80  C   UNL A   1      45.822  33.501  30.535  1.00  0.00     0.012 A 
ATOM     81  C   UNL A   1      44.964  34.384  28.435  1.00  0.00     0.148 A 
ATOM     82  C   UNL A   1      46.537  34.680  30.745  1.00  0.00     0.002 A 
ATOM     83  C   UNL A   1      45.719  35.534  28.626  1.00  0.00     0.091 A 
ATOM     84  F   UNL A   1      44.171  34.228  27.365  1.00  0.00    -0.205 F 
ATOM     85  C   UNL A   1      46.494  35.690  29.786  1.00  0.00     0.022 A 
BRANCH  83  86
ATOM     86  S   UNL A   1      45.798  36.843  27.400  1.00  0.00     0.127 S 
ATOM     87  O   UNL A   1      44.418  37.328  27.395  1.00  0.00    -0.237 OA
ATOM     88  O   UNL A   1      46.767  37.765  27.993  1.00  0.00    -0.237 OA
ATOM     89  O   UNL A   1      46.244  36.210  26.166  1.00  0.00    -0.744 OA
ENDBRANCH  83  86
ENDBRANCH  56  79
ENDBRANCH  30  31
ENDBRANCH  23  25
ENDBRANCH  22  23
ENDBRANCH  21  22
ENDBRANCH   1  21
TORSDOF 18
ENDMDL
MODEL 2
REMARK VINA RESULT:     -10.6      2.803      3.942
REMARK SMILES CC(C)(C[NH+]1CCC(C(N)=S)CC1)C(=O)OCCOC(=O)c1ccc(-c2c3nc(c(-c4cccc(S(=O)(=O)[O-])c4F)c4ccc([nH]4)c(-c4cccc(S(=O)(=O)[O-])c4F)c4nc(c(-c5cccc(S(=O)(=O)[O-])c5F)c5ccc2[nH]5)C=C4)C=C3)cc1
REMARK SMILES IDX 17 1 16 2 14 3 15 4 2 5 1 6 3 7 4 8 5 9 6 10 13 11 7 13
REMARK SMILES IDX 12 14 8 15 9 16 11 17 10 18 18 21 19 22 20 23 21 24 22 25
REMARK SMILES IDX 23 26 84 27 24 28 83 29 25 30 26 31 27 32 77 33 28 34 82 35
REMARK SMILES IDX 76 36 78 37 29 38 81 39 75 40 74 41 30 43 62 44 42 45 61 46
REMARK SMILES IDX 43 47 46 48 60 49 79 50 44 51 45 52 59 54 80 55 47 56 31 57
REMARK SMILES IDX 32 58 40 59 33 60 35 61 41 62 34 63 36 64 37 65 38 66 39 67
REMARK SMILES IDX 63 68 64 69 72 70 65 71 67 72 73 73 66 74 68 75 69 76 70 77
REMARK SMILES IDX 71 78 48 79 49 80 57 81 50 82 52 83 58 84 51 85 53 86 54 87
REMARK SMILES IDX 55 88 56 89
REMARK H PARENT 5 12 10 19 10 20 78 42 46 53
REMARK Flexibility Score: inf
ROOT
ATOM      1  C   UNL A   1      37.313  19.729  24.944  1.00  0.00     0.274 C 
ENDROOT
BRANCH   1   2
ATOM      2  O   UNL A   1      36.706  20.941  25.436  1.00  0.00    -0.461 OA
BRANCH   2   3
ATOM      3  C   UNL A   1      35.567  21.365  24.842  1.00  0.00     0.317 C 
ATOM      4  O   UNL A   1      34.581  20.651  24.687  1.00  0.00    -0.251 OA
BRANCH   3   5
ATOM      5  C   UNL A   1      35.614  22.835  24.370  1.00  0.00     0.111 C 
ATOM      6  C   UNL A   1      36.501  22.927  23.131  1.00  0.00     0.029 C 
ATOM      7  C   UNL A   1      36.374  23.579  25.501  1.00  0.00     0.029 C 
BRANCH   5   8
ATOM      8  C   UNL A   1      34.239  23.572  24.172  1.00  0.00     0.280 C 
BRANCH   8   9
ATOM      9  N   UNL A   1      33.980  25.023  24.335  1.00  0.00    -0.334 N 
ATOM     10  C   UNL A   1      33.585  25.759  23.130  1.00  0.00     0.262 C 
ATOM     11  C   UNL A   1      33.174  25.355  25.499  1.00  0.00     0.262 C 
ATOM     12  H   UNL A   1      34.916  25.380  24.524  1.00  0.00     0.348 HD
ATOM     13  C   UNL A   1      33.484  27.277  23.371  1.00  0.00     0.072 C 
ATOM     14  C   UNL A   1      33.086  26.849  25.787  1.00  0.00     0.072 C 
ATOM     15  C   UNL A   1      32.561  27.581  24.555  1.00  0.00     0.058 C 
BRANCH  15  16
ATOM     16  C   UNL A   1      32.345  29.059  24.854  1.00  0.00     0.076 C 
ATOM     17  S   UNL A   1      32.967  29.876  26.167  1.00  0.00    -0.066 S 
BRANCH  16  18
ATOM     18  N   UNL A   1      31.512  29.717  23.993  1.00  0.00    -0.393 N 
ATOM     19  H   UNL A   1      31.647  30.677  23.817  1.00  0.00     0.157 HD
ATOM     20  H   UNL A   1      30.780  29.233  23.549  1.00  0.00     0.157 HD
ENDBRANCH  16  18
ENDBRANCH  15  16
ENDBRANCH   8   9
ENDBRANCH   5   8
ENDBRANCH   3   5
ENDBRANCH   2   3
ENDBRANCH   1   2
BRANCH   1  21
ATOM     21  C   UNL A   1      38.831  19.745  25.213  1.00  0.00     0.275 C 
BRANCH  21  22
ATOM     22  O   UNL A   1      39.277  20.382  26.435  1.00  0.00    -0.458 OA
BRANCH  22  23
ATOM     23  C   UNL A   1      40.585  20.701  26.547  1.00  0.00     0.338 C 
ATOM     24  O   UNL A   1      41.530  19.936  26.467  1.00  0.00    -0.246 OA
BRANCH  23  25
ATOM     25  C   UNL A   1      40.714  22.100  27.002  1.00  0.00     0.060 A 
ATOM     26  C   UNL A   1      41.625  22.335  28.030  1.00  0.00     0.016 A 
ATOM     27  C   UNL A   1      40.016  23.170  26.438  1.00  0.00     0.016 A 
ATOM     28  C   UNL A   1      41.791  23.611  28.555  1.00  0.00     0.010 A 
ATOM     29  C   UNL A   1      40.296  24.480  26.867  1.00  0.00     0.010 A 
ATOM     30  C   UNL A   1      41.200  24.710  27.920  1.00  0.00    -0.014 A 
BRANCH  30  31
ATOM     31  C   UNL A   1      41.720  26.069  28.241  1.00  0.00     0.031 A 
ATOM     32  C   UNL A   1      40.882  27.106  28.928  1.00  0.00     0.074 A 
ATOM     33  C   UNL A   1      42.998  26.349  27.906  1.00  0.00     0.049 A 
ATOM     34  N   UNL A   1      41.169  28.356  29.182  1.00  0.00    -0.248 NA
ATOM     35  C   UNL A   1      39.553  26.689  29.395  1.00  0.00     0.031 C 
ATOM     36  C   UNL A   1      43.920  25.410  27.256  1.00  0.00     0.029 A 
ATOM     37  N   UNL A   1      43.753  27.485  28.065  1.00  0.00    -0.354 N 
ATOM     38  C   UNL A   1      40.042  28.894  29.792  1.00  0.00     0.074 A 
ATOM     39  C   UNL A   1      39.068  27.825  29.885  1.00  0.00     0.031 C 
ATOM     40  C   UNL A   1      45.114  25.993  27.096  1.00  0.00     0.029 A 
ATOM     41  C   UNL A   1      45.017  27.378  27.533  1.00  0.00     0.049 A 
ATOM     42  H   UNL A   1      43.421  28.296  28.514  1.00  0.00     0.167 HD
ATOM     43  C   UNL A   1      39.847  30.160  30.234  1.00  0.00     0.034 A 
ATOM     44  C   UNL A   1      45.981  28.300  27.354  1.00  0.00     0.034 A 
ATOM     45  C   UNL A   1      40.845  31.200  30.171  1.00  0.00     0.049 A 
ATOM     46  C   UNL A   1      45.722  29.700  27.820  1.00  0.00     0.074 A 
ATOM     47  C   UNL A   1      40.754  32.509  30.612  1.00  0.00     0.029 A 
ATOM     48  N   UNL A   1      42.115  31.052  29.631  1.00  0.00    -0.354 N 
ATOM     49  N   UNL A   1      44.664  30.181  28.425  1.00  0.00    -0.248 NA
ATOM     50  C   UNL A   1      46.790  30.681  27.594  1.00  0.00     0.031 C 
ATOM     51  C   UNL A   1      41.957  33.158  30.315  1.00  0.00     0.029 A 
ATOM     52  C   UNL A   1      42.813  32.245  29.718  1.00  0.00     0.049 A 
ATOM     53  H   UNL A   1      42.468  30.219  29.242  1.00  0.00     0.167 HD
ATOM     54  C   UNL A   1      44.945  31.515  28.677  1.00  0.00     0.074 A 
ATOM     55  C   UNL A   1      46.285  31.758  28.180  1.00  0.00     0.031 C 
ATOM     56  C   UNL A   1      44.161  32.456  29.255  1.00  0.00     0.034 A 
BRANCH  43  57
ATOM     57  C   UNL A   1      38.504  30.506  30.826  1.00  0.00     0.023 A 
ATOM     58  C   UNL A   1      38.221  30.199  32.171  1.00  0.00     0.012 A 
ATOM     59  C   UNL A   1      37.547  31.210  30.064  1.00  0.00     0.148 A 
ATOM     60  C   UNL A   1      36.999  30.562  32.741  1.00  0.00     0.002 A 
ATOM     61  C   UNL A   1      36.350  31.606  30.652  1.00  0.00     0.091 A 
ATOM     62  F   UNL A   1      37.824  31.475  28.780  1.00  0.00    -0.205 F 
ATOM     63  C   UNL A   1      36.071  31.275  31.987  1.00  0.00     0.022 A 
BRANCH  61  64
ATOM     64  S   UNL A   1      35.128  32.596  29.782  1.00  0.00     0.127 S 
ATOM     65  O   UNL A   1      34.669  31.663  28.754  1.00  0.00    -0.237 OA
ATOM     66  O   UNL A   1      34.150  32.874  30.834  1.00  0.00    -0.237 OA
ATOM     67  O   UNL A   1      35.838  33.768  29.289  1.00  0.00    -0.744 OA
ENDBRANCH  61  64
ENDBRANCH  43  57
BRANCH  44  68
ATOM     68  C   UNL A   1      47.258  27.916  26.687  1.00  0.00     0.023 A 
ATOM     69  C   UNL A   1      48.359  27.508  27.462  1.00  0.00     0.012 A 
ATOM     70  C   UNL A   1      47.360  27.895  25.281  1.00  0.00     0.148 A 
ATOM     71  C   UNL A   1      49.545  27.101  26.848  1.00  0.00     0.002 A 
ATOM     72  C   UNL A   1      48.520  27.427  24.677  1.00  0.00     0.091 A 
ATOM     73  F   UNL A   1      46.308  28.308  24.561  1.00  0.00    -0.205 F 
ATOM     74  C   UNL A   1      49.620  27.044  25.458  1.00  0.00     0.022 A 
BRANCH  72  75
ATOM     75  S   UNL A   1      48.637  27.177  22.901  1.00  0.00     0.127 S 
ATOM     76  O   UNL A   1      50.045  27.470  22.652  1.00  0.00    -0.237 OA
ATOM     77  O   UNL A   1      48.267  25.768  22.767  1.00  0.00    -0.237 OA
ATOM     78  O   UNL A   1      47.679  28.104  22.313  1.00  0.00    -0.744 OA
ENDBRANCH  72  75
ENDBRANCH  44  68
BRANCH  56  79
ATOM     79  C   UNL A   1      44.753  33.831  29.418  1.00  0.00     0.023 A 
ATOM     80  C   UNL A   1      45.495  34.144  30.574  1.00  0.00     0.012 A 
ATOM     81  C   UNL A   1      44.605  34.796  28.405  1.00  0.00     0.148 A 
ATOM     82  C   UNL A   1      46.049  35.413  30.736  1.00  0.00     0.002 A 
ATOM     83  C   UNL A   1      45.203  36.041  28.549  1.00  0.00     0.091 A 
ATOM     84  F   UNL A   1      43.876  34.483  27.324  1.00  0.00    -0.205 F 
ATOM     85  C   UNL A   1      45.912  36.357  29.719  1.00  0.00     0.022 A 
BRANCH  83  86
ATOM     86  S   UNL A   1      45.158  37.282  27.253  1.00  0.00     0.127 S 
ATOM     87  O   UNL A   1      43.752  37.243  26.853  1.00  0.00    -0.237 OA
ATOM     88  O   UNL A   1      45.555  38.494  27.970  1.00  0.00    -0.237 OA
ATOM     89  O   UNL A   1      46.109  36.841  26.242  1.00  0.00    -0.744 OA
ENDBRANCH  83  86
ENDBRANCH  56  79
ENDBRANCH  30  31
ENDBRANCH  23  25
ENDBRANCH  22  23
ENDBRANCH  21  22
ENDBRANCH   1  21
TORSDOF 18
ENDMDL
MODEL 3
REMARK VINA RESULT:     -10.4      2.475      3.845
REMARK SMILES CC(C)(C[NH+]1CCC(C(N)=S)CC1)C(=O)OCCOC(=O)c1ccc(-c2c3nc(c(-c4cccc(S(=O)(=O)[O-])c4F)c4ccc([nH]4)c(-c4cccc(S(=O)(=O)[O-])c4F)c4nc(c(-c5cccc(S(=O)(=O)[O-])c5F)c5ccc2[nH]5)C=C4)C=C3)cc1
REMARK SMILES IDX 17 1 16 2 14 3 15 4 2 5 1 6 3 7 4 8 5 9 6 10 13 11 7 13
REMARK SMILES IDX 12 14 8 15 9 16 11 17 10 18 18 21 19 22 20 23 21 24 22 25
REMARK SMILES IDX 23 26 84 27 24 28 83 29 25 30 26 31 27 32 77 33 28 34 82 35
REMARK SMILES IDX 76 36 78 37 29 38 81 39 75 40 74 41 30 43 62 44 42 45 61 46
REMARK SMILES IDX 43 47 46 48 60 49 79 50 44 51 45 52 59 54 80 55 47 56 31 57
REMARK SMILES IDX 32 58 40 59 33 60 35 61 41 62 34 63 36 64 37 65 38 66 39 67
REMARK SMILES IDX 63 68 64 69 72 70 65 71 67 72 73 73 66 74 68 75 69 76 70 77
REMARK SMILES IDX 71 78 48 79 49 80 57 81 50 82 52 83 58 84 51 85 53 86 54 87
REMARK SMILES IDX 55 88 56 89
REMARK H PARENT 5 12 10 19 10 20 78 42 46 53
REMARK Flexibility Score: inf
ROOT
ATOM      1  C   UNL A   1      35.395  20.869  24.681  1.00  0.00     0.274 C 
ENDROOT
BRANCH   1   2
ATOM      2  O   UNL A   1      34.775  22.134  24.991  1.00  0.00    -0.461 OA
BRANCH   2   3
ATOM      3  C   UNL A   1      33.441  22.148  25.212  1.00  0.00     0.317 C 
ATOM      4  O   UNL A   1      32.646  21.457  24.583  1.00  0.00    -0.251 OA
BRANCH   3   5
ATOM      5  C   UNL A   1      33.000  23.115  26.332  1.00  0.00     0.111 C 
ATOM      6  C   UNL A   1      33.372  22.508  27.682  1.00  0.00     0.029 C 
ATOM      7  C   UNL A   1      31.448  23.100  26.266  1.00  0.00     0.029 C 
BRANCH   5   8
ATOM      8  C   UNL A   1      33.454  24.615  26.210  1.00  0.00     0.280 C 
BRANCH   8   9
ATOM      9  N   UNL A   1      32.624  25.759  25.761  1.00  0.00    -0.334 N 
ATOM     10  C   UNL A   1      32.936  27.067  26.346  1.00  0.00     0.262 C 
ATOM     11  C   UNL A   1      32.411  25.811  24.323  1.00  0.00     0.262 C 
ATOM     12  H   UNL A   1      31.720  25.533  26.176  1.00  0.00     0.348 HD
ATOM     13  C   UNL A   1      31.929  28.155  25.931  1.00  0.00     0.072 C 
ATOM     14  C   UNL A   1      31.390  26.853  23.884  1.00  0.00     0.072 C 
ATOM     15  C   UNL A   1      31.800  28.227  24.406  1.00  0.00     0.058 C 
BRANCH  15  16
ATOM     16  C   UNL A   1      30.865  29.308  23.879  1.00  0.00     0.076 C 
ATOM     17  S   UNL A   1      30.040  29.246  22.432  1.00  0.00    -0.066 S 
BRANCH  16  18
ATOM     18  N   UNL A   1      30.774  30.434  24.649  1.00  0.00    -0.393 N 
ATOM     19  H   UNL A   1      30.500  31.288  24.241  1.00  0.00     0.157 HD
ATOM     20  H   UNL A   1      30.982  30.392  25.610  1.00  0.00     0.157 HD
ENDBRANCH  16  18
ENDBRANCH  15  16
ENDBRANCH   8   9
ENDBRANCH   5   8
ENDBRANCH   3   5
ENDBRANCH   2   3
ENDBRANCH   1   2
BRANCH   1  21
ATOM     21  C   UNL A   1      36.930  21.009  24.689  1.00  0.00     0.275 C 
BRANCH  21  22
ATOM     22  O   UNL A   1      37.571  21.147  25.980  1.00  0.00    -0.458 OA
BRANCH  22  23
ATOM     23  C   UNL A   1      38.918  21.253  26.015  1.00  0.00     0.338 C 
ATOM     24  O   UNL A   1      39.724  20.367  25.792  1.00  0.00    -0.246 OA
BRANCH  23  25
ATOM     25  C   UNL A   1      39.294  22.565  26.580  1.00  0.00     0.060 A 
ATOM     26  C   UNL A   1      40.417  22.584  27.405  1.00  0.00     0.016 A 
ATOM     27  C   UNL A   1      38.620  23.755  26.301  1.00  0.00     0.016 A 
ATOM     28  C   UNL A   1      40.829  23.762  28.017  1.00  0.00     0.010 A 
ATOM     29  C   UNL A   1      39.127  24.970  26.798  1.00  0.00     0.010 A 
ATOM     30  C   UNL A   1      40.248  24.982  27.648  1.00  0.00    -0.014 A 
BRANCH  30  31
ATOM     31  C   UNL A   1      40.973  26.237  27.995  1.00  0.00     0.031 A 
ATOM     32  C   UNL A   1      40.338  27.333  28.797  1.00  0.00     0.074 A 
ATOM     33  C   UNL A   1      42.250  26.363  27.574  1.00  0.00     0.049 A 
ATOM     34  N   UNL A   1      40.812  28.516  29.090  1.00  0.00    -0.248 NA
ATOM     35  C   UNL A   1      39.001  27.070  29.347  1.00  0.00     0.031 C 
ATOM     36  C   UNL A   1      42.983  25.350  26.806  1.00  0.00     0.029 A 
ATOM     37  N   UNL A   1      43.163  27.376  27.728  1.00  0.00    -0.354 N 
ATOM     38  C   UNL A   1      39.817  29.162  29.813  1.00  0.00     0.074 A 
ATOM     39  C   UNL A   1      38.714  28.229  29.930  1.00  0.00     0.031 C 
ATOM     40  C   UNL A   1      44.232  25.777  26.581  1.00  0.00     0.029 A 
ATOM     41  C   UNL A   1      44.359  27.133  27.092  1.00  0.00     0.049 A 
ATOM     42  H   UNL A   1      42.980  28.195  28.242  1.00  0.00     0.167 HD
ATOM     43  C   UNL A   1      39.831  30.414  30.333  1.00  0.00     0.034 A 
ATOM     44  C   UNL A   1      45.426  27.927  26.883  1.00  0.00     0.034 A 
ATOM     45  C   UNL A   1      40.956  31.313  30.242  1.00  0.00     0.049 A 
ATOM     46  C   UNL A   1      45.397  29.319  27.438  1.00  0.00     0.074 A 
ATOM     47  C   UNL A   1      41.079  32.593  30.754  1.00  0.00     0.029 A 
ATOM     48  N   UNL A   1      42.151  31.029  29.596  1.00  0.00    -0.354 N 
ATOM     49  N   UNL A   1      44.462  29.899  28.148  1.00  0.00    -0.248 NA
ATOM     50  C   UNL A   1      46.571  30.160  27.177  1.00  0.00     0.031 C 
ATOM     51  C   UNL A   1      42.335  33.092  30.395  1.00  0.00     0.029 A 
ATOM     52  C   UNL A   1      43.011  32.110  29.687  1.00  0.00     0.049 A 
ATOM     53  H   UNL A   1      42.357  30.181  29.139  1.00  0.00     0.167 HD
ATOM     54  C   UNL A   1      44.942  31.166  28.444  1.00  0.00     0.074 A 
ATOM     55  C   UNL A   1      46.263  31.257  27.854  1.00  0.00     0.031 C 
ATOM     56  C   UNL A   1      44.339  32.167  29.129  1.00  0.00     0.034 A 
BRANCH  43  57
ATOM     57  C   UNL A   1      38.595  30.900  31.047  1.00  0.00     0.023 A 
ATOM     58  C   UNL A   1      38.495  30.791  32.447  1.00  0.00     0.012 A 
ATOM     59  C   UNL A   1      37.561  31.539  30.330  1.00  0.00     0.148 A 
ATOM     60  C   UNL A   1      37.377  31.286  33.120  1.00  0.00     0.002 A 
ATOM     61  C   UNL A   1      36.470  32.067  31.012  1.00  0.00     0.091 A 
ATOM     62  F   UNL A   1      37.662  31.614  28.995  1.00  0.00    -0.205 F 
ATOM     63  C   UNL A   1      36.372  31.933  32.406  1.00  0.00     0.022 A 
BRANCH  61  64
ATOM     64  S   UNL A   1      35.166  32.988  30.186  1.00  0.00     0.127 S 
ATOM     65  O   UNL A   1      35.917  34.087  29.582  1.00  0.00    -0.237 OA
ATOM     66  O   UNL A   1      34.650  32.005  29.233  1.00  0.00    -0.237 OA
ATOM     67  O   UNL A   1      34.225  33.374  31.228  1.00  0.00    -0.744 OA
ENDBRANCH  61  64
ENDBRANCH  43  57
BRANCH  44  68
ATOM     68  C   UNL A   1      46.586  27.417  26.099  1.00  0.00     0.023 A 
ATOM     69  C   UNL A   1      46.654  27.651  24.713  1.00  0.00     0.012 A 
ATOM     70  C   UNL A   1      47.654  26.754  26.738  1.00  0.00     0.148 A 
ATOM     71  C   UNL A   1      47.757  27.218  23.975  1.00  0.00     0.002 A 
ATOM     72  C   UNL A   1      48.777  26.386  26.009  1.00  0.00     0.091 A 
ATOM     73  F   UNL A   1      47.560  26.522  28.054  1.00  0.00    -0.205 F 
ATOM     74  C   UNL A   1      48.825  26.603  24.624  1.00  0.00     0.022 A 
BRANCH  72  75
ATOM     75  S   UNL A   1      50.253  25.731  26.797  1.00  0.00     0.127 S 
ATOM     76  O   UNL A   1      49.758  24.480  27.364  1.00  0.00    -0.237 OA
ATOM     77  O   UNL A   1      51.162  25.576  25.660  1.00  0.00    -0.237 OA
ATOM     78  O   UNL A   1      50.667  26.746  27.756  1.00  0.00    -0.744 OA
ENDBRANCH  72  75
ENDBRANCH  44  68
BRANCH  56  79
ATOM     79  C   UNL A   1      45.125  33.437  29.312  1.00  0.00     0.023 A 
ATOM     80  C   UNL A   1      45.941  33.601  30.449  1.00  0.00     0.012 A 
ATOM     81  C   UNL A   1      45.083  34.450  28.336  1.00  0.00     0.148 A 
ATOM     82  C   UNL A   1      46.675  34.773  30.630  1.00  0.00     0.002 A 
ATOM     83  C   UNL A   1      45.856  35.593  28.497  1.00  0.00     0.091 A 
ATOM     84  F   UNL A   1      44.282  34.282  27.274  1.00  0.00    -0.205 F 
ATOM     85  C   UNL A   1      46.640  35.762  29.649  1.00  0.00     0.022 A 
BRANCH  83  86
ATOM     86  S   UNL A   1      45.945  36.874  27.243  1.00  0.00     0.127 S 
ATOM     87  O   UNL A   1      46.439  36.125  26.088  1.00  0.00    -0.237 OA
ATOM     88  O   UNL A   1      44.550  37.305  27.140  1.00  0.00    -0.237 OA
ATOM     89  O   UNL A   1      46.852  37.886  27.767  1.00  0.00    -0.744 OA
ENDBRANCH  83  86
ENDBRANCH  56  79
ENDBRANCH  30  31
ENDBRANCH  23  25
ENDBRANCH  22  23
ENDBRANCH  21  22
ENDBRANCH   1  21
TORSDOF 18
ENDMDL
