MODEL 1
REMARK VINA RESULT:     -12.3      0.000      0.000
REMARK SMILES CCOc1cc2c(cc1/C=C1/C(=O)N(c3cccc(C(=O)OCCOC(=O)c4ccc(-c5c6nc(c(-c7cccc(S(=O)(=O)[O-])c7F)c7ccc([nH]7)c(-c7cccc(S(=O)(=O)[O-])c7F)c7nc(c(-c8cccc(S(=O)(=O)[O-])c8F)c8ccc5[nH]8)C=C7)C=C6)cc4)c3)C(=S)N=C1O)OCO2
REMARK SMILES IDX 23 1 22 2 20 3 21 4 19 5 15 6 16 7 91 8 17 9 18 10 14 11
REMARK SMILES IDX 10 12 11 13 12 14 95 15 13 16 94 17 92 18 93 19 9 20 4 21
REMARK SMILES IDX 5 22 6 23 8 24 7 25 99 26 97 27 98 28 3 29 2 30 1 31 96 32
REMARK SMILES IDX 24 34 25 35 26 36 27 37 28 38 29 39 90 40 30 41 89 42 31 43
REMARK SMILES IDX 32 44 33 45 83 46 34 47 88 48 82 49 84 50 35 51 87 52 81 53
REMARK SMILES IDX 80 54 36 56 68 57 48 58 67 59 49 60 52 61 66 62 85 63 50 64
REMARK SMILES IDX 51 65 65 67 86 68 53 69 37 70 38 71 46 72 39 73 41 74 47 75
REMARK SMILES IDX 40 76 42 77 43 78 44 79 45 80 69 81 70 82 78 83 71 84 73 85
REMARK SMILES IDX 79 86 72 87 74 88 75 89 76 90 77 91 54 92 55 93 63 94 56 95
REMARK SMILES IDX 58 96 64 97 57 98 59 99 60 100 61 101 62 102
REMARK H PARENT 96 33 84 55 52 66
REMARK Flexibility Score: inf
ROOT
ATOM      1  C   UNL A   1      32.641  31.409  27.494  1.00  0.00     0.275 C 
ENDROOT
BRANCH   1   2
ATOM      2  O   UNL A   1      32.576  30.887  26.153  1.00  0.00    -0.458 OA
BRANCH   2   3
ATOM      3  C   UNL A   1      31.341  30.828  25.586  1.00  0.00     0.338 C 
ATOM      4  O   UNL A   1      30.494  31.696  25.594  1.00  0.00    -0.246 OA
BRANCH   3   5
ATOM      5  C   UNL A   1      31.205  29.561  24.824  1.00  0.00     0.062 A 
ATOM      6  C   UNL A   1      31.817  27.255  24.435  1.00  0.00     0.052 A 
ATOM      7  C   UNL A   1      30.976  27.223  23.311  1.00  0.00     0.027 A 
ATOM      8  C   UNL A   1      31.959  28.442  25.164  1.00  0.00     0.042 A 
ATOM      9  C   UNL A   1      30.209  28.336  22.982  1.00  0.00     0.003 A 
ATOM     10  C   UNL A   1      30.286  29.482  23.770  1.00  0.00     0.016 A 
BRANCH   6  11
ATOM     11  N   UNL A   1      32.384  26.039  24.935  1.00  0.00    -0.251 N 
ATOM     12  C   UNL A   1      35.519  24.196  24.687  1.00  0.00     0.031 C 
ATOM     13  C   UNL A   1      34.343  24.611  25.209  1.00  0.00     0.103 C 
ATOM     14  C   UNL A   1      33.727  25.815  24.587  1.00  0.00     0.270 C 
ATOM     15  C   UNL A   1      33.568  24.071  26.321  1.00  0.00     0.226 C 
ATOM     16  O   UNL A   1      34.399  26.536  23.849  1.00  0.00    -0.268 OA
ATOM     17  N   UNL A   1      32.346  24.321  26.598  1.00  0.00    -0.184 NA
ATOM     18  C   UNL A   1      31.653  25.196  25.795  1.00  0.00     0.210 C 
ATOM     19  S   UNL A   1      29.956  25.160  25.882  1.00  0.00    -0.038 S 
BRANCH  12  20
ATOM     20  C   UNL A   1      36.368  23.052  25.074  1.00  0.00     0.021 A 
ATOM     21  C   UNL A   1      35.957  21.714  24.833  1.00  0.00     0.130 A 
ATOM     22  C   UNL A   1      36.844  20.644  24.994  1.00  0.00     0.097 A 
ATOM     23  C   UNL A   1      38.092  20.921  25.495  1.00  0.00     0.169 A 
ATOM     24  C   UNL A   1      37.604  23.266  25.702  1.00  0.00     0.062 A 
ATOM     25  C   UNL A   1      38.452  22.192  25.861  1.00  0.00     0.166 A 
ATOM     26  O   UNL A   1      39.092  20.021  25.688  1.00  0.00    -0.453 OA
ATOM     27  O   UNL A   1      39.724  22.256  26.336  1.00  0.00    -0.454 OA
ATOM     28  C   UNL A   1      40.153  20.896  26.122  1.00  0.00     0.468 C 
BRANCH  21  29
ATOM     29  O   UNL A   1      34.700  21.430  24.356  1.00  0.00    -0.493 OA
BRANCH  29  30
ATOM     30  C   UNL A   1      34.141  20.265  24.992  1.00  0.00     0.226 C 
ATOM     31  C   UNL A   1      32.886  19.764  24.287  1.00  0.00     0.049 C 
ENDBRANCH  29  30
ENDBRANCH  21  29
ENDBRANCH  12  20
BRANCH  15  32
ATOM     32  O   UNL A   1      34.203  23.274  27.180  1.00  0.00    -0.493 OA
ATOM     33  H   UNL A   1      34.492  22.425  26.908  1.00  0.00     0.295 HD
ENDBRANCH  15  32
ENDBRANCH   6  11
ENDBRANCH   3   5
ENDBRANCH   2   3
ENDBRANCH   1   2
BRANCH   1  34
ATOM     34  C   UNL A   1      33.440  32.712  27.528  1.00  0.00     0.275 C 
BRANCH  34  35
ATOM     35  O   UNL A   1      32.619  33.783  28.022  1.00  0.00    -0.458 OA
BRANCH  35  36
ATOM     36  C   UNL A   1      33.193  34.584  28.948  1.00  0.00     0.338 C 
ATOM     37  O   UNL A   1      32.738  35.604  29.436  1.00  0.00    -0.246 OA
BRANCH  36  38
ATOM     38  C   UNL A   1      34.459  33.981  29.389  1.00  0.00     0.060 A 
ATOM     39  C   UNL A   1      34.402  33.018  30.388  1.00  0.00     0.016 A 
ATOM     40  C   UNL A   1      35.690  34.435  28.928  1.00  0.00     0.016 A 
ATOM     41  C   UNL A   1      35.561  32.569  31.010  1.00  0.00     0.010 A 
ATOM     42  C   UNL A   1      36.862  33.891  29.470  1.00  0.00     0.010 A 
ATOM     43  C   UNL A   1      36.814  32.972  30.537  1.00  0.00    -0.014 A 
BRANCH  43  44
ATOM     44  C   UNL A   1      38.059  32.422  31.146  1.00  0.00     0.031 A 
ATOM     45  C   UNL A   1      38.783  31.273  30.494  1.00  0.00     0.074 A 
ATOM     46  C   UNL A   1      38.530  32.934  32.303  1.00  0.00     0.049 A 
ATOM     47  N   UNL A   1      39.752  30.533  30.966  1.00  0.00    -0.248 NA
ATOM     48  C   UNL A   1      38.349  30.896  29.138  1.00  0.00     0.031 C 
ATOM     49  C   UNL A   1      37.945  34.062  33.034  1.00  0.00     0.029 A 
ATOM     50  N   UNL A   1      39.598  32.560  33.084  1.00  0.00    -0.354 N 
ATOM     51  C   UNL A   1      39.988  29.555  30.007  1.00  0.00     0.074 A 
ATOM     52  C   UNL A   1      39.071  29.806  28.916  1.00  0.00     0.031 C 
ATOM     53  C   UNL A   1      38.661  34.293  34.143  1.00  0.00     0.029 A 
ATOM     54  C   UNL A   1      39.693  33.271  34.259  1.00  0.00     0.049 A 
ATOM     55  H   UNL A   1      40.234  31.852  32.828  1.00  0.00     0.167 HD
ATOM     56  C   UNL A   1      40.888  28.542  30.033  1.00  0.00     0.034 A 
ATOM     57  C   UNL A   1      40.472  33.091  35.344  1.00  0.00     0.034 A 
ATOM     58  C   UNL A   1      41.840  28.338  31.093  1.00  0.00     0.049 A 
ATOM     59  C   UNL A   1      41.447  31.949  35.356  1.00  0.00     0.074 A 
ATOM     60  C   UNL A   1      42.832  27.377  31.182  1.00  0.00     0.029 A 
ATOM     61  N   UNL A   1      41.920  29.103  32.246  1.00  0.00    -0.354 N 
ATOM     62  N   UNL A   1      41.697  31.070  34.416  1.00  0.00    -0.248 NA
ATOM     63  C   UNL A   1      42.252  31.775  36.572  1.00  0.00     0.031 C 
ATOM     64  C   UNL A   1      43.490  27.542  32.405  1.00  0.00     0.029 A 
ATOM     65  C   UNL A   1      42.931  28.626  33.063  1.00  0.00     0.049 A 
ATOM     66  H   UNL A   1      41.342  29.874  32.454  1.00  0.00     0.167 HD
ATOM     67  C   UNL A   1      42.701  30.252  34.919  1.00  0.00     0.074 A 
ATOM     68  C   UNL A   1      43.033  30.758  36.235  1.00  0.00     0.031 C 
ATOM     69  C   UNL A   1      43.282  29.167  34.349  1.00  0.00     0.034 A 
BRANCH  56  70
ATOM     70  C   UNL A   1      40.894  27.570  28.881  1.00  0.00     0.023 A 
ATOM     71  C   UNL A   1      39.920  26.555  28.805  1.00  0.00     0.012 A 
ATOM     72  C   UNL A   1      41.830  27.708  27.835  1.00  0.00     0.148 A 
ATOM     73  C   UNL A   1      39.897  25.672  27.725  1.00  0.00     0.002 A 
ATOM     74  C   UNL A   1      41.771  26.855  26.740  1.00  0.00     0.091 A 
ATOM     75  F   UNL A   1      42.760  28.669  27.932  1.00  0.00    -0.205 F 
ATOM     76  C   UNL A   1      40.815  25.828  26.689  1.00  0.00     0.022 A 
BRANCH  74  77
ATOM     77  S   UNL A   1      42.856  27.026  25.317  1.00  0.00     0.127 S 
ATOM     78  O   UNL A   1      42.654  25.748  24.636  1.00  0.00    -0.237 OA
ATOM     79  O   UNL A   1      42.279  28.181  24.628  1.00  0.00    -0.237 OA
ATOM     80  O   UNL A   1      44.193  27.243  25.853  1.00  0.00    -0.744 OA
ENDBRANCH  74  77
ENDBRANCH  56  70
BRANCH  57  81
ATOM     81  C   UNL A   1      40.341  34.005  36.514  1.00  0.00     0.023 A 
ATOM     82  C   UNL A   1      40.843  35.317  36.433  1.00  0.00     0.012 A 
ATOM     83  C   UNL A   1      39.689  33.592  37.695  1.00  0.00     0.148 A 
ATOM     84  C   UNL A   1      40.717  36.195  37.510  1.00  0.00     0.002 A 
ATOM     85  C   UNL A   1      39.510  34.492  38.739  1.00  0.00     0.091 A 
ATOM     86  F   UNL A   1      39.236  32.333  37.764  1.00  0.00    -0.205 F 
ATOM     87  C   UNL A   1      40.040  35.787  38.656  1.00  0.00     0.022 A 
BRANCH  85  88
ATOM     88  S   UNL A   1      38.528  34.096  40.190  1.00  0.00     0.127 S 
ATOM     89  O   UNL A   1      39.433  33.226  40.937  1.00  0.00    -0.237 OA
ATOM     90  O   UNL A   1      38.318  35.418  40.782  1.00  0.00    -0.237 OA
ATOM     91  O   UNL A   1      37.316  33.467  39.686  1.00  0.00    -0.744 OA
ENDBRANCH  85  88
ENDBRANCH  57  81
BRANCH  69  92
ATOM     92  C   UNL A   1      44.362  28.467  35.130  1.00  0.00     0.023 A 
ATOM     93  C   UNL A   1      45.714  28.794  34.902  1.00  0.00     0.012 A 
ATOM     94  C   UNL A   1      44.033  27.547  36.144  1.00  0.00     0.148 A 
ATOM     95  C   UNL A   1      46.723  28.194  35.653  1.00  0.00     0.002 A 
ATOM     96  C   UNL A   1      45.040  26.991  36.922  1.00  0.00     0.091 A 
ATOM     97  F   UNL A   1      42.740  27.239  36.331  1.00  0.00    -0.205 F 
ATOM     98  C   UNL A   1      46.385  27.304  36.671  1.00  0.00     0.022 A 
BRANCH  96  99
ATOM     99  S   UNL A   1      44.698  25.910  38.315  1.00  0.00     0.127 S 
ATOM    100  O   UNL A   1      44.136  24.735  37.649  1.00  0.00    -0.237 OA
ATOM    101  O   UNL A   1      46.031  25.710  38.884  1.00  0.00    -0.237 OA
ATOM    102  O   UNL A   1      43.774  26.637  39.175  1.00  0.00    -0.744 OA
ENDBRANCH  96  99
ENDBRANCH  69  92
ENDBRANCH  43  44
ENDBRANCH  36  38
ENDBRANCH  35  36
ENDBRANCH  34  35
ENDBRANCH   1  34
TORSDOF 19
ENDMDL
MODEL 2
REMARK VINA RESULT:     -12.1      5.311      9.489
REMARK SMILES CCOc1cc2c(cc1/C=C1/C(=O)N(c3cccc(C(=O)OCCOC(=O)c4ccc(-c5c6nc(c(-c7cccc(S(=O)(=O)[O-])c7F)c7ccc([nH]7)c(-c7cccc(S(=O)(=O)[O-])c7F)c7nc(c(-c8cccc(S(=O)(=O)[O-])c8F)c8ccc5[nH]8)C=C7)C=C6)cc4)c3)C(=S)N=C1O)OCO2
REMARK SMILES IDX 23 1 22 2 20 3 21 4 19 5 15 6 16 7 91 8 17 9 18 10 14 11
REMARK SMILES IDX 10 12 11 13 12 14 95 15 13 16 94 17 92 18 93 19 9 20 4 21
REMARK SMILES IDX 5 22 6 23 8 24 7 25 99 26 97 27 98 28 3 29 2 30 1 31 96 32
REMARK SMILES IDX 24 34 25 35 26 36 27 37 28 38 29 39 90 40 30 41 89 42 31 43
REMARK SMILES IDX 32 44 33 45 83 46 34 47 88 48 82 49 84 50 35 51 87 52 81 53
REMARK SMILES IDX 80 54 36 56 68 57 48 58 67 59 49 60 52 61 66 62 85 63 50 64
REMARK SMILES IDX 51 65 65 67 86 68 53 69 37 70 38 71 46 72 39 73 41 74 47 75
REMARK SMILES IDX 40 76 42 77 43 78 44 79 45 80 69 81 70 82 78 83 71 84 73 85
REMARK SMILES IDX 79 86 72 87 74 88 75 89 76 90 77 91 54 92 55 93 63 94 56 95
REMARK SMILES IDX 58 96 64 97 57 98 59 99 60 100 61 101 62 102
REMARK H PARENT 96 33 84 55 52 66
REMARK Flexibility Score: inf
ROOT
ATOM      1  C   UNL A   1      37.921  21.220  25.422  1.00  0.00     0.275 C 
ENDROOT
BRANCH   1   2
ATOM      2  O   UNL A   1      36.948  20.794  24.449  1.00  0.00    -0.458 OA
BRANCH   2   3
ATOM      3  C   UNL A   1      36.295  19.631  24.716  1.00  0.00     0.338 C 
ATOM      4  O   UNL A   1      36.795  18.559  24.985  1.00  0.00    -0.246 OA
BRANCH   3   5
ATOM      5  C   UNL A   1      34.832  19.882  24.756  1.00  0.00     0.062 A 
ATOM      6  C   UNL A   1      32.946  21.294  25.293  1.00  0.00     0.052 A 
ATOM      7  C   UNL A   1      32.069  20.277  24.886  1.00  0.00     0.027 A 
ATOM      8  C   UNL A   1      34.328  21.075  25.264  1.00  0.00     0.042 A 
ATOM      9  C   UNL A   1      32.572  19.091  24.362  1.00  0.00     0.003 A 
ATOM     10  C   UNL A   1      33.950  18.918  24.249  1.00  0.00     0.016 A 
BRANCH   6  11
ATOM     11  N   UNL A   1      32.437  22.606  25.564  1.00  0.00    -0.251 N 
ATOM     12  C   UNL A   1      31.206  25.486  23.699  1.00  0.00     0.031 C 
ATOM     13  C   UNL A   1      31.370  24.639  24.740  1.00  0.00     0.103 C 
ATOM     14  C   UNL A   1      32.006  23.328  24.438  1.00  0.00     0.270 C 
ATOM     15  C   UNL A   1      30.999  24.795  26.143  1.00  0.00     0.226 C 
ATOM     16  O   UNL A   1      32.099  22.946  23.271  1.00  0.00    -0.268 OA
ATOM     17  N   UNL A   1      31.416  24.098  27.129  1.00  0.00    -0.184 NA
ATOM     18  C   UNL A   1      32.300  23.073  26.886  1.00  0.00     0.210 C 
ATOM     19  S   UNL A   1      33.187  22.476  28.207  1.00  0.00    -0.038 S 
BRANCH  12  20
ATOM     20  C   UNL A   1      30.618  26.839  23.671  1.00  0.00     0.021 A 
ATOM     21  C   UNL A   1      31.427  27.997  23.818  1.00  0.00     0.130 A 
ATOM     22  C   UNL A   1      30.914  29.275  23.574  1.00  0.00     0.097 A 
ATOM     23  C   UNL A   1      29.574  29.380  23.292  1.00  0.00     0.169 A 
ATOM     24  C   UNL A   1      29.236  27.009  23.508  1.00  0.00     0.062 A 
ATOM     25  C   UNL A   1      28.754  28.281  23.284  1.00  0.00     0.166 A 
ATOM     26  O   UNL A   1      28.908  30.527  22.997  1.00  0.00    -0.453 OA
ATOM     27  O   UNL A   1      27.466  28.595  22.987  1.00  0.00    -0.454 OA
ATOM     28  C   UNL A   1      27.597  30.003  22.704  1.00  0.00     0.468 C 
BRANCH  21  29
ATOM     29  O   UNL A   1      32.763  27.898  24.125  1.00  0.00    -0.493 OA
BRANCH  29  30
ATOM     30  C   UNL A   1      33.135  28.810  25.176  1.00  0.00     0.226 C 
ATOM     31  C   UNL A   1      33.576  28.088  26.444  1.00  0.00     0.049 C 
ENDBRANCH  29  30
ENDBRANCH  21  29
ENDBRANCH  12  20
BRANCH  15  32
ATOM     32  O   UNL A   1      30.089  25.723  26.436  1.00  0.00    -0.493 OA
ATOM     33  H   UNL A   1      30.349  26.615  26.557  1.00  0.00     0.295 HD
ENDBRANCH  15  32
ENDBRANCH   6  11
ENDBRANCH   3   5
ENDBRANCH   2   3
ENDBRANCH   1   2
BRANCH   1  34
ATOM     34  C   UNL A   1      38.918  20.099  25.715  1.00  0.00     0.275 C 
BRANCH  34  35
ATOM     35  O   UNL A   1      40.240  20.643  25.872  1.00  0.00    -0.458 OA
BRANCH  35  36
ATOM     36  C   UNL A   1      40.693  20.727  27.143  1.00  0.00     0.338 C 
ATOM     37  O   UNL A   1      40.927  19.812  27.913  1.00  0.00    -0.246 OA
BRANCH  36  38
ATOM     38  C   UNL A   1      40.979  22.134  27.460  1.00  0.00     0.060 A 
ATOM     39  C   UNL A   1      40.499  23.104  26.589  1.00  0.00     0.016 A 
ATOM     40  C   UNL A   1      41.806  22.496  28.517  1.00  0.00     0.016 A 
ATOM     41  C   UNL A   1      40.913  24.425  26.697  1.00  0.00     0.010 A 
ATOM     42  C   UNL A   1      42.126  23.848  28.700  1.00  0.00     0.010 A 
ATOM     43  C   UNL A   1      41.707  24.827  27.777  1.00  0.00    -0.014 A 
BRANCH  43  44
ATOM     44  C   UNL A   1      42.080  26.261  27.942  1.00  0.00     0.031 A 
ATOM     45  C   UNL A   1      43.446  26.745  27.530  1.00  0.00     0.074 A 
ATOM     46  C   UNL A   1      41.203  27.130  28.487  1.00  0.00     0.049 A 
ATOM     47  N   UNL A   1      44.024  27.893  27.774  1.00  0.00    -0.248 NA
ATOM     48  C   UNL A   1      44.278  25.810  26.754  1.00  0.00     0.031 C 
ATOM     49  C   UNL A   1      39.838  26.807  28.911  1.00  0.00     0.029 A 
ATOM     50  N   UNL A   1      41.334  28.463  28.802  1.00  0.00    -0.354 N 
ATOM     51  C   UNL A   1      45.311  27.789  27.260  1.00  0.00     0.074 A 
ATOM     52  C   UNL A   1      45.424  26.472  26.672  1.00  0.00     0.031 C 
ATOM     53  C   UNL A   1      39.257  27.904  29.418  1.00  0.00     0.029 A 
ATOM     54  C   UNL A   1      40.236  28.982  29.451  1.00  0.00     0.049 A 
ATOM     55  H   UNL A   1      42.134  28.994  28.586  1.00  0.00     0.167 HD
ATOM     56  C   UNL A   1      46.305  28.710  27.274  1.00  0.00     0.034 A 
ATOM     57  C   UNL A   1      40.048  30.166  30.066  1.00  0.00     0.034 A 
ATOM     58  C   UNL A   1      46.163  30.041  27.803  1.00  0.00     0.049 A 
ATOM     59  C   UNL A   1      41.173  31.161  30.086  1.00  0.00     0.074 A 
ATOM     60  C   UNL A   1      47.093  31.066  27.809  1.00  0.00     0.029 A 
ATOM     61  N   UNL A   1      45.023  30.532  28.419  1.00  0.00    -0.354 N 
ATOM     62  N   UNL A   1      42.362  31.069  29.542  1.00  0.00    -0.248 NA
ATOM     63  C   UNL A   1      40.931  32.424  30.795  1.00  0.00     0.031 C 
ATOM     64  C   UNL A   1      46.525  32.166  28.459  1.00  0.00     0.029 A 
ATOM     65  C   UNL A   1      45.231  31.840  28.827  1.00  0.00     0.049 A 
ATOM     66  H   UNL A   1      44.188  30.026  28.548  1.00  0.00     0.167 HD
ATOM     67  C   UNL A   1      43.003  32.268  29.827  1.00  0.00     0.074 A 
ATOM     68  C   UNL A   1      42.059  33.082  30.565  1.00  0.00     0.031 C 
ATOM     69  C   UNL A   1      44.267  32.653  29.520  1.00  0.00     0.034 A 
BRANCH  56  70
ATOM     70  C   UNL A   1      47.642  28.317  26.699  1.00  0.00     0.023 A 
ATOM     71  C   UNL A   1      48.751  28.130  27.547  1.00  0.00     0.012 A 
ATOM     72  C   UNL A   1      47.780  28.068  25.318  1.00  0.00     0.148 A 
ATOM     73  C   UNL A   1      49.983  27.733  27.028  1.00  0.00     0.002 A 
ATOM     74  C   UNL A   1      48.998  27.628  24.814  1.00  0.00     0.091 A 
ATOM     75  F   UNL A   1      46.719  28.269  24.523  1.00  0.00    -0.205 F 
ATOM     76  C   UNL A   1      50.105  27.472  25.665  1.00  0.00     0.022 A 
BRANCH  74  77
ATOM     77  S   UNL A   1      49.233  27.187  23.087  1.00  0.00     0.127 S 
ATOM     78  O   UNL A   1      48.355  26.026  22.957  1.00  0.00    -0.237 OA
ATOM     79  O   UNL A   1      48.760  28.388  22.397  1.00  0.00    -0.237 OA
ATOM     80  O   UNL A   1      50.655  26.916  22.930  1.00  0.00    -0.744 OA
ENDBRANCH  74  77
ENDBRANCH  56  70
BRANCH  57  81
ATOM     81  C   UNL A   1      38.748  30.461  30.733  1.00  0.00     0.023 A 
ATOM     82  C   UNL A   1      38.563  30.109  32.084  1.00  0.00     0.012 A 
ATOM     83  C   UNL A   1      37.707  31.119  30.047  1.00  0.00     0.148 A 
ATOM     84  C   UNL A   1      37.360  30.389  32.733  1.00  0.00     0.002 A 
ATOM     85  C   UNL A   1      36.536  31.452  30.718  1.00  0.00     0.091 A 
ATOM     86  F   UNL A   1      37.891  31.428  28.756  1.00  0.00    -0.205 F 
ATOM     87  C   UNL A   1      36.353  31.071  32.055  1.00  0.00     0.022 A 
BRANCH  85  88
ATOM     88  S   UNL A   1      35.249  32.454  29.965  1.00  0.00     0.127 S 
ATOM     89  O   UNL A   1      34.768  31.575  28.902  1.00  0.00    -0.237 OA
ATOM     90  O   UNL A   1      34.318  32.637  31.080  1.00  0.00    -0.237 OA
ATOM     91  O   UNL A   1      35.907  33.677  29.528  1.00  0.00    -0.744 OA
ENDBRANCH  85  88
ENDBRANCH  57  81
BRANCH  69  92
ATOM     92  C   UNL A   1      44.698  34.029  29.953  1.00  0.00     0.023 A 
ATOM     93  C   UNL A   1      45.480  34.185  31.115  1.00  0.00     0.012 A 
ATOM     94  C   UNL A   1      44.398  35.157  29.163  1.00  0.00     0.148 A 
ATOM     95  C   UNL A   1      45.932  35.445  31.500  1.00  0.00     0.002 A 
ATOM     96  C   UNL A   1      44.894  36.402  29.526  1.00  0.00     0.091 A 
ATOM     97  F   UNL A   1      43.638  34.986  28.071  1.00  0.00    -0.205 F 
ATOM     98  C   UNL A   1      45.651  36.550  30.699  1.00  0.00     0.022 A 
BRANCH  96  99
ATOM     99  S   UNL A   1      44.666  37.865  28.509  1.00  0.00     0.127 S 
ATOM    100  O   UNL A   1      45.581  38.814  29.144  1.00  0.00    -0.237 OA
ATOM    101  O   UNL A   1      45.092  37.395  27.191  1.00  0.00    -0.237 OA
ATOM    102  O   UNL A   1      43.254  38.208  28.604  1.00  0.00    -0.744 OA
ENDBRANCH  96  99
ENDBRANCH  69  92
ENDBRANCH  43  44
ENDBRANCH  36  38
ENDBRANCH  35  36
ENDBRANCH  34  35
ENDBRANCH   1  34
TORSDOF 19
ENDMDL
MODEL 3
REMARK VINA RESULT:     -12.1      5.135     11.435
REMARK SMILES CCOc1cc2c(cc1/C=C1/C(=O)N(c3cccc(C(=O)OCCOC(=O)c4ccc(-c5c6nc(c(-c7cccc(S(=O)(=O)[O-])c7F)c7ccc([nH]7)c(-c7cccc(S(=O)(=O)[O-])c7F)c7nc(c(-c8cccc(S(=O)(=O)[O-])c8F)c8ccc5[nH]8)C=C7)C=C6)cc4)c3)C(=S)N=C1O)OCO2
REMARK SMILES IDX 23 1 22 2 20 3 21 4 19 5 15 6 16 7 91 8 17 9 18 10 14 11
REMARK SMILES IDX 10 12 11 13 12 14 95 15 13 16 94 17 92 18 93 19 9 20 4 21
REMARK SMILES IDX 5 22 6 23 8 24 7 25 99 26 97 27 98 28 3 29 2 30 1 31 96 32
REMARK SMILES IDX 24 34 25 35 26 36 27 37 28 38 29 39 90 40 30 41 89 42 31 43
REMARK SMILES IDX 32 44 33 45 83 46 34 47 88 48 82 49 84 50 35 51 87 52 81 53
REMARK SMILES IDX 80 54 36 56 68 57 48 58 67 59 49 60 52 61 66 62 85 63 50 64
REMARK SMILES IDX 51 65 65 67 86 68 53 69 37 70 38 71 46 72 39 73 41 74 47 75
REMARK SMILES IDX 40 76 42 77 43 78 44 79 45 80 69 81 70 82 78 83 71 84 73 85
REMARK SMILES IDX 79 86 72 87 74 88 75 89 76 90 77 91 54 92 55 93 63 94 56 95
REMARK SMILES IDX 58 96 64 97 57 98 59 99 60 100 61 101 62 102
REMARK H PARENT 96 33 84 55 52 66
REMARK Flexibility Score: inf
ROOT
ATOM      1  C   UNL A   1      38.700  20.654  24.991  1.00  0.00     0.275 C 
ENDROOT
BRANCH   1   2
ATOM      2  O   UNL A   1      37.322  20.989  25.250  1.00  0.00    -0.458 OA
BRANCH   2   3
ATOM      3  C   UNL A   1      36.404  20.021  24.982  1.00  0.00     0.338 C 
ATOM      4  O   UNL A   1      36.596  18.824  24.950  1.00  0.00    -0.246 OA
BRANCH   3   5
ATOM      5  C   UNL A   1      35.061  20.637  24.846  1.00  0.00     0.062 A 
ATOM      6  C   UNL A   1      33.629  22.583  24.750  1.00  0.00     0.052 A 
ATOM      7  C   UNL A   1      32.503  21.750  24.667  1.00  0.00     0.027 A 
ATOM      8  C   UNL A   1      34.904  22.020  24.881  1.00  0.00     0.042 A 
ATOM      9  C   UNL A   1      32.660  20.368  24.614  1.00  0.00     0.003 A 
ATOM     10  C   UNL A   1      33.940  19.819  24.650  1.00  0.00     0.016 A 
BRANCH   6  11
ATOM     11  N   UNL A   1      33.492  23.990  24.523  1.00  0.00    -0.251 N 
ATOM     12  C   UNL A   1      33.220  27.050  26.486  1.00  0.00     0.031 C 
ATOM     13  C   UNL A   1      33.491  26.257  25.425  1.00  0.00     0.103 C 
ATOM     14  C   UNL A   1      33.514  24.791  25.678  1.00  0.00     0.270 C 
ATOM     15  C   UNL A   1      33.790  26.613  24.041  1.00  0.00     0.226 C 
ATOM     16  O   UNL A   1      33.570  24.368  26.833  1.00  0.00    -0.268 OA
ATOM     17  N   UNL A   1      33.767  25.836  23.027  1.00  0.00    -0.184 NA
ATOM     18  C   UNL A   1      33.440  24.514  23.215  1.00  0.00     0.210 C 
ATOM     19  S   UNL A   1      32.961  23.624  21.849  1.00  0.00    -0.038 S 
BRANCH  12  20
ATOM     20  C   UNL A   1      33.125  28.520  26.561  1.00  0.00     0.021 A 
ATOM     21  C   UNL A   1      31.995  29.213  26.050  1.00  0.00     0.130 A 
ATOM     22  C   UNL A   1      31.799  30.573  26.314  1.00  0.00     0.097 A 
ATOM     23  C   UNL A   1      32.789  31.239  26.993  1.00  0.00     0.169 A 
ATOM     24  C   UNL A   1      34.161  29.270  27.136  1.00  0.00     0.062 A 
ATOM     25  C   UNL A   1      33.948  30.611  27.371  1.00  0.00     0.166 A 
ATOM     26  O   UNL A   1      32.761  32.546  27.366  1.00  0.00    -0.453 OA
ATOM     27  O   UNL A   1      34.800  31.442  28.027  1.00  0.00    -0.454 OA
ATOM     28  C   UNL A   1      33.993  32.634  28.110  1.00  0.00     0.468 C 
BRANCH  21  29
ATOM     29  O   UNL A   1      31.014  28.555  25.348  1.00  0.00    -0.493 OA
BRANCH  29  30
ATOM     30  C   UNL A   1      30.842  29.110  24.030  1.00  0.00     0.226 C 
ATOM     31  C   UNL A   1      29.809  28.348  23.209  1.00  0.00     0.049 C 
ENDBRANCH  29  30
ENDBRANCH  21  29
ENDBRANCH  12  20
BRANCH  15  32
ATOM     32  O   UNL A   1      34.186  27.863  23.802  1.00  0.00    -0.493 OA
ATOM     33  H   UNL A   1      33.653  28.584  24.074  1.00  0.00     0.295 HD
ENDBRANCH  15  32
ENDBRANCH   6  11
ENDBRANCH   3   5
ENDBRANCH   2   3
ENDBRANCH   1   2
BRANCH   1  34
ATOM     34  C   UNL A   1      39.570  20.969  26.207  1.00  0.00     0.275 C 
BRANCH  34  35
ATOM     35  O   UNL A   1      40.404  19.842  26.523  1.00  0.00    -0.458 OA
BRANCH  35  36
ATOM     36  C   UNL A   1      41.645  19.861  25.985  1.00  0.00     0.338 C 
ATOM     37  O   UNL A   1      42.152  19.031  25.251  1.00  0.00    -0.246 OA
BRANCH  36  38
ATOM     38  C   UNL A   1      42.303  21.128  26.337  1.00  0.00     0.060 A 
ATOM     39  C   UNL A   1      42.511  21.396  27.684  1.00  0.00     0.016 A 
ATOM     40  C   UNL A   1      42.598  22.094  25.381  1.00  0.00     0.016 A 
ATOM     41  C   UNL A   1      42.919  22.655  28.104  1.00  0.00     0.010 A 
ATOM     42  C   UNL A   1      43.126  23.324  25.796  1.00  0.00     0.010 A 
ATOM     43  C   UNL A   1      43.267  23.632  27.163  1.00  0.00    -0.014 A 
BRANCH  43  44
ATOM     44  C   UNL A   1      43.788  24.955  27.613  1.00  0.00     0.031 A 
ATOM     45  C   UNL A   1      42.846  26.004  28.142  1.00  0.00     0.074 A 
ATOM     46  C   UNL A   1      45.107  25.229  27.521  1.00  0.00     0.049 A 
ATOM     47  N   UNL A   1      43.072  27.268  28.389  1.00  0.00    -0.248 NA
ATOM     48  C   UNL A   1      41.462  25.581  28.414  1.00  0.00     0.031 C 
ATOM     49  C   UNL A   1      46.138  24.301  27.050  1.00  0.00     0.029 A 
ATOM     50  N   UNL A   1      45.808  26.379  27.800  1.00  0.00    -0.354 N 
ATOM     51  C   UNL A   1      41.849  27.809  28.764  1.00  0.00     0.074 A 
ATOM     52  C   UNL A   1      40.884  26.732  28.729  1.00  0.00     0.031 C 
ATOM     53  C   UNL A   1      47.332  24.909  27.081  1.00  0.00     0.029 A 
ATOM     54  C   UNL A   1      47.144  26.298  27.475  1.00  0.00     0.049 A 
ATOM     55  H   UNL A   1      45.395  27.182  28.194  1.00  0.00     0.167 HD
ATOM     56  C   UNL A   1      41.557  29.087  29.108  1.00  0.00     0.034 A 
ATOM     57  C   UNL A   1      48.103  27.243  27.431  1.00  0.00     0.034 A 
ATOM     58  C   UNL A   1      42.535  30.139  29.203  1.00  0.00     0.049 A 
ATOM     59  C   UNL A   1      47.749  28.656  27.796  1.00  0.00     0.074 A 
ATOM     60  C   UNL A   1      42.349  31.451  29.601  1.00  0.00     0.029 A 
ATOM     61  N   UNL A   1      43.880  30.002  28.896  1.00  0.00    -0.354 N 
ATOM     62  N   UNL A   1      46.601  29.137  28.205  1.00  0.00    -0.248 NA
ATOM     63  C   UNL A   1      48.822  29.655  27.703  1.00  0.00     0.031 C 
ATOM     64  C   UNL A   1      43.576  32.115  29.503  1.00  0.00     0.029 A 
ATOM     65  C   UNL A   1      44.533  31.210  29.077  1.00  0.00     0.049 A 
ATOM     66  H   UNL A   1      44.308  29.168  28.594  1.00  0.00     0.167 HD
ATOM     67  C   UNL A   1      46.817  30.490  28.437  1.00  0.00     0.074 A 
ATOM     68  C   UNL A   1      48.214  30.745  28.151  1.00  0.00     0.031 C 
ATOM     69  C   UNL A   1      45.933  31.439  28.833  1.00  0.00     0.034 A 
BRANCH  56  70
ATOM     70  C   UNL A   1      40.121  29.429  29.412  1.00  0.00     0.023 A 
ATOM     71  C   UNL A   1      39.227  29.729  28.366  1.00  0.00     0.012 A 
ATOM     72  C   UNL A   1      39.641  29.386  30.738  1.00  0.00     0.148 A 
ATOM     73  C   UNL A   1      37.888  30.013  28.635  1.00  0.00     0.002 A 
ATOM     74  C   UNL A   1      38.296  29.623  30.994  1.00  0.00     0.091 A 
ATOM     75  F   UNL A   1      40.510  29.116  31.723  1.00  0.00    -0.205 F 
ATOM     76  C   UNL A   1      37.421  29.950  29.946  1.00  0.00     0.022 A 
BRANCH  74  77
ATOM     77  S   UNL A   1      37.582  29.487  32.637  1.00  0.00     0.127 S 
ATOM     78  O   UNL A   1      36.225  29.981  32.411  1.00  0.00    -0.237 OA
ATOM     79  O   UNL A   1      37.671  28.048  32.892  1.00  0.00    -0.237 OA
ATOM     80  O   UNL A   1      38.410  30.311  33.506  1.00  0.00    -0.744 OA
ENDBRANCH  74  77
ENDBRANCH  56  70
BRANCH  57  81
ATOM     81  C   UNL A   1      49.484  26.881  27.000  1.00  0.00     0.023 A 
ATOM     82  C   UNL A   1      50.299  26.111  27.851  1.00  0.00     0.012 A 
ATOM     83  C   UNL A   1      49.981  27.264  25.737  1.00  0.00     0.148 A 
ATOM     84  C   UNL A   1      51.589  25.747  27.463  1.00  0.00     0.002 A 
ATOM     85  C   UNL A   1      51.241  26.844  25.331  1.00  0.00     0.091 A 
ATOM     86  F   UNL A   1      49.200  28.015  24.948  1.00  0.00    -0.205 F 
ATOM     87  C   UNL A   1      52.054  26.102  26.200  1.00  0.00     0.022 A 
BRANCH  85  88
ATOM     88  S   UNL A   1      51.862  27.133  23.670  1.00  0.00     0.127 S 
ATOM     89  O   UNL A   1      52.992  26.210  23.607  1.00  0.00    -0.237 OA
ATOM     90  O   UNL A   1      50.712  26.752  22.848  1.00  0.00    -0.237 OA
ATOM     91  O   UNL A   1      52.195  28.549  23.614  1.00  0.00    -0.744 OA
ENDBRANCH  85  88
ENDBRANCH  57  81
BRANCH  69  92
ATOM     92  C   UNL A   1      46.452  32.840  29.013  1.00  0.00     0.023 A 
ATOM     93  C   UNL A   1      46.871  33.274  30.286  1.00  0.00     0.012 A 
ATOM     94  C   UNL A   1      46.600  33.698  27.905  1.00  0.00     0.148 A 
ATOM     95  C   UNL A   1      47.404  34.550  30.459  1.00  0.00     0.002 A 
ATOM     96  C   UNL A   1      47.178  34.949  28.076  1.00  0.00     0.091 A 
ATOM     97  F   UNL A   1      46.179  33.270  26.705  1.00  0.00    -0.205 F 
ATOM     98  C   UNL A   1      47.569  35.381  29.353  1.00  0.00     0.022 A 
BRANCH  96  99
ATOM     99  S   UNL A   1      47.520  36.051  26.699  1.00  0.00     0.127 S 
ATOM    100  O   UNL A   1      48.283  37.115  27.353  1.00  0.00    -0.237 OA
ATOM    101  O   UNL A   1      48.304  35.197  25.807  1.00  0.00    -0.237 OA
ATOM    102  O   UNL A   1      46.223  36.453  26.171  1.00  0.00    -0.744 OA
ENDBRANCH  96  99
ENDBRANCH  69  92
ENDBRANCH  43  44
ENDBRANCH  36  38
ENDBRANCH  35  36
ENDBRANCH  34  35
ENDBRANCH   1  34
TORSDOF 19
ENDMDL
