MODEL 1
REMARK VINA RESULT:     -13.0      0.000      0.000
REMARK SMILES Cc1ccc2c(=O)c3cccc(CC(=O)OCCOC(=O)c4ccc(-c5c6nc(c(-c7cccc(S(=O)(=O)[O-])c7F)c7ccc([nH]7)c(-c7cccc(S(=O)(=O)[O-])c7F)c7nc(c(-c8cccc(S(=O)(=O)[O-])c8F)c8ccc5[nH]8)C=C7)C=C6)cc4)c3oc2c1C
REMARK SMILES IDX 18 1 17 2 16 3 14 4 15 5 13 6 12 7 1 8 2 9 3 10 88 11 4 12
REMARK SMILES IDX 87 13 89 14 5 15 86 16 6 17 85 18 7 19 8 20 9 21 11 22 10 23
REMARK SMILES IDX 19 24 20 25 21 26 22 27 23 28 84 29 24 30 83 31 25 32 26 33
REMARK SMILES IDX 27 34 77 35 28 36 82 37 76 38 78 39 29 40 81 41 75 42 74 43
REMARK SMILES IDX 30 45 62 46 42 47 61 48 43 49 46 50 60 51 79 52 44 53 45 54
REMARK SMILES IDX 59 56 80 57 47 58 31 59 32 60 40 61 33 62 35 63 41 64 34 65
REMARK SMILES IDX 36 66 37 67 38 68 39 69 63 70 64 71 72 72 65 73 67 74 73 75
REMARK SMILES IDX 66 76 68 77 69 78 70 79 71 80 48 81 49 82 57 83 50 84 52 85
REMARK SMILES IDX 58 86 51 87 53 88 54 89 55 90 56 91
REMARK H PARENT 78 44 46 55
REMARK Flexibility Score: inf
ROOT
ATOM      1  C   UNL A   1      31.694  30.465  25.855  1.00  0.00     0.275 C 
ENDROOT
BRANCH   1   2
ATOM      2  C   UNL A   1      32.218  29.606  24.701  1.00  0.00     0.274 C 
BRANCH   2   3
ATOM      3  O   UNL A   1      33.530  29.070  24.979  1.00  0.00    -0.462 OA
BRANCH   3   4
ATOM      4  C   UNL A   1      33.683  27.738  24.762  1.00  0.00     0.310 C 
ATOM      5  O   UNL A   1      33.992  27.249  23.679  1.00  0.00    -0.252 OA
BRANCH   4   6
ATOM      6  C   UNL A   1      33.545  26.881  26.000  1.00  0.00     0.162 C 
BRANCH   6   7
ATOM      7  C   UNL A   1      32.525  25.770  25.980  1.00  0.00     0.007 A 
ATOM      8  C   UNL A   1      37.888  20.894  24.987  1.00  0.00     0.045 C 
ATOM      9  C   UNL A   1      36.420  21.227  25.059  1.00  0.00    -0.044 A 
ATOM     10  C   UNL A   1      35.485  20.186  25.039  1.00  0.00     0.005 A 
ATOM     11  C   UNL A   1      35.966  22.568  25.110  1.00  0.00    -0.005 A 
ATOM     12  C   UNL A   1      34.122  20.461  25.115  1.00  0.00     0.016 A 
ATOM     13  C   UNL A   1      34.591  22.839  25.266  1.00  0.00     0.141 A 
ATOM     14  C   UNL A   1      36.968  23.681  25.002  1.00  0.00     0.049 C 
ATOM     15  C   UNL A   1      33.685  21.782  25.246  1.00  0.00     0.066 A 
ATOM     16  O   UNL A   1      34.202  24.151  25.440  1.00  0.00    -0.455 OA
ATOM     17  C   UNL A   1      32.252  22.073  25.368  1.00  0.00     0.200 A 
ATOM     18  C   UNL A   1      32.877  24.436  25.691  1.00  0.00     0.142 A 
ATOM     19  O   UNL A   1      31.405  21.191  25.283  1.00  0.00    -0.288 OA
ATOM     20  C   UNL A   1      31.877  23.468  25.629  1.00  0.00     0.066 A 
ATOM     21  C   UNL A   1      30.533  23.804  25.823  1.00  0.00     0.016 A 
ATOM     22  C   UNL A   1      31.173  26.097  26.196  1.00  0.00     0.008 A 
ATOM     23  C   UNL A   1      30.182  25.120  26.107  1.00  0.00     0.001 A 
ENDBRANCH   6   7
ENDBRANCH   4   6
ENDBRANCH   3   4
ENDBRANCH   2   3
ENDBRANCH   1   2
BRANCH   1  24
ATOM     24  O   UNL A   1      32.500  30.327  27.041  1.00  0.00    -0.458 OA
BRANCH  24  25
ATOM     25  C   UNL A   1      33.263  31.411  27.301  1.00  0.00     0.338 C 
ATOM     26  O   UNL A   1      32.905  32.578  27.252  1.00  0.00    -0.246 OA
BRANCH  25  27
ATOM     27  C   UNL A   1      34.624  31.036  27.705  1.00  0.00     0.060 A 
ATOM     28  C   UNL A   1      35.555  32.035  27.999  1.00  0.00     0.016 A 
ATOM     29  C   UNL A   1      34.882  29.706  28.043  1.00  0.00     0.016 A 
ATOM     30  C   UNL A   1      36.747  31.693  28.647  1.00  0.00     0.010 A 
ATOM     31  C   UNL A   1      36.040  29.378  28.740  1.00  0.00     0.010 A 
ATOM     32  C   UNL A   1      36.988  30.365  29.035  1.00  0.00    -0.014 A 
BRANCH  32  33
ATOM     33  C   UNL A   1      38.263  29.986  29.684  1.00  0.00     0.031 A 
ATOM     34  C   UNL A   1      38.583  30.546  31.037  1.00  0.00     0.074 A 
ATOM     35  C   UNL A   1      39.152  29.191  29.058  1.00  0.00     0.049 A 
ATOM     36  N   UNL A   1      39.544  30.210  31.855  1.00  0.00    -0.248 NA
ATOM     37  C   UNL A   1      37.717  31.630  31.533  1.00  0.00     0.031 C 
ATOM     38  C   UNL A   1      39.019  28.682  27.696  1.00  0.00     0.029 A 
ATOM     39  N   UNL A   1      40.358  28.691  29.483  1.00  0.00    -0.354 N 
ATOM     40  C   UNL A   1      39.389  31.026  32.965  1.00  0.00     0.074 A 
ATOM     41  C   UNL A   1      38.280  31.914  32.698  1.00  0.00     0.031 C 
ATOM     42  C   UNL A   1      40.103  27.947  27.391  1.00  0.00     0.029 A 
ATOM     43  C   UNL A   1      40.991  27.904  28.550  1.00  0.00     0.049 A 
ATOM     44  H   UNL A   1      40.734  28.877  30.373  1.00  0.00     0.167 HD
ATOM     45  C   UNL A   1      40.073  30.997  34.130  1.00  0.00     0.034 A 
ATOM     46  C   UNL A   1      42.135  27.197  28.637  1.00  0.00     0.034 A 
ATOM     47  C   UNL A   1      41.151  30.094  34.401  1.00  0.00     0.049 A 
ATOM     48  C   UNL A   1      42.867  27.152  29.951  1.00  0.00     0.074 A 
ATOM     49  C   UNL A   1      41.823  29.883  35.590  1.00  0.00     0.029 A 
ATOM     50  N   UNL A   1      41.729  29.264  33.454  1.00  0.00    -0.354 N 
ATOM     51  N   UNL A   1      42.553  27.729  31.086  1.00  0.00    -0.248 NA
ATOM     52  C   UNL A   1      44.077  26.319  30.017  1.00  0.00     0.031 C 
ATOM     53  C   UNL A   1      42.817  28.927  35.360  1.00  0.00     0.029 A 
ATOM     54  C   UNL A   1      42.766  28.551  34.025  1.00  0.00     0.049 A 
ATOM     55  H   UNL A   1      41.444  29.193  32.515  1.00  0.00     0.167 HD
ATOM     56  C   UNL A   1      43.503  27.307  32.007  1.00  0.00     0.074 A 
ATOM     57  C   UNL A   1      44.405  26.419  31.300  1.00  0.00     0.031 C 
ATOM     58  C   UNL A   1      43.622  27.633  33.317  1.00  0.00     0.034 A 
BRANCH  45  59
ATOM     59  C   UNL A   1      39.588  31.903  35.222  1.00  0.00     0.023 A 
ATOM     60  C   UNL A   1      39.987  33.255  35.199  1.00  0.00     0.012 A 
ATOM     61  C   UNL A   1      38.761  31.435  36.257  1.00  0.00     0.148 A 
ATOM     62  C   UNL A   1      39.587  34.128  36.207  1.00  0.00     0.002 A 
ATOM     63  C   UNL A   1      38.350  32.317  37.250  1.00  0.00     0.091 A 
ATOM     64  F   UNL A   1      38.422  30.138  36.270  1.00  0.00    -0.205 F 
ATOM     65  C   UNL A   1      38.764  33.660  37.228  1.00  0.00     0.022 A 
BRANCH  63  66
ATOM     66  S   UNL A   1      37.277  31.826  38.603  1.00  0.00     0.127 S 
ATOM     67  O   UNL A   1      37.027  30.420  38.283  1.00  0.00    -0.237 OA
ATOM     68  O   UNL A   1      38.134  32.042  39.769  1.00  0.00    -0.237 OA
ATOM     69  O   UNL A   1      36.113  32.697  38.530  1.00  0.00    -0.744 OA
ENDBRANCH  63  66
ENDBRANCH  45  59
BRANCH  46  70
ATOM     70  C   UNL A   1      42.575  26.363  27.484  1.00  0.00     0.023 A 
ATOM     71  C   UNL A   1      43.421  26.937  26.516  1.00  0.00     0.012 A 
ATOM     72  C   UNL A   1      42.209  25.009  27.368  1.00  0.00     0.148 A 
ATOM     73  C   UNL A   1      43.887  26.180  25.441  1.00  0.00     0.002 A 
ATOM     74  C   UNL A   1      42.698  24.253  26.307  1.00  0.00     0.091 A 
ATOM     75  F   UNL A   1      41.408  24.486  28.307  1.00  0.00    -0.205 F 
ATOM     76  C   UNL A   1      43.530  24.838  25.340  1.00  0.00     0.022 A 
BRANCH  74  77
ATOM     77  S   UNL A   1      42.354  22.499  26.115  1.00  0.00     0.127 S 
ATOM     78  O   UNL A   1      42.997  22.206  24.835  1.00  0.00    -0.237 OA
ATOM     79  O   UNL A   1      43.028  21.937  27.285  1.00  0.00    -0.237 OA
ATOM     80  O   UNL A   1      40.904  22.375  26.122  1.00  0.00    -0.744 OA
ENDBRANCH  74  77
ENDBRANCH  46  70
BRANCH  58  81
ATOM     81  C   UNL A   1      44.764  27.045  34.096  1.00  0.00     0.023 A 
ATOM     82  C   UNL A   1      45.969  27.765  34.187  1.00  0.00     0.012 A 
ATOM     83  C   UNL A   1      44.588  25.876  34.863  1.00  0.00     0.148 A 
ATOM     84  C   UNL A   1      46.987  27.332  35.035  1.00  0.00     0.002 A 
ATOM     85  C   UNL A   1      45.594  25.470  35.731  1.00  0.00     0.091 A 
ATOM     86  F   UNL A   1      43.434  25.203  34.746  1.00  0.00    -0.205 F 
ATOM     87  C   UNL A   1      46.793  26.196  35.817  1.00  0.00     0.022 A 
BRANCH  85  88
ATOM     88  S   UNL A   1      45.399  24.073  36.845  1.00  0.00     0.127 S 
ATOM     89  O   UNL A   1      46.710  24.022  37.490  1.00  0.00    -0.237 OA
ATOM     90  O   UNL A   1      44.307  24.517  37.712  1.00  0.00    -0.237 OA
ATOM     91  O   UNL A   1      45.073  22.929  36.002  1.00  0.00    -0.744 OA
ENDBRANCH  85  88
ENDBRANCH  58  81
ENDBRANCH  32  33
ENDBRANCH  25  27
ENDBRANCH  24  25
ENDBRANCH   1  24
TORSDOF 15
ENDMDL
MODEL 2
REMARK VINA RESULT:     -12.9      5.035     10.344
REMARK SMILES Cc1ccc2c(=O)c3cccc(CC(=O)OCCOC(=O)c4ccc(-c5c6nc(c(-c7cccc(S(=O)(=O)[O-])c7F)c7ccc([nH]7)c(-c7cccc(S(=O)(=O)[O-])c7F)c7nc(c(-c8cccc(S(=O)(=O)[O-])c8F)c8ccc5[nH]8)C=C7)C=C6)cc4)c3oc2c1C
REMARK SMILES IDX 18 1 17 2 16 3 14 4 15 5 13 6 12 7 1 8 2 9 3 10 88 11 4 12
REMARK SMILES IDX 87 13 89 14 5 15 86 16 6 17 85 18 7 19 8 20 9 21 11 22 10 23
REMARK SMILES IDX 19 24 20 25 21 26 22 27 23 28 84 29 24 30 83 31 25 32 26 33
REMARK SMILES IDX 27 34 77 35 28 36 82 37 76 38 78 39 29 40 81 41 75 42 74 43
REMARK SMILES IDX 30 45 62 46 42 47 61 48 43 49 46 50 60 51 79 52 44 53 45 54
REMARK SMILES IDX 59 56 80 57 47 58 31 59 32 60 40 61 33 62 35 63 41 64 34 65
REMARK SMILES IDX 36 66 37 67 38 68 39 69 63 70 64 71 72 72 65 73 67 74 73 75
REMARK SMILES IDX 66 76 68 77 69 78 70 79 71 80 48 81 49 82 57 83 50 84 52 85
REMARK SMILES IDX 58 86 51 87 53 88 54 89 55 90 56 91
REMARK H PARENT 78 44 46 55
REMARK Flexibility Score: inf
ROOT
ATOM      1  C   UNL A   1      36.730  20.595  25.041  1.00  0.00     0.275 C 
ENDROOT
BRANCH   1   2
ATOM      2  C   UNL A   1      35.366  21.112  25.511  1.00  0.00     0.274 C 
BRANCH   2   3
ATOM      3  O   UNL A   1      35.496  22.180  26.474  1.00  0.00    -0.462 OA
BRANCH   3   4
ATOM      4  C   UNL A   1      34.649  23.230  26.310  1.00  0.00     0.310 C 
ATOM      5  O   UNL A   1      33.643  23.413  26.991  1.00  0.00    -0.252 OA
BRANCH   4   6
ATOM      6  C   UNL A   1      35.093  24.238  25.276  1.00  0.00     0.162 C 
BRANCH   6   7
ATOM      7  C   UNL A   1      34.209  24.452  24.073  1.00  0.00     0.007 A 
ATOM      8  C   UNL A   1      32.036  30.869  26.833  1.00  0.00     0.045 C 
ATOM      9  C   UNL A   1      31.916  29.785  25.794  1.00  0.00    -0.044 A 
ATOM     10  C   UNL A   1      31.092  29.996  24.682  1.00  0.00     0.005 A 
ATOM     11  C   UNL A   1      32.588  28.546  25.934  1.00  0.00    -0.005 A 
ATOM     12  C   UNL A   1      30.969  29.018  23.699  1.00  0.00     0.016 A 
ATOM     13  C   UNL A   1      32.524  27.591  24.899  1.00  0.00     0.141 A 
ATOM     14  C   UNL A   1      33.367  28.278  27.190  1.00  0.00     0.049 C 
ATOM     15  C   UNL A   1      31.699  27.831  23.804  1.00  0.00     0.066 A 
ATOM     16  O   UNL A   1      33.295  26.451  25.016  1.00  0.00    -0.455 OA
ATOM     17  C   UNL A   1      31.604  26.815  22.750  1.00  0.00     0.200 A 
ATOM     18  C   UNL A   1      33.326  25.546  23.977  1.00  0.00     0.142 A 
ATOM     19  O   UNL A   1      30.838  26.938  21.801  1.00  0.00    -0.288 OA
ATOM     20  C   UNL A   1      32.493  25.652  22.865  1.00  0.00     0.066 A 
ATOM     21  C   UNL A   1      32.503  24.679  21.859  1.00  0.00     0.016 A 
ATOM     22  C   UNL A   1      34.229  23.488  23.047  1.00  0.00     0.008 A 
ATOM     23  C   UNL A   1      33.373  23.597  21.952  1.00  0.00     0.001 A 
ENDBRANCH   6   7
ENDBRANCH   4   6
ENDBRANCH   3   4
ENDBRANCH   2   3
ENDBRANCH   1   2
BRANCH   1  24
ATOM     24  O   UNL A   1      37.729  21.633  25.040  1.00  0.00    -0.458 OA
BRANCH  24  25
ATOM     25  C   UNL A   1      38.788  21.360  25.831  1.00  0.00     0.338 C 
ATOM     26  O   UNL A   1      39.332  20.274  25.966  1.00  0.00    -0.246 OA
BRANCH  25  27
ATOM     27  C   UNL A   1      39.277  22.559  26.524  1.00  0.00     0.060 A 
ATOM     28  C   UNL A   1      40.401  22.469  27.348  1.00  0.00     0.016 A 
ATOM     29  C   UNL A   1      38.777  23.805  26.142  1.00  0.00     0.016 A 
ATOM     30  C   UNL A   1      41.032  23.641  27.779  1.00  0.00     0.010 A 
ATOM     31  C   UNL A   1      39.440  24.968  26.523  1.00  0.00     0.010 A 
ATOM     32  C   UNL A   1      40.563  24.896  27.356  1.00  0.00    -0.014 A 
BRANCH  32  33
ATOM     33  C   UNL A   1      41.197  26.143  27.839  1.00  0.00     0.031 A 
ATOM     34  C   UNL A   1      42.629  26.413  27.487  1.00  0.00     0.074 A 
ATOM     35  C   UNL A   1      40.524  27.005  28.625  1.00  0.00     0.049 A 
ATOM     36  N   UNL A   1      43.319  27.510  27.648  1.00  0.00    -0.248 NA
ATOM     37  C   UNL A   1      43.388  25.305  26.883  1.00  0.00     0.031 C 
ATOM     38  C   UNL A   1      39.173  26.803  29.141  1.00  0.00     0.029 A 
ATOM     39  N   UNL A   1      40.899  28.219  29.145  1.00  0.00    -0.354 N 
ATOM     40  C   UNL A   1      44.583  27.231  27.152  1.00  0.00     0.074 A 
ATOM     41  C   UNL A   1      44.588  25.847  26.736  1.00  0.00     0.031 C 
ATOM     42  C   UNL A   1      38.832  27.850  29.911  1.00  0.00     0.029 A 
ATOM     43  C   UNL A   1      39.928  28.816  29.914  1.00  0.00     0.049 A 
ATOM     44  H   UNL A   1      41.781  28.625  28.983  1.00  0.00     0.167 HD
ATOM     45  C   UNL A   1      45.630  28.071  27.001  1.00  0.00     0.034 A 
ATOM     46  C   UNL A   1      39.910  30.022  30.515  1.00  0.00     0.034 A 
ATOM     47  C   UNL A   1      45.609  29.450  27.387  1.00  0.00     0.049 A 
ATOM     48  C   UNL A   1      41.072  30.957  30.311  1.00  0.00     0.074 A 
ATOM     49  C   UNL A   1      46.559  30.426  27.156  1.00  0.00     0.029 A 
ATOM     50  N   UNL A   1      44.585  30.043  28.108  1.00  0.00    -0.354 N 
ATOM     51  N   UNL A   1      42.161  30.770  29.606  1.00  0.00    -0.248 NA
ATOM     52  C   UNL A   1      40.982  32.285  30.935  1.00  0.00     0.031 C 
ATOM     53  C   UNL A   1      46.112  31.613  27.747  1.00  0.00     0.029 A 
ATOM     54  C   UNL A   1      44.887  31.369  28.351  1.00  0.00     0.049 A 
ATOM     55  H   UNL A   1      43.764  29.587  28.403  1.00  0.00     0.167 HD
ATOM     56  C   UNL A   1      42.871  31.963  29.674  1.00  0.00     0.074 A 
ATOM     57  C   UNL A   1      42.087  32.871  30.486  1.00  0.00     0.031 C 
ATOM     58  C   UNL A   1      44.069  32.272  29.119  1.00  0.00     0.034 A 
BRANCH  45  59
ATOM     59  C   UNL A   1      46.834  27.530  26.292  1.00  0.00     0.023 A 
ATOM     60  C   UNL A   1      47.775  26.789  27.037  1.00  0.00     0.012 A 
ATOM     61  C   UNL A   1      47.046  27.751  24.921  1.00  0.00     0.148 A 
ATOM     62  C   UNL A   1      48.925  26.291  26.430  1.00  0.00     0.002 A 
ATOM     63  C   UNL A   1      48.187  27.235  24.317  1.00  0.00     0.091 A 
ATOM     64  F   UNL A   1      46.150  28.484  24.244  1.00  0.00    -0.205 F 
ATOM     65  C   UNL A   1      49.127  26.510  25.069  1.00  0.00     0.022 A 
BRANCH  63  66
ATOM     66  S   UNL A   1      48.540  27.442  22.569  1.00  0.00     0.127 S 
ATOM     67  O   UNL A   1      49.833  28.124  22.609  1.00  0.00    -0.237 OA
ATOM     68  O   UNL A   1      48.595  26.057  22.100  1.00  0.00    -0.237 OA
ATOM     69  O   UNL A   1      47.439  28.226  22.027  1.00  0.00    -0.744 OA
ENDBRANCH  63  66
ENDBRANCH  45  59
BRANCH  46  70
ATOM     70  C   UNL A   1      38.690  30.462  31.247  1.00  0.00     0.023 A 
ATOM     71  C   UNL A   1      38.601  30.211  32.630  1.00  0.00     0.012 A 
ATOM     72  C   UNL A   1      37.653  31.164  30.603  1.00  0.00     0.148 A 
ATOM     73  C   UNL A   1      37.493  30.641  33.360  1.00  0.00     0.002 A 
ATOM     74  C   UNL A   1      36.563  31.612  31.342  1.00  0.00     0.091 A 
ATOM     75  F   UNL A   1      37.767  31.395  29.288  1.00  0.00    -0.205 F 
ATOM     76  C   UNL A   1      36.478  31.345  32.718  1.00  0.00     0.022 A 
BRANCH  74  77
ATOM     77  S   UNL A   1      35.230  32.584  30.629  1.00  0.00     0.127 S 
ATOM     78  O   UNL A   1      34.281  32.650  31.739  1.00  0.00    -0.237 OA
ATOM     79  O   UNL A   1      35.912  33.842  30.327  1.00  0.00    -0.237 OA
ATOM     80  O   UNL A   1      34.773  31.838  29.466  1.00  0.00    -0.744 OA
ENDBRANCH  74  77
ENDBRANCH  46  70
BRANCH  58  81
ATOM     81  C   UNL A   1      44.631  33.644  29.362  1.00  0.00     0.023 A 
ATOM     82  C   UNL A   1      45.413  33.866  30.511  1.00  0.00     0.012 A 
ATOM     83  C   UNL A   1      44.525  34.651  28.383  1.00  0.00     0.148 A 
ATOM     84  C   UNL A   1      46.087  35.073  30.683  1.00  0.00     0.002 A 
ATOM     85  C   UNL A   1      45.227  35.839  28.546  1.00  0.00     0.091 A 
ATOM     86  F   UNL A   1      43.763  34.416  27.306  1.00  0.00    -0.205 F 
ATOM     87  C   UNL A   1      46.007  36.052  29.695  1.00  0.00     0.022 A 
BRANCH  85  88
ATOM     88  S   UNL A   1      45.259  37.119  27.284  1.00  0.00     0.127 S 
ATOM     89  O   UNL A   1      46.009  38.180  27.956  1.00  0.00    -0.237 OA
ATOM     90  O   UNL A   1      45.977  36.461  26.192  1.00  0.00    -0.237 OA
ATOM     91  O   UNL A   1      43.866  37.430  26.991  1.00  0.00    -0.744 OA
ENDBRANCH  85  88
ENDBRANCH  58  81
ENDBRANCH  32  33
ENDBRANCH  25  27
ENDBRANCH  24  25
ENDBRANCH   1  24
TORSDOF 15
ENDMDL
MODEL 3
REMARK VINA RESULT:     -12.9      5.048     10.175
REMARK SMILES Cc1ccc2c(=O)c3cccc(CC(=O)OCCOC(=O)c4ccc(-c5c6nc(c(-c7cccc(S(=O)(=O)[O-])c7F)c7ccc([nH]7)c(-c7cccc(S(=O)(=O)[O-])c7F)c7nc(c(-c8cccc(S(=O)(=O)[O-])c8F)c8ccc5[nH]8)C=C7)C=C6)cc4)c3oc2c1C
REMARK SMILES IDX 18 1 17 2 16 3 14 4 15 5 13 6 12 7 1 8 2 9 3 10 88 11 4 12
REMARK SMILES IDX 87 13 89 14 5 15 86 16 6 17 85 18 7 19 8 20 9 21 11 22 10 23
REMARK SMILES IDX 19 24 20 25 21 26 22 27 23 28 84 29 24 30 83 31 25 32 26 33
REMARK SMILES IDX 27 34 77 35 28 36 82 37 76 38 78 39 29 40 81 41 75 42 74 43
REMARK SMILES IDX 30 45 62 46 42 47 61 48 43 49 46 50 60 51 79 52 44 53 45 54
REMARK SMILES IDX 59 56 80 57 47 58 31 59 32 60 40 61 33 62 35 63 41 64 34 65
REMARK SMILES IDX 36 66 37 67 38 68 39 69 63 70 64 71 72 72 65 73 67 74 73 75
REMARK SMILES IDX 66 76 68 77 69 78 70 79 71 80 48 81 49 82 57 83 50 84 52 85
REMARK SMILES IDX 58 86 51 87 53 88 54 89 55 90 56 91
REMARK H PARENT 78 44 46 55
REMARK Flexibility Score: inf
ROOT
ATOM      1  C   UNL A   1      36.691  20.569  24.999  1.00  0.00     0.275 C 
ENDROOT
BRANCH   1   2
ATOM      2  C   UNL A   1      35.375  21.071  25.601  1.00  0.00     0.274 C 
BRANCH   2   3
ATOM      3  O   UNL A   1      35.580  22.195  26.485  1.00  0.00    -0.462 OA
BRANCH   3   4
ATOM      4  C   UNL A   1      34.699  23.220  26.352  1.00  0.00     0.310 C 
ATOM      5  O   UNL A   1      33.677  23.340  27.022  1.00  0.00    -0.252 OA
BRANCH   4   6
ATOM      6  C   UNL A   1      35.124  24.287  25.369  1.00  0.00     0.162 C 
BRANCH   6   7
ATOM      7  C   UNL A   1      34.267  24.501  24.146  1.00  0.00     0.007 A 
ATOM      8  C   UNL A   1      31.987  30.890  26.886  1.00  0.00     0.045 C 
ATOM      9  C   UNL A   1      31.900  29.811  25.838  1.00  0.00    -0.044 A 
ATOM     10  C   UNL A   1      31.101  30.023  24.708  1.00  0.00     0.005 A 
ATOM     11  C   UNL A   1      32.576  28.576  25.988  1.00  0.00    -0.005 A 
ATOM     12  C   UNL A   1      31.008  29.049  23.717  1.00  0.00     0.016 A 
ATOM     13  C   UNL A   1      32.543  27.625  24.947  1.00  0.00     0.141 A 
ATOM     14  C   UNL A   1      33.326  28.306  27.261  1.00  0.00     0.049 C 
ATOM     15  C   UNL A   1      31.743  27.866  23.834  1.00  0.00     0.066 A 
ATOM     16  O   UNL A   1      33.318  26.490  25.077  1.00  0.00    -0.455 OA
ATOM     17  C   UNL A   1      31.680  26.855  22.773  1.00  0.00     0.200 A 
ATOM     18  C   UNL A   1      33.380  25.591  24.035  1.00  0.00     0.142 A 
ATOM     19  O   UNL A   1      30.937  26.979  21.806  1.00  0.00    -0.288 OA
ATOM     20  C   UNL A   1      32.573  25.697  22.904  1.00  0.00     0.066 A 
ATOM     21  C   UNL A   1      32.614  24.729  21.893  1.00  0.00     0.016 A 
ATOM     22  C   UNL A   1      34.318  23.543  23.116  1.00  0.00     0.008 A 
ATOM     23  C   UNL A   1      33.488  23.652  22.002  1.00  0.00     0.001 A 
ENDBRANCH   6   7
ENDBRANCH   4   6
ENDBRANCH   3   4
ENDBRANCH   2   3
ENDBRANCH   1   2
BRANCH   1  24
ATOM     24  O   UNL A   1      37.707  21.591  24.992  1.00  0.00    -0.458 OA
BRANCH  24  25
ATOM     25  C   UNL A   1      38.758  21.309  25.791  1.00  0.00     0.338 C 
ATOM     26  O   UNL A   1      39.287  20.217  25.935  1.00  0.00    -0.246 OA
BRANCH  25  27
ATOM     27  C   UNL A   1      39.258  22.506  26.479  1.00  0.00     0.060 A 
ATOM     28  C   UNL A   1      40.376  22.407  27.310  1.00  0.00     0.016 A 
ATOM     29  C   UNL A   1      38.776  23.756  26.087  1.00  0.00     0.016 A 
ATOM     30  C   UNL A   1      41.019  23.573  27.738  1.00  0.00     0.010 A 
ATOM     31  C   UNL A   1      39.452  24.912  26.465  1.00  0.00     0.010 A 
ATOM     32  C   UNL A   1      40.569  24.831  27.305  1.00  0.00    -0.014 A 
BRANCH  32  33
ATOM     33  C   UNL A   1      41.217  26.073  27.784  1.00  0.00     0.031 A 
ATOM     34  C   UNL A   1      42.655  26.321  27.442  1.00  0.00     0.074 A 
ATOM     35  C   UNL A   1      40.549  26.950  28.559  1.00  0.00     0.049 A 
ATOM     36  N   UNL A   1      43.358  27.408  27.601  1.00  0.00    -0.248 NA
ATOM     37  C   UNL A   1      43.403  25.197  26.852  1.00  0.00     0.031 C 
ATOM     38  C   UNL A   1      39.191  26.769  29.065  1.00  0.00     0.029 A 
ATOM     39  N   UNL A   1      40.937  28.162  29.073  1.00  0.00    -0.354 N 
ATOM     40  C   UNL A   1      44.622  27.109  27.118  1.00  0.00     0.074 A 
ATOM     41  C   UNL A   1      44.611  25.722  26.711  1.00  0.00     0.031 C 
ATOM     42  C   UNL A   1      38.859  27.827  29.825  1.00  0.00     0.029 A 
ATOM     43  C   UNL A   1      39.967  28.777  29.830  1.00  0.00     0.049 A 
ATOM     44  H   UNL A   1      41.825  28.555  28.916  1.00  0.00     0.167 HD
ATOM     45  C   UNL A   1      45.682  27.934  26.969  1.00  0.00     0.034 A 
ATOM     46  C   UNL A   1      39.961  29.988  30.422  1.00  0.00     0.034 A 
ATOM     47  C   UNL A   1      45.677  29.316  27.345  1.00  0.00     0.049 A 
ATOM     48  C   UNL A   1      41.137  30.906  30.221  1.00  0.00     0.074 A 
ATOM     49  C   UNL A   1      46.642  30.277  27.115  1.00  0.00     0.029 A 
ATOM     50  N   UNL A   1      44.655  29.927  28.053  1.00  0.00    -0.354 N 
ATOM     51  N   UNL A   1      42.230  30.699  29.526  1.00  0.00    -0.248 NA
ATOM     52  C   UNL A   1      41.061  32.239  30.835  1.00  0.00     0.031 C 
ATOM     53  C   UNL A   1      46.206  31.474  27.694  1.00  0.00     0.029 A 
ATOM     54  C   UNL A   1      44.973  31.251  28.289  1.00  0.00     0.049 A 
ATOM     55  H   UNL A   1      43.826  29.485  28.345  1.00  0.00     0.167 HD
ATOM     56  C   UNL A   1      42.956  31.882  29.591  1.00  0.00     0.074 A 
ATOM     57  C   UNL A   1      42.177  32.806  30.391  1.00  0.00     0.031 C 
ATOM     58  C   UNL A   1      44.162  32.171  29.045  1.00  0.00     0.034 A 
BRANCH  45  59
ATOM     59  C   UNL A   1      46.885  27.371  26.274  1.00  0.00     0.023 A 
ATOM     60  C   UNL A   1      46.948  27.458  24.867  1.00  0.00     0.012 A 
ATOM     61  C   UNL A   1      47.932  26.762  26.985  1.00  0.00     0.148 A 
ATOM     62  C   UNL A   1      48.030  26.924  24.174  1.00  0.00     0.002 A 
ATOM     63  C   UNL A   1      49.019  26.247  26.286  1.00  0.00     0.091 A 
ATOM     64  F   UNL A   1      47.830  26.666  28.318  1.00  0.00    -0.205 F 
ATOM     65  C   UNL A   1      49.067  26.324  24.884  1.00  0.00     0.022 A 
BRANCH  63  66
ATOM     66  S   UNL A   1      50.416  25.469  27.101  1.00  0.00     0.127 S 
ATOM     67  O   UNL A   1      51.317  25.230  25.973  1.00  0.00    -0.237 OA
ATOM     68  O   UNL A   1      50.858  26.516  28.022  1.00  0.00    -0.237 OA
ATOM     69  O   UNL A   1      49.892  24.272  27.743  1.00  0.00    -0.744 OA
ENDBRANCH  63  66
ENDBRANCH  45  59
BRANCH  46  70
ATOM     70  C   UNL A   1      38.742  30.450  31.141  1.00  0.00     0.023 A 
ATOM     71  C   UNL A   1      38.649  30.233  32.530  1.00  0.00     0.012 A 
ATOM     72  C   UNL A   1      37.708  31.140  30.478  1.00  0.00     0.148 A 
ATOM     73  C   UNL A   1      37.541  30.685  33.247  1.00  0.00     0.002 A 
ATOM     74  C   UNL A   1      36.619  31.609  31.205  1.00  0.00     0.091 A 
ATOM     75  F   UNL A   1      37.825  31.338  29.158  1.00  0.00    -0.205 F 
ATOM     76  C   UNL A   1      36.530  31.376  32.586  1.00  0.00     0.022 A 
BRANCH  74  77
ATOM     77  S   UNL A   1      35.290  32.568  30.466  1.00  0.00     0.127 S 
ATOM     78  O   UNL A   1      35.979  33.806  30.106  1.00  0.00    -0.237 OA
ATOM     79  O   UNL A   1      34.911  31.723  29.333  1.00  0.00    -0.237 OA
ATOM     80  O   UNL A   1      34.274  32.702  31.499  1.00  0.00    -0.744 OA
ENDBRANCH  74  77
ENDBRANCH  46  70
BRANCH  58  81
ATOM     81  C   UNL A   1      44.741  33.536  29.283  1.00  0.00     0.023 A 
ATOM     82  C   UNL A   1      45.506  33.759  30.443  1.00  0.00     0.012 A 
ATOM     83  C   UNL A   1      44.667  34.534  28.291  1.00  0.00     0.148 A 
ATOM     84  C   UNL A   1      46.195  34.958  30.613  1.00  0.00     0.002 A 
ATOM     85  C   UNL A   1      45.385  35.713  28.453  1.00  0.00     0.091 A 
ATOM     86  F   UNL A   1      43.921  34.299  27.203  1.00  0.00    -0.205 F 
ATOM     87  C   UNL A   1      46.148  35.927  29.613  1.00  0.00     0.022 A 
BRANCH  85  88
ATOM     88  S   UNL A   1      45.459  36.978  27.178  1.00  0.00     0.127 S 
ATOM     89  O   UNL A   1      46.337  37.971  27.795  1.00  0.00    -0.237 OA
ATOM     90  O   UNL A   1      46.052  36.253  26.055  1.00  0.00    -0.237 OA
ATOM     91  O   UNL A   1      44.084  37.410  26.961  1.00  0.00    -0.744 OA
ENDBRANCH  85  88
ENDBRANCH  58  81
ENDBRANCH  32  33
ENDBRANCH  25  27
ENDBRANCH  24  25
ENDBRANCH   1  24
TORSDOF 15
ENDMDL
