MODEL 1
REMARK VINA RESULT:     -11.3      0.000      0.000
REMARK SMILES O=C(OCCOC(=O)[C@@H]1CN(c2nc(-c3ccccc3)no2)CC[NH2+]1)c1ccc(-c2c3nc(c(-c4cccc(S(=O)(=O)[O-])c4F)c4ccc([nH]4)c(-c4cccc(S(=O)(=O)[O-])c4F)c4nc(c(-c5cccc(S(=O)(=O)[O-])c5F)c5ccc2[nH]5)C=C4)C=C3)cc1
REMARK SMILES IDX 4 1 3 2 2 3 1 4 26 5 27 6 88 7 28 8 87 9 29 10 30 11 31 12
REMARK SMILES IDX 81 13 32 14 86 15 80 16 82 17 33 18 85 19 79 20 78 21 34 23
REMARK SMILES IDX 66 24 46 25 65 26 47 27 50 28 64 29 83 30 48 31 49 32 63 34
REMARK SMILES IDX 84 35 51 36 35 37 36 38 44 39 37 40 39 41 45 42 38 43 40 44
REMARK SMILES IDX 41 45 42 46 43 47 67 48 68 49 76 50 69 51 71 52 77 53 70 54
REMARK SMILES IDX 72 55 73 56 74 57 75 58 52 59 53 60 61 61 54 62 56 63 62 64
REMARK SMILES IDX 55 65 57 66 58 67 59 68 60 69 5 70 6 71 7 72 8 73 9 74 10 75
REMARK SMILES IDX 25 76 11 77 24 78 23 81 12 82 13 83 22 84 14 85 21 86 15 87
REMARK SMILES IDX 16 88 20 89 17 90 19 91 18 92
REMARK H PARENT 82 22 50 33 25 79 25 80
REMARK Flexibility Score: inf
ROOT
ATOM      1  C   UNL A   1      35.364  33.400  27.984  1.00  0.00     0.275 C 
ENDROOT
BRANCH   1   2
ATOM      2  O   UNL A   1      34.473  32.277  27.967  1.00  0.00    -0.458 OA
BRANCH   2   3
ATOM      3  C   UNL A   1      34.748  30.993  27.627  1.00  0.00     0.338 C 
ATOM      4  O   UNL A   1      33.873  30.340  27.058  1.00  0.00    -0.246 OA
BRANCH   3   5
ATOM      5  C   UNL A   1      36.001  30.277  28.042  1.00  0.00     0.060 A 
ATOM      6  C   UNL A   1      37.194  30.169  27.316  1.00  0.00     0.016 A 
ATOM      7  C   UNL A   1      35.972  29.697  29.321  1.00  0.00     0.016 A 
ATOM      8  C   UNL A   1      38.351  29.603  27.876  1.00  0.00     0.010 A 
ATOM      9  C   UNL A   1      37.130  29.163  29.895  1.00  0.00     0.010 A 
ATOM     10  C   UNL A   1      38.341  29.118  29.180  1.00  0.00    -0.014 A 
BRANCH  10  11
ATOM     11  C   UNL A   1      39.521  28.453  29.795  1.00  0.00     0.031 A 
ATOM     12  C   UNL A   1      40.234  29.187  30.894  1.00  0.00     0.074 A 
ATOM     13  C   UNL A   1      40.028  27.297  29.312  1.00  0.00     0.049 A 
ATOM     14  N   UNL A   1      41.373  28.909  31.464  1.00  0.00    -0.248 NA
ATOM     15  C   UNL A   1      39.577  30.401  31.414  1.00  0.00     0.031 C 
ATOM     16  C   UNL A   1      39.419  26.456  28.283  1.00  0.00     0.029 A 
ATOM     17  N   UNL A   1      41.231  26.677  29.551  1.00  0.00    -0.354 N 
ATOM     18  C   UNL A   1      41.572  29.914  32.399  1.00  0.00     0.074 A 
ATOM     19  C   UNL A   1      40.484  30.855  32.262  1.00  0.00     0.031 C 
ATOM     20  C   UNL A   1      40.309  25.541  27.860  1.00  0.00     0.029 A 
ATOM     21  C   UNL A   1      41.532  25.689  28.632  1.00  0.00     0.049 A 
ATOM     22  H   UNL A   1      41.821  26.912  30.304  1.00  0.00     0.167 HD
ATOM     23  C   UNL A   1      42.540  30.009  33.337  1.00  0.00     0.034 A 
ATOM     24  C   UNL A   1      42.673  24.996  28.435  1.00  0.00     0.034 A 
ATOM     25  C   UNL A   1      43.581  29.039  33.495  1.00  0.00     0.049 A 
ATOM     26  C   UNL A   1      43.780  25.164  29.442  1.00  0.00     0.074 A 
ATOM     27  C   UNL A   1      44.529  28.947  34.495  1.00  0.00     0.029 A 
ATOM     28  N   UNL A   1      43.821  28.003  32.608  1.00  0.00    -0.354 N 
ATOM     29  N   UNL A   1      43.843  25.983  30.464  1.00  0.00    -0.248 NA
ATOM     30  C   UNL A   1      44.927  24.250  29.333  1.00  0.00     0.031 C 
ATOM     31  C   UNL A   1      45.369  27.872  34.191  1.00  0.00     0.029 A 
ATOM     32  C   UNL A   1      44.924  27.280  33.017  1.00  0.00     0.049 A 
ATOM     33  H   UNL A   1      43.286  27.809  31.804  1.00  0.00     0.167 HD
ATOM     34  C   UNL A   1      44.991  25.631  31.163  1.00  0.00     0.074 A 
ATOM     35  C   UNL A   1      45.603  24.537  30.438  1.00  0.00     0.031 C 
ATOM     36  C   UNL A   1      45.483  26.157  32.311  1.00  0.00     0.034 A 
BRANCH  23  37
ATOM     37  C   UNL A   1      42.461  31.168  34.290  1.00  0.00     0.023 A 
ATOM     38  C   UNL A   1      43.411  32.208  34.201  1.00  0.00     0.012 A 
ATOM     39  C   UNL A   1      41.452  31.230  35.267  1.00  0.00     0.148 A 
ATOM     40  C   UNL A   1      43.389  33.268  35.104  1.00  0.00     0.002 A 
ATOM     41  C   UNL A   1      41.409  32.313  36.134  1.00  0.00     0.091 A 
ATOM     42  F   UNL A   1      40.573  30.221  35.342  1.00  0.00    -0.205 F 
ATOM     43  C   UNL A   1      42.384  33.323  36.066  1.00  0.00     0.022 A 
BRANCH  41  44
ATOM     44  S   UNL A   1      40.121  32.517  37.368  1.00  0.00     0.127 S 
ATOM     45  O   UNL A   1      40.892  32.447  38.610  1.00  0.00    -0.237 OA
ATOM     46  O   UNL A   1      39.602  33.844  37.045  1.00  0.00    -0.237 OA
ATOM     47  O   UNL A   1      39.185  31.422  37.161  1.00  0.00    -0.744 OA
ENDBRANCH  41  44
ENDBRANCH  23  37
BRANCH  24  48
ATOM     48  C   UNL A   1      42.815  24.002  27.328  1.00  0.00     0.023 A 
ATOM     49  C   UNL A   1      43.348  24.427  26.095  1.00  0.00     0.012 A 
ATOM     50  C   UNL A   1      42.331  22.682  27.450  1.00  0.00     0.148 A 
ATOM     51  C   UNL A   1      43.358  23.574  24.990  1.00  0.00     0.002 A 
ATOM     52  C   UNL A   1      42.348  21.834  26.341  1.00  0.00     0.091 A 
ATOM     53  F   UNL A   1      41.828  22.298  28.631  1.00  0.00    -0.205 F 
ATOM     54  C   UNL A   1      42.856  22.282  25.111  1.00  0.00     0.022 A 
BRANCH  52  55
ATOM     55  S   UNL A   1      41.673  20.166  26.361  1.00  0.00     0.127 S 
ATOM     56  O   UNL A   1      42.125  19.681  27.666  1.00  0.00    -0.237 OA
ATOM     57  O   UNL A   1      40.234  20.412  26.274  1.00  0.00    -0.237 OA
ATOM     58  O   UNL A   1      42.258  19.490  25.213  1.00  0.00    -0.744 OA
ENDBRANCH  52  55
ENDBRANCH  24  48
BRANCH  36  59
ATOM     59  C   UNL A   1      46.718  25.534  32.899  1.00  0.00     0.023 A 
ATOM     60  C   UNL A   1      47.983  26.076  32.612  1.00  0.00     0.012 A 
ATOM     61  C   UNL A   1      46.601  24.497  33.846  1.00  0.00     0.148 A 
ATOM     62  C   UNL A   1      49.120  25.587  33.251  1.00  0.00     0.002 A 
ATOM     63  C   UNL A   1      47.729  24.055  34.522  1.00  0.00     0.091 A 
ATOM     64  F   UNL A   1      45.385  23.986  34.087  1.00  0.00    -0.205 F 
ATOM     65  C   UNL A   1      48.990  24.592  34.219  1.00  0.00     0.022 A 
BRANCH  63  66
ATOM     66  S   UNL A   1      47.642  22.869  35.868  1.00  0.00     0.127 S 
ATOM     67  O   UNL A   1      46.924  21.759  35.242  1.00  0.00    -0.237 OA
ATOM     68  O   UNL A   1      49.056  22.607  36.138  1.00  0.00    -0.237 OA
ATOM     69  O   UNL A   1      46.931  23.535  36.951  1.00  0.00    -0.744 OA
ENDBRANCH  63  66
ENDBRANCH  36  59
ENDBRANCH  10  11
ENDBRANCH   3   5
ENDBRANCH   2   3
ENDBRANCH   1   2
BRANCH   1  70
ATOM     70  C   UNL A   1      34.657  34.756  27.997  1.00  0.00     0.274 C 
BRANCH  70  71
ATOM     71  O   UNL A   1      33.352  34.707  28.596  1.00  0.00    -0.458 OA
BRANCH  71  72
ATOM     72  C   UNL A   1      32.927  35.852  29.216  1.00  0.00     0.366 C 
ATOM     73  O   UNL A   1      32.029  36.573  28.790  1.00  0.00    -0.245 OA
BRANCH  72  74
ATOM     74  C   UNL A   1      33.722  36.146  30.493  1.00  0.00     0.313 C 
ATOM     75  C   UNL A   1      33.582  34.953  31.461  1.00  0.00     0.199 C 
ATOM     76  N   UNL A   1      33.256  37.420  31.107  1.00  0.00    -0.332 N 
ATOM     77  N   UNL A   1      34.220  35.242  32.748  1.00  0.00    -0.312 N 
ATOM     78  C   UNL A   1      34.046  37.681  32.337  1.00  0.00     0.283 C 
ATOM     79  H   UNL A   1      32.267  37.343  31.346  1.00  0.00     0.347 HD
ATOM     80  H   UNL A   1      33.382  38.187  30.446  1.00  0.00     0.347 HD
ATOM     81  C   UNL A   1      33.954  36.540  33.368  1.00  0.00     0.183 C 
BRANCH  77  82
ATOM     82  C   UNL A   1      35.435  34.698  32.947  1.00  0.00     0.324 A 
ATOM     83  N   UNL A   1      36.607  35.235  32.745  1.00  0.00    -0.171 NA
ATOM     84  O   UNL A   1      35.482  33.363  33.219  1.00  0.00    -0.315 OA
ATOM     85  C   UNL A   1      37.451  34.153  32.895  1.00  0.00     0.204 A 
ATOM     86  N   UNL A   1      36.814  32.994  33.144  1.00  0.00    -0.055 NA
BRANCH  85  87
ATOM     87  C   UNL A   1      38.862  34.238  32.543  1.00  0.00     0.023 A 
ATOM     88  C   UNL A   1      39.282  34.023  31.224  1.00  0.00     0.012 A 
ATOM     89  C   UNL A   1      39.812  34.617  33.503  1.00  0.00     0.012 A 
ATOM     90  C   UNL A   1      40.614  34.220  30.863  1.00  0.00     0.001 A 
ATOM     91  C   UNL A   1      41.147  34.807  33.143  1.00  0.00     0.001 A 
ATOM     92  C   UNL A   1      41.546  34.619  31.821  1.00  0.00     0.000 A 
ENDBRANCH  85  87
ENDBRANCH  77  82
ENDBRANCH  72  74
ENDBRANCH  71  72
ENDBRANCH  70  71
ENDBRANCH   1  70
TORSDOF 16
ENDMDL
MODEL 2
REMARK VINA RESULT:     -11.3      4.406     10.560
REMARK SMILES O=C(OCCOC(=O)[C@@H]1CN(c2nc(-c3ccccc3)no2)CC[NH2+]1)c1ccc(-c2c3nc(c(-c4cccc(S(=O)(=O)[O-])c4F)c4ccc([nH]4)c(-c4cccc(S(=O)(=O)[O-])c4F)c4nc(c(-c5cccc(S(=O)(=O)[O-])c5F)c5ccc2[nH]5)C=C4)C=C3)cc1
REMARK SMILES IDX 4 1 3 2 2 3 1 4 26 5 27 6 88 7 28 8 87 9 29 10 30 11 31 12
REMARK SMILES IDX 81 13 32 14 86 15 80 16 82 17 33 18 85 19 79 20 78 21 34 23
REMARK SMILES IDX 66 24 46 25 65 26 47 27 50 28 64 29 83 30 48 31 49 32 63 34
REMARK SMILES IDX 84 35 51 36 35 37 36 38 44 39 37 40 39 41 45 42 38 43 40 44
REMARK SMILES IDX 41 45 42 46 43 47 67 48 68 49 76 50 69 51 71 52 77 53 70 54
REMARK SMILES IDX 72 55 73 56 74 57 75 58 52 59 53 60 61 61 54 62 56 63 62 64
REMARK SMILES IDX 55 65 57 66 58 67 59 68 60 69 5 70 6 71 7 72 8 73 9 74 10 75
REMARK SMILES IDX 25 76 11 77 24 78 23 81 12 82 13 83 22 84 14 85 21 86 15 87
REMARK SMILES IDX 16 88 20 89 17 90 19 91 18 92
REMARK H PARENT 82 22 50 33 25 79 25 80
REMARK Flexibility Score: inf
ROOT
ATOM      1  C   UNL A   1      31.564  32.019  27.059  1.00  0.00     0.275 C 
ENDROOT
BRANCH   1   2
ATOM      2  O   UNL A   1      32.307  33.245  27.035  1.00  0.00    -0.458 OA
BRANCH   2   3
ATOM      3  C   UNL A   1      32.945  33.860  28.062  1.00  0.00     0.338 C 
ATOM      4  O   UNL A   1      32.484  34.919  28.485  1.00  0.00    -0.246 OA
BRANCH   3   5
ATOM      5  C   UNL A   1      34.267  33.400  28.608  1.00  0.00     0.060 A 
ATOM      6  C   UNL A   1      35.540  33.716  28.118  1.00  0.00     0.016 A 
ATOM      7  C   UNL A   1      34.200  32.605  29.764  1.00  0.00     0.016 A 
ATOM      8  C   UNL A   1      36.708  33.349  28.807  1.00  0.00     0.010 A 
ATOM      9  C   UNL A   1      35.359  32.268  30.471  1.00  0.00     0.010 A 
ATOM     10  C   UNL A   1      36.631  32.645  30.004  1.00  0.00    -0.014 A 
BRANCH  10  11
ATOM     11  C   UNL A   1      37.839  32.179  30.737  1.00  0.00     0.031 A 
ATOM     12  C   UNL A   1      38.535  30.955  30.216  1.00  0.00     0.074 A 
ATOM     13  C   UNL A   1      38.235  32.740  31.902  1.00  0.00     0.049 A 
ATOM     14  N   UNL A   1      39.489  30.255  30.763  1.00  0.00    -0.248 NA
ATOM     15  C   UNL A   1      38.090  30.449  28.904  1.00  0.00     0.031 C 
ATOM     16  C   UNL A   1      37.684  33.953  32.501  1.00  0.00     0.029 A 
ATOM     17  N   UNL A   1      39.131  32.302  32.848  1.00  0.00    -0.354 N 
ATOM     18  C   UNL A   1      39.750  29.226  29.871  1.00  0.00     0.074 A 
ATOM     19  C   UNL A   1      38.799  29.339  28.789  1.00  0.00     0.031 C 
ATOM     20  C   UNL A   1      38.119  34.070  33.769  1.00  0.00     0.029 A 
ATOM     21  C   UNL A   1      39.030  32.973  34.052  1.00  0.00     0.049 A 
ATOM     22  H   UNL A   1      39.782  31.582  32.684  1.00  0.00     0.167 HD
ATOM     23  C   UNL A   1      40.740  28.307  29.914  1.00  0.00     0.034 A 
ATOM     24  C   UNL A   1      39.603  32.719  35.246  1.00  0.00     0.034 A 
ATOM     25  C   UNL A   1      41.708  28.243  30.967  1.00  0.00     0.049 A 
ATOM     26  C   UNL A   1      40.652  31.640  35.306  1.00  0.00     0.074 A 
ATOM     27  C   UNL A   1      42.840  27.456  31.050  1.00  0.00     0.029 A 
ATOM     28  N   UNL A   1      41.639  28.983  32.136  1.00  0.00    -0.354 N 
ATOM     29  N   UNL A   1      41.039  30.816  34.361  1.00  0.00    -0.248 NA
ATOM     30  C   UNL A   1      41.414  31.517  36.558  1.00  0.00     0.031 C 
ATOM     31  C   UNL A   1      43.438  27.696  32.291  1.00  0.00     0.029 A 
ATOM     32  C   UNL A   1      42.692  28.652  32.965  1.00  0.00     0.049 A 
ATOM     33  H   UNL A   1      40.943  29.647  32.345  1.00  0.00     0.167 HD
ATOM     34  C   UNL A   1      42.135  30.136  34.875  1.00  0.00     0.074 A 
ATOM     35  C   UNL A   1      42.341  30.631  36.221  1.00  0.00     0.031 C 
ATOM     36  C   UNL A   1      42.912  29.200  34.278  1.00  0.00     0.034 A 
BRANCH  23  37
ATOM     37  C   UNL A   1      40.846  27.357  28.756  1.00  0.00     0.023 A 
ATOM     38  C   UNL A   1      39.943  26.277  28.657  1.00  0.00     0.012 A 
ATOM     39  C   UNL A   1      41.832  27.531  27.769  1.00  0.00     0.148 A 
ATOM     40  C   UNL A   1      40.052  25.354  27.619  1.00  0.00     0.002 A 
ATOM     41  C   UNL A   1      41.905  26.634  26.713  1.00  0.00     0.091 A 
ATOM     42  F   UNL A   1      42.689  28.554  27.896  1.00  0.00    -0.205 F 
ATOM     43  C   UNL A   1      41.029  25.536  26.644  1.00  0.00     0.022 A 
BRANCH  41  44
ATOM     44  S   UNL A   1      43.082  26.810  25.370  1.00  0.00     0.127 S 
ATOM     45  O   UNL A   1      42.455  27.860  24.566  1.00  0.00    -0.237 OA
ATOM     46  O   UNL A   1      44.290  27.226  26.081  1.00  0.00    -0.237 OA
ATOM     47  O   UNL A   1      43.164  25.507  24.728  1.00  0.00    -0.744 OA
ENDBRANCH  41  44
ENDBRANCH  23  37
BRANCH  24  48
ATOM     48  C   UNL A   1      39.308  33.541  36.458  1.00  0.00     0.023 A 
ATOM     49  C   UNL A   1      39.850  34.839  36.550  1.00  0.00     0.012 A 
ATOM     50  C   UNL A   1      38.594  33.015  37.556  1.00  0.00     0.148 A 
ATOM     51  C   UNL A   1      39.727  35.582  37.725  1.00  0.00     0.002 A 
ATOM     52  C   UNL A   1      38.472  33.766  38.726  1.00  0.00     0.091 A 
ATOM     53  F   UNL A   1      38.087  31.779  37.448  1.00  0.00    -0.205 F 
ATOM     54  C   UNL A   1      39.043  35.046  38.812  1.00  0.00     0.022 A 
BRANCH  52  55
ATOM     55  S   UNL A   1      37.665  33.155  40.214  1.00  0.00     0.127 S 
ATOM     56  O   UNL A   1      36.332  32.821  39.709  1.00  0.00    -0.237 OA
ATOM     57  O   UNL A   1      38.487  31.996  40.560  1.00  0.00    -0.237 OA
ATOM     58  O   UNL A   1      37.708  34.255  41.166  1.00  0.00    -0.744 OA
ENDBRANCH  52  55
ENDBRANCH  24  48
BRANCH  36  59
ATOM     59  C   UNL A   1      44.094  28.672  35.042  1.00  0.00     0.023 A 
ATOM     60  C   UNL A   1      45.333  29.331  34.963  1.00  0.00     0.012 A 
ATOM     61  C   UNL A   1      43.928  27.602  35.945  1.00  0.00     0.148 A 
ATOM     62  C   UNL A   1      46.398  28.926  35.764  1.00  0.00     0.002 A 
ATOM     63  C   UNL A   1      44.974  27.242  36.781  1.00  0.00     0.091 A 
ATOM     64  F   UNL A   1      42.741  26.979  35.986  1.00  0.00    -0.205 F 
ATOM     65  C   UNL A   1      46.213  27.896  36.685  1.00  0.00     0.022 A 
BRANCH  63  66
ATOM     66  S   UNL A   1      44.791  26.014  38.080  1.00  0.00     0.127 S 
ATOM     67  O   UNL A   1      43.721  26.595  38.890  1.00  0.00    -0.237 OA
ATOM     68  O   UNL A   1      44.407  24.822  37.323  1.00  0.00    -0.237 OA
ATOM     69  O   UNL A   1      46.087  25.923  38.738  1.00  0.00    -0.744 OA
ENDBRANCH  63  66
ENDBRANCH  36  59
ENDBRANCH  10  11
ENDBRANCH   3   5
ENDBRANCH   2   3
ENDBRANCH   1   2
BRANCH   1  70
ATOM     70  C   UNL A   1      32.434  30.763  27.134  1.00  0.00     0.274 C 
BRANCH  70  71
ATOM     71  O   UNL A   1      32.881  30.309  25.847  1.00  0.00    -0.458 OA
BRANCH  71  72
ATOM     72  C   UNL A   1      33.522  29.099  25.821  1.00  0.00     0.366 C 
ATOM     73  O   UNL A   1      34.612  28.886  26.346  1.00  0.00    -0.245 OA
BRANCH  72  74
ATOM     74  C   UNL A   1      32.733  28.044  25.038  1.00  0.00     0.313 C 
ATOM     75  C   UNL A   1      33.422  27.802  23.679  1.00  0.00     0.199 C 
ATOM     76  N   UNL A   1      31.318  28.477  24.877  1.00  0.00    -0.332 N 
ATOM     77  N   UNL A   1      32.632  26.895  22.843  1.00  0.00    -0.312 N 
ATOM     78  C   UNL A   1      30.577  27.435  24.121  1.00  0.00     0.283 C 
ATOM     79  H   UNL A   1      31.285  29.359  24.364  1.00  0.00     0.347 HD
ATOM     80  H   UNL A   1      30.890  28.608  25.794  1.00  0.00     0.347 HD
ATOM     81  C   UNL A   1      31.193  27.136  22.741  1.00  0.00     0.183 C 
BRANCH  77  82
ATOM     82  C   UNL A   1      33.051  25.617  22.789  1.00  0.00     0.324 A 
ATOM     83  N   UNL A   1      33.601  24.903  23.733  1.00  0.00    -0.171 NA
ATOM     84  O   UNL A   1      33.086  25.025  21.562  1.00  0.00    -0.315 OA
ATOM     85  C   UNL A   1      34.018  23.782  23.043  1.00  0.00     0.204 A 
ATOM     86  N   UNL A   1      33.762  23.828  21.722  1.00  0.00    -0.055 NA
BRANCH  85  87
ATOM     87  C   UNL A   1      34.886  22.790  23.662  1.00  0.00     0.023 A 
ATOM     88  C   UNL A   1      36.258  22.769  23.382  1.00  0.00     0.012 A 
ATOM     89  C   UNL A   1      34.374  21.893  24.611  1.00  0.00     0.012 A 
ATOM     90  C   UNL A   1      37.108  21.898  24.063  1.00  0.00     0.001 A 
ATOM     91  C   UNL A   1      35.224  21.015  25.288  1.00  0.00     0.001 A 
ATOM     92  C   UNL A   1      36.592  21.026  25.020  1.00  0.00     0.000 A 
ENDBRANCH  85  87
ENDBRANCH  77  82
ENDBRANCH  72  74
ENDBRANCH  71  72
ENDBRANCH  70  71
ENDBRANCH   1  70
TORSDOF 16
ENDMDL
MODEL 3
REMARK VINA RESULT:     -11.2      1.571      2.220
REMARK SMILES O=C(OCCOC(=O)[C@@H]1CN(c2nc(-c3ccccc3)no2)CC[NH2+]1)c1ccc(-c2c3nc(c(-c4cccc(S(=O)(=O)[O-])c4F)c4ccc([nH]4)c(-c4cccc(S(=O)(=O)[O-])c4F)c4nc(c(-c5cccc(S(=O)(=O)[O-])c5F)c5ccc2[nH]5)C=C4)C=C3)cc1
REMARK SMILES IDX 4 1 3 2 2 3 1 4 26 5 27 6 88 7 28 8 87 9 29 10 30 11 31 12
REMARK SMILES IDX 81 13 32 14 86 15 80 16 82 17 33 18 85 19 79 20 78 21 34 23
REMARK SMILES IDX 66 24 46 25 65 26 47 27 50 28 64 29 83 30 48 31 49 32 63 34
REMARK SMILES IDX 84 35 51 36 35 37 36 38 44 39 37 40 39 41 45 42 38 43 40 44
REMARK SMILES IDX 41 45 42 46 43 47 67 48 68 49 76 50 69 51 71 52 77 53 70 54
REMARK SMILES IDX 72 55 73 56 74 57 75 58 52 59 53 60 61 61 54 62 56 63 62 64
REMARK SMILES IDX 55 65 57 66 58 67 59 68 60 69 5 70 6 71 7 72 8 73 9 74 10 75
REMARK SMILES IDX 25 76 11 77 24 78 23 81 12 82 13 83 22 84 14 85 21 86 15 87
REMARK SMILES IDX 16 88 20 89 17 90 19 91 18 92
REMARK H PARENT 82 22 50 33 25 79 25 80
REMARK Flexibility Score: inf
ROOT
ATOM      1  C   UNL A   1      35.165  33.259  28.092  1.00  0.00     0.275 C 
ENDROOT
BRANCH   1   2
ATOM      2  O   UNL A   1      34.513  32.170  27.425  1.00  0.00    -0.458 OA
BRANCH   2   3
ATOM      3  C   UNL A   1      34.732  30.840  27.579  1.00  0.00     0.338 C 
ATOM      4  O   UNL A   1      33.862  30.058  27.195  1.00  0.00    -0.246 OA
BRANCH   3   5
ATOM      5  C   UNL A   1      35.904  30.275  28.329  1.00  0.00     0.060 A 
ATOM      6  C   UNL A   1      35.903  29.744  29.625  1.00  0.00     0.016 A 
ATOM      7  C   UNL A   1      37.116  30.242  27.620  1.00  0.00     0.016 A 
ATOM      8  C   UNL A   1      37.033  29.105  30.162  1.00  0.00     0.010 A 
ATOM      9  C   UNL A   1      38.233  29.577  28.138  1.00  0.00     0.010 A 
ATOM     10  C   UNL A   1      38.201  28.990  29.415  1.00  0.00    -0.014 A 
BRANCH  10  11
ATOM     11  C   UNL A   1      39.442  28.379  29.963  1.00  0.00     0.031 A 
ATOM     12  C   UNL A   1      40.168  29.134  31.040  1.00  0.00     0.074 A 
ATOM     13  C   UNL A   1      39.986  27.259  29.437  1.00  0.00     0.049 A 
ATOM     14  N   UNL A   1      41.345  28.909  31.551  1.00  0.00    -0.248 NA
ATOM     15  C   UNL A   1      39.473  30.304  31.610  1.00  0.00     0.031 C 
ATOM     16  C   UNL A   1      39.374  26.402  28.424  1.00  0.00     0.029 A 
ATOM     17  N   UNL A   1      41.230  26.700  29.610  1.00  0.00    -0.354 N 
ATOM     18  C   UNL A   1      41.536  29.910  32.492  1.00  0.00     0.074 A 
ATOM     19  C   UNL A   1      40.395  30.793  32.422  1.00  0.00     0.031 C 
ATOM     20  C   UNL A   1      40.290  25.542  27.944  1.00  0.00     0.029 A 
ATOM     21  C   UNL A   1      41.539  25.744  28.661  1.00  0.00     0.049 A 
ATOM     22  H   UNL A   1      41.841  26.956  30.338  1.00  0.00     0.167 HD
ATOM     23  C   UNL A   1      42.541  30.043  33.386  1.00  0.00     0.034 A 
ATOM     24  C   UNL A   1      42.703  25.114  28.400  1.00  0.00     0.034 A 
ATOM     25  C   UNL A   1      43.637  29.127  33.479  1.00  0.00     0.049 A 
ATOM     26  C   UNL A   1      43.846  25.327  29.356  1.00  0.00     0.074 A 
ATOM     27  C   UNL A   1      44.635  29.071  34.432  1.00  0.00     0.029 A 
ATOM     28  N   UNL A   1      43.889  28.118  32.564  1.00  0.00    -0.354 N 
ATOM     29  N   UNL A   1      43.915  26.133  30.388  1.00  0.00    -0.248 NA
ATOM     30  C   UNL A   1      45.033  24.477  29.179  1.00  0.00     0.031 C 
ATOM     31  C   UNL A   1      45.516  28.047  34.070  1.00  0.00     0.029 A 
ATOM     32  C   UNL A   1      45.047  27.449  32.910  1.00  0.00     0.049 A 
ATOM     33  H   UNL A   1      43.328  27.908  31.783  1.00  0.00     0.167 HD
ATOM     34  C   UNL A   1      45.111  25.833  31.026  1.00  0.00     0.074 A 
ATOM     35  C   UNL A   1      45.745  24.783  30.255  1.00  0.00     0.031 C 
ATOM     36  C   UNL A   1      45.629  26.367  32.159  1.00  0.00     0.034 A 
BRANCH  23  37
ATOM     37  C   UNL A   1      42.447  31.182  34.361  1.00  0.00     0.023 A 
ATOM     38  C   UNL A   1      41.903  30.958  35.644  1.00  0.00     0.012 A 
ATOM     39  C   UNL A   1      42.895  32.468  34.010  1.00  0.00     0.148 A 
ATOM     40  C   UNL A   1      41.761  32.009  36.546  1.00  0.00     0.002 A 
ATOM     41  C   UNL A   1      42.791  33.500  34.933  1.00  0.00     0.091 A 
ATOM     42  F   UNL A   1      43.390  32.659  32.780  1.00  0.00    -0.205 F 
ATOM     43  C   UNL A   1      42.210  33.278  36.193  1.00  0.00     0.022 A 
BRANCH  41  44
ATOM     44  S   UNL A   1      43.397  35.158  34.605  1.00  0.00     0.127 S 
ATOM     45  O   UNL A   1      43.313  35.768  35.932  1.00  0.00    -0.237 OA
ATOM     46  O   UNL A   1      44.758  34.895  34.140  1.00  0.00    -0.237 OA
ATOM     47  O   UNL A   1      42.504  35.726  33.607  1.00  0.00    -0.744 OA
ENDBRANCH  41  44
ENDBRANCH  23  37
BRANCH  24  48
ATOM     48  C   UNL A   1      42.844  24.146  27.271  1.00  0.00     0.023 A 
ATOM     49  C   UNL A   1      43.294  24.616  26.021  1.00  0.00     0.012 A 
ATOM     50  C   UNL A   1      42.437  22.800  27.393  1.00  0.00     0.148 A 
ATOM     51  C   UNL A   1      43.297  23.781  24.903  1.00  0.00     0.002 A 
ATOM     52  C   UNL A   1      42.446  21.970  26.271  1.00  0.00     0.091 A 
ATOM     53  F   UNL A   1      42.013  22.373  28.590  1.00  0.00    -0.205 F 
ATOM     54  C   UNL A   1      42.870  22.462  25.026  1.00  0.00     0.022 A 
BRANCH  52  55
ATOM     55  S   UNL A   1      41.862  20.268  26.294  1.00  0.00     0.127 S 
ATOM     56  O   UNL A   1      42.604  19.687  25.175  1.00  0.00    -0.237 OA
ATOM     57  O   UNL A   1      42.299  19.808  27.612  1.00  0.00    -0.237 OA
ATOM     58  O   UNL A   1      40.421  20.342  26.109  1.00  0.00    -0.744 OA
ENDBRANCH  52  55
ENDBRANCH  24  48
BRANCH  36  59
ATOM     59  C   UNL A   1      46.922  25.803  32.679  1.00  0.00     0.023 A 
ATOM     60  C   UNL A   1      48.139  26.431  32.364  1.00  0.00     0.012 A 
ATOM     61  C   UNL A   1      46.905  24.729  33.592  1.00  0.00     0.148 A 
ATOM     62  C   UNL A   1      49.328  25.992  32.943  1.00  0.00     0.002 A 
ATOM     63  C   UNL A   1      48.083  24.336  34.209  1.00  0.00     0.091 A 
ATOM     64  F   UNL A   1      45.732  24.136  33.859  1.00  0.00    -0.205 F 
ATOM     65  C   UNL A   1      49.297  24.959  33.879  1.00  0.00     0.022 A 
BRANCH  63  66
ATOM     66  S   UNL A   1      48.121  23.102  35.514  1.00  0.00     0.127 S 
ATOM     67  O   UNL A   1      48.111  21.857  34.748  1.00  0.00    -0.237 OA
ATOM     68  O   UNL A   1      49.389  23.399  36.181  1.00  0.00    -0.237 OA
ATOM     69  O   UNL A   1      46.937  23.337  36.329  1.00  0.00    -0.744 OA
ENDBRANCH  63  66
ENDBRANCH  36  59
ENDBRANCH  10  11
ENDBRANCH   3   5
ENDBRANCH   2   3
ENDBRANCH   1   2
BRANCH   1  70
ATOM     70  C   UNL A   1      34.421  34.591  27.985  1.00  0.00     0.274 C 
BRANCH  70  71
ATOM     71  O   UNL A   1      33.258  34.656  28.825  1.00  0.00    -0.458 OA
BRANCH  71  72
ATOM     72  C   UNL A   1      32.921  35.897  29.297  1.00  0.00     0.366 C 
ATOM     73  O   UNL A   1      32.144  36.661  28.730  1.00  0.00    -0.245 OA
BRANCH  72  74
ATOM     74  C   UNL A   1      33.646  36.234  30.604  1.00  0.00     0.313 C 
ATOM     75  C   UNL A   1      33.327  35.150  31.654  1.00  0.00     0.199 C 
ATOM     76  N   UNL A   1      33.258  37.594  31.070  1.00  0.00    -0.332 N 
ATOM     77  N   UNL A   1      33.897  35.497  32.958  1.00  0.00    -0.312 N 
ATOM     78  C   UNL A   1      33.980  37.895  32.333  1.00  0.00     0.283 C 
ATOM     79  H   UNL A   1      32.252  37.625  31.237  1.00  0.00     0.347 HD
ATOM     80  H   UNL A   1      33.502  38.285  30.361  1.00  0.00     0.347 HD
ATOM     81  C   UNL A   1      33.710  36.864  33.445  1.00  0.00     0.183 C 
BRANCH  77  82
ATOM     82  C   UNL A   1      35.038  34.870  33.297  1.00  0.00     0.324 A 
ATOM     83  N   UNL A   1      35.203  33.881  34.131  1.00  0.00    -0.171 NA
ATOM     84  O   UNL A   1      36.205  35.431  32.872  1.00  0.00    -0.315 OA
ATOM     85  C   UNL A   1      36.578  33.822  34.243  1.00  0.00     0.204 A 
ATOM     86  N   UNL A   1      37.224  34.763  33.530  1.00  0.00    -0.055 NA
BRANCH  85  87
ATOM     87  C   UNL A   1      37.222  32.991  35.252  1.00  0.00     0.023 A 
ATOM     88  C   UNL A   1      37.245  33.388  36.594  1.00  0.00     0.012 A 
ATOM     89  C   UNL A   1      37.756  31.741  34.905  1.00  0.00     0.012 A 
ATOM     90  C   UNL A   1      37.756  32.540  37.576  1.00  0.00     0.001 A 
ATOM     91  C   UNL A   1      38.275  30.894  35.887  1.00  0.00     0.001 A 
ATOM     92  C   UNL A   1      38.264  31.290  37.224  1.00  0.00     0.000 A 
ENDBRANCH  85  87
ENDBRANCH  77  82
ENDBRANCH  72  74
ENDBRANCH  71  72
ENDBRANCH  70  71
ENDBRANCH   1  70
TORSDOF 16
ENDMDL
