MODEL 1
REMARK VINA RESULT:     -11.5      0.000      0.000
REMARK SMILES O=C(COc1ccc(N2C[C@@H](C(=O)OCCOC(=O)c3ccc(-c4c5nc(c(-c6cccc(S(=O)(=O)[O-])c6F)c6ccc([nH]6)c(-c6cccc(S(=O)(=O)[O-])c6F)c6nc(c(-c7cccc(S(=O)(=O)[O-])c7F)c7ccc4[nH]7)C=C6)C=C5)cc3)CC2=O)cc1)Nc1ccc(Cl)cc1Cl
REMARK SMILES IDX 15 1 14 2 12 3 13 4 11 5 9 6 10 7 84 8 83 9 85 10 8 11 5 12
REMARK SMILES IDX 6 13 87 14 7 15 86 16 4 17 3 18 2 19 1 20 88 21 89 23 90 24
REMARK SMILES IDX 95 25 91 26 94 27 96 28 92 29 93 30 16 31 17 32 18 33 19 34
REMARK SMILES IDX 20 35 21 36 82 37 22 38 81 39 23 40 24 41 25 42 75 43 26 44
REMARK SMILES IDX 80 45 74 46 76 47 27 48 79 49 73 50 72 51 28 53 60 54 40 55
REMARK SMILES IDX 59 56 41 57 44 58 58 59 77 60 42 61 43 62 57 64 78 65 45 66
REMARK SMILES IDX 29 67 30 68 38 69 31 70 33 71 39 72 32 73 34 74 35 75 36 76
REMARK SMILES IDX 37 77 61 78 62 79 70 80 63 81 65 82 71 83 64 84 66 85 67 86
REMARK SMILES IDX 68 87 69 88 46 89 47 90 55 91 48 92 50 93 56 94 49 95 51 96
REMARK SMILES IDX 52 97 53 98 54 99
REMARK H PARENT 88 22 76 52 44 63
REMARK Flexibility Score: inf
ROOT
ATOM      1  C   UNL A   1      41.911  19.128  26.601  1.00  0.00     0.274 C 
ENDROOT
BRANCH   1   2
ATOM      2  O   UNL A   1      41.345  20.252  25.901  1.00  0.00    -0.462 OA
BRANCH   2   3
ATOM      3  C   UNL A   1      41.500  21.476  26.461  1.00  0.00     0.311 C 
ATOM      4  O   UNL A   1      42.565  22.071  26.564  1.00  0.00    -0.252 OA
BRANCH   3   5
ATOM      5  C   UNL A   1      40.202  22.065  26.949  1.00  0.00     0.128 C 
ATOM      6  N   UNL A   1      38.205  22.916  26.122  1.00  0.00    -0.312 N 
ATOM      7  C   UNL A   1      39.105  21.810  25.941  1.00  0.00     0.141 C 
ATOM      8  C   UNL A   1      38.789  23.966  26.838  1.00  0.00     0.227 C 
ATOM      9  C   UNL A   1      40.188  23.565  27.199  1.00  0.00     0.117 C 
ATOM     10  O   UNL A   1      38.304  25.050  27.126  1.00  0.00    -0.274 OA
BRANCH   6  11
ATOM     11  C   UNL A   1      36.984  23.007  25.433  1.00  0.00     0.044 A 
ATOM     12  C   UNL A   1      34.511  23.242  24.138  1.00  0.00     0.120 A 
ATOM     13  C   UNL A   1      35.665  23.015  23.393  1.00  0.00     0.048 A 
ATOM     14  C   UNL A   1      34.593  23.328  25.523  1.00  0.00     0.048 A 
ATOM     15  C   UNL A   1      36.908  22.929  24.037  1.00  0.00     0.030 A 
ATOM     16  C   UNL A   1      35.816  23.203  26.164  1.00  0.00     0.030 A 
BRANCH  12  17
ATOM     17  O   UNL A   1      33.301  23.266  23.495  1.00  0.00    -0.484 OA
BRANCH  17  18
ATOM     18  C   UNL A   1      33.385  23.852  22.192  1.00  0.00     0.329 C 
BRANCH  18  19
ATOM     19  C   UNL A   1      33.025  25.344  22.121  1.00  0.00     0.262 C 
ATOM     20  O   UNL A   1      33.732  26.134  21.504  1.00  0.00    -0.271 OA
ATOM     21  N   UNL A   1      31.913  25.657  22.898  1.00  0.00    -0.322 N 
ATOM     22  H   UNL A   1      31.378  24.908  23.248  1.00  0.00     0.170 HD
BRANCH  21  23
ATOM     23  C   UNL A   1      31.491  26.968  23.224  1.00  0.00     0.060 A 
ATOM     24  C   UNL A   1      30.508  27.511  22.378  1.00  0.00     0.029 A 
ATOM     25  C   UNL A   1      31.938  27.737  24.314  1.00  0.00     0.066 A 
ATOM     26  C   UNL A   1      29.922  28.749  22.657  1.00  0.00     0.023 A 
ATOM     27  C   UNL A   1      31.345  28.976  24.592  1.00  0.00     0.043 A 
ATOM     28  Cl  UNL A   1      33.342  27.341  25.246  1.00  0.00    -0.082 Cl
ATOM     29  C   UNL A   1      30.334  29.468  23.773  1.00  0.00     0.042 A 
ATOM     30  Cl  UNL A   1      29.616  30.991  24.121  1.00  0.00    -0.084 Cl
ENDBRANCH  21  23
ENDBRANCH  18  19
ENDBRANCH  17  18
ENDBRANCH  12  17
ENDBRANCH   6  11
ENDBRANCH   3   5
ENDBRANCH   2   3
ENDBRANCH   1   2
BRANCH   1  31
ATOM     31  C   UNL A   1      43.185  18.652  25.897  1.00  0.00     0.275 C 
BRANCH  31  32
ATOM     32  O   UNL A   1      43.437  19.400  24.691  1.00  0.00    -0.458 OA
BRANCH  32  33
ATOM     33  C   UNL A   1      44.745  19.586  24.399  1.00  0.00     0.338 C 
ATOM     34  O   UNL A   1      45.512  18.779  23.900  1.00  0.00    -0.246 OA
BRANCH  33  35
ATOM     35  C   UNL A   1      45.119  20.989  24.626  1.00  0.00     0.060 A 
ATOM     36  C   UNL A   1      45.701  21.310  25.851  1.00  0.00     0.016 A 
ATOM     37  C   UNL A   1      44.792  21.992  23.717  1.00  0.00     0.016 A 
ATOM     38  C   UNL A   1      45.914  22.632  26.210  1.00  0.00     0.010 A 
ATOM     39  C   UNL A   1      45.047  23.325  24.059  1.00  0.00     0.010 A 
ATOM     40  C   UNL A   1      45.585  23.655  25.318  1.00  0.00    -0.014 A 
BRANCH  40  41
ATOM     41  C   UNL A   1      45.777  25.064  25.731  1.00  0.00     0.031 A 
ATOM     42  C   UNL A   1      47.144  25.681  25.681  1.00  0.00     0.074 A 
ATOM     43  C   UNL A   1      44.714  25.790  26.131  1.00  0.00     0.049 A 
ATOM     44  N   UNL A   1      47.527  26.867  26.076  1.00  0.00    -0.248 NA
ATOM     45  C   UNL A   1      48.224  24.856  25.116  1.00  0.00     0.031 C 
ATOM     46  C   UNL A   1      43.335  25.305  26.189  1.00  0.00     0.029 A 
ATOM     47  N   UNL A   1      44.631  27.086  26.572  1.00  0.00    -0.354 N 
ATOM     48  C   UNL A   1      48.900  26.908  25.870  1.00  0.00     0.074 A 
ATOM     49  C   UNL A   1      49.282  25.633  25.301  1.00  0.00     0.031 C 
ATOM     50  C   UNL A   1      42.542  26.291  26.637  1.00  0.00     0.029 A 
ATOM     51  C   UNL A   1      43.363  27.456  26.949  1.00  0.00     0.049 A 
ATOM     52  H   UNL A   1      45.406  27.692  26.615  1.00  0.00     0.167 HD
ATOM     53  C   UNL A   1      49.761  27.921  26.124  1.00  0.00     0.034 A 
ATOM     54  C   UNL A   1      42.916  28.596  27.509  1.00  0.00     0.034 A 
ATOM     55  C   UNL A   1      49.364  29.207  26.629  1.00  0.00     0.049 A 
ATOM     56  C   UNL A   1      43.896  29.704  27.783  1.00  0.00     0.074 A 
ATOM     57  C   UNL A   1      50.152  30.319  26.868  1.00  0.00     0.029 A 
ATOM     58  N   UNL A   1      48.067  29.555  26.972  1.00  0.00    -0.354 N 
ATOM     59  N   UNL A   1      45.176  29.756  27.512  1.00  0.00    -0.248 NA
ATOM     60  C   UNL A   1      43.367  30.913  28.427  1.00  0.00     0.031 C 
ATOM     61  C   UNL A   1      49.332  31.336  27.368  1.00  0.00     0.029 A 
ATOM     62  C   UNL A   1      48.031  30.861  27.430  1.00  0.00     0.049 A 
ATOM     63  H   UNL A   1      47.284  28.961  26.901  1.00  0.00     0.167 HD
ATOM     64  C   UNL A   1      45.603  31.011  27.925  1.00  0.00     0.074 A 
ATOM     65  C   UNL A   1      44.437  31.696  28.447  1.00  0.00     0.031 C 
ATOM     66  C   UNL A   1      46.850  31.544  27.894  1.00  0.00     0.034 A 
BRANCH  53  67
ATOM     67  C   UNL A   1      51.220  27.682  25.841  1.00  0.00     0.023 A 
ATOM     68  C   UNL A   1      52.108  27.428  26.905  1.00  0.00     0.012 A 
ATOM     69  C   UNL A   1      51.704  27.671  24.518  1.00  0.00     0.148 A 
ATOM     70  C   UNL A   1      53.462  27.196  26.659  1.00  0.00     0.002 A 
ATOM     71  C   UNL A   1      53.047  27.403  24.278  1.00  0.00     0.091 A 
ATOM     72  F   UNL A   1      50.851  27.946  23.521  1.00  0.00    -0.205 F 
ATOM     73  C   UNL A   1      53.928  27.174  25.347  1.00  0.00     0.022 A 
BRANCH  71  74
ATOM     74  S   UNL A   1      53.715  27.288  22.615  1.00  0.00     0.127 S 
ATOM     75  O   UNL A   1      53.490  28.642  22.112  1.00  0.00    -0.237 OA
ATOM     76  O   UNL A   1      55.120  26.957  22.863  1.00  0.00    -0.237 OA
ATOM     77  O   UNL A   1      52.957  26.233  21.957  1.00  0.00    -0.744 OA
ENDBRANCH  71  74
ENDBRANCH  53  67
BRANCH  54  78
ATOM     78  C   UNL A   1      41.465  28.755  27.809  1.00  0.00     0.023 A 
ATOM     79  C   UNL A   1      40.583  29.116  26.773  1.00  0.00     0.012 A 
ATOM     80  C   UNL A   1      40.948  28.501  29.095  1.00  0.00     0.148 A 
ATOM     81  C   UNL A   1      39.215  29.236  27.014  1.00  0.00     0.002 A 
ATOM     82  C   UNL A   1      39.576  28.569  29.316  1.00  0.00     0.091 A 
ATOM     83  F   UNL A   1      41.805  28.180  30.074  1.00  0.00    -0.205 F 
ATOM     84  C   UNL A   1      38.710  28.951  28.280  1.00  0.00     0.022 A 
BRANCH  82  85
ATOM     85  S   UNL A   1      38.831  28.085  30.876  1.00  0.00     0.127 S 
ATOM     86  O   UNL A   1      39.823  28.551  31.840  1.00  0.00    -0.237 OA
ATOM     87  O   UNL A   1      37.579  28.842  30.864  1.00  0.00    -0.237 OA
ATOM     88  O   UNL A   1      38.655  26.641  30.794  1.00  0.00    -0.744 OA
ENDBRANCH  82  85
ENDBRANCH  54  78
BRANCH  66  89
ATOM     89  C   UNL A   1      47.019  32.944  28.417  1.00  0.00     0.023 A 
ATOM     90  C   UNL A   1      47.347  33.146  29.772  1.00  0.00     0.012 A 
ATOM     91  C   UNL A   1      46.928  34.053  27.553  1.00  0.00     0.148 A 
ATOM     92  C   UNL A   1      47.557  34.433  30.265  1.00  0.00     0.002 A 
ATOM     93  C   UNL A   1      47.182  35.329  28.043  1.00  0.00     0.091 A 
ATOM     94  F   UNL A   1      46.591  33.842  26.272  1.00  0.00    -0.205 F 
ATOM     95  C   UNL A   1      47.488  35.522  29.400  1.00  0.00     0.022 A 
BRANCH  93  96
ATOM     96  S   UNL A   1      47.202  36.774  26.975  1.00  0.00     0.127 S 
ATOM     97  O   UNL A   1      47.469  37.847  27.930  1.00  0.00    -0.237 OA
ATOM     98  O   UNL A   1      48.308  36.477  26.065  1.00  0.00    -0.237 OA
ATOM     99  O   UNL A   1      45.893  36.811  26.335  1.00  0.00    -0.744 OA
ENDBRANCH  93  96
ENDBRANCH  66  89
ENDBRANCH  40  41
ENDBRANCH  33  35
ENDBRANCH  32  33
ENDBRANCH  31  32
ENDBRANCH   1  31
TORSDOF 19
ENDMDL
MODEL 2
REMARK VINA RESULT:     -11.5      4.784      7.731
REMARK SMILES O=C(COc1ccc(N2C[C@@H](C(=O)OCCOC(=O)c3ccc(-c4c5nc(c(-c6cccc(S(=O)(=O)[O-])c6F)c6ccc([nH]6)c(-c6cccc(S(=O)(=O)[O-])c6F)c6nc(c(-c7cccc(S(=O)(=O)[O-])c7F)c7ccc4[nH]7)C=C6)C=C5)cc3)CC2=O)cc1)Nc1ccc(Cl)cc1Cl
REMARK SMILES IDX 15 1 14 2 12 3 13 4 11 5 9 6 10 7 84 8 83 9 85 10 8 11 5 12
REMARK SMILES IDX 6 13 87 14 7 15 86 16 4 17 3 18 2 19 1 20 88 21 89 23 90 24
REMARK SMILES IDX 95 25 91 26 94 27 96 28 92 29 93 30 16 31 17 32 18 33 19 34
REMARK SMILES IDX 20 35 21 36 82 37 22 38 81 39 23 40 24 41 25 42 75 43 26 44
REMARK SMILES IDX 80 45 74 46 76 47 27 48 79 49 73 50 72 51 28 53 60 54 40 55
REMARK SMILES IDX 59 56 41 57 44 58 58 59 77 60 42 61 43 62 57 64 78 65 45 66
REMARK SMILES IDX 29 67 30 68 38 69 31 70 33 71 39 72 32 73 34 74 35 75 36 76
REMARK SMILES IDX 37 77 61 78 62 79 70 80 63 81 65 82 71 83 64 84 66 85 67 86
REMARK SMILES IDX 68 87 69 88 46 89 47 90 55 91 48 92 50 93 56 94 49 95 51 96
REMARK SMILES IDX 52 97 53 98 54 99
REMARK H PARENT 88 22 76 52 44 63
REMARK Flexibility Score: inf
ROOT
ATOM      1  C   UNL A   1      42.389  19.108  25.974  1.00  0.00     0.274 C 
ENDROOT
BRANCH   1   2
ATOM      2  O   UNL A   1      43.132  19.955  25.079  1.00  0.00    -0.462 OA
BRANCH   2   3
ATOM      3  C   UNL A   1      44.476  19.789  25.036  1.00  0.00     0.311 C 
ATOM      4  O   UNL A   1      45.045  18.737  24.777  1.00  0.00    -0.252 OA
BRANCH   3   5
ATOM      5  C   UNL A   1      45.233  21.058  25.331  1.00  0.00     0.128 C 
ATOM      6  N   UNL A   1      45.057  23.354  25.027  1.00  0.00    -0.312 N 
ATOM      7  C   UNL A   1      44.274  22.221  25.439  1.00  0.00     0.141 C 
ATOM      8  C   UNL A   1      46.225  22.979  24.356  1.00  0.00     0.227 C 
ATOM      9  C   UNL A   1      46.275  21.481  24.308  1.00  0.00     0.117 C 
ATOM     10  O   UNL A   1      47.075  23.697  23.854  1.00  0.00    -0.274 OA
BRANCH   6  11
ATOM     11  C   UNL A   1      44.557  24.667  25.078  1.00  0.00     0.044 A 
ATOM     12  C   UNL A   1      43.471  27.245  25.217  1.00  0.00     0.120 A 
ATOM     13  C   UNL A   1      44.853  27.072  25.242  1.00  0.00     0.048 A 
ATOM     14  C   UNL A   1      42.642  26.136  25.101  1.00  0.00     0.048 A 
ATOM     15  C   UNL A   1      45.396  25.780  25.204  1.00  0.00     0.030 A 
ATOM     16  C   UNL A   1      43.179  24.860  25.023  1.00  0.00     0.030 A 
BRANCH  12  17
ATOM     17  O   UNL A   1      42.963  28.518  25.198  1.00  0.00    -0.484 OA
BRANCH  17  18
ATOM     18  C   UNL A   1      42.434  28.916  26.466  1.00  0.00     0.329 C 
BRANCH  18  19
ATOM     19  C   UNL A   1      43.266  29.963  27.223  1.00  0.00     0.262 C 
ATOM     20  O   UNL A   1      42.908  30.380  28.319  1.00  0.00    -0.271 OA
ATOM     21  N   UNL A   1      44.353  30.413  26.479  1.00  0.00    -0.322 N 
ATOM     22  H   UNL A   1      44.584  29.910  25.664  1.00  0.00     0.170 HD
BRANCH  21  23
ATOM     23  C   UNL A   1      45.152  31.534  26.802  1.00  0.00     0.060 A 
ATOM     24  C   UNL A   1      46.102  31.324  27.818  1.00  0.00     0.029 A 
ATOM     25  C   UNL A   1      45.098  32.798  26.185  1.00  0.00     0.066 A 
ATOM     26  C   UNL A   1      47.030  32.314  28.152  1.00  0.00     0.023 A 
ATOM     27  C   UNL A   1      46.034  33.786  26.520  1.00  0.00     0.043 A 
ATOM     28  Cl  UNL A   1      43.801  33.299  25.156  1.00  0.00    -0.082 Cl
ATOM     29  C   UNL A   1      47.001  33.535  27.489  1.00  0.00     0.042 A 
ATOM     30  Cl  UNL A   1      48.142  34.756  27.896  1.00  0.00    -0.084 Cl
ENDBRANCH  21  23
ENDBRANCH  18  19
ENDBRANCH  17  18
ENDBRANCH  12  17
ENDBRANCH   6  11
ENDBRANCH   3   5
ENDBRANCH   2   3
ENDBRANCH   1   2
BRANCH   1  31
ATOM     31  C   UNL A   1      40.965  19.642  26.150  1.00  0.00     0.275 C 
BRANCH  31  32
ATOM     32  O   UNL A   1      40.839  20.991  25.659  1.00  0.00    -0.458 OA
BRANCH  32  33
ATOM     33  C   UNL A   1      39.741  21.654  26.092  1.00  0.00     0.338 C 
ATOM     34  O   UNL A   1      38.575  21.331  25.935  1.00  0.00    -0.246 OA
BRANCH  33  35
ATOM     35  C   UNL A   1      40.136  22.786  26.941  1.00  0.00     0.060 A 
ATOM     36  C   UNL A   1      39.552  24.024  26.676  1.00  0.00     0.016 A 
ATOM     37  C   UNL A   1      41.147  22.674  27.891  1.00  0.00     0.016 A 
ATOM     38  C   UNL A   1      40.004  25.171  27.310  1.00  0.00     0.010 A 
ATOM     39  C   UNL A   1      41.574  23.823  28.565  1.00  0.00     0.010 A 
ATOM     40  C   UNL A   1      41.024  25.083  28.260  1.00  0.00    -0.014 A 
BRANCH  40  41
ATOM     41  C   UNL A   1      41.527  26.322  28.897  1.00  0.00     0.031 A 
ATOM     42  C   UNL A   1      43.004  26.531  29.066  1.00  0.00     0.074 A 
ATOM     43  C   UNL A   1      40.653  27.263  29.303  1.00  0.00     0.049 A 
ATOM     44  N   UNL A   1      43.633  27.505  29.669  1.00  0.00    -0.248 NA
ATOM     45  C   UNL A   1      43.890  25.510  28.484  1.00  0.00     0.031 C 
ATOM     46  C   UNL A   1      39.199  27.182  29.161  1.00  0.00     0.029 A 
ATOM     47  N   UNL A   1      40.861  28.467  29.925  1.00  0.00    -0.354 N 
ATOM     48  C   UNL A   1      44.983  27.183  29.598  1.00  0.00     0.074 A 
ATOM     49  C   UNL A   1      45.083  25.930  28.881  1.00  0.00     0.031 C 
ATOM     50  C   UNL A   1      38.645  28.290  29.678  1.00  0.00     0.029 A 
ATOM     51  C   UNL A   1      39.698  29.131  30.236  1.00  0.00     0.049 A 
ATOM     52  H   UNL A   1      41.756  28.822  30.130  1.00  0.00     0.167 HD
ATOM     53  C   UNL A   1      46.042  27.876  30.080  1.00  0.00     0.034 A 
ATOM     54  C   UNL A   1      39.501  30.275  30.919  1.00  0.00     0.034 A 
ATOM     55  C   UNL A   1      45.938  29.151  30.735  1.00  0.00     0.049 A 
ATOM     56  C   UNL A   1      40.696  31.021  31.445  1.00  0.00     0.074 A 
ATOM     57  C   UNL A   1      46.955  29.960  31.211  1.00  0.00     0.029 A 
ATOM     58  N   UNL A   1      44.747  29.806  31.007  1.00  0.00    -0.354 N 
ATOM     59  N   UNL A   1      41.968  30.744  31.303  1.00  0.00    -0.248 NA
ATOM     60  C   UNL A   1      40.428  32.245  32.213  1.00  0.00     0.031 C 
ATOM     61  C   UNL A   1      46.376  31.099  31.781  1.00  0.00     0.029 A 
ATOM     62  C   UNL A   1      44.999  31.005  31.651  1.00  0.00     0.049 A 
ATOM     63  H   UNL A   1      43.851  29.468  30.775  1.00  0.00     0.167 HD
ATOM     64  C   UNL A   1      42.656  31.770  31.939  1.00  0.00     0.074 A 
ATOM     65  C   UNL A   1      41.656  32.687  32.449  1.00  0.00     0.031 C 
ATOM     66  C   UNL A   1      43.993  31.931  32.103  1.00  0.00     0.034 A 
BRANCH  53  67
ATOM     67  C   UNL A   1      47.408  27.272  29.899  1.00  0.00     0.023 A 
ATOM     68  C   UNL A   1      47.963  26.474  30.920  1.00  0.00     0.012 A 
ATOM     69  C   UNL A   1      48.127  27.464  28.703  1.00  0.00     0.148 A 
ATOM     70  C   UNL A   1      49.225  25.901  30.764  1.00  0.00     0.002 A 
ATOM     71  C   UNL A   1      49.368  26.860  28.541  1.00  0.00     0.091 A 
ATOM     72  F   UNL A   1      47.598  28.253  27.757  1.00  0.00    -0.205 F 
ATOM     73  C   UNL A   1      49.922  26.085  29.573  1.00  0.00     0.022 A 
BRANCH  71  74
ATOM     74  S   UNL A   1      50.301  26.990  27.011  1.00  0.00     0.127 S 
ATOM     75  O   UNL A   1      50.188  28.418  26.717  1.00  0.00    -0.237 OA
ATOM     76  O   UNL A   1      51.639  26.557  27.422  1.00  0.00    -0.237 OA
ATOM     77  O   UNL A   1      49.643  26.095  26.070  1.00  0.00    -0.744 OA
ENDBRANCH  71  74
ENDBRANCH  53  67
BRANCH  54  78
ATOM     78  C   UNL A   1      38.118  30.797  31.105  1.00  0.00     0.023 A 
ATOM     79  C   UNL A   1      37.469  30.603  32.338  1.00  0.00     0.012 A 
ATOM     80  C   UNL A   1      37.465  31.526  30.091  1.00  0.00     0.148 A 
ATOM     81  C   UNL A   1      36.189  31.111  32.556  1.00  0.00     0.002 A 
ATOM     82  C   UNL A   1      36.211  32.078  30.334  1.00  0.00     0.091 A 
ATOM     83  F   UNL A   1      38.089  31.682  28.916  1.00  0.00    -0.205 F 
ATOM     84  C   UNL A   1      35.566  31.859  31.560  1.00  0.00     0.022 A 
BRANCH  82  85
ATOM     85  S   UNL A   1      35.399  33.167  29.160  1.00  0.00     0.127 S 
ATOM     86  O   UNL A   1      35.210  32.283  28.012  1.00  0.00    -0.237 OA
ATOM     87  O   UNL A   1      34.172  33.523  29.873  1.00  0.00    -0.237 OA
ATOM     88  O   UNL A   1      36.317  34.280  28.960  1.00  0.00    -0.744 OA
ENDBRANCH  82  85
ENDBRANCH  54  78
BRANCH  66  89
ATOM     89  C   UNL A   1      44.458  33.154  32.844  1.00  0.00     0.023 A 
ATOM     90  C   UNL A   1      44.585  33.111  34.246  1.00  0.00     0.012 A 
ATOM     91  C   UNL A   1      44.840  34.318  32.149  1.00  0.00     0.148 A 
ATOM     92  C   UNL A   1      45.062  34.217  34.948  1.00  0.00     0.002 A 
ATOM     93  C   UNL A   1      45.356  35.401  32.852  1.00  0.00     0.091 A 
ATOM     94  F   UNL A   1      44.688  34.348  30.816  1.00  0.00    -0.205 F 
ATOM     95  C   UNL A   1      45.460  35.356  34.251  1.00  0.00     0.022 A 
BRANCH  93  96
ATOM     96  S   UNL A   1      45.974  36.870  32.021  1.00  0.00     0.127 S 
ATOM     97  O   UNL A   1      47.021  36.312  31.168  1.00  0.00    -0.237 OA
ATOM     98  O   UNL A   1      44.791  37.346  31.304  1.00  0.00    -0.237 OA
ATOM     99  O   UNL A   1      46.431  37.760  33.080  1.00  0.00    -0.744 OA
ENDBRANCH  93  96
ENDBRANCH  66  89
ENDBRANCH  40  41
ENDBRANCH  33  35
ENDBRANCH  32  33
ENDBRANCH  31  32
ENDBRANCH   1  31
TORSDOF 19
ENDMDL
MODEL 3
REMARK VINA RESULT:     -11.4      7.482     12.596
REMARK SMILES O=C(COc1ccc(N2C[C@@H](C(=O)OCCOC(=O)c3ccc(-c4c5nc(c(-c6cccc(S(=O)(=O)[O-])c6F)c6ccc([nH]6)c(-c6cccc(S(=O)(=O)[O-])c6F)c6nc(c(-c7cccc(S(=O)(=O)[O-])c7F)c7ccc4[nH]7)C=C6)C=C5)cc3)CC2=O)cc1)Nc1ccc(Cl)cc1Cl
REMARK SMILES IDX 15 1 14 2 12 3 13 4 11 5 9 6 10 7 84 8 83 9 85 10 8 11 5 12
REMARK SMILES IDX 6 13 87 14 7 15 86 16 4 17 3 18 2 19 1 20 88 21 89 23 90 24
REMARK SMILES IDX 95 25 91 26 94 27 96 28 92 29 93 30 16 31 17 32 18 33 19 34
REMARK SMILES IDX 20 35 21 36 82 37 22 38 81 39 23 40 24 41 25 42 75 43 26 44
REMARK SMILES IDX 80 45 74 46 76 47 27 48 79 49 73 50 72 51 28 53 60 54 40 55
REMARK SMILES IDX 59 56 41 57 44 58 58 59 77 60 42 61 43 62 57 64 78 65 45 66
REMARK SMILES IDX 29 67 30 68 38 69 31 70 33 71 39 72 32 73 34 74 35 75 36 76
REMARK SMILES IDX 37 77 61 78 62 79 70 80 63 81 65 82 71 83 64 84 66 85 67 86
REMARK SMILES IDX 68 87 69 88 46 89 47 90 55 91 48 92 50 93 56 94 49 95 51 96
REMARK SMILES IDX 52 97 53 98 54 99
REMARK H PARENT 88 22 76 52 44 63
REMARK Flexibility Score: inf
ROOT
ATOM      1  C   UNL A   1      33.294  34.813  28.546  1.00  0.00     0.274 C 
ENDROOT
BRANCH   1   2
ATOM      2  O   UNL A   1      34.628  34.273  28.543  1.00  0.00    -0.462 OA
BRANCH   2   3
ATOM      3  C   UNL A   1      34.798  33.029  29.050  1.00  0.00     0.311 C 
ATOM      4  O   UNL A   1      34.674  32.730  30.231  1.00  0.00    -0.252 OA
BRANCH   3   5
ATOM      5  C   UNL A   1      35.149  32.010  27.997  1.00  0.00     0.128 C 
ATOM      6  N   UNL A   1      34.416  29.965  27.176  1.00  0.00    -0.312 N 
ATOM      7  C   UNL A   1      33.913  31.250  27.577  1.00  0.00     0.141 C 
ATOM      8  C   UNL A   1      35.718  29.737  27.632  1.00  0.00     0.227 C 
ATOM      9  C   UNL A   1      36.167  30.950  28.390  1.00  0.00     0.117 C 
ATOM     10  O   UNL A   1      36.407  28.739  27.491  1.00  0.00    -0.274 OA
BRANCH   6  11
ATOM     11  C   UNL A   1      33.587  28.978  26.616  1.00  0.00     0.044 A 
ATOM     12  C   UNL A   1      31.855  27.047  25.558  1.00  0.00     0.120 A 
ATOM     13  C   UNL A   1      32.981  27.438  24.838  1.00  0.00     0.048 A 
ATOM     14  C   UNL A   1      31.612  27.603  26.809  1.00  0.00     0.048 A 
ATOM     15  C   UNL A   1      33.830  28.428  25.352  1.00  0.00     0.030 A 
ATOM     16  C   UNL A   1      32.474  28.552  27.337  1.00  0.00     0.030 A 
BRANCH  12  17
ATOM     17  O   UNL A   1      31.069  26.039  25.064  1.00  0.00    -0.484 OA
BRANCH  17  18
ATOM     18  C   UNL A   1      30.497  25.233  26.099  1.00  0.00     0.329 C 
BRANCH  18  19
ATOM     19  C   UNL A   1      31.239  23.920  26.391  1.00  0.00     0.262 C 
ATOM     20  O   UNL A   1      31.474  23.573  27.544  1.00  0.00    -0.271 OA
ATOM     21  N   UNL A   1      31.668  23.285  25.230  1.00  0.00    -0.322 N 
ATOM     22  H   UNL A   1      31.312  23.616  24.373  1.00  0.00     0.170 HD
BRANCH  21  23
ATOM     23  C   UNL A   1      32.574  22.200  25.183  1.00  0.00     0.060 A 
ATOM     24  C   UNL A   1      31.999  20.947  24.903  1.00  0.00     0.029 A 
ATOM     25  C   UNL A   1      33.968  22.274  25.356  1.00  0.00     0.066 A 
ATOM     26  C   UNL A   1      32.796  19.815  24.714  1.00  0.00     0.023 A 
ATOM     27  C   UNL A   1      34.764  21.138  25.161  1.00  0.00     0.043 A 
ATOM     28  Cl  UNL A   1      34.774  23.663  26.002  1.00  0.00    -0.082 Cl
ATOM     29  C   UNL A   1      34.178  19.920  24.829  1.00  0.00     0.042 A 
ATOM     30  Cl  UNL A   1      35.163  18.530  24.597  1.00  0.00    -0.084 Cl
ENDBRANCH  21  23
ENDBRANCH  18  19
ENDBRANCH  17  18
ENDBRANCH  12  17
ENDBRANCH   6  11
ENDBRANCH   3   5
ENDBRANCH   2   3
ENDBRANCH   1   2
BRANCH   1  31
ATOM     31  C   UNL A   1      33.103  35.750  29.743  1.00  0.00     0.275 C 
BRANCH  31  32
ATOM     32  O   UNL A   1      32.625  35.040  30.902  1.00  0.00    -0.458 OA
BRANCH  32  33
ATOM     33  C   UNL A   1      32.900  35.634  32.087  1.00  0.00     0.338 C 
ATOM     34  O   UNL A   1      32.239  36.489  32.653  1.00  0.00    -0.246 OA
BRANCH  33  35
ATOM     35  C   UNL A   1      34.063  34.994  32.716  1.00  0.00     0.060 A 
ATOM     36  C   UNL A   1      35.310  35.583  32.512  1.00  0.00     0.016 A 
ATOM     37  C   UNL A   1      33.960  33.776  33.383  1.00  0.00     0.016 A 
ATOM     38  C   UNL A   1      36.471  34.943  32.917  1.00  0.00     0.010 A 
ATOM     39  C   UNL A   1      35.128  33.150  33.833  1.00  0.00     0.010 A 
ATOM     40  C   UNL A   1      36.392  33.716  33.580  1.00  0.00    -0.014 A 
BRANCH  40  41
ATOM     41  C   UNL A   1      37.642  33.023  33.969  1.00  0.00     0.031 A 
ATOM     42  C   UNL A   1      38.173  31.904  33.121  1.00  0.00     0.074 A 
ATOM     43  C   UNL A   1      38.305  33.417  35.073  1.00  0.00     0.049 A 
ATOM     44  N   UNL A   1      39.200  31.124  33.336  1.00  0.00    -0.248 NA
ATOM     45  C   UNL A   1      37.453  31.621  31.868  1.00  0.00     0.031 C 
ATOM     46  C   UNL A   1      37.900  34.513  35.954  1.00  0.00     0.029 A 
ATOM     47  N   UNL A   1      39.454  32.935  35.645  1.00  0.00    -0.354 N 
ATOM     48  C   UNL A   1      39.212  30.217  32.283  1.00  0.00     0.074 A 
ATOM     49  C   UNL A   1      38.098  30.552  31.422  1.00  0.00     0.031 C 
ATOM     50  C   UNL A   1      38.788  34.622  36.955  1.00  0.00     0.029 A 
ATOM     51  C   UNL A   1      39.791  33.571  36.816  1.00  0.00     0.049 A 
ATOM     52  H   UNL A   1      39.985  32.203  35.256  1.00  0.00     0.167 HD
ATOM     53  C   UNL A   1      40.080  29.204  32.053  1.00  0.00     0.034 A 
ATOM     54  C   UNL A   1      40.780  33.318  37.694  1.00  0.00     0.034 A 
ATOM     55  C   UNL A   1      41.221  28.919  32.879  1.00  0.00     0.049 A 
ATOM     56  C   UNL A   1      41.727  32.184  37.414  1.00  0.00     0.074 A 
ATOM     57  C   UNL A   1      42.192  27.950  32.701  1.00  0.00     0.029 A 
ATOM     58  N   UNL A   1      41.547  29.603  34.041  1.00  0.00    -0.354 N 
ATOM     59  N   UNL A   1      41.772  31.386  36.376  1.00  0.00    -0.248 NA
ATOM     60  C   UNL A   1      42.769  31.926  38.418  1.00  0.00     0.031 C 
ATOM     61  C   UNL A   1      43.099  28.040  33.763  1.00  0.00     0.029 A 
ATOM     62  C   UNL A   1      42.699  29.073  34.596  1.00  0.00     0.049 A 
ATOM     63  H   UNL A   1      41.034  30.355  34.416  1.00  0.00     0.167 HD
ATOM     64  C   UNL A   1      42.860  30.547  36.586  1.00  0.00     0.074 A 
ATOM     65  C   UNL A   1      43.459  30.951  37.843  1.00  0.00     0.031 C 
ATOM     66  C   UNL A   1      43.311  29.524  35.820  1.00  0.00     0.034 A 
BRANCH  53  67
ATOM     67  C   UNL A   1      39.835  28.339  30.846  1.00  0.00     0.023 A 
ATOM     68  C   UNL A   1      38.930  27.263  30.926  1.00  0.00     0.012 A 
ATOM     69  C   UNL A   1      40.474  28.617  29.621  1.00  0.00     0.148 A 
ATOM     70  C   UNL A   1      38.686  26.457  29.814  1.00  0.00     0.002 A 
ATOM     71  C   UNL A   1      40.198  27.832  28.508  1.00  0.00     0.091 A 
ATOM     72  F   UNL A   1      41.356  29.625  29.572  1.00  0.00    -0.205 F 
ATOM     73  C   UNL A   1      39.312  26.747  28.604  1.00  0.00     0.022 A 
BRANCH  71  74
ATOM     74  S   UNL A   1      40.908  28.179  26.895  1.00  0.00     0.127 S 
ATOM     75  O   UNL A   1      42.300  28.463  27.240  1.00  0.00    -0.237 OA
ATOM     76  O   UNL A   1      40.704  26.916  26.183  1.00  0.00    -0.237 OA
ATOM     77  O   UNL A   1      40.146  29.300  26.361  1.00  0.00    -0.744 OA
ENDBRANCH  71  74
ENDBRANCH  53  67
BRANCH  54  78
ATOM     78  C   UNL A   1      40.942  34.183  38.897  1.00  0.00     0.023 A 
ATOM     79  C   UNL A   1      41.952  35.162  38.909  1.00  0.00     0.012 A 
ATOM     80  C   UNL A   1      40.074  34.076  40.001  1.00  0.00     0.148 A 
ATOM     81  C   UNL A   1      42.106  36.012  40.005  1.00  0.00     0.002 A 
ATOM     82  C   UNL A   1      40.196  34.962  41.067  1.00  0.00     0.091 A 
ATOM     83  F   UNL A   1      39.132  33.123  39.981  1.00  0.00    -0.205 F 
ATOM     84  C   UNL A   1      41.221  35.920  41.077  1.00  0.00     0.022 A 
BRANCH  82  85
ATOM     85  S   UNL A   1      39.017  35.004  42.420  1.00  0.00     0.127 S 
ATOM     86  O   UNL A   1      39.052  33.622  42.891  1.00  0.00    -0.237 OA
ATOM     87  O   UNL A   1      39.625  35.980  43.325  1.00  0.00    -0.237 OA
ATOM     88  O   UNL A   1      37.759  35.441  41.829  1.00  0.00    -0.744 OA
ENDBRANCH  82  85
ENDBRANCH  54  78
BRANCH  66  89
ATOM     89  C   UNL A   1      44.527  28.780  36.302  1.00  0.00     0.023 A 
ATOM     90  C   UNL A   1      45.810  29.265  35.982  1.00  0.00     0.012 A 
ATOM     91  C   UNL A   1      44.399  27.651  37.134  1.00  0.00     0.148 A 
ATOM     92  C   UNL A   1      46.950  28.620  36.462  1.00  0.00     0.002 A 
ATOM     93  C   UNL A   1      45.539  27.040  37.643  1.00  0.00     0.091 A 
ATOM     94  F   UNL A   1      43.169  27.191  37.407  1.00  0.00    -0.205 F 
ATOM     95  C   UNL A   1      46.815  27.517  37.302  1.00  0.00     0.022 A 
BRANCH  93  96
ATOM     96  S   UNL A   1      45.449  25.671  38.804  1.00  0.00     0.127 S 
ATOM     97  O   UNL A   1      46.862  25.420  39.080  1.00  0.00    -0.237 OA
ATOM     98  O   UNL A   1      44.703  26.252  39.920  1.00  0.00    -0.237 OA
ATOM     99  O   UNL A   1      44.746  24.605  38.104  1.00  0.00    -0.744 OA
ENDBRANCH  93  96
ENDBRANCH  66  89
ENDBRANCH  40  41
ENDBRANCH  33  35
ENDBRANCH  32  33
ENDBRANCH  31  32
ENDBRANCH   1  31
TORSDOF 19
ENDMDL
