MODEL 1
REMARK VINA RESULT:     -10.2      0.000      0.000
REMARK SMILES CC(C)[C@H](C)n1c(SCC(=O)OCCOC(=O)c2ccc(-c3c4nc(c(-c5cccc(S(=O)(=O)[O-])c5F)c5ccc([nH]5)c(-c5cccc(S(=O)(=O)[O-])c5F)c5nc(c(-c6cccc(S(=O)(=O)[O-])c6F)c6ccc3[nH]6)C=C5)C=C4)cc2)nc2cc(Br)cnc21
REMARK SMILES IDX 13 1 12 2 10 3 11 4 9 5 8 6 7 7 6 8 88 9 81 10 82 11 87 12
REMARK SMILES IDX 83 13 86 14 84 15 85 16 4 17 5 18 2 19 1 20 3 21 14 22 15 23
REMARK SMILES IDX 16 24 17 25 18 26 19 27 80 28 20 29 79 30 21 31 22 32 23 33
REMARK SMILES IDX 73 34 24 35 78 36 72 37 74 38 25 39 77 40 71 41 70 42 26 44
REMARK SMILES IDX 58 45 38 46 57 47 39 48 42 49 56 50 75 51 40 52 41 53 55 55
REMARK SMILES IDX 76 56 43 57 27 58 28 59 36 60 29 61 31 62 37 63 30 64 32 65
REMARK SMILES IDX 33 66 34 67 35 68 59 69 60 70 68 71 61 72 63 73 69 74 62 75
REMARK SMILES IDX 64 76 65 77 66 78 67 79 44 80 45 81 53 82 46 83 48 84 54 85
REMARK SMILES IDX 47 86 49 87 50 88 51 89 52 90
REMARK H PARENT 74 43 42 54
REMARK Flexibility Score: inf
ROOT
ATOM      1  C   UNL A   1      37.290  22.769  25.647  1.00  0.00     0.274 C 
ENDROOT
BRANCH   1   2
ATOM      2  O   UNL A   1      35.872  22.464  25.714  1.00  0.00    -0.461 OA
BRANCH   2   3
ATOM      3  C   UNL A   1      35.064  23.297  25.008  1.00  0.00     0.316 C 
ATOM      4  O   UNL A   1      35.319  23.697  23.870  1.00  0.00    -0.251 OA
BRANCH   3   5
ATOM      5  C   UNL A   1      33.964  23.942  25.802  1.00  0.00     0.200 C 
BRANCH   5   6
ATOM      6  S   UNL A   1      32.587  24.870  25.165  1.00  0.00    -0.076 SA
BRANCH   6   7
ATOM      7  C   UNL A   1      32.498  26.559  25.512  1.00  0.00     0.171 A 
ATOM      8  N   UNL A   1      31.900  27.620  24.844  1.00  0.00    -0.301 N 
ATOM      9  C   UNL A   1      32.242  28.757  25.582  1.00  0.00     0.161 A 
ATOM     10  N   UNL A   1      33.378  27.000  26.400  1.00  0.00    -0.221 NA
ATOM     11  C   UNL A   1      33.227  28.350  26.463  1.00  0.00     0.110 A 
ATOM     12  N   UNL A   1      31.757  30.010  25.440  1.00  0.00    -0.235 NA
ATOM     13  C   UNL A   1      33.863  29.316  27.252  1.00  0.00     0.049 A 
ATOM     14  C   UNL A   1      32.350  30.908  26.269  1.00  0.00     0.129 A 
ATOM     15  C   UNL A   1      33.381  30.621  27.156  1.00  0.00     0.038 A 
ATOM     16  Br  UNL A   1      34.097  31.963  28.271  1.00  0.00    -0.049 Br
BRANCH   8  17
ATOM     17  C   UNL A   1      30.977  27.758  23.709  1.00  0.00     0.091 C 
ATOM     18  C   UNL A   1      31.450  27.060  22.413  1.00  0.00     0.032 C 
BRANCH  17  19
ATOM     19  C   UNL A   1      29.466  27.532  23.943  1.00  0.00     0.006 C 
ATOM     20  C   UNL A   1      28.567  28.422  23.076  1.00  0.00     0.009 C 
ATOM     21  C   UNL A   1      29.025  26.077  23.802  1.00  0.00     0.009 C 
ENDBRANCH  17  19
ENDBRANCH   8  17
ENDBRANCH   6   7
ENDBRANCH   5   6
ENDBRANCH   3   5
ENDBRANCH   2   3
ENDBRANCH   1   2
BRANCH   1  22
ATOM     22  C   UNL A   1      38.112  21.604  25.098  1.00  0.00     0.275 C 
BRANCH  22  23
ATOM     23  O   UNL A   1      38.460  20.600  26.067  1.00  0.00    -0.458 OA
BRANCH  23  24
ATOM     24  C   UNL A   1      39.628  19.975  25.816  1.00  0.00     0.338 C 
ATOM     25  O   UNL A   1      39.765  18.846  25.377  1.00  0.00    -0.246 OA
BRANCH  24  26
ATOM     26  C   UNL A   1      40.768  20.699  26.396  1.00  0.00     0.060 A 
ATOM     27  C   UNL A   1      40.777  20.815  27.784  1.00  0.00     0.016 A 
ATOM     28  C   UNL A   1      41.531  21.558  25.608  1.00  0.00     0.016 A 
ATOM     29  C   UNL A   1      41.268  21.965  28.360  1.00  0.00     0.010 A 
ATOM     30  C   UNL A   1      42.148  22.644  26.211  1.00  0.00     0.010 A 
ATOM     31  C   UNL A   1      41.899  22.920  27.561  1.00  0.00    -0.014 A 
BRANCH  31  32
ATOM     32  C   UNL A   1      42.328  24.162  28.219  1.00  0.00     0.031 A 
ATOM     33  C   UNL A   1      41.384  25.317  28.093  1.00  0.00     0.074 A 
ATOM     34  C   UNL A   1      43.438  24.226  28.985  1.00  0.00     0.049 A 
ATOM     35  N   UNL A   1      41.649  26.559  27.821  1.00  0.00    -0.248 NA
ATOM     36  C   UNL A   1      39.942  25.017  28.173  1.00  0.00     0.031 C 
ATOM     37  C   UNL A   1      44.326  23.118  29.351  1.00  0.00     0.029 A 
ATOM     38  N   UNL A   1      43.877  25.251  29.781  1.00  0.00    -0.354 N 
ATOM     39  C   UNL A   1      40.421  27.221  27.884  1.00  0.00     0.074 A 
ATOM     40  C   UNL A   1      39.403  26.208  27.933  1.00  0.00     0.031 C 
ATOM     41  C   UNL A   1      44.919  23.411  30.524  1.00  0.00     0.029 A 
ATOM     42  C   UNL A   1      44.547  24.762  30.902  1.00  0.00     0.049 A 
ATOM     43  H   UNL A   1      43.737  26.206  29.588  1.00  0.00     0.167 HD
ATOM     44  C   UNL A   1      40.309  28.556  28.117  1.00  0.00     0.034 A 
ATOM     45  C   UNL A   1      44.626  25.348  32.120  1.00  0.00     0.034 A 
ATOM     46  C   UNL A   1      41.508  29.278  27.811  1.00  0.00     0.049 A 
ATOM     47  C   UNL A   1      44.338  26.790  31.961  1.00  0.00     0.074 A 
ATOM     48  C   UNL A   1      42.278  29.465  26.683  1.00  0.00     0.029 A 
ATOM     49  N   UNL A   1      42.252  29.760  28.859  1.00  0.00    -0.354 N 
ATOM     50  N   UNL A   1      45.113  27.629  31.332  1.00  0.00    -0.248 NA
ATOM     51  C   UNL A   1      42.976  27.244  32.188  1.00  0.00     0.031 C 
ATOM     52  C   UNL A   1      43.609  29.613  27.164  1.00  0.00     0.029 A 
ATOM     53  C   UNL A   1      43.563  29.516  28.555  1.00  0.00     0.049 A 
ATOM     54  H   UNL A   1      41.908  30.196  29.671  1.00  0.00     0.167 HD
ATOM     55  C   UNL A   1      44.240  28.512  30.712  1.00  0.00     0.074 A 
ATOM     56  C   UNL A   1      42.955  28.299  31.372  1.00  0.00     0.031 C 
ATOM     57  C   UNL A   1      44.557  29.122  29.530  1.00  0.00     0.034 A 
BRANCH  44  58
ATOM     58  C   UNL A   1      39.196  29.170  28.932  1.00  0.00     0.023 A 
ATOM     59  C   UNL A   1      38.367  30.128  28.307  1.00  0.00     0.012 A 
ATOM     60  C   UNL A   1      39.092  29.055  30.337  1.00  0.00     0.148 A 
ATOM     61  C   UNL A   1      37.515  30.954  29.047  1.00  0.00     0.002 A 
ATOM     62  C   UNL A   1      38.176  29.812  31.057  1.00  0.00     0.091 A 
ATOM     63  F   UNL A   1      39.974  28.318  31.020  1.00  0.00    -0.205 F 
ATOM     64  C   UNL A   1      37.408  30.787  30.423  1.00  0.00     0.022 A 
BRANCH  62  65
ATOM     65  S   UNL A   1      37.961  29.554  32.821  1.00  0.00     0.127 S 
ATOM     66  O   UNL A   1      37.023  30.619  33.163  1.00  0.00    -0.237 OA
ATOM     67  O   UNL A   1      37.406  28.200  32.869  1.00  0.00    -0.237 OA
ATOM     68  O   UNL A   1      39.302  29.662  33.382  1.00  0.00    -0.744 OA
ENDBRANCH  62  65
ENDBRANCH  44  58
BRANCH  45  69
ATOM     69  C   UNL A   1      44.616  24.659  33.434  1.00  0.00     0.023 A 
ATOM     70  C   UNL A   1      43.399  24.243  34.001  1.00  0.00     0.012 A 
ATOM     71  C   UNL A   1      45.815  24.229  34.053  1.00  0.00     0.148 A 
ATOM     72  C   UNL A   1      43.376  23.441  35.150  1.00  0.00     0.002 A 
ATOM     73  C   UNL A   1      45.790  23.470  35.217  1.00  0.00     0.091 A 
ATOM     74  F   UNL A   1      46.986  24.483  33.453  1.00  0.00    -0.205 F 
ATOM     75  C   UNL A   1      44.569  23.065  35.765  1.00  0.00     0.022 A 
BRANCH  73  76
ATOM     76  S   UNL A   1      47.303  23.004  36.072  1.00  0.00     0.127 S 
ATOM     77  O   UNL A   1      46.788  22.341  37.271  1.00  0.00    -0.237 OA
ATOM     78  O   UNL A   1      47.939  22.114  35.106  1.00  0.00    -0.237 OA
ATOM     79  O   UNL A   1      47.998  24.257  36.343  1.00  0.00    -0.744 OA
ENDBRANCH  73  76
ENDBRANCH  45  69
BRANCH  57  80
ATOM     80  C   UNL A   1      45.977  29.074  29.022  1.00  0.00     0.023 A 
ATOM     81  C   UNL A   1      46.940  30.018  29.429  1.00  0.00     0.012 A 
ATOM     82  C   UNL A   1      46.404  27.927  28.322  1.00  0.00     0.148 A 
ATOM     83  C   UNL A   1      48.292  29.832  29.132  1.00  0.00     0.002 A 
ATOM     84  C   UNL A   1      47.757  27.720  28.082  1.00  0.00     0.091 A 
ATOM     85  F   UNL A   1      45.477  27.031  27.948  1.00  0.00    -0.205 F 
ATOM     86  C   UNL A   1      48.703  28.676  28.477  1.00  0.00     0.022 A 
BRANCH  84  87
ATOM     87  S   UNL A   1      48.379  26.190  27.376  1.00  0.00     0.127 S 
ATOM     88  O   UNL A   1      49.702  26.589  26.900  1.00  0.00    -0.237 OA
ATOM     89  O   UNL A   1      48.392  25.295  28.534  1.00  0.00    -0.237 OA
ATOM     90  O   UNL A   1      47.433  25.809  26.335  1.00  0.00    -0.744 OA
ENDBRANCH  84  87
ENDBRANCH  57  80
ENDBRANCH  31  32
ENDBRANCH  24  26
ENDBRANCH  23  24
ENDBRANCH  22  23
ENDBRANCH   1  22
TORSDOF 18
ENDMDL
MODEL 2
REMARK VINA RESULT:     -10.1      1.148      2.091
REMARK SMILES CC(C)[C@H](C)n1c(SCC(=O)OCCOC(=O)c2ccc(-c3c4nc(c(-c5cccc(S(=O)(=O)[O-])c5F)c5ccc([nH]5)c(-c5cccc(S(=O)(=O)[O-])c5F)c5nc(c(-c6cccc(S(=O)(=O)[O-])c6F)c6ccc3[nH]6)C=C5)C=C4)cc2)nc2cc(Br)cnc21
REMARK SMILES IDX 13 1 12 2 10 3 11 4 9 5 8 6 7 7 6 8 88 9 81 10 82 11 87 12
REMARK SMILES IDX 83 13 86 14 84 15 85 16 4 17 5 18 2 19 1 20 3 21 14 22 15 23
REMARK SMILES IDX 16 24 17 25 18 26 19 27 80 28 20 29 79 30 21 31 22 32 23 33
REMARK SMILES IDX 73 34 24 35 78 36 72 37 74 38 25 39 77 40 71 41 70 42 26 44
REMARK SMILES IDX 58 45 38 46 57 47 39 48 42 49 56 50 75 51 40 52 41 53 55 55
REMARK SMILES IDX 76 56 43 57 27 58 28 59 36 60 29 61 31 62 37 63 30 64 32 65
REMARK SMILES IDX 33 66 34 67 35 68 59 69 60 70 68 71 61 72 63 73 69 74 62 75
REMARK SMILES IDX 64 76 65 77 66 78 67 79 44 80 45 81 53 82 46 83 48 84 54 85
REMARK SMILES IDX 47 86 49 87 50 88 51 89 52 90
REMARK H PARENT 74 43 42 54
REMARK Flexibility Score: inf
ROOT
ATOM      1  C   UNL A   1      37.065  22.948  25.668  1.00  0.00     0.274 C 
ENDROOT
BRANCH   1   2
ATOM      2  O   UNL A   1      35.725  22.399  25.754  1.00  0.00    -0.461 OA
BRANCH   2   3
ATOM      3  C   UNL A   1      34.767  23.093  25.085  1.00  0.00     0.316 C 
ATOM      4  O   UNL A   1      34.872  23.443  23.907  1.00  0.00    -0.251 OA
BRANCH   3   5
ATOM      5  C   UNL A   1      33.678  23.668  25.946  1.00  0.00     0.200 C 
BRANCH   5   6
ATOM      6  S   UNL A   1      31.979  23.927  25.490  1.00  0.00    -0.076 SA
BRANCH   6   7
ATOM      7  C   UNL A   1      31.513  25.474  24.880  1.00  0.00     0.171 A 
ATOM      8  N   UNL A   1      32.038  26.746  25.062  1.00  0.00    -0.301 N 
ATOM      9  C   UNL A   1      31.175  27.600  24.369  1.00  0.00     0.161 A 
ATOM     10  N   UNL A   1      30.283  25.539  24.388  1.00  0.00    -0.221 NA
ATOM     11  C   UNL A   1      30.064  26.840  24.059  1.00  0.00     0.110 A 
ATOM     12  N   UNL A   1      31.354  28.912  24.098  1.00  0.00    -0.235 NA
ATOM     13  C   UNL A   1      28.961  27.471  23.471  1.00  0.00     0.049 A 
ATOM     14  C   UNL A   1      30.291  29.476  23.467  1.00  0.00     0.129 A 
ATOM     15  C   UNL A   1      29.107  28.820  23.151  1.00  0.00     0.038 A 
ATOM     16  Br  UNL A   1      27.717  29.720  22.248  1.00  0.00    -0.049 Br
BRANCH   8  17
ATOM     17  C   UNL A   1      33.257  27.302  25.667  1.00  0.00     0.091 C 
ATOM     18  C   UNL A   1      34.172  28.060  24.678  1.00  0.00     0.032 C 
BRANCH  17  19
ATOM     19  C   UNL A   1      33.147  28.054  27.013  1.00  0.00     0.006 C 
ATOM     20  C   UNL A   1      33.677  29.492  26.961  1.00  0.00     0.009 C 
ATOM     21  C   UNL A   1      31.743  28.053  27.613  1.00  0.00     0.009 C 
ENDBRANCH  17  19
ENDBRANCH   8  17
ENDBRANCH   6   7
ENDBRANCH   5   6
ENDBRANCH   3   5
ENDBRANCH   2   3
ENDBRANCH   1   2
BRANCH   1  22
ATOM     22  C   UNL A   1      38.085  21.925  25.169  1.00  0.00     0.275 C 
BRANCH  22  23
ATOM     23  O   UNL A   1      38.344  20.839  26.075  1.00  0.00    -0.458 OA
BRANCH  23  24
ATOM     24  C   UNL A   1      39.493  20.178  25.826  1.00  0.00     0.338 C 
ATOM     25  O   UNL A   1      39.596  19.047  25.384  1.00  0.00    -0.246 OA
BRANCH  24  26
ATOM     26  C   UNL A   1      40.652  20.864  26.415  1.00  0.00     0.060 A 
ATOM     27  C   UNL A   1      40.660  20.972  27.803  1.00  0.00     0.016 A 
ATOM     28  C   UNL A   1      41.445  21.703  25.634  1.00  0.00     0.016 A 
ATOM     29  C   UNL A   1      41.184  22.104  28.387  1.00  0.00     0.010 A 
ATOM     30  C   UNL A   1      42.092  22.767  26.245  1.00  0.00     0.010 A 
ATOM     31  C   UNL A   1      41.847  23.043  27.596  1.00  0.00    -0.014 A 
BRANCH  31  32
ATOM     32  C   UNL A   1      42.311  24.268  28.261  1.00  0.00     0.031 A 
ATOM     33  C   UNL A   1      41.394  25.447  28.156  1.00  0.00     0.074 A 
ATOM     34  C   UNL A   1      43.430  24.298  29.018  1.00  0.00     0.049 A 
ATOM     35  N   UNL A   1      41.686  26.684  27.893  1.00  0.00    -0.248 NA
ATOM     36  C   UNL A   1      39.946  25.180  28.245  1.00  0.00     0.031 C 
ATOM     37  C   UNL A   1      44.295  23.165  29.364  1.00  0.00     0.029 A 
ATOM     38  N   UNL A   1      43.900  25.304  29.820  1.00  0.00    -0.354 N 
ATOM     39  C   UNL A   1      40.476  27.375  27.973  1.00  0.00     0.074 A 
ATOM     40  C   UNL A   1      39.434  26.386  28.022  1.00  0.00     0.031 C 
ATOM     41  C   UNL A   1      44.905  23.433  30.535  1.00  0.00     0.029 A 
ATOM     42  C   UNL A   1      44.568  24.788  30.929  1.00  0.00     0.049 A 
ATOM     43  H   UNL A   1      43.782  26.264  29.637  1.00  0.00     0.167 HD
ATOM     44  C   UNL A   1      40.397  28.709  28.221  1.00  0.00     0.034 A 
ATOM     45  C   UNL A   1      44.673  25.360  32.152  1.00  0.00     0.034 A 
ATOM     46  C   UNL A   1      41.610  29.406  27.911  1.00  0.00     0.049 A 
ATOM     47  C   UNL A   1      44.418  26.810  32.010  1.00  0.00     0.074 A 
ATOM     48  C   UNL A   1      42.375  29.585  26.777  1.00  0.00     0.029 A 
ATOM     49  N   UNL A   1      42.376  29.859  28.956  1.00  0.00    -0.354 N 
ATOM     50  N   UNL A   1      45.207  27.637  31.382  1.00  0.00    -0.248 NA
ATOM     51  C   UNL A   1      43.069  27.294  32.254  1.00  0.00     0.031 C 
ATOM     52  C   UNL A   1      43.713  29.697  27.247  1.00  0.00     0.029 A 
ATOM     53  C   UNL A   1      43.677  29.587  28.638  1.00  0.00     0.049 A 
ATOM     54  H   UNL A   1      42.050  30.296  29.776  1.00  0.00     0.167 HD
ATOM     55  C   UNL A   1      44.350  28.547  30.778  1.00  0.00     0.074 A 
ATOM     56  C   UNL A   1      43.066  28.357  31.448  1.00  0.00     0.031 C 
ATOM     57  C   UNL A   1      44.670  29.160  29.600  1.00  0.00     0.034 A 
BRANCH  44  58
ATOM     58  C   UNL A   1      39.306  29.342  29.052  1.00  0.00     0.023 A 
ATOM     59  C   UNL A   1      38.535  30.368  28.463  1.00  0.00     0.012 A 
ATOM     60  C   UNL A   1      39.180  29.169  30.449  1.00  0.00     0.148 A 
ATOM     61  C   UNL A   1      37.716  31.202  29.232  1.00  0.00     0.002 A 
ATOM     62  C   UNL A   1      38.294  29.938  31.193  1.00  0.00     0.091 A 
ATOM     63  F   UNL A   1      40.015  28.357  31.106  1.00  0.00    -0.205 F 
ATOM     64  C   UNL A   1      37.584  30.979  30.597  1.00  0.00     0.022 A 
BRANCH  62  65
ATOM     65  S   UNL A   1      38.044  29.611  32.942  1.00  0.00     0.127 S 
ATOM     66  O   UNL A   1      37.508  28.255  32.915  1.00  0.00    -0.237 OA
ATOM     67  O   UNL A   1      39.403  29.732  33.474  1.00  0.00    -0.237 OA
ATOM     68  O   UNL A   1      37.139  30.661  33.394  1.00  0.00    -0.744 OA
ENDBRANCH  62  65
ENDBRANCH  44  58
BRANCH  45  69
ATOM     69  C   UNL A   1      44.657  24.659  33.459  1.00  0.00     0.023 A 
ATOM     70  C   UNL A   1      43.445  24.185  33.990  1.00  0.00     0.012 A 
ATOM     71  C   UNL A   1      45.858  24.275  34.107  1.00  0.00     0.148 A 
ATOM     72  C   UNL A   1      43.427  23.372  35.132  1.00  0.00     0.002 A 
ATOM     73  C   UNL A   1      45.834  23.504  35.263  1.00  0.00     0.091 A 
ATOM     74  F   UNL A   1      47.032  24.584  33.540  1.00  0.00    -0.205 F 
ATOM     75  C   UNL A   1      44.619  23.041  35.775  1.00  0.00     0.022 A 
BRANCH  73  76
ATOM     76  S   UNL A   1      47.343  23.095  36.154  1.00  0.00     0.127 S 
ATOM     77  O   UNL A   1      47.838  24.416  36.545  1.00  0.00    -0.237 OA
ATOM     78  O   UNL A   1      46.839  22.280  37.253  1.00  0.00    -0.237 OA
ATOM     79  O   UNL A   1      48.193  22.410  35.186  1.00  0.00    -0.744 OA
ENDBRANCH  73  76
ENDBRANCH  45  69
BRANCH  57  80
ATOM     80  C   UNL A   1      46.084  29.083  29.078  1.00  0.00     0.023 A 
ATOM     81  C   UNL A   1      47.072  30.004  29.480  1.00  0.00     0.012 A 
ATOM     82  C   UNL A   1      46.479  27.931  28.369  1.00  0.00     0.148 A 
ATOM     83  C   UNL A   1      48.416  29.790  29.169  1.00  0.00     0.002 A 
ATOM     84  C   UNL A   1      47.825  27.694  28.115  1.00  0.00     0.091 A 
ATOM     85  F   UNL A   1      45.529  27.057  28.000  1.00  0.00    -0.205 F 
ATOM     86  C   UNL A   1      48.796  28.628  28.506  1.00  0.00     0.022 A 
BRANCH  84  87
ATOM     87  S   UNL A   1      48.407  26.155  27.397  1.00  0.00     0.127 S 
ATOM     88  O   UNL A   1      47.917  26.255  26.023  1.00  0.00    -0.237 OA
ATOM     89  O   UNL A   1      49.859  26.275  27.538  1.00  0.00    -0.237 OA
ATOM     90  O   UNL A   1      47.815  25.087  28.192  1.00  0.00    -0.744 OA
ENDBRANCH  84  87
ENDBRANCH  57  80
ENDBRANCH  31  32
ENDBRANCH  24  26
ENDBRANCH  23  24
ENDBRANCH  22  23
ENDBRANCH   1  22
TORSDOF 18
ENDMDL
MODEL 3
REMARK VINA RESULT:     -10.1      5.384     10.391
REMARK SMILES CC(C)[C@H](C)n1c(SCC(=O)OCCOC(=O)c2ccc(-c3c4nc(c(-c5cccc(S(=O)(=O)[O-])c5F)c5ccc([nH]5)c(-c5cccc(S(=O)(=O)[O-])c5F)c5nc(c(-c6cccc(S(=O)(=O)[O-])c6F)c6ccc3[nH]6)C=C5)C=C4)cc2)nc2cc(Br)cnc21
REMARK SMILES IDX 13 1 12 2 10 3 11 4 9 5 8 6 7 7 6 8 88 9 81 10 82 11 87 12
REMARK SMILES IDX 83 13 86 14 84 15 85 16 4 17 5 18 2 19 1 20 3 21 14 22 15 23
REMARK SMILES IDX 16 24 17 25 18 26 19 27 80 28 20 29 79 30 21 31 22 32 23 33
REMARK SMILES IDX 73 34 24 35 78 36 72 37 74 38 25 39 77 40 71 41 70 42 26 44
REMARK SMILES IDX 58 45 38 46 57 47 39 48 42 49 56 50 75 51 40 52 41 53 55 55
REMARK SMILES IDX 76 56 43 57 27 58 28 59 36 60 29 61 31 62 37 63 30 64 32 65
REMARK SMILES IDX 33 66 34 67 35 68 59 69 60 70 68 71 61 72 63 73 69 74 62 75
REMARK SMILES IDX 64 76 65 77 66 78 67 79 44 80 45 81 53 82 46 83 48 84 54 85
REMARK SMILES IDX 47 86 49 87 50 88 51 89 52 90
REMARK H PARENT 74 43 42 54
REMARK Flexibility Score: inf
ROOT
ATOM      1  C   UNL A   1      40.876  20.151  26.444  1.00  0.00     0.274 C 
ENDROOT
BRANCH   1   2
ATOM      2  O   UNL A   1      42.217  19.745  26.823  1.00  0.00    -0.461 OA
BRANCH   2   3
ATOM      3  C   UNL A   1      43.005  19.315  25.803  1.00  0.00     0.316 C 
ATOM      4  O   UNL A   1      43.040  18.147  25.411  1.00  0.00    -0.251 OA
BRANCH   3   5
ATOM      5  C   UNL A   1      44.058  20.290  25.358  1.00  0.00     0.200 C 
BRANCH   5   6
ATOM      6  S   UNL A   1      43.889  22.054  25.213  1.00  0.00    -0.076 SA
BRANCH   6   7
ATOM      7  C   UNL A   1      44.247  23.034  26.590  1.00  0.00     0.171 A 
ATOM      8  N   UNL A   1      45.086  24.125  26.766  1.00  0.00    -0.301 N 
ATOM      9  C   UNL A   1      45.003  24.435  28.127  1.00  0.00     0.161 A 
ATOM     10  N   UNL A   1      43.906  22.509  27.759  1.00  0.00    -0.221 NA
ATOM     11  C   UNL A   1      44.356  23.365  28.716  1.00  0.00     0.110 A 
ATOM     12  N   UNL A   1      45.496  25.524  28.758  1.00  0.00    -0.235 NA
ATOM     13  C   UNL A   1      44.244  23.333  30.111  1.00  0.00     0.049 A 
ATOM     14  C   UNL A   1      45.310  25.490  30.103  1.00  0.00     0.129 A 
ATOM     15  C   UNL A   1      44.717  24.446  30.804  1.00  0.00     0.038 A 
ATOM     16  Br  UNL A   1      44.498  24.541  32.675  1.00  0.00    -0.049 Br
BRANCH   8  17
ATOM     17  C   UNL A   1      45.864  25.005  25.882  1.00  0.00     0.091 C 
ATOM     18  C   UNL A   1      46.787  24.259  24.891  1.00  0.00     0.032 C 
BRANCH  17  19
ATOM     19  C   UNL A   1      45.152  26.192  25.194  1.00  0.00     0.006 C 
ATOM     20  C   UNL A   1      43.625  26.160  25.332  1.00  0.00     0.009 C 
ATOM     21  C   UNL A   1      45.672  27.562  25.622  1.00  0.00     0.009 C 
ENDBRANCH  17  19
ENDBRANCH   8  17
ENDBRANCH   6   7
ENDBRANCH   5   6
ENDBRANCH   3   5
ENDBRANCH   2   3
ENDBRANCH   1   2
BRANCH   1  22
ATOM     22  C   UNL A   1      40.449  21.455  27.115  1.00  0.00     0.275 C 
BRANCH  22  23
ATOM     23  O   UNL A   1      40.487  22.614  26.265  1.00  0.00    -0.458 OA
BRANCH  23  24
ATOM     24  C   UNL A   1      39.726  23.639  26.698  1.00  0.00     0.338 C 
ATOM     25  O   UNL A   1      38.508  23.694  26.680  1.00  0.00    -0.246 OA
BRANCH  24  26
ATOM     26  C   UNL A   1      40.530  24.844  26.951  1.00  0.00     0.060 A 
ATOM     27  C   UNL A   1      41.373  24.796  28.057  1.00  0.00     0.016 A 
ATOM     28  C   UNL A   1      40.160  26.067  26.394  1.00  0.00     0.016 A 
ATOM     29  C   UNL A   1      41.577  25.939  28.799  1.00  0.00     0.010 A 
ATOM     30  C   UNL A   1      40.488  27.233  27.069  1.00  0.00     0.010 A 
ATOM     31  C   UNL A   1      41.075  27.156  28.338  1.00  0.00    -0.014 A 
BRANCH  31  32
ATOM     32  C   UNL A   1      41.252  28.324  29.211  1.00  0.00     0.031 A 
ATOM     33  C   UNL A   1      42.338  29.273  28.808  1.00  0.00     0.074 A 
ATOM     34  C   UNL A   1      40.416  28.590  30.239  1.00  0.00     0.049 A 
ATOM     35  N   UNL A   1      43.236  29.846  29.551  1.00  0.00    -0.248 NA
ATOM     36  C   UNL A   1      42.508  29.523  27.364  1.00  0.00     0.031 C 
ATOM     37  C   UNL A   1      39.202  27.854  30.605  1.00  0.00     0.029 A 
ATOM     38  N   UNL A   1      40.353  29.705  31.032  1.00  0.00    -0.354 N 
ATOM     39  C   UNL A   1      43.958  30.671  28.687  1.00  0.00     0.074 A 
ATOM     40  C   UNL A   1      43.583  30.304  27.348  1.00  0.00     0.031 C 
ATOM     41  C   UNL A   1      38.363  28.696  31.240  1.00  0.00     0.029 A 
ATOM     42  C   UNL A   1      39.042  29.965  31.427  1.00  0.00     0.049 A 
ATOM     43  H   UNL A   1      41.131  30.252  31.288  1.00  0.00     0.167 HD
ATOM     44  C   UNL A   1      44.657  31.758  29.110  1.00  0.00     0.034 A 
ATOM     45  C   UNL A   1      38.503  31.175  31.707  1.00  0.00     0.034 A 
ATOM     46  C   UNL A   1      44.985  31.702  30.503  1.00  0.00     0.049 A 
ATOM     47  C   UNL A   1      39.603  32.113  32.020  1.00  0.00     0.074 A 
ATOM     48  C   UNL A   1      45.697  30.839  31.309  1.00  0.00     0.029 A 
ATOM     49  N   UNL A   1      44.312  32.543  31.355  1.00  0.00    -0.354 N 
ATOM     50  N   UNL A   1      40.361  32.030  33.078  1.00  0.00    -0.248 NA
ATOM     51  C   UNL A   1      40.116  32.948  30.946  1.00  0.00     0.031 C 
ATOM     52  C   UNL A   1      45.057  30.904  32.578  1.00  0.00     0.029 A 
ATOM     53  C   UNL A   1      44.001  31.809  32.467  1.00  0.00     0.049 A 
ATOM     54  H   UNL A   1      44.095  33.489  31.196  1.00  0.00     0.167 HD
ATOM     55  C   UNL A   1      41.615  32.435  32.642  1.00  0.00     0.074 A 
ATOM     56  C   UNL A   1      41.373  33.099  31.364  1.00  0.00     0.031 C 
ATOM     57  C   UNL A   1      42.762  31.943  33.200  1.00  0.00     0.034 A 
BRANCH  44  58
ATOM     58  C   UNL A   1      44.772  33.037  28.315  1.00  0.00     0.023 A 
ATOM     59  C   UNL A   1      43.579  33.675  27.910  1.00  0.00     0.012 A 
ATOM     60  C   UNL A   1      45.973  33.493  27.725  1.00  0.00     0.148 A 
ATOM     61  C   UNL A   1      43.580  34.682  26.939  1.00  0.00     0.002 A 
ATOM     62  C   UNL A   1      45.978  34.557  26.832  1.00  0.00     0.091 A 
ATOM     63  F   UNL A   1      47.112  32.816  27.906  1.00  0.00    -0.205 F 
ATOM     64  C   UNL A   1      44.783  35.134  26.409  1.00  0.00     0.022 A 
BRANCH  62  65
ATOM     65  S   UNL A   1      47.526  35.213  26.199  1.00  0.00     0.127 S 
ATOM     66  O   UNL A   1      47.881  34.216  25.194  1.00  0.00    -0.237 OA
ATOM     67  O   UNL A   1      47.115  36.513  25.666  1.00  0.00    -0.237 OA
ATOM     68  O   UNL A   1      48.400  35.302  27.363  1.00  0.00    -0.744 OA
ENDBRANCH  62  65
ENDBRANCH  44  58
BRANCH  45  69
ATOM     69  C   UNL A   1      37.123  31.620  31.395  1.00  0.00     0.023 A 
ATOM     70  C   UNL A   1      36.264  32.028  32.430  1.00  0.00     0.012 A 
ATOM     71  C   UNL A   1      36.700  31.836  30.060  1.00  0.00     0.148 A 
ATOM     72  C   UNL A   1      35.022  32.615  32.147  1.00  0.00     0.002 A 
ATOM     73  C   UNL A   1      35.451  32.379  29.782  1.00  0.00     0.091 A 
ATOM     74  F   UNL A   1      37.557  31.598  29.058  1.00  0.00    -0.205 F 
ATOM     75  C   UNL A   1      34.611  32.779  30.826  1.00  0.00     0.022 A 
BRANCH  73  76
ATOM     76  S   UNL A   1      34.857  32.563  28.094  1.00  0.00     0.127 S 
ATOM     77  O   UNL A   1      33.527  33.139  28.295  1.00  0.00    -0.237 OA
ATOM     78  O   UNL A   1      35.840  33.477  27.522  1.00  0.00    -0.237 OA
ATOM     79  O   UNL A   1      34.838  31.214  27.539  1.00  0.00    -0.744 OA
ENDBRANCH  73  76
ENDBRANCH  45  69
BRANCH  57  80
ATOM     80  C   UNL A   1      42.690  31.171  34.495  1.00  0.00     0.023 A 
ATOM     81  C   UNL A   1      42.605  29.765  34.514  1.00  0.00     0.012 A 
ATOM     82  C   UNL A   1      42.958  31.851  35.701  1.00  0.00     0.148 A 
ATOM     83  C   UNL A   1      42.766  29.055  35.706  1.00  0.00     0.002 A 
ATOM     84  C   UNL A   1      43.176  31.135  36.872  1.00  0.00     0.091 A 
ATOM     85  F   UNL A   1      43.045  33.190  35.668  1.00  0.00    -0.205 F 
ATOM     86  C   UNL A   1      43.071  29.736  36.880  1.00  0.00     0.022 A 
BRANCH  84  87
ATOM     87  S   UNL A   1      43.715  31.927  38.391  1.00  0.00     0.127 S 
ATOM     88  O   UNL A   1      42.489  32.580  38.846  1.00  0.00    -0.237 OA
ATOM     89  O   UNL A   1      44.137  30.786  39.204  1.00  0.00    -0.237 OA
ATOM     90  O   UNL A   1      44.797  32.828  38.016  1.00  0.00    -0.744 OA
ENDBRANCH  84  87
ENDBRANCH  57  80
ENDBRANCH  31  32
ENDBRANCH  24  26
ENDBRANCH  23  24
ENDBRANCH  22  23
ENDBRANCH   1  22
TORSDOF 18
ENDMDL
