MODEL 1
REMARK VINA RESULT:     -10.7      0.000      0.000
REMARK SMILES Cc1nn(C)c(OCC(C)(C)[NH+](C)C)c1C(=O)OCCOC(=O)c1ccc(-c2c3nc(c(-c4cccc(S(=O)(=O)[O-])c4F)c4ccc([nH]4)c(-c4cccc(S(=O)(=O)[O-])c4F)c4nc(c(-c5cccc(S(=O)(=O)[O-])c5F)c5ccc2[nH]5)C=C4)C=C3)cc1
REMARK SMILES IDX 19 1 18 2 16 3 17 4 15 5 1 6 2 7 3 8 4 9 6 10 5 11 7 12 8 13
REMARK SMILES IDX 9 14 10 15 11 16 12 17 13 18 14 19 20 21 21 22 22 23 23 24
REMARK SMILES IDX 24 25 25 26 86 27 26 28 85 29 27 30 28 31 29 32 79 33 30 34
REMARK SMILES IDX 84 35 78 36 80 37 31 38 83 39 77 40 76 41 32 43 64 44 44 45
REMARK SMILES IDX 63 46 45 47 48 48 62 49 81 50 46 51 47 52 61 54 82 55 49 56
REMARK SMILES IDX 33 57 34 58 42 59 35 60 37 61 43 62 36 63 38 64 39 65 40 66
REMARK SMILES IDX 41 67 65 68 66 69 74 70 67 71 69 72 75 73 68 74 70 75 71 76
REMARK SMILES IDX 72 77 73 78 50 79 51 80 59 81 52 82 54 83 60 84 53 85 55 86
REMARK SMILES IDX 56 87 57 88 58 89
REMARK H PARENT 12 20 80 42 48 53
REMARK Flexibility Score: inf
ROOT
ATOM      1  C   UNL A   1      31.874  30.922  26.766  1.00  0.00     0.275 C 
ENDROOT
BRANCH   1   2
ATOM      2  O   UNL A   1      32.232  30.309  25.507  1.00  0.00    -0.458 OA
BRANCH   2   3
ATOM      3  C   UNL A   1      32.953  29.160  25.687  1.00  0.00     0.345 C 
ATOM      4  O   UNL A   1      33.853  29.123  26.504  1.00  0.00    -0.246 OA
BRANCH   3   5
ATOM      5  C   UNL A   1      32.564  28.014  24.883  1.00  0.00     0.144 A 
ATOM      6  C   UNL A   1      34.188  26.068  25.649  1.00  0.00     0.070 C 
ATOM      7  C   UNL A   1      33.151  26.710  24.804  1.00  0.00     0.078 A 
ATOM      8  N   UNL A   1      32.605  25.971  23.832  1.00  0.00    -0.174 NA
ATOM      9  N   UNL A   1      31.651  26.767  23.329  1.00  0.00    -0.236 N 
ATOM     10  C   UNL A   1      31.435  27.909  24.063  1.00  0.00     0.227 A 
ATOM     11  C   UNL A   1      30.952  26.365  22.129  1.00  0.00     0.178 C 
BRANCH  10  12
ATOM     12  O   UNL A   1      30.298  28.568  23.814  1.00  0.00    -0.471 OA
BRANCH  12  13
ATOM     13  C   UNL A   1      30.186  29.601  22.842  1.00  0.00     0.299 C 
BRANCH  13  14
ATOM     14  C   UNL A   1      28.933  30.561  22.902  1.00  0.00     0.126 C 
ATOM     15  C   UNL A   1      27.574  29.837  23.060  1.00  0.00     0.082 C 
ATOM     16  C   UNL A   1      29.164  31.439  24.166  1.00  0.00     0.082 C 
BRANCH  14  17
ATOM     17  N   UNL A   1      28.916  31.462  21.704  1.00  0.00    -0.333 N 
ATOM     18  C   UNL A   1      28.043  30.995  20.626  1.00  0.00     0.333 C 
ATOM     19  C   UNL A   1      28.650  32.873  21.982  1.00  0.00     0.333 C 
ATOM     20  H   UNL A   1      29.883  31.406  21.384  1.00  0.00     0.348 HD
ENDBRANCH  14  17
ENDBRANCH  13  14
ENDBRANCH  12  13
ENDBRANCH  10  12
ENDBRANCH   3   5
ENDBRANCH   2   3
ENDBRANCH   1   2
BRANCH   1  21
ATOM     21  C   UNL A   1      32.087  32.451  26.816  1.00  0.00     0.275 C 
BRANCH  21  22
ATOM     22  O   UNL A   1      32.693  32.932  28.038  1.00  0.00    -0.458 OA
BRANCH  22  23
ATOM     23  C   UNL A   1      33.824  33.673  27.884  1.00  0.00     0.338 C 
ATOM     24  O   UNL A   1      33.854  34.845  27.537  1.00  0.00    -0.246 OA
BRANCH  23  25
ATOM     25  C   UNL A   1      35.031  32.951  28.378  1.00  0.00     0.060 A 
ATOM     26  C   UNL A   1      34.834  31.703  28.988  1.00  0.00     0.016 A 
ATOM     27  C   UNL A   1      36.335  33.439  28.235  1.00  0.00     0.016 A 
ATOM     28  C   UNL A   1      35.923  30.935  29.421  1.00  0.00     0.010 A 
ATOM     29  C   UNL A   1      37.426  32.684  28.707  1.00  0.00     0.010 A 
ATOM     30  C   UNL A   1      37.232  31.426  29.304  1.00  0.00    -0.014 A 
BRANCH  30  31
ATOM     31  C   UNL A   1      38.356  30.700  29.965  1.00  0.00     0.031 A 
ATOM     32  C   UNL A   1      38.696  31.059  31.389  1.00  0.00     0.074 A 
ATOM     33  C   UNL A   1      39.079  29.748  29.341  1.00  0.00     0.049 A 
ATOM     34  N   UNL A   1      39.602  30.547  32.181  1.00  0.00    -0.248 NA
ATOM     35  C   UNL A   1      37.906  32.142  31.998  1.00  0.00     0.031 C 
ATOM     36  C   UNL A   1      38.874  29.286  27.971  1.00  0.00     0.029 A 
ATOM     37  N   UNL A   1      40.152  29.004  29.782  1.00  0.00    -0.354 N 
ATOM     38  C   UNL A   1      39.497  31.247  33.376  1.00  0.00     0.074 A 
ATOM     39  C   UNL A   1      38.435  32.215  33.210  1.00  0.00     0.031 C 
ATOM     40  C   UNL A   1      39.793  28.347  27.679  1.00  0.00     0.029 A 
ATOM     41  C   UNL A   1      40.682  28.166  28.826  1.00  0.00     0.049 A 
ATOM     42  H   UNL A   1      40.506  29.065  30.699  1.00  0.00     0.167 HD
ATOM     43  C   UNL A   1      40.220  31.111  34.513  1.00  0.00     0.034 A 
ATOM     44  C   UNL A   1      41.770  27.367  28.859  1.00  0.00     0.034 A 
ATOM     45  C   UNL A   1      41.312  30.194  34.683  1.00  0.00     0.049 A 
ATOM     46  C   UNL A   1      42.601  27.287  30.121  1.00  0.00     0.074 A 
ATOM     47  C   UNL A   1      42.093  29.991  35.808  1.00  0.00     0.029 A 
ATOM     48  N   UNL A   1      41.807  29.358  33.696  1.00  0.00    -0.354 N 
ATOM     49  N   UNL A   1      42.396  27.850  31.288  1.00  0.00    -0.248 NA
ATOM     50  C   UNL A   1      43.806  26.440  30.076  1.00  0.00     0.031 C 
ATOM     51  C   UNL A   1      43.087  29.063  35.489  1.00  0.00     0.029 A 
ATOM     52  C   UNL A   1      42.896  28.653  34.179  1.00  0.00     0.049 A 
ATOM     53  H   UNL A   1      41.438  29.277  32.787  1.00  0.00     0.167 HD
ATOM     54  C   UNL A   1      43.415  27.391  32.119  1.00  0.00     0.074 A 
ATOM     55  C   UNL A   1      44.227  26.489  31.333  1.00  0.00     0.031 C 
ATOM     56  C   UNL A   1      43.662  27.702  33.417  1.00  0.00     0.034 A 
BRANCH  43  57
ATOM     57  C   UNL A   1      39.853  31.997  35.669  1.00  0.00     0.023 A 
ATOM     58  C   UNL A   1      40.505  33.236  35.831  1.00  0.00     0.012 A 
ATOM     59  C   UNL A   1      38.838  31.622  36.569  1.00  0.00     0.148 A 
ATOM     60  C   UNL A   1      40.169  34.078  36.890  1.00  0.00     0.002 A 
ATOM     61  C   UNL A   1      38.480  32.484  37.597  1.00  0.00     0.091 A 
ATOM     62  F   UNL A   1      38.251  30.427  36.407  1.00  0.00    -0.205 F 
ATOM     63  C   UNL A   1      39.152  33.706  37.765  1.00  0.00     0.022 A 
BRANCH  61  64
ATOM     64  S   UNL A   1      37.138  32.130  38.735  1.00  0.00     0.127 S 
ATOM     65  O   UNL A   1      37.648  32.706  39.979  1.00  0.00    -0.237 OA
ATOM     66  O   UNL A   1      36.026  32.865  38.134  1.00  0.00    -0.237 OA
ATOM     67  O   UNL A   1      36.983  30.682  38.739  1.00  0.00    -0.744 OA
ENDBRANCH  61  64
ENDBRANCH  43  57
BRANCH  44  68
ATOM     68  C   UNL A   1      42.165  26.554  27.666  1.00  0.00     0.023 A 
ATOM     69  C   UNL A   1      42.785  27.187  26.569  1.00  0.00     0.012 A 
ATOM     70  C   UNL A   1      41.874  25.178  27.585  1.00  0.00     0.148 A 
ATOM     71  C   UNL A   1      43.062  26.479  25.398  1.00  0.00     0.002 A 
ATOM     72  C   UNL A   1      42.203  24.466  26.436  1.00  0.00     0.091 A 
ATOM     73  F   UNL A   1      41.261  24.596  28.624  1.00  0.00    -0.205 F 
ATOM     74  C   UNL A   1      42.777  25.118  25.335  1.00  0.00     0.022 A 
BRANCH  72  75
ATOM     75  S   UNL A   1      41.969  22.690  26.300  1.00  0.00     0.127 S 
ATOM     76  O   UNL A   1      42.679  22.203  27.480  1.00  0.00    -0.237 OA
ATOM     77  O   UNL A   1      40.511  22.572  26.368  1.00  0.00    -0.237 OA
ATOM     78  O   UNL A   1      42.544  22.313  25.016  1.00  0.00    -0.744 OA
ENDBRANCH  72  75
ENDBRANCH  44  68
BRANCH  56  79
ATOM     79  C   UNL A   1      44.821  27.028  34.108  1.00  0.00     0.023 A 
ATOM     80  C   UNL A   1      46.094  27.634  34.116  1.00  0.00     0.012 A 
ATOM     81  C   UNL A   1      44.622  25.837  34.836  1.00  0.00     0.148 A 
ATOM     82  C   UNL A   1      47.153  27.051  34.813  1.00  0.00     0.002 A 
ATOM     83  C   UNL A   1      45.669  25.292  35.571  1.00  0.00     0.091 A 
ATOM     84  F   UNL A   1      43.410  25.264  34.805  1.00  0.00    -0.205 F 
ATOM     85  C   UNL A   1      46.938  25.890  35.550  1.00  0.00     0.022 A 
BRANCH  83  86
ATOM     86  S   UNL A   1      45.456  23.857  36.634  1.00  0.00     0.127 S 
ATOM     87  O   UNL A   1      46.840  23.531  36.974  1.00  0.00    -0.237 OA
ATOM     88  O   UNL A   1      44.670  24.405  37.740  1.00  0.00    -0.237 OA
ATOM     89  O   UNL A   1      44.758  22.862  35.832  1.00  0.00    -0.744 OA
ENDBRANCH  83  86
ENDBRANCH  56  79
ENDBRANCH  30  31
ENDBRANCH  23  25
ENDBRANCH  22  23
ENDBRANCH  21  22
ENDBRANCH   1  21
TORSDOF 18
ENDMDL
MODEL 2
REMARK VINA RESULT:     -10.4      2.062      8.501
REMARK SMILES Cc1nn(C)c(OCC(C)(C)[NH+](C)C)c1C(=O)OCCOC(=O)c1ccc(-c2c3nc(c(-c4cccc(S(=O)(=O)[O-])c4F)c4ccc([nH]4)c(-c4cccc(S(=O)(=O)[O-])c4F)c4nc(c(-c5cccc(S(=O)(=O)[O-])c5F)c5ccc2[nH]5)C=C4)C=C3)cc1
REMARK SMILES IDX 19 1 18 2 16 3 17 4 15 5 1 6 2 7 3 8 4 9 6 10 5 11 7 12 8 13
REMARK SMILES IDX 9 14 10 15 11 16 12 17 13 18 14 19 20 21 21 22 22 23 23 24
REMARK SMILES IDX 24 25 25 26 86 27 26 28 85 29 27 30 28 31 29 32 79 33 30 34
REMARK SMILES IDX 84 35 78 36 80 37 31 38 83 39 77 40 76 41 32 43 64 44 44 45
REMARK SMILES IDX 63 46 45 47 48 48 62 49 81 50 46 51 47 52 61 54 82 55 49 56
REMARK SMILES IDX 33 57 34 58 42 59 35 60 37 61 43 62 36 63 38 64 39 65 40 66
REMARK SMILES IDX 41 67 65 68 66 69 74 70 67 71 69 72 75 73 68 74 70 75 71 76
REMARK SMILES IDX 72 77 73 78 50 79 51 80 59 81 52 82 54 83 60 84 53 85 55 86
REMARK SMILES IDX 56 87 57 88 58 89
REMARK H PARENT 12 20 80 42 48 53
REMARK Flexibility Score: inf
ROOT
ATOM      1  C   UNL A   1      32.655  29.141  25.103  1.00  0.00     0.275 C 
ENDROOT
BRANCH   1   2
ATOM      2  O   UNL A   1      32.690  28.987  23.665  1.00  0.00    -0.458 OA
BRANCH   2   3
ATOM      3  C   UNL A   1      32.761  27.671  23.296  1.00  0.00     0.345 C 
ATOM      4  O   UNL A   1      33.577  27.309  22.470  1.00  0.00    -0.246 OA
BRANCH   3   5
ATOM      5  C   UNL A   1      31.845  26.758  23.959  1.00  0.00     0.144 A 
ATOM      6  C   UNL A   1      29.438  27.505  23.145  1.00  0.00     0.070 C 
ATOM      7  C   UNL A   1      30.413  26.741  23.962  1.00  0.00     0.078 A 
ATOM      8  N   UNL A   1      29.923  25.837  24.818  1.00  0.00    -0.174 NA
ATOM      9  N   UNL A   1      31.019  25.249  25.317  1.00  0.00    -0.236 N 
ATOM     10  C   UNL A   1      32.183  25.606  24.677  1.00  0.00     0.227 A 
ATOM     11  C   UNL A   1      30.887  24.321  26.418  1.00  0.00     0.178 C 
BRANCH  10  12
ATOM     12  O   UNL A   1      33.244  24.824  24.897  1.00  0.00    -0.471 OA
BRANCH  12  13
ATOM     13  C   UNL A   1      33.758  23.908  23.936  1.00  0.00     0.299 C 
BRANCH  13  14
ATOM     14  C   UNL A   1      34.829  22.846  24.403  1.00  0.00     0.126 C 
ATOM     15  C   UNL A   1      36.133  22.837  23.568  1.00  0.00     0.082 C 
ATOM     16  C   UNL A   1      35.191  23.257  25.859  1.00  0.00     0.082 C 
BRANCH  14  17
ATOM     17  N   UNL A   1      34.217  21.478  24.441  1.00  0.00    -0.333 N 
ATOM     18  C   UNL A   1      35.111  20.445  24.967  1.00  0.00     0.333 C 
ATOM     19  C   UNL A   1      32.916  21.391  25.104  1.00  0.00     0.333 C 
ATOM     20  H   UNL A   1      34.053  21.293  23.453  1.00  0.00     0.348 HD
ENDBRANCH  14  17
ENDBRANCH  13  14
ENDBRANCH  12  13
ENDBRANCH  10  12
ENDBRANCH   3   5
ENDBRANCH   2   3
ENDBRANCH   1   2
BRANCH   1  21
ATOM     21  C   UNL A   1      31.861  30.370  25.594  1.00  0.00     0.275 C 
BRANCH  21  22
ATOM     22  O   UNL A   1      32.083  30.711  26.982  1.00  0.00    -0.458 OA
BRANCH  22  23
ATOM     23  C   UNL A   1      32.817  31.835  27.204  1.00  0.00     0.338 C 
ATOM     24  O   UNL A   1      32.417  32.979  27.043  1.00  0.00    -0.246 OA
BRANCH  23  25
ATOM     25  C   UNL A   1      34.119  31.526  27.862  1.00  0.00     0.060 A 
ATOM     26  C   UNL A   1      34.325  30.208  28.300  1.00  0.00     0.016 A 
ATOM     27  C   UNL A   1      35.141  32.466  28.031  1.00  0.00     0.016 A 
ATOM     28  C   UNL A   1      35.546  29.824  28.870  1.00  0.00     0.010 A 
ATOM     29  C   UNL A   1      36.353  32.088  28.642  1.00  0.00     0.010 A 
ATOM     30  C   UNL A   1      36.568  30.765  29.066  1.00  0.00    -0.014 A 
BRANCH  30  31
ATOM     31  C   UNL A   1      37.770  30.394  29.869  1.00  0.00     0.031 A 
ATOM     32  C   UNL A   1      38.745  29.408  29.277  1.00  0.00     0.074 A 
ATOM     33  C   UNL A   1      38.012  30.894  31.098  1.00  0.00     0.049 A 
ATOM     34  N   UNL A   1      39.872  28.959  29.765  1.00  0.00    -0.248 NA
ATOM     35  C   UNL A   1      38.399  28.857  27.956  1.00  0.00     0.031 C 
ATOM     36  C   UNL A   1      37.171  31.855  31.805  1.00  0.00     0.029 A 
ATOM     37  N   UNL A   1      39.042  30.646  31.979  1.00  0.00    -0.354 N 
ATOM     38  C   UNL A   1      40.366  28.070  28.819  1.00  0.00     0.074 A 
ATOM     39  C   UNL A   1      39.421  28.048  27.724  1.00  0.00     0.031 C 
ATOM     40  C   UNL A   1      37.709  32.109  33.013  1.00  0.00     0.029 A 
ATOM     41  C   UNL A   1      38.914  31.299  33.186  1.00  0.00     0.049 A 
ATOM     42  H   UNL A   1      39.801  30.056  31.766  1.00  0.00     0.167 HD
ATOM     43  C   UNL A   1      41.497  27.328  28.852  1.00  0.00     0.034 A 
ATOM     44  C   UNL A   1      39.663  31.233  34.307  1.00  0.00     0.034 A 
ATOM     45  C   UNL A   1      42.422  27.294  29.949  1.00  0.00     0.049 A 
ATOM     46  C   UNL A   1      40.884  30.341  34.341  1.00  0.00     0.074 A 
ATOM     47  C   UNL A   1      43.597  26.570  30.058  1.00  0.00     0.029 A 
ATOM     48  N   UNL A   1      42.261  27.977  31.143  1.00  0.00    -0.354 N 
ATOM     49  N   UNL A   1      41.413  29.620  33.381  1.00  0.00    -0.248 NA
ATOM     50  C   UNL A   1      41.628  30.270  35.611  1.00  0.00     0.031 C 
ATOM     51  C   UNL A   1      44.126  26.783  31.334  1.00  0.00     0.029 A 
ATOM     52  C   UNL A   1      43.304  27.676  32.003  1.00  0.00     0.049 A 
ATOM     53  H   UNL A   1      41.517  28.588  31.349  1.00  0.00     0.167 HD
ATOM     54  C   UNL A   1      42.566  29.051  33.917  1.00  0.00     0.074 A 
ATOM     55  C   UNL A   1      42.673  29.525  35.280  1.00  0.00     0.031 C 
ATOM     56  C   UNL A   1      43.449  28.202  33.335  1.00  0.00     0.034 A 
BRANCH  43  57
ATOM     57  C   UNL A   1      41.791  26.470  27.653  1.00  0.00     0.023 A 
ATOM     58  C   UNL A   1      42.359  27.052  26.502  1.00  0.00     0.012 A 
ATOM     59  C   UNL A   1      41.542  25.085  27.682  1.00  0.00     0.148 A 
ATOM     60  C   UNL A   1      42.650  26.271  25.386  1.00  0.00     0.002 A 
ATOM     61  C   UNL A   1      41.873  24.307  26.582  1.00  0.00     0.091 A 
ATOM     62  F   UNL A   1      40.978  24.561  28.780  1.00  0.00    -0.205 F 
ATOM     63  C   UNL A   1      42.417  24.899  25.430  1.00  0.00     0.022 A 
BRANCH  61  64
ATOM     64  S   UNL A   1      41.676  22.522  26.563  1.00  0.00     0.127 S 
ATOM     65  O   UNL A   1      40.219  22.387  26.562  1.00  0.00    -0.237 OA
ATOM     66  O   UNL A   1      42.322  22.157  25.302  1.00  0.00    -0.237 OA
ATOM     67  O   UNL A   1      42.344  22.029  27.757  1.00  0.00    -0.744 OA
ENDBRANCH  61  64
ENDBRANCH  43  57
BRANCH  44  68
ATOM     68  C   UNL A   1      39.305  32.033  35.520  1.00  0.00     0.023 A 
ATOM     69  C   UNL A   1      38.413  31.495  36.470  1.00  0.00     0.012 A 
ATOM     70  C   UNL A   1      39.789  33.344  35.705  1.00  0.00     0.148 A 
ATOM     71  C   UNL A   1      37.972  32.260  37.552  1.00  0.00     0.002 A 
ATOM     72  C   UNL A   1      39.389  34.081  36.815  1.00  0.00     0.091 A 
ATOM     73  F   UNL A   1      40.615  33.852  34.781  1.00  0.00    -0.205 F 
ATOM     74  C   UNL A   1      38.465  33.550  37.727  1.00  0.00     0.022 A 
BRANCH  72  75
ATOM     75  S   UNL A   1      40.048  35.712  37.180  1.00  0.00     0.127 S 
ATOM     76  O   UNL A   1      39.636  36.472  36.003  1.00  0.00    -0.237 OA
ATOM     77  O   UNL A   1      39.337  36.055  38.413  1.00  0.00    -0.237 OA
ATOM     78  O   UNL A   1      41.484  35.530  37.344  1.00  0.00    -0.744 OA
ENDBRANCH  72  75
ENDBRANCH  44  68
BRANCH  56  79
ATOM     79  C   UNL A   1      44.652  27.761  34.131  1.00  0.00     0.023 A 
ATOM     80  C   UNL A   1      45.826  28.541  34.135  1.00  0.00     0.012 A 
ATOM     81  C   UNL A   1      44.581  26.620  34.957  1.00  0.00     0.148 A 
ATOM     82  C   UNL A   1      46.918  28.176  34.924  1.00  0.00     0.002 A 
ATOM     83  C   UNL A   1      45.653  26.294  35.780  1.00  0.00     0.091 A 
ATOM     84  F   UNL A   1      43.464  25.880  34.929  1.00  0.00    -0.205 F 
ATOM     85  C   UNL A   1      46.827  27.063  35.755  1.00  0.00     0.022 A 
BRANCH  83  86
ATOM     86  S   UNL A   1      45.585  24.939  36.960  1.00  0.00     0.127 S 
ATOM     87  O   UNL A   1      45.475  23.780  36.076  1.00  0.00    -0.237 OA
ATOM     88  O   UNL A   1      46.872  25.062  37.646  1.00  0.00    -0.237 OA
ATOM     89  O   UNL A   1      44.425  25.196  37.802  1.00  0.00    -0.744 OA
ENDBRANCH  83  86
ENDBRANCH  56  79
ENDBRANCH  30  31
ENDBRANCH  23  25
ENDBRANCH  22  23
ENDBRANCH  21  22
ENDBRANCH   1  21
TORSDOF 18
ENDMDL
MODEL 3
REMARK VINA RESULT:     -10.4      1.951      3.643
REMARK SMILES Cc1nn(C)c(OCC(C)(C)[NH+](C)C)c1C(=O)OCCOC(=O)c1ccc(-c2c3nc(c(-c4cccc(S(=O)(=O)[O-])c4F)c4ccc([nH]4)c(-c4cccc(S(=O)(=O)[O-])c4F)c4nc(c(-c5cccc(S(=O)(=O)[O-])c5F)c5ccc2[nH]5)C=C4)C=C3)cc1
REMARK SMILES IDX 19 1 18 2 16 3 17 4 15 5 1 6 2 7 3 8 4 9 6 10 5 11 7 12 8 13
REMARK SMILES IDX 9 14 10 15 11 16 12 17 13 18 14 19 20 21 21 22 22 23 23 24
REMARK SMILES IDX 24 25 25 26 86 27 26 28 85 29 27 30 28 31 29 32 79 33 30 34
REMARK SMILES IDX 84 35 78 36 80 37 31 38 83 39 77 40 76 41 32 43 64 44 44 45
REMARK SMILES IDX 63 46 45 47 48 48 62 49 81 50 46 51 47 52 61 54 82 55 49 56
REMARK SMILES IDX 33 57 34 58 42 59 35 60 37 61 43 62 36 63 38 64 39 65 40 66
REMARK SMILES IDX 41 67 65 68 66 69 74 70 67 71 69 72 75 73 68 74 70 75 71 76
REMARK SMILES IDX 72 77 73 78 50 79 51 80 59 81 52 82 54 83 60 84 53 85 55 86
REMARK SMILES IDX 56 87 57 88 58 89
REMARK H PARENT 12 20 80 42 48 53
REMARK Flexibility Score: inf
ROOT
ATOM      1  C   UNL A   1      31.749  28.846  27.273  1.00  0.00     0.275 C 
ENDROOT
BRANCH   1   2
ATOM      2  O   UNL A   1      32.370  27.853  26.425  1.00  0.00    -0.458 OA
BRANCH   2   3
ATOM      3  C   UNL A   1      31.443  27.079  25.783  1.00  0.00     0.345 C 
ATOM      4  O   UNL A   1      30.611  26.462  26.420  1.00  0.00    -0.246 OA
BRANCH   3   5
ATOM      5  C   UNL A   1      31.495  27.071  24.330  1.00  0.00     0.144 A 
ATOM      6  C   UNL A   1      30.263  29.297  23.597  1.00  0.00     0.070 C 
ATOM      7  C   UNL A   1      30.913  27.979  23.389  1.00  0.00     0.078 A 
ATOM      8  N   UNL A   1      31.049  27.553  22.128  1.00  0.00    -0.174 NA
ATOM      9  N   UNL A   1      31.750  26.417  22.254  1.00  0.00    -0.236 N 
ATOM     10  C   UNL A   1      32.233  26.199  23.523  1.00  0.00     0.227 A 
ATOM     11  C   UNL A   1      31.946  25.573  21.097  1.00  0.00     0.178 C 
BRANCH  10  12
ATOM     12  O   UNL A   1      33.198  25.281  23.640  1.00  0.00    -0.471 OA
BRANCH  12  13
ATOM     13  C   UNL A   1      33.121  24.169  24.526  1.00  0.00     0.299 C 
BRANCH  13  14
ATOM     14  C   UNL A   1      33.925  22.859  24.165  1.00  0.00     0.126 C 
ATOM     15  C   UNL A   1      33.083  21.754  23.484  1.00  0.00     0.082 C 
ATOM     16  C   UNL A   1      35.017  23.326  23.158  1.00  0.00     0.082 C 
BRANCH  14  17
ATOM     17  N   UNL A   1      34.613  22.324  25.385  1.00  0.00    -0.333 N 
ATOM     18  C   UNL A   1      34.904  23.344  26.394  1.00  0.00     0.333 C 
ATOM     19  C   UNL A   1      33.969  21.172  26.015  1.00  0.00     0.333 C 
ATOM     20  H   UNL A   1      35.496  21.989  24.999  1.00  0.00     0.348 HD
ENDBRANCH  14  17
ENDBRANCH  13  14
ENDBRANCH  12  13
ENDBRANCH  10  12
ENDBRANCH   3   5
ENDBRANCH   2   3
ENDBRANCH   1   2
BRANCH   1  21
ATOM     21  C   UNL A   1      31.748  30.275  26.687  1.00  0.00     0.275 C 
BRANCH  21  22
ATOM     22  O   UNL A   1      33.061  30.798  26.382  1.00  0.00    -0.458 OA
BRANCH  22  23
ATOM     23  C   UNL A   1      33.553  31.712  27.261  1.00  0.00     0.338 C 
ATOM     24  O   UNL A   1      32.967  32.720  27.628  1.00  0.00    -0.246 OA
BRANCH  23  25
ATOM     25  C   UNL A   1      34.823  31.248  27.891  1.00  0.00     0.060 A 
ATOM     26  C   UNL A   1      34.926  29.885  28.209  1.00  0.00     0.016 A 
ATOM     27  C   UNL A   1      35.911  32.091  28.145  1.00  0.00     0.016 A 
ATOM     28  C   UNL A   1      36.110  29.361  28.744  1.00  0.00     0.010 A 
ATOM     29  C   UNL A   1      37.086  31.569  28.721  1.00  0.00     0.010 A 
ATOM     30  C   UNL A   1      37.198  30.201  29.025  1.00  0.00    -0.014 A 
BRANCH  30  31
ATOM     31  C   UNL A   1      38.362  29.671  29.794  1.00  0.00     0.031 A 
ATOM     32  C   UNL A   1      38.579  30.175  31.197  1.00  0.00     0.074 A 
ATOM     33  C   UNL A   1      39.228  28.771  29.282  1.00  0.00     0.049 A 
ATOM     34  N   UNL A   1      39.494  29.840  32.069  1.00  0.00    -0.248 NA
ATOM     35  C   UNL A   1      37.632  31.195  31.680  1.00  0.00     0.031 C 
ATOM     36  C   UNL A   1      39.155  28.186  27.947  1.00  0.00     0.029 A 
ATOM     37  N   UNL A   1      40.355  28.200  29.831  1.00  0.00    -0.354 N 
ATOM     38  C   UNL A   1      39.241  30.609  33.197  1.00  0.00     0.074 A 
ATOM     39  C   UNL A   1      38.082  31.423  32.905  1.00  0.00     0.031 C 
ATOM     40  C   UNL A   1      40.195  27.349  27.774  1.00  0.00     0.029 A 
ATOM     41  C   UNL A   1      41.034  27.365  28.971  1.00  0.00     0.049 A 
ATOM     42  H   UNL A   1      40.649  28.373  30.755  1.00  0.00     0.167 HD
ATOM     43  C   UNL A   1      39.911  30.649  34.373  1.00  0.00     0.034 A 
ATOM     44  C   UNL A   1      42.206  26.711  29.119  1.00  0.00     0.034 A 
ATOM     45  C   UNL A   1      41.093  29.890  34.667  1.00  0.00     0.049 A 
ATOM     46  C   UNL A   1      42.970  26.829  30.419  1.00  0.00     0.074 A 
ATOM     47  C   UNL A   1      41.830  29.870  35.839  1.00  0.00     0.029 A 
ATOM     48  N   UNL A   1      41.738  29.049  33.775  1.00  0.00    -0.354 N 
ATOM     49  N   UNL A   1      42.635  27.448  31.526  1.00  0.00    -0.248 NA
ATOM     50  C   UNL A   1      44.269  26.137  30.498  1.00  0.00     0.031 C 
ATOM     51  C   UNL A   1      42.944  29.049  35.642  1.00  0.00     0.029 A 
ATOM     52  C   UNL A   1      42.876  28.522  34.362  1.00  0.00     0.049 A 
ATOM     53  H   UNL A   1      41.432  28.855  32.859  1.00  0.00     0.167 HD
ATOM     54  C   UNL A   1      43.655  27.183  32.438  1.00  0.00     0.074 A 
ATOM     55  C   UNL A   1      44.610  26.331  31.765  1.00  0.00     0.031 C 
ATOM     56  C   UNL A   1      43.791  27.619  33.715  1.00  0.00     0.034 A 
BRANCH  43  57
ATOM     57  C   UNL A   1      39.378  31.568  35.436  1.00  0.00     0.023 A 
ATOM     58  C   UNL A   1      38.422  31.090  36.354  1.00  0.00     0.012 A 
ATOM     59  C   UNL A   1      39.853  32.887  35.550  1.00  0.00     0.148 A 
ATOM     60  C   UNL A   1      37.925  31.922  37.356  1.00  0.00     0.002 A 
ATOM     61  C   UNL A   1      39.385  33.698  36.575  1.00  0.00     0.091 A 
ATOM     62  F   UNL A   1      40.744  33.325  34.649  1.00  0.00    -0.205 F 
ATOM     63  C   UNL A   1      38.414  33.221  37.471  1.00  0.00     0.022 A 
BRANCH  61  64
ATOM     64  S   UNL A   1      40.000  35.362  36.852  1.00  0.00     0.127 S 
ATOM     65  O   UNL A   1      41.442  35.132  36.939  1.00  0.00    -0.237 OA
ATOM     66  O   UNL A   1      39.566  36.054  35.638  1.00  0.00    -0.237 OA
ATOM     67  O   UNL A   1      39.370  35.827  38.079  1.00  0.00    -0.744 OA
ENDBRANCH  61  64
ENDBRANCH  43  57
BRANCH  44  68
ATOM     68  C   UNL A   1      42.761  25.866  28.015  1.00  0.00     0.023 A 
ATOM     69  C   UNL A   1      43.756  26.396  27.168  1.00  0.00     0.012 A 
ATOM     70  C   UNL A   1      42.265  24.572  27.759  1.00  0.00     0.148 A 
ATOM     71  C   UNL A   1      44.211  25.676  26.062  1.00  0.00     0.002 A 
ATOM     72  C   UNL A   1      42.763  23.838  26.689  1.00  0.00     0.091 A 
ATOM     73  F   UNL A   1      41.302  24.092  28.557  1.00  0.00    -0.205 F 
ATOM     74  C   UNL A   1      43.719  24.395  25.826  1.00  0.00     0.022 A 
BRANCH  72  75
ATOM     75  S   UNL A   1      42.266  22.142  26.366  1.00  0.00     0.127 S 
ATOM     76  O   UNL A   1      40.831  22.289  26.133  1.00  0.00    -0.237 OA
ATOM     77  O   UNL A   1      43.052  21.819  25.174  1.00  0.00    -0.237 OA
ATOM     78  O   UNL A   1      42.639  21.388  27.555  1.00  0.00    -0.744 OA
ENDBRANCH  72  75
ENDBRANCH  44  68
BRANCH  56  79
ATOM     79  C   UNL A   1      44.982  27.146  34.511  1.00  0.00     0.023 A 
ATOM     80  C   UNL A   1      46.176  27.896  34.515  1.00  0.00     0.012 A 
ATOM     81  C   UNL A   1      44.882  26.008  35.337  1.00  0.00     0.148 A 
ATOM     82  C   UNL A   1      47.258  27.503  35.304  1.00  0.00     0.002 A 
ATOM     83  C   UNL A   1      45.945  25.653  36.160  1.00  0.00     0.091 A 
ATOM     84  F   UNL A   1      43.746  25.297  35.309  1.00  0.00    -0.205 F 
ATOM     85  C   UNL A   1      47.138  26.392  36.135  1.00  0.00     0.022 A 
BRANCH  83  86
ATOM     86  S   UNL A   1      45.842  24.301  37.340  1.00  0.00     0.127 S 
ATOM     87  O   UNL A   1      45.986  23.135  36.469  1.00  0.00    -0.237 OA
ATOM     88  O   UNL A   1      46.992  24.559  38.207  1.00  0.00    -0.237 OA
ATOM     89  O   UNL A   1      44.549  24.435  37.995  1.00  0.00    -0.744 OA
ENDBRANCH  83  86
ENDBRANCH  56  79
ENDBRANCH  30  31
ENDBRANCH  23  25
ENDBRANCH  22  23
ENDBRANCH  21  22
ENDBRANCH   1  21
TORSDOF 18
ENDMDL
