MODEL 1
REMARK VINA RESULT:     -15.1      0.000      0.000
REMARK SMILES Cc1ccccc1NC(=S)NN1C(=O)CS[C@H]1c1ccccc1C(=O)OCCOC(=O)c1ccc(-c2c3nc(c(-c4cccc(S(=O)(=O)[O-])c4F)c4ccc([nH]4)c(-c4cccc(S(=O)(=O)[O-])c4F)c4nc(c(-c5cccc(S(=O)(=O)[O-])c5F)c5ccc2[nH]5)C=C4)C=C3)cc1
REMARK SMILES IDX 27 1 26 2 24 3 25 4 23 5 18 6 19 7 20 8 22 9 21 10 17 11
REMARK SMILES IDX 12 12 13 13 14 14 15 15 16 16 11 17 9 19 10 20 8 21 7 23
REMARK SMILES IDX 1 24 2 25 3 26 4 27 6 28 5 29 28 30 29 31 30 32 31 33 32 34
REMARK SMILES IDX 33 35 94 36 34 37 93 38 35 39 36 40 37 41 87 42 38 43 92 44
REMARK SMILES IDX 86 45 88 46 39 47 91 48 85 49 84 50 40 52 72 53 52 54 71 55
REMARK SMILES IDX 53 56 56 57 70 58 89 59 54 60 55 61 69 63 90 64 57 65 41 66
REMARK SMILES IDX 42 67 50 68 43 69 45 70 51 71 44 72 46 73 47 74 48 75 49 76
REMARK SMILES IDX 73 77 74 78 82 79 75 80 77 81 83 82 76 83 78 84 79 85 80 86
REMARK SMILES IDX 81 87 58 88 59 89 67 90 60 91 62 92 68 93 61 94 63 95 64 96
REMARK SMILES IDX 65 97 66 98
REMARK H PARENT 11 18 8 22 88 51 56 62
REMARK Flexibility Score: inf
ROOT
ATOM      1  C   UNL A   1      33.945  28.604  23.960  1.00  0.00     0.275 C 
ENDROOT
BRANCH   1   2
ATOM      2  O   UNL A   1      33.671  27.143  22.788  1.00  0.00    -0.458 OA
BRANCH   2   3
ATOM      3  C   UNL A   1      33.038  25.479  22.769  1.00  0.00     0.338 C 
ATOM      4  O   UNL A   1      33.561  25.141  21.680  1.00  0.00    -0.246 OA
BRANCH   3   5
ATOM      5  C   UNL A   1      32.082  24.453  24.445  1.00  0.00     0.066 A 
ATOM      6  C   UNL A   1      32.457  22.852  24.886  1.00  0.00     0.001 A 
ATOM      7  C   UNL A   1      31.995  22.206  26.066  1.00  0.00     0.008 A 
ATOM      8  C   UNL A   1      30.994  22.779  26.822  1.00  0.00     0.000 A 
ATOM      9  C   UNL A   1      30.907  24.742  25.314  1.00  0.00     0.016 A 
ATOM     10  C   UNL A   1      30.400  23.954  26.393  1.00  0.00     0.001 A 
BRANCH   6  11
ATOM     11  C   UNL A   1      33.365  21.724  23.802  1.00  0.00     0.197 C 
ATOM     12  N   UNL A   1      34.441  20.539  24.361  1.00  0.00    -0.236 N 
ATOM     13  C   UNL A   1      33.409  19.240  24.512  1.00  0.00     0.252 C 
ATOM     14  O   UNL A   1      33.134  18.562  25.511  1.00  0.00    -0.272 OA
ATOM     15  C   UNL A   1      32.422  19.118  23.417  1.00  0.00     0.174 C 
ATOM     16  S   UNL A   1      32.031  20.739  22.828  1.00  0.00    -0.120 SA
BRANCH  12  17
ATOM     17  N   UNL A   1      35.977  20.945  25.569  1.00  0.00    -0.270 N 
ATOM     18  H   UNL A   1      36.064  20.281  26.290  1.00  0.00     0.191 HD
BRANCH  17  19
ATOM     19  C   UNL A   1      37.199  22.178  25.666  1.00  0.00     0.189 C 
ATOM     20  S   UNL A   1      36.774  23.764  25.268  1.00  0.00    -0.039 S 
BRANCH  19  21
ATOM     21  N   UNL A   1      38.561  21.971  26.575  1.00  0.00    -0.331 N 
ATOM     22  H   UNL A   1      38.433  21.243  27.226  1.00  0.00     0.169 HD
BRANCH  21  23
ATOM     23  C   UNL A   1      40.019  22.594  26.717  1.00  0.00     0.043 A 
ATOM     24  C   UNL A   1      39.411  24.822  27.849  1.00  0.00     0.046 C 
ATOM     25  C   UNL A   1      40.315  23.657  27.597  1.00  0.00    -0.028 A 
ATOM     26  C   UNL A   1      41.628  23.780  28.172  1.00  0.00     0.005 A 
ATOM     27  C   UNL A   1      42.657  22.901  27.868  1.00  0.00     0.000 A 
ATOM     28  C   UNL A   1      41.197  22.041  26.167  1.00  0.00     0.026 A 
ATOM     29  C   UNL A   1      42.452  22.055  26.809  1.00  0.00     0.002 A 
ENDBRANCH  21  23
ENDBRANCH  19  21
ENDBRANCH  17  19
ENDBRANCH  12  17
ENDBRANCH   6  11
ENDBRANCH   3   5
ENDBRANCH   2   3
ENDBRANCH   1   2
BRANCH   1  30
ATOM     30  C   UNL A   1      33.970  28.385  26.044  1.00  0.00     0.275 C 
BRANCH  30  31
ATOM     31  O   UNL A   1      35.071  29.486  27.051  1.00  0.00    -0.458 OA
BRANCH  31  32
ATOM     32  C   UNL A   1      34.825  30.651  27.967  1.00  0.00     0.338 C 
ATOM     33  O   UNL A   1      33.807  31.330  27.826  1.00  0.00    -0.246 OA
BRANCH  32  34
ATOM     34  C   UNL A   1      35.928  31.153  29.118  1.00  0.00     0.060 A 
ATOM     35  C   UNL A   1      36.933  32.615  28.842  1.00  0.00     0.016 A 
ATOM     36  C   UNL A   1      36.573  30.101  30.567  1.00  0.00     0.016 A 
ATOM     37  C   UNL A   1      38.437  32.825  29.869  1.00  0.00     0.010 A 
ATOM     38  C   UNL A   1      37.916  30.425  31.549  1.00  0.00     0.010 A 
ATOM     39  C   UNL A   1      38.914  31.715  31.176  1.00  0.00    -0.014 A 
BRANCH  39  40
ATOM     40  C   UNL A   1      40.217  30.959  31.387  1.00  0.00     0.031 A 
ATOM     41  C   UNL A   1      40.386  29.703  30.491  1.00  0.00     0.074 A 
ATOM     42  C   UNL A   1      41.295  31.689  31.838  1.00  0.00     0.049 A 
ATOM     43  N   UNL A   1      41.439  28.978  30.530  1.00  0.00    -0.248 NA
ATOM     44  C   UNL A   1      39.491  29.197  29.394  1.00  0.00     0.031 C 
ATOM     45  C   UNL A   1      42.747  31.568  31.598  1.00  0.00     0.029 A 
ATOM     46  N   UNL A   1      41.257  32.770  32.731  1.00  0.00    -0.354 N 
ATOM     47  C   UNL A   1      41.508  28.186  29.393  1.00  0.00     0.074 A 
ATOM     48  C   UNL A   1      40.251  28.315  28.736  1.00  0.00     0.031 C 
ATOM     49  C   UNL A   1      43.430  32.283  32.523  1.00  0.00     0.029 A 
ATOM     50  C   UNL A   1      42.470  32.875  33.433  1.00  0.00     0.049 A 
ATOM     51  H   UNL A   1      40.487  33.372  32.849  1.00  0.00     0.167 HD
ATOM     52  C   UNL A   1      42.707  27.618  29.112  1.00  0.00     0.034 A 
ATOM     53  C   UNL A   1      42.437  32.699  34.789  1.00  0.00     0.034 A 
ATOM     54  C   UNL A   1      43.591  27.836  30.275  1.00  0.00     0.049 A 
ATOM     55  C   UNL A   1      42.707  31.218  35.091  1.00  0.00     0.074 A 
ATOM     56  C   UNL A   1      44.638  28.701  30.526  1.00  0.00     0.029 A 
ATOM     57  N   UNL A   1      43.115  27.442  31.528  1.00  0.00    -0.354 N 
ATOM     58  N   UNL A   1      43.095  30.341  34.199  1.00  0.00    -0.248 NA
ATOM     59  C   UNL A   1      42.592  30.612  36.414  1.00  0.00     0.031 C 
ATOM     60  C   UNL A   1      44.692  28.911  31.944  1.00  0.00     0.029 A 
ATOM     61  C   UNL A   1      43.710  28.149  32.562  1.00  0.00     0.049 A 
ATOM     62  H   UNL A   1      42.434  26.742  31.661  1.00  0.00     0.167 HD
ATOM     63  C   UNL A   1      43.083  29.078  34.721  1.00  0.00     0.074 A 
ATOM     64  C   UNL A   1      42.842  29.319  36.137  1.00  0.00     0.031 C 
ATOM     65  C   UNL A   1      43.241  27.950  33.947  1.00  0.00     0.034 A 
BRANCH  52  66
ATOM     66  C   UNL A   1      43.169  26.981  27.807  1.00  0.00     0.023 A 
ATOM     67  C   UNL A   1      42.282  27.144  26.719  1.00  0.00     0.012 A 
ATOM     68  C   UNL A   1      44.323  26.185  27.549  1.00  0.00     0.148 A 
ATOM     69  C   UNL A   1      42.500  26.564  25.466  1.00  0.00     0.002 A 
ATOM     70  C   UNL A   1      44.566  25.642  26.274  1.00  0.00     0.091 A 
ATOM     71  F   UNL A   1      45.173  25.890  28.538  1.00  0.00    -0.205 F 
ATOM     72  C   UNL A   1      43.647  25.824  25.237  1.00  0.00     0.022 A 
BRANCH  70  73
ATOM     73  S   UNL A   1      46.039  24.681  25.845  1.00  0.00     0.127 S 
ATOM     74  O   UNL A   1      45.896  24.521  24.397  1.00  0.00    -0.237 OA
ATOM     75  O   UNL A   1      47.126  25.577  26.246  1.00  0.00    -0.237 OA
ATOM     76  O   UNL A   1      45.963  23.440  26.604  1.00  0.00    -0.744 OA
ENDBRANCH  70  73
ENDBRANCH  52  66
BRANCH  53  77
ATOM     77  C   UNL A   1      41.332  33.551  35.385  1.00  0.00     0.023 A 
ATOM     78  C   UNL A   1      41.291  34.920  34.991  1.00  0.00     0.012 A 
ATOM     79  C   UNL A   1      40.140  32.950  35.796  1.00  0.00     0.148 A 
ATOM     80  C   UNL A   1      40.066  35.549  34.732  1.00  0.00     0.002 A 
ATOM     81  C   UNL A   1      38.926  33.560  35.506  1.00  0.00     0.091 A 
ATOM     82  F   UNL A   1      40.169  31.746  36.376  1.00  0.00    -0.205 F 
ATOM     83  C   UNL A   1      38.879  34.840  34.928  1.00  0.00     0.022 A 
BRANCH  81  84
ATOM     84  S   UNL A   1      37.467  32.491  35.560  1.00  0.00     0.127 S 
ATOM     85  O   UNL A   1      36.381  33.388  35.155  1.00  0.00    -0.237 OA
ATOM     86  O   UNL A   1      37.773  31.457  34.576  1.00  0.00    -0.237 OA
ATOM     87  O   UNL A   1      37.423  32.065  36.951  1.00  0.00    -0.744 OA
ENDBRANCH  81  84
ENDBRANCH  53  77
BRANCH  65  88
ATOM     88  C   UNL A   1      43.003  26.525  34.454  1.00  0.00     0.023 A 
ATOM     89  C   UNL A   1      41.767  26.106  34.982  1.00  0.00     0.012 A 
ATOM     90  C   UNL A   1      44.002  25.517  34.365  1.00  0.00     0.148 A 
ATOM     91  C   UNL A   1      41.590  24.842  35.555  1.00  0.00     0.002 A 
ATOM     92  C   UNL A   1      43.764  24.211  34.776  1.00  0.00     0.091 A 
ATOM     93  F   UNL A   1      45.233  25.809  33.931  1.00  0.00    -0.205 F 
ATOM     94  C   UNL A   1      42.586  23.887  35.441  1.00  0.00     0.022 A 
BRANCH  92  95
ATOM     95  S   UNL A   1      44.906  22.878  34.387  1.00  0.00     0.127 S 
ATOM     96  O   UNL A   1      44.207  21.719  34.937  1.00  0.00    -0.237 OA
ATOM     97  O   UNL A   1      44.948  22.929  32.925  1.00  0.00    -0.237 OA
ATOM     98  O   UNL A   1      46.164  23.230  35.032  1.00  0.00    -0.744 OA
ENDBRANCH  92  95
ENDBRANCH  65  88
ENDBRANCH  39  40
ENDBRANCH  32  34
ENDBRANCH  31  32
ENDBRANCH  30  31
ENDBRANCH   1  30
TORSDOF 19
ENDMDL
MODEL 2
REMARK VINA RESULT:     -15.0      4.008     10.346
REMARK SMILES Cc1ccccc1NC(=S)NN1C(=O)CS[C@H]1c1ccccc1C(=O)OCCOC(=O)c1ccc(-c2c3nc(c(-c4cccc(S(=O)(=O)[O-])c4F)c4ccc([nH]4)c(-c4cccc(S(=O)(=O)[O-])c4F)c4nc(c(-c5cccc(S(=O)(=O)[O-])c5F)c5ccc2[nH]5)C=C4)C=C3)cc1
REMARK SMILES IDX 27 1 26 2 24 3 25 4 23 5 18 6 19 7 20 8 22 9 21 10 17 11
REMARK SMILES IDX 12 12 13 13 14 14 15 15 16 16 11 17 9 19 10 20 8 21 7 23
REMARK SMILES IDX 1 24 2 25 3 26 4 27 6 28 5 29 28 30 29 31 30 32 31 33 32 34
REMARK SMILES IDX 33 35 94 36 34 37 93 38 35 39 36 40 37 41 87 42 38 43 92 44
REMARK SMILES IDX 86 45 88 46 39 47 91 48 85 49 84 50 40 52 72 53 52 54 71 55
REMARK SMILES IDX 53 56 56 57 70 58 89 59 54 60 55 61 69 63 90 64 57 65 41 66
REMARK SMILES IDX 42 67 50 68 43 69 45 70 51 71 44 72 46 73 47 74 48 75 49 76
REMARK SMILES IDX 73 77 74 78 82 79 75 80 77 81 83 82 76 83 78 84 79 85 80 86
REMARK SMILES IDX 81 87 58 88 59 89 67 90 60 91 62 92 68 93 61 94 63 95 64 96
REMARK SMILES IDX 65 97 66 98
REMARK H PARENT 11 18 8 22 88 51 56 62
REMARK Flexibility Score: inf
ROOT
ATOM      1  C   UNL A   1      39.669  21.763  26.467  1.00  0.00     0.275 C 
ENDROOT
BRANCH   1   2
ATOM      2  O   UNL A   1      38.048  21.038  25.810  1.00  0.00    -0.458 OA
BRANCH   2   3
ATOM      3  C   UNL A   1      37.403  19.591  24.996  1.00  0.00     0.338 C 
ATOM      4  O   UNL A   1      38.452  18.907  25.072  1.00  0.00    -0.246 OA
BRANCH   3   5
ATOM      5  C   UNL A   1      35.300  19.211  24.536  1.00  0.00     0.066 A 
ATOM      6  C   UNL A   1      34.098  20.410  24.648  1.00  0.00     0.001 A 
ATOM      7  C   UNL A   1      32.757  20.261  24.195  1.00  0.00     0.008 A 
ATOM      8  C   UNL A   1      32.281  19.015  23.846  1.00  0.00     0.000 A 
ATOM      9  C   UNL A   1      34.488  17.986  24.294  1.00  0.00     0.016 A 
ATOM     10  C   UNL A   1      33.093  17.904  23.997  1.00  0.00     0.001 A 
BRANCH   6  11
ATOM     11  C   UNL A   1      34.352  21.976  25.519  1.00  0.00     0.197 C 
ATOM     12  N   UNL A   1      33.513  23.404  25.158  1.00  0.00    -0.236 N 
ATOM     13  C   UNL A   1      32.220  23.267  26.200  1.00  0.00     0.252 C 
ATOM     14  O   UNL A   1      31.006  23.239  25.953  1.00  0.00    -0.272 OA
ATOM     15  C   UNL A   1      32.570  22.740  27.536  1.00  0.00     0.174 C 
ATOM     16  S   UNL A   1      33.934  21.627  27.364  1.00  0.00    -0.120 SA
BRANCH  12  17
ATOM     17  N   UNL A   1      33.447  24.195  23.327  1.00  0.00    -0.270 N 
ATOM     18  H   UNL A   1      33.631  23.527  22.629  1.00  0.00     0.191 HD
BRANCH  17  19
ATOM     19  C   UNL A   1      33.146  25.772  22.658  1.00  0.00     0.189 C 
ATOM     20  S   UNL A   1      32.136  25.893  21.309  1.00  0.00    -0.039 S 
BRANCH  19  21
ATOM     21  N   UNL A   1      33.381  27.144  23.546  1.00  0.00    -0.331 N 
ATOM     22  H   UNL A   1      34.263  27.534  23.348  1.00  0.00     0.169 HD
BRANCH  21  23
ATOM     23  C   UNL A   1      32.611  28.025  24.625  1.00  0.00     0.043 A 
ATOM     24  C   UNL A   1      30.593  26.488  25.054  1.00  0.00     0.046 C 
ATOM     25  C   UNL A   1      31.615  27.497  25.475  1.00  0.00    -0.028 A 
ATOM     26  C   UNL A   1      31.399  28.063  26.779  1.00  0.00     0.005 A 
ATOM     27  C   UNL A   1      32.119  29.154  27.244  1.00  0.00     0.000 A 
ATOM     28  C   UNL A   1      32.967  29.338  25.005  1.00  0.00     0.026 A 
ATOM     29  C   UNL A   1      32.872  29.833  26.321  1.00  0.00     0.002 A 
ENDBRANCH  21  23
ENDBRANCH  19  21
ENDBRANCH  17  19
ENDBRANCH  12  17
ENDBRANCH   6  11
ENDBRANCH   3   5
ENDBRANCH   2   3
ENDBRANCH   1   2
BRANCH   1  30
ATOM     30  C   UNL A   1      41.285  20.561  27.044  1.00  0.00     0.275 C 
BRANCH  30  31
ATOM     31  O   UNL A   1      43.011  21.176  26.754  1.00  0.00    -0.458 OA
BRANCH  31  32
ATOM     32  C   UNL A   1      43.605  22.531  26.492  1.00  0.00     0.338 C 
ATOM     33  O   UNL A   1      44.816  22.636  26.299  1.00  0.00    -0.246 OA
BRANCH  32  34
ATOM     34  C   UNL A   1      42.714  23.943  26.560  1.00  0.00     0.060 A 
ATOM     35  C   UNL A   1      42.738  25.104  25.190  1.00  0.00     0.016 A 
ATOM     36  C   UNL A   1      41.964  24.706  28.135  1.00  0.00     0.016 A 
ATOM     37  C   UNL A   1      42.172  26.817  25.512  1.00  0.00     0.010 A 
ATOM     38  C   UNL A   1      41.353  26.276  28.320  1.00  0.00     0.010 A 
ATOM     39  C   UNL A   1      41.522  27.377  27.072  1.00  0.00    -0.014 A 
BRANCH  39  40
ATOM     40  C   UNL A   1      41.963  28.533  27.954  1.00  0.00     0.031 A 
ATOM     41  C   UNL A   1      40.808  29.447  28.447  1.00  0.00     0.074 A 
ATOM     42  C   UNL A   1      43.120  28.357  28.682  1.00  0.00     0.049 A 
ATOM     43  N   UNL A   1      41.015  30.444  29.219  1.00  0.00    -0.248 NA
ATOM     44  C   UNL A   1      39.327  29.286  28.249  1.00  0.00     0.031 C 
ATOM     45  C   UNL A   1      43.548  28.855  30.005  1.00  0.00     0.029 A 
ATOM     46  N   UNL A   1      44.258  27.642  28.280  1.00  0.00    -0.354 N 
ATOM     47  C   UNL A   1      39.823  30.836  29.812  1.00  0.00     0.074 A 
ATOM     48  C   UNL A   1      38.788  30.123  29.143  1.00  0.00     0.031 C 
ATOM     49  C   UNL A   1      44.887  28.707  30.143  1.00  0.00     0.029 A 
ATOM     50  C   UNL A   1      45.408  28.145  28.913  1.00  0.00     0.049 A 
ATOM     51  H   UNL A   1      44.252  26.892  27.643  1.00  0.00     0.167 HD
ATOM     52  C   UNL A   1      39.913  31.644  30.898  1.00  0.00     0.034 A 
ATOM     53  C   UNL A   1      46.376  28.701  28.124  1.00  0.00     0.034 A 
ATOM     54  C   UNL A   1      41.319  32.078  31.019  1.00  0.00     0.049 A 
ATOM     55  C   UNL A   1      46.107  30.210  28.021  1.00  0.00     0.074 A 
ATOM     56  C   UNL A   1      42.363  31.710  31.845  1.00  0.00     0.029 A 
ATOM     57  N   UNL A   1      41.912  32.659  29.894  1.00  0.00    -0.354 N 
ATOM     58  N   UNL A   1      45.217  30.852  28.735  1.00  0.00    -0.248 NA
ATOM     59  C   UNL A   1      46.830  31.117  27.135  1.00  0.00     0.031 C 
ATOM     60  C   UNL A   1      43.583  31.965  31.137  1.00  0.00     0.029 A 
ATOM     61  C   UNL A   1      43.292  32.525  29.901  1.00  0.00     0.049 A 
ATOM     62  H   UNL A   1      41.407  33.112  29.180  1.00  0.00     0.167 HD
ATOM     63  C   UNL A   1      45.084  32.141  28.300  1.00  0.00     0.074 A 
ATOM     64  C   UNL A   1      46.181  32.275  27.352  1.00  0.00     0.031 C 
ATOM     65  C   UNL A   1      44.073  32.971  28.731  1.00  0.00     0.034 A 
BRANCH  52  66
ATOM     66  C   UNL A   1      38.836  31.969  31.926  1.00  0.00     0.023 A 
ATOM     67  C   UNL A   1      39.178  31.665  33.263  1.00  0.00     0.012 A 
ATOM     68  C   UNL A   1      37.514  32.462  31.724  1.00  0.00     0.148 A 
ATOM     69  C   UNL A   1      38.289  31.822  34.330  1.00  0.00     0.002 A 
ATOM     70  C   UNL A   1      36.636  32.666  32.804  1.00  0.00     0.091 A 
ATOM     71  F   UNL A   1      37.061  32.687  30.486  1.00  0.00    -0.205 F 
ATOM     72  C   UNL A   1      37.023  32.335  34.106  1.00  0.00     0.022 A 
BRANCH  70  73
ATOM     73  S   UNL A   1      34.970  33.353  32.642  1.00  0.00     0.127 S 
ATOM     74  O   UNL A   1      35.229  34.662  32.040  1.00  0.00    -0.237 OA
ATOM     75  O   UNL A   1      34.321  32.397  31.743  1.00  0.00    -0.237 OA
ATOM     76  O   UNL A   1      34.408  33.403  33.986  1.00  0.00    -0.744 OA
ENDBRANCH  70  73
ENDBRANCH  52  66
BRANCH  53  77
ATOM     77  C   UNL A   1      46.696  27.764  26.975  1.00  0.00     0.023 A 
ATOM     78  C   UNL A   1      45.687  27.596  25.982  1.00  0.00     0.012 A 
ATOM     79  C   UNL A   1      48.025  27.553  26.604  1.00  0.00     0.148 A 
ATOM     80  C   UNL A   1      46.030  27.526  24.626  1.00  0.00     0.002 A 
ATOM     81  C   UNL A   1      48.366  27.519  25.257  1.00  0.00     0.091 A 
ATOM     82  F   UNL A   1      48.974  27.484  27.542  1.00  0.00    -0.205 F 
ATOM     83  C   UNL A   1      47.377  27.553  24.259  1.00  0.00     0.022 A 
BRANCH  81  84
ATOM     84  S   UNL A   1      50.111  27.802  24.872  1.00  0.00     0.127 S 
ATOM     85  O   UNL A   1      50.111  27.953  23.415  1.00  0.00    -0.237 OA
ATOM     86  O   UNL A   1      50.417  29.034  25.591  1.00  0.00    -0.237 OA
ATOM     87  O   UNL A   1      50.757  26.592  25.361  1.00  0.00    -0.744 OA
ENDBRANCH  81  84
ENDBRANCH  53  77
BRANCH  65  88
ATOM     88  C   UNL A   1      43.755  34.330  28.100  1.00  0.00     0.023 A 
ATOM     89  C   UNL A   1      43.059  34.454  26.883  1.00  0.00     0.012 A 
ATOM     90  C   UNL A   1      44.093  35.555  28.738  1.00  0.00     0.148 A 
ATOM     91  C   UNL A   1      42.877  35.688  26.249  1.00  0.00     0.002 A 
ATOM     92  C   UNL A   1      43.754  36.786  28.188  1.00  0.00     0.091 A 
ATOM     93  F   UNL A   1      44.804  35.564  29.871  1.00  0.00    -0.205 F 
ATOM     94  C   UNL A   1      43.214  36.859  26.908  1.00  0.00     0.022 A 
BRANCH  92  95
ATOM     95  S   UNL A   1      43.904  38.311  29.127  1.00  0.00     0.127 S 
ATOM     96  O   UNL A   1      43.765  37.830  30.499  1.00  0.00    -0.237 OA
ATOM     97  O   UNL A   1      45.252  38.758  28.769  1.00  0.00    -0.237 OA
ATOM     98  O   UNL A   1      42.841  39.183  28.646  1.00  0.00    -0.744 OA
ENDBRANCH  92  95
ENDBRANCH  65  88
ENDBRANCH  39  40
ENDBRANCH  32  34
ENDBRANCH  31  32
ENDBRANCH  30  31
ENDBRANCH   1  30
TORSDOF 19
ENDMDL
MODEL 3
REMARK VINA RESULT:     -14.9      4.861      9.798
REMARK SMILES Cc1ccccc1NC(=S)NN1C(=O)CS[C@H]1c1ccccc1C(=O)OCCOC(=O)c1ccc(-c2c3nc(c(-c4cccc(S(=O)(=O)[O-])c4F)c4ccc([nH]4)c(-c4cccc(S(=O)(=O)[O-])c4F)c4nc(c(-c5cccc(S(=O)(=O)[O-])c5F)c5ccc2[nH]5)C=C4)C=C3)cc1
REMARK SMILES IDX 27 1 26 2 24 3 25 4 23 5 18 6 19 7 20 8 22 9 21 10 17 11
REMARK SMILES IDX 12 12 13 13 14 14 15 15 16 16 11 17 9 19 10 20 8 21 7 23
REMARK SMILES IDX 1 24 2 25 3 26 4 27 6 28 5 29 28 30 29 31 30 32 31 33 32 34
REMARK SMILES IDX 33 35 94 36 34 37 93 38 35 39 36 40 37 41 87 42 38 43 92 44
REMARK SMILES IDX 86 45 88 46 39 47 91 48 85 49 84 50 40 52 72 53 52 54 71 55
REMARK SMILES IDX 53 56 56 57 70 58 89 59 54 60 55 61 69 63 90 64 57 65 41 66
REMARK SMILES IDX 42 67 50 68 43 69 45 70 51 71 44 72 46 73 47 74 48 75 49 76
REMARK SMILES IDX 73 77 74 78 82 79 75 80 77 81 83 82 76 83 78 84 79 85 80 86
REMARK SMILES IDX 81 87 58 88 59 89 67 90 60 91 62 92 68 93 61 94 63 95 64 96
REMARK SMILES IDX 65 97 66 98
REMARK H PARENT 11 18 8 22 88 51 56 62
REMARK Flexibility Score: inf
ROOT
ATOM      1  C   UNL A   1      45.025  32.553  29.325  1.00  0.00     0.275 C 
ENDROOT
BRANCH   1   2
ATOM      2  O   UNL A   1      44.175  31.602  27.926  1.00  0.00    -0.458 OA
BRANCH   2   3
ATOM      3  C   UNL A   1      43.772  29.942  27.421  1.00  0.00     0.338 C 
ATOM      4  O   UNL A   1      43.558  30.209  26.214  1.00  0.00    -0.246 OA
BRANCH   3   5
ATOM      5  C   UNL A   1      44.086  28.132  28.606  1.00  0.00     0.066 A 
ATOM      6  C   UNL A   1      45.450  27.131  28.422  1.00  0.00     0.001 A 
ATOM      7  C   UNL A   1      45.785  26.048  29.282  1.00  0.00     0.008 A 
ATOM      8  C   UNL A   1      44.867  25.587  30.202  1.00  0.00     0.000 A 
ATOM      9  C   UNL A   1      43.237  27.325  29.527  1.00  0.00     0.016 A 
ATOM     10  C   UNL A   1      43.600  26.142  30.241  1.00  0.00     0.001 A 
BRANCH   6  11
ATOM     11  C   UNL A   1      46.555  27.232  26.993  1.00  0.00     0.197 C 
ATOM     12  N   UNL A   1      47.914  26.243  26.778  1.00  0.00    -0.236 N 
ATOM     13  C   UNL A   1      47.241  24.987  25.914  1.00  0.00     0.252 C 
ATOM     14  O   UNL A   1      47.191  23.780  26.186  1.00  0.00    -0.272 OA
ATOM     15  C   UNL A   1      46.264  25.410  24.889  1.00  0.00     0.174 C 
ATOM     16  S   UNL A   1      45.458  26.881  25.452  1.00  0.00    -0.120 SA
BRANCH  12  17
ATOM     17  N   UNL A   1      49.360  26.066  28.143  1.00  0.00    -0.270 N 
ATOM     18  H   UNL A   1      49.925  25.277  27.982  1.00  0.00     0.191 HD
BRANCH  17  19
ATOM     19  C   UNL A   1      49.871  26.960  29.544  1.00  0.00     0.189 C 
ATOM     20  S   UNL A   1      51.045  28.159  29.349  1.00  0.00    -0.039 S 
BRANCH  19  21
ATOM     21  N   UNL A   1      48.937  27.037  30.904  1.00  0.00    -0.331 N 
ATOM     22  H   UNL A   1      48.929  26.167  31.366  1.00  0.00     0.169 HD
BRANCH  21  23
ATOM     23  C   UNL A   1      48.046  28.094  31.693  1.00  0.00     0.043 A 
ATOM     24  C   UNL A   1      48.991  27.747  34.061  1.00  0.00     0.046 C 
ATOM     25  C   UNL A   1      48.391  28.581  32.973  1.00  0.00    -0.028 A 
ATOM     26  C   UNL A   1      47.991  29.901  33.379  1.00  0.00     0.005 A 
ATOM     27  C   UNL A   1      47.233  30.731  32.566  1.00  0.00     0.000 A 
ATOM     28  C   UNL A   1      46.962  28.814  31.145  1.00  0.00     0.026 A 
ATOM     29  C   UNL A   1      46.665  30.156  31.459  1.00  0.00     0.002 A 
ENDBRANCH  21  23
ENDBRANCH  19  21
ENDBRANCH  17  19
ENDBRANCH  12  17
ENDBRANCH   6  11
ENDBRANCH   3   5
ENDBRANCH   2   3
ENDBRANCH   1   2
BRANCH   1  30
ATOM     30  C   UNL A   1      46.324  34.157  28.966  1.00  0.00     0.275 C 
BRANCH  30  31
ATOM     31  O   UNL A   1      46.167  35.690  29.999  1.00  0.00    -0.458 OA
BRANCH  31  32
ATOM     32  C   UNL A   1      45.035  36.626  30.311  1.00  0.00     0.338 C 
ATOM     33  O   UNL A   1      45.237  37.840  30.324  1.00  0.00    -0.246 OA
BRANCH  32  34
ATOM     34  C   UNL A   1      43.514  36.096  30.758  1.00  0.00     0.060 A 
ATOM     35  C   UNL A   1      43.034  36.056  32.487  1.00  0.00     0.016 A 
ATOM     36  C   UNL A   1      42.317  35.107  29.657  1.00  0.00     0.016 A 
ATOM     37  C   UNL A   1      41.592  35.023  32.950  1.00  0.00     0.010 A 
ATOM     38  C   UNL A   1      40.931  34.267  30.150  1.00  0.00     0.010 A 
ATOM     39  C   UNL A   1      40.591  34.127  31.783  1.00  0.00    -0.014 A 
BRANCH  39  40
ATOM     40  C   UNL A   1      40.236  32.650  31.734  1.00  0.00     0.031 A 
ATOM     41  C   UNL A   1      41.436  31.689  31.956  1.00  0.00     0.074 A 
ATOM     42  C   UNL A   1      38.948  32.306  32.082  1.00  0.00     0.049 A 
ATOM     43  N   UNL A   1      41.295  30.419  31.972  1.00  0.00    -0.248 NA
ATOM     44  C   UNL A   1      42.861  32.022  32.302  1.00  0.00     0.031 C 
ATOM     45  C   UNL A   1      38.382  31.112  32.742  1.00  0.00     0.029 A 
ATOM     46  N   UNL A   1      37.788  33.052  31.830  1.00  0.00    -0.354 N 
ATOM     47  C   UNL A   1      42.401  29.829  32.566  1.00  0.00     0.074 A 
ATOM     48  C   UNL A   1      43.376  30.858  32.711  1.00  0.00     0.031 C 
ATOM     49  C   UNL A   1      37.041  31.073  32.556  1.00  0.00     0.029 A 
ATOM     50  C   UNL A   1      36.667  32.209  31.738  1.00  0.00     0.049 A 
ATOM     51  H   UNL A   1      37.762  34.031  31.731  1.00  0.00     0.167 HD
ATOM     52  C   UNL A   1      42.270  28.540  32.967  1.00  0.00     0.034 A 
ATOM     53  C   UNL A   1      36.010  32.152  30.539  1.00  0.00     0.034 A 
ATOM     54  C   UNL A   1      40.990  28.032  32.432  1.00  0.00     0.049 A 
ATOM     55  C   UNL A   1      36.604  30.998  29.718  1.00  0.00     0.074 A 
ATOM     56  C   UNL A   1      39.751  27.795  32.994  1.00  0.00     0.029 A 
ATOM     57  N   UNL A   1      40.766  28.171  31.060  1.00  0.00    -0.354 N 
ATOM     58  N   UNL A   1      37.450  30.116  30.187  1.00  0.00    -0.248 NA
ATOM     59  C   UNL A   1      36.275  30.726  28.322  1.00  0.00     0.031 C 
ATOM     60  C   UNL A   1      38.775  27.922  31.951  1.00  0.00     0.029 A 
ATOM     61  C   UNL A   1      39.414  28.195  30.750  1.00  0.00     0.049 A 
ATOM     62  H   UNL A   1      41.485  28.243  30.391  1.00  0.00     0.167 HD
ATOM     63  C   UNL A   1      37.933  29.323  29.184  1.00  0.00     0.074 A 
ATOM     64  C   UNL A   1      37.097  29.695  28.051  1.00  0.00     0.031 C 
ATOM     65  C   UNL A   1      38.990  28.458  29.362  1.00  0.00     0.034 A 
BRANCH  52  66
ATOM     66  C   UNL A   1      43.167  27.747  33.908  1.00  0.00     0.023 A 
ATOM     67  C   UNL A   1      44.495  27.570  33.458  1.00  0.00     0.012 A 
ATOM     68  C   UNL A   1      42.841  27.097  35.134  1.00  0.00     0.148 A 
ATOM     69  C   UNL A   1      45.439  26.806  34.149  1.00  0.00     0.002 A 
ATOM     70  C   UNL A   1      43.804  26.367  35.854  1.00  0.00     0.091 A 
ATOM     71  F   UNL A   1      41.586  27.120  35.595  1.00  0.00    -0.205 F 
ATOM     72  C   UNL A   1      45.100  26.214  35.354  1.00  0.00     0.022 A 
BRANCH  70  73
ATOM     73  S   UNL A   1      43.490  25.572  37.450  1.00  0.00     0.127 S 
ATOM     74  O   UNL A   1      42.233  24.866  37.205  1.00  0.00    -0.237 OA
ATOM     75  O   UNL A   1      44.654  24.695  37.599  1.00  0.00    -0.237 OA
ATOM     76  O   UNL A   1      43.405  26.641  38.438  1.00  0.00    -0.744 OA
ENDBRANCH  70  73
ENDBRANCH  52  66
BRANCH  53  77
ATOM     77  C   UNL A   1      35.735  33.559  30.044  1.00  0.00     0.023 A 
ATOM     78  C   UNL A   1      35.679  33.746  28.632  1.00  0.00     0.012 A 
ATOM     79  C   UNL A   1      35.028  34.451  30.852  1.00  0.00     0.148 A 
ATOM     80  C   UNL A   1      34.716  34.589  28.064  1.00  0.00     0.002 A 
ATOM     81  C   UNL A   1      34.050  35.262  30.291  1.00  0.00     0.091 A 
ATOM     82  F   UNL A   1      35.227  34.450  32.174  1.00  0.00    -0.205 F 
ATOM     83  C   UNL A   1      33.853  35.302  28.900  1.00  0.00     0.022 A 
BRANCH  81  84
ATOM     84  S   UNL A   1      32.833  35.950  31.440  1.00  0.00     0.127 S 
ATOM     85  O   UNL A   1      33.575  37.021  32.111  1.00  0.00    -0.237 OA
ATOM     86  O   UNL A   1      31.775  36.432  30.558  1.00  0.00    -0.237 OA
ATOM     87  O   UNL A   1      32.499  34.813  32.286  1.00  0.00    -0.744 OA
ENDBRANCH  81  84
ENDBRANCH  53  77
BRANCH  65  88
ATOM     88  C   UNL A   1      39.702  27.733  28.216  1.00  0.00     0.023 A 
ATOM     89  C   UNL A   1      40.379  28.420  27.191  1.00  0.00     0.012 A 
ATOM     90  C   UNL A   1      39.775  26.314  28.151  1.00  0.00     0.148 A 
ATOM     91  C   UNL A   1      40.924  27.761  26.084  1.00  0.00     0.002 A 
ATOM     92  C   UNL A   1      40.469  25.661  27.140  1.00  0.00     0.091 A 
ATOM     93  F   UNL A   1      39.124  25.554  29.039  1.00  0.00    -0.205 F 
ATOM     94  C   UNL A   1      40.980  26.377  26.063  1.00  0.00     0.022 A 
BRANCH  92  95
ATOM     95  S   UNL A   1      40.819  23.900  27.223  1.00  0.00     0.127 S 
ATOM     96  O   UNL A   1      39.489  23.324  27.041  1.00  0.00    -0.237 OA
ATOM     97  O   UNL A   1      41.727  23.716  26.089  1.00  0.00    -0.237 OA
ATOM     98  O   UNL A   1      41.438  23.676  28.523  1.00  0.00    -0.744 OA
ENDBRANCH  92  95
ENDBRANCH  65  88
ENDBRANCH  39  40
ENDBRANCH  32  34
ENDBRANCH  31  32
ENDBRANCH  30  31
ENDBRANCH   1  30
TORSDOF 19
ENDMDL
