MODEL 1
REMARK VINA RESULT:     -11.8      0.000      0.000
REMARK SMILES Cn1c(=O)[nH]c(=O)c2c1nc(NC1CCCC1)n2CC(=O)OCCOC(=O)c1ccc(-c2c3nc(c(-c4cccc(S(=O)(=O)[O-])c4F)c4ccc([nH]4)c(-c4cccc(S(=O)(=O)[O-])c4F)c4nc(c(-c5cccc(S(=O)(=O)[O-])c5F)c5ccc2[nH]5)C=C4)C=C3)cc1
REMARK SMILES IDX 23 1 22 2 20 3 21 4 19 5 18 6 1 7 2 8 3 9 9 10 4 11 5 12
REMARK SMILES IDX 8 13 10 14 6 15 11 17 7 18 12 19 13 21 14 22 17 23 15 24
REMARK SMILES IDX 16 25 24 26 25 27 26 28 27 29 28 30 29 31 90 32 30 33 89 34
REMARK SMILES IDX 31 35 32 36 33 37 83 38 34 39 88 40 82 41 84 42 35 43 87 44
REMARK SMILES IDX 81 45 80 46 36 48 68 49 48 50 67 51 49 52 52 53 66 54 85 55
REMARK SMILES IDX 50 56 51 57 65 59 86 60 53 61 37 62 38 63 46 64 39 65 41 66
REMARK SMILES IDX 47 67 40 68 42 69 43 70 44 71 45 72 69 73 70 74 78 75 71 76
REMARK SMILES IDX 73 77 79 78 72 79 74 80 75 81 76 82 77 83 54 84 55 85 63 86
REMARK SMILES IDX 56 87 58 88 64 89 57 90 59 91 60 92 61 93 62 94
REMARK H PARENT 5 16 12 20 84 47 52 58
REMARK Flexibility Score: inf
ROOT
ATOM      1  C   UNL A   1      32.509  31.215  26.763  1.00  0.00     0.274 C 
ENDROOT
BRANCH   1   2
ATOM      2  O   UNL A   1      31.784  29.957  26.740  1.00  0.00    -0.461 OA
BRANCH   2   3
ATOM      3  C   UNL A   1      31.944  29.190  25.624  1.00  0.00     0.326 C 
ATOM      4  O   UNL A   1      32.558  29.567  24.625  1.00  0.00    -0.250 OA
BRANCH   3   5
ATOM      5  C   UNL A   1      31.411  27.773  25.725  1.00  0.00     0.248 C 
BRANCH   5   6
ATOM      6  N   UNL A   1      31.596  26.882  24.585  1.00  0.00    -0.293 N 
ATOM      7  C   UNL A   1      32.841  23.482  21.737  1.00  0.00     0.157 C 
ATOM      8  N   UNL A   1      33.212  24.291  22.882  1.00  0.00    -0.279 N 
ATOM      9  C   UNL A   1      34.454  24.149  23.483  1.00  0.00     0.329 A 
ATOM     10  C   UNL A   1      32.356  25.253  23.364  1.00  0.00     0.170 A 
ATOM     11  O   UNL A   1      35.306  23.337  23.122  1.00  0.00    -0.248 OA
ATOM     12  N   UNL A   1      34.737  24.988  24.547  1.00  0.00    -0.272 N 
ATOM     13  C   UNL A   1      32.692  26.080  24.394  1.00  0.00     0.154 A 
ATOM     14  N   UNL A   1      31.106  25.482  22.916  1.00  0.00    -0.194 NA
ATOM     15  C   UNL A   1      33.942  25.991  25.056  1.00  0.00     0.279 A 
ATOM     16  H   UNL A   1      35.608  24.854  24.989  1.00  0.00     0.175 HD
ATOM     17  C   UNL A   1      30.641  26.463  23.658  1.00  0.00     0.206 A 
ATOM     18  O   UNL A   1      34.309  26.708  25.984  1.00  0.00    -0.267 OA
BRANCH  17  19
ATOM     19  N   UNL A   1      29.429  27.036  23.557  1.00  0.00    -0.353 N 
ATOM     20  H   UNL A   1      28.637  26.468  23.700  1.00  0.00     0.163 HD
BRANCH  19  21
ATOM     21  C   UNL A   1      29.210  28.444  23.248  1.00  0.00     0.082 C 
ATOM     22  C   UNL A   1      30.058  28.978  22.101  1.00  0.00     0.025 C 
ATOM     23  C   UNL A   1      27.783  28.831  22.887  1.00  0.00     0.025 C 
ATOM     24  C   UNL A   1      29.406  30.315  21.780  1.00  0.00     0.002 C 
ATOM     25  C   UNL A   1      27.925  30.155  22.128  1.00  0.00     0.002 C 
ENDBRANCH  19  21
ENDBRANCH  17  19
ENDBRANCH   5   6
ENDBRANCH   3   5
ENDBRANCH   2   3
ENDBRANCH   1   2
BRANCH   1  26
ATOM     26  C   UNL A   1      33.629  31.224  27.816  1.00  0.00     0.275 C 
BRANCH  26  27
ATOM     27  O   UNL A   1      34.969  31.225  27.285  1.00  0.00    -0.458 OA
BRANCH  27  28
ATOM     28  C   UNL A   1      35.847  31.898  28.049  1.00  0.00     0.338 C 
ATOM     29  O   UNL A   1      36.105  33.088  27.966  1.00  0.00    -0.246 OA
BRANCH  28  30
ATOM     30  C   UNL A   1      36.768  31.082  28.827  1.00  0.00     0.060 A 
ATOM     31  C   UNL A   1      37.877  31.778  29.336  1.00  0.00     0.016 A 
ATOM     32  C   UNL A   1      36.778  29.701  28.648  1.00  0.00     0.016 A 
ATOM     33  C   UNL A   1      39.079  31.124  29.427  1.00  0.00     0.010 A 
ATOM     34  C   UNL A   1      37.976  29.036  28.803  1.00  0.00     0.010 A 
ATOM     35  C   UNL A   1      39.131  29.769  29.092  1.00  0.00    -0.014 A 
BRANCH  35  36
ATOM     36  C   UNL A   1      40.425  29.121  29.210  1.00  0.00     0.031 A 
ATOM     37  C   UNL A   1      40.785  28.808  30.618  1.00  0.00     0.074 A 
ATOM     38  C   UNL A   1      41.148  28.718  28.148  1.00  0.00     0.049 A 
ATOM     39  N   UNL A   1      41.812  29.206  31.295  1.00  0.00    -0.248 NA
ATOM     40  C   UNL A   1      39.765  28.107  31.417  1.00  0.00     0.031 C 
ATOM     41  C   UNL A   1      40.763  28.728  26.734  1.00  0.00     0.029 A 
ATOM     42  N   UNL A   1      42.325  28.038  28.144  1.00  0.00    -0.354 N 
ATOM     43  C   UNL A   1      41.664  28.623  32.552  1.00  0.00     0.074 A 
ATOM     44  C   UNL A   1      40.314  28.135  32.629  1.00  0.00     0.031 C 
ATOM     45  C   UNL A   1      41.526  27.830  26.070  1.00  0.00     0.029 A 
ATOM     46  C   UNL A   1      42.530  27.306  26.979  1.00  0.00     0.049 A 
ATOM     47  H   UNL A   1      42.968  28.061  28.889  1.00  0.00     0.167 HD
ATOM     48  C   UNL A   1      42.725  28.361  33.359  1.00  0.00     0.034 A 
ATOM     49  C   UNL A   1      43.391  26.270  26.835  1.00  0.00     0.034 A 
ATOM     50  C   UNL A   1      43.896  29.098  32.974  1.00  0.00     0.049 A 
ATOM     51  C   UNL A   1      44.363  26.343  27.950  1.00  0.00     0.074 A 
ATOM     52  C   UNL A   1      44.225  30.434  32.882  1.00  0.00     0.029 A 
ATOM     53  N   UNL A   1      44.852  28.420  32.260  1.00  0.00    -0.354 N 
ATOM     54  N   UNL A   1      45.255  27.283  28.074  1.00  0.00    -0.248 NA
ATOM     55  C   UNL A   1      44.090  25.574  29.154  1.00  0.00     0.031 C 
ATOM     56  C   UNL A   1      45.082  30.525  31.746  1.00  0.00     0.029 A 
ATOM     57  C   UNL A   1      45.250  29.236  31.236  1.00  0.00     0.049 A 
ATOM     58  H   UNL A   1      45.188  27.514  32.450  1.00  0.00     0.167 HD
ATOM     59  C   UNL A   1      45.324  27.517  29.441  1.00  0.00     0.074 A 
ATOM     60  C   UNL A   1      44.685  26.356  30.057  1.00  0.00     0.031 C 
ATOM     61  C   UNL A   1      45.627  28.756  29.924  1.00  0.00     0.034 A 
BRANCH  48  62
ATOM     62  C   UNL A   1      42.792  27.178  34.291  1.00  0.00     0.023 A 
ATOM     63  C   UNL A   1      42.384  27.368  35.628  1.00  0.00     0.012 A 
ATOM     64  C   UNL A   1      43.464  25.970  33.991  1.00  0.00     0.148 A 
ATOM     65  C   UNL A   1      42.651  26.414  36.616  1.00  0.00     0.002 A 
ATOM     66  C   UNL A   1      43.641  24.985  34.953  1.00  0.00     0.091 A 
ATOM     67  F   UNL A   1      44.069  25.815  32.809  1.00  0.00    -0.205 F 
ATOM     68  C   UNL A   1      43.265  25.214  36.276  1.00  0.00     0.022 A 
BRANCH  66  69
ATOM     69  S   UNL A   1      44.356  23.392  34.532  1.00  0.00     0.127 S 
ATOM     70  O   UNL A   1      44.405  22.737  35.835  1.00  0.00    -0.237 OA
ATOM     71  O   UNL A   1      43.363  22.852  33.603  1.00  0.00    -0.237 OA
ATOM     72  O   UNL A   1      45.639  23.700  33.912  1.00  0.00    -0.744 OA
ENDBRANCH  66  69
ENDBRANCH  48  62
BRANCH  49  73
ATOM     73  C   UNL A   1      43.293  25.048  26.008  1.00  0.00     0.023 A 
ATOM     74  C   UNL A   1      44.293  24.802  25.045  1.00  0.00     0.012 A 
ATOM     75  C   UNL A   1      42.441  23.985  26.375  1.00  0.00     0.148 A 
ATOM     76  C   UNL A   1      44.480  23.524  24.509  1.00  0.00     0.002 A 
ATOM     77  C   UNL A   1      42.631  22.714  25.838  1.00  0.00     0.091 A 
ATOM     78  F   UNL A   1      41.517  24.193  27.323  1.00  0.00    -0.205 F 
ATOM     79  C   UNL A   1      43.659  22.477  24.917  1.00  0.00     0.022 A 
BRANCH  77  80
ATOM     80  S   UNL A   1      41.643  21.301  26.350  1.00  0.00     0.127 S 
ATOM     81  O   UNL A   1      42.261  20.209  25.599  1.00  0.00    -0.237 OA
ATOM     82  O   UNL A   1      41.885  21.271  27.789  1.00  0.00    -0.237 OA
ATOM     83  O   UNL A   1      40.277  21.608  25.942  1.00  0.00    -0.744 OA
ENDBRANCH  77  80
ENDBRANCH  49  73
BRANCH  61  84
ATOM     84  C   UNL A   1      46.123  29.793  28.947  1.00  0.00     0.023 A 
ATOM     85  C   UNL A   1      47.474  29.860  28.541  1.00  0.00     0.012 A 
ATOM     86  C   UNL A   1      45.182  30.609  28.299  1.00  0.00     0.148 A 
ATOM     87  C   UNL A   1      47.881  30.741  27.536  1.00  0.00     0.002 A 
ATOM     88  C   UNL A   1      45.581  31.448  27.263  1.00  0.00     0.091 A 
ATOM     89  F   UNL A   1      43.901  30.536  28.689  1.00  0.00    -0.205 F 
ATOM     90  C   UNL A   1      46.931  31.525  26.886  1.00  0.00     0.022 A 
BRANCH  88  91
ATOM     91  S   UNL A   1      44.382  32.375  26.305  1.00  0.00     0.127 S 
ATOM     92  O   UNL A   1      45.200  32.904  25.217  1.00  0.00    -0.237 OA
ATOM     93  O   UNL A   1      43.426  31.340  25.904  1.00  0.00    -0.237 OA
ATOM     94  O   UNL A   1      43.827  33.366  27.219  1.00  0.00    -0.744 OA
ENDBRANCH  88  91
ENDBRANCH  61  84
ENDBRANCH  35  36
ENDBRANCH  28  30
ENDBRANCH  27  28
ENDBRANCH  26  27
ENDBRANCH   1  26
TORSDOF 17
ENDMDL
MODEL 2
REMARK VINA RESULT:     -11.8      3.352      9.148
REMARK SMILES Cn1c(=O)[nH]c(=O)c2c1nc(NC1CCCC1)n2CC(=O)OCCOC(=O)c1ccc(-c2c3nc(c(-c4cccc(S(=O)(=O)[O-])c4F)c4ccc([nH]4)c(-c4cccc(S(=O)(=O)[O-])c4F)c4nc(c(-c5cccc(S(=O)(=O)[O-])c5F)c5ccc2[nH]5)C=C4)C=C3)cc1
REMARK SMILES IDX 23 1 22 2 20 3 21 4 19 5 18 6 1 7 2 8 3 9 9 10 4 11 5 12
REMARK SMILES IDX 8 13 10 14 6 15 11 17 7 18 12 19 13 21 14 22 17 23 15 24
REMARK SMILES IDX 16 25 24 26 25 27 26 28 27 29 28 30 29 31 90 32 30 33 89 34
REMARK SMILES IDX 31 35 32 36 33 37 83 38 34 39 88 40 82 41 84 42 35 43 87 44
REMARK SMILES IDX 81 45 80 46 36 48 68 49 48 50 67 51 49 52 52 53 66 54 85 55
REMARK SMILES IDX 50 56 51 57 65 59 86 60 53 61 37 62 38 63 46 64 39 65 41 66
REMARK SMILES IDX 47 67 40 68 42 69 43 70 44 71 45 72 69 73 70 74 78 75 71 76
REMARK SMILES IDX 73 77 79 78 72 79 74 80 75 81 76 82 77 83 54 84 55 85 63 86
REMARK SMILES IDX 56 87 58 88 64 89 57 90 59 91 60 92 61 93 62 94
REMARK H PARENT 5 16 12 20 84 47 52 58
REMARK Flexibility Score: inf
ROOT
ATOM      1  C   UNL A   1      37.664  23.544  25.898  1.00  0.00     0.274 C 
ENDROOT
BRANCH   1   2
ATOM      2  O   UNL A   1      36.364  23.068  25.461  1.00  0.00    -0.461 OA
BRANCH   2   3
ATOM      3  C   UNL A   1      36.147  23.057  24.115  1.00  0.00     0.326 C 
ATOM      4  O   UNL A   1      37.022  23.312  23.286  1.00  0.00    -0.250 OA
BRANCH   3   5
ATOM      5  C   UNL A   1      34.770  22.595  23.680  1.00  0.00     0.248 C 
BRANCH   5   6
ATOM      6  N   UNL A   1      33.732  22.459  24.696  1.00  0.00    -0.293 N 
ATOM      7  C   UNL A   1      29.897  22.787  27.228  1.00  0.00     0.157 C 
ATOM      8  N   UNL A   1      30.792  23.458  26.304  1.00  0.00    -0.279 N 
ATOM      9  C   UNL A   1      30.588  24.782  25.948  1.00  0.00     0.329 A 
ATOM     10  C   UNL A   1      31.895  22.806  25.803  1.00  0.00     0.170 A 
ATOM     11  O   UNL A   1      29.649  25.468  26.353  1.00  0.00    -0.248 OA
ATOM     12  N   UNL A   1      31.513  25.353  25.090  1.00  0.00    -0.272 N 
ATOM     13  C   UNL A   1      32.797  23.420  24.987  1.00  0.00     0.154 A 
ATOM     14  N   UNL A   1      32.204  21.513  26.020  1.00  0.00    -0.194 NA
ATOM     15  C   UNL A   1      32.651  24.770  24.580  1.00  0.00     0.279 A 
ATOM     16  H   UNL A   1      31.338  26.283  24.815  1.00  0.00     0.175 HD
ATOM     17  C   UNL A   1      33.313  21.299  25.347  1.00  0.00     0.206 A 
ATOM     18  O   UNL A   1      33.430  25.382  23.854  1.00  0.00    -0.267 OA
BRANCH  17  19
ATOM     19  N   UNL A   1      34.000  20.144  25.285  1.00  0.00    -0.353 N 
ATOM     20  H   UNL A   1      34.906  20.126  25.670  1.00  0.00     0.163 HD
BRANCH  19  21
ATOM     21  C   UNL A   1      33.490  18.917  24.685  1.00  0.00     0.082 C 
ATOM     22  C   UNL A   1      32.720  19.121  23.387  1.00  0.00     0.025 C 
ATOM     23  C   UNL A   1      34.531  17.857  24.355  1.00  0.00     0.025 C 
ATOM     24  C   UNL A   1      32.609  17.712  22.823  1.00  0.00     0.002 C 
ATOM     25  C   UNL A   1      33.852  16.965  23.310  1.00  0.00     0.002 C 
ENDBRANCH  19  21
ENDBRANCH  17  19
ENDBRANCH   5   6
ENDBRANCH   3   5
ENDBRANCH   2   3
ENDBRANCH   1   2
BRANCH   1  26
ATOM     26  C   UNL A   1      38.644  22.393  26.181  1.00  0.00     0.275 C 
BRANCH  26  27
ATOM     27  O   UNL A   1      40.032  22.698  25.941  1.00  0.00    -0.458 OA
BRANCH  27  28
ATOM     28  C   UNL A   1      40.713  23.006  27.058  1.00  0.00     0.338 C 
ATOM     29  O   UNL A   1      40.770  22.329  28.072  1.00  0.00    -0.246 OA
BRANCH  28  30
ATOM     30  C   UNL A   1      41.167  24.385  27.165  1.00  0.00     0.060 A 
ATOM     31  C   UNL A   1      42.076  24.620  28.210  1.00  0.00     0.016 A 
ATOM     32  C   UNL A   1      40.400  25.404  26.607  1.00  0.00     0.016 A 
ATOM     33  C   UNL A   1      42.031  25.825  28.863  1.00  0.00     0.010 A 
ATOM     34  C   UNL A   1      40.405  26.635  27.229  1.00  0.00     0.010 A 
ATOM     35  C   UNL A   1      41.142  26.801  28.406  1.00  0.00    -0.014 A 
BRANCH  35  36
ATOM     36  C   UNL A   1      41.135  28.062  29.127  1.00  0.00     0.031 A 
ATOM     37  C   UNL A   1      42.126  29.034  28.593  1.00  0.00     0.074 A 
ATOM     38  C   UNL A   1      40.230  28.364  30.076  1.00  0.00     0.049 A 
ATOM     39  N   UNL A   1      43.112  29.600  29.210  1.00  0.00    -0.248 NA
ATOM     40  C   UNL A   1      42.112  29.255  27.138  1.00  0.00     0.031 C 
ATOM     41  C   UNL A   1      39.051  27.593  30.481  1.00  0.00     0.029 A 
ATOM     42  N   UNL A   1      40.084  29.532  30.754  1.00  0.00    -0.354 N 
ATOM     43  C   UNL A   1      43.715  30.414  28.255  1.00  0.00     0.074 A 
ATOM     44  C   UNL A   1      43.192  30.016  26.976  1.00  0.00     0.031 C 
ATOM     45  C   UNL A   1      38.173  28.427  31.083  1.00  0.00     0.029 A 
ATOM     46  C   UNL A   1      38.792  29.733  31.228  1.00  0.00     0.049 A 
ATOM     47  H   UNL A   1      40.819  30.173  30.897  1.00  0.00     0.167 HD
ATOM     48  C   UNL A   1      44.421  31.526  28.591  1.00  0.00     0.034 A 
ATOM     49  C   UNL A   1      38.259  30.923  31.597  1.00  0.00     0.034 A 
ATOM     50  C   UNL A   1      44.811  31.524  29.972  1.00  0.00     0.049 A 
ATOM     51  C   UNL A   1      39.383  31.859  31.833  1.00  0.00     0.074 A 
ATOM     52  C   UNL A   1      45.598  30.716  30.767  1.00  0.00     0.029 A 
ATOM     53  N   UNL A   1      44.065  32.292  30.831  1.00  0.00    -0.354 N 
ATOM     54  N   UNL A   1      40.227  31.744  32.816  1.00  0.00    -0.248 NA
ATOM     55  C   UNL A   1      39.807  32.716  30.737  1.00  0.00     0.031 C 
ATOM     56  C   UNL A   1      44.954  30.711  32.039  1.00  0.00     0.029 A 
ATOM     57  C   UNL A   1      43.836  31.543  31.954  1.00  0.00     0.049 A 
ATOM     58  H   UNL A   1      43.754  33.212  30.670  1.00  0.00     0.167 HD
ATOM     59  C   UNL A   1      41.443  32.138  32.276  1.00  0.00     0.074 A 
ATOM     60  C   UNL A   1      41.100  32.841  31.041  1.00  0.00     0.031 C 
ATOM     61  C   UNL A   1      42.615  31.605  32.726  1.00  0.00     0.034 A 
BRANCH  48  62
ATOM     62  C   UNL A   1      44.465  32.774  27.746  1.00  0.00     0.023 A 
ATOM     63  C   UNL A   1      45.523  32.907  26.822  1.00  0.00     0.012 A 
ATOM     64  C   UNL A   1      43.674  33.922  27.987  1.00  0.00     0.148 A 
ATOM     65  C   UNL A   1      45.790  34.127  26.189  1.00  0.00     0.002 A 
ATOM     66  C   UNL A   1      43.882  35.101  27.285  1.00  0.00     0.091 A 
ATOM     67  F   UNL A   1      42.802  33.934  29.000  1.00  0.00    -0.205 F 
ATOM     68  C   UNL A   1      44.960  35.220  26.407  1.00  0.00     0.022 A 
BRANCH  66  69
ATOM     69  S   UNL A   1      42.781  36.506  27.480  1.00  0.00     0.127 S 
ATOM     70  O   UNL A   1      43.113  36.955  28.829  1.00  0.00    -0.237 OA
ATOM     71  O   UNL A   1      43.228  37.391  26.404  1.00  0.00    -0.237 OA
ATOM     72  O   UNL A   1      41.439  35.970  27.287  1.00  0.00    -0.744 OA
ENDBRANCH  66  69
ENDBRANCH  48  62
BRANCH  49  73
ATOM     73  C   UNL A   1      36.874  31.431  31.484  1.00  0.00     0.023 A 
ATOM     74  C   UNL A   1      36.272  32.010  32.620  1.00  0.00     0.012 A 
ATOM     75  C   UNL A   1      36.279  31.653  30.224  1.00  0.00     0.148 A 
ATOM     76  C   UNL A   1      35.150  32.835  32.500  1.00  0.00     0.002 A 
ATOM     77  C   UNL A   1      35.160  32.475  30.110  1.00  0.00     0.091 A 
ATOM     78  F   UNL A   1      36.867  31.148  29.131  1.00  0.00    -0.205 F 
ATOM     79  C   UNL A   1      34.603  33.080  31.245  1.00  0.00     0.022 A 
BRANCH  77  80
ATOM     80  S   UNL A   1      34.427  32.878  28.518  1.00  0.00     0.127 S 
ATOM     81  O   UNL A   1      33.889  31.585  28.096  1.00  0.00    -0.237 OA
ATOM     82  O   UNL A   1      33.422  33.868  28.892  1.00  0.00    -0.237 OA
ATOM     83  O   UNL A   1      35.524  33.366  27.691  1.00  0.00    -0.744 OA
ENDBRANCH  77  80
ENDBRANCH  49  73
BRANCH  61  84
ATOM     84  C   UNL A   1      42.573  30.770  33.984  1.00  0.00     0.023 A 
ATOM     85  C   UNL A   1      42.635  31.346  35.272  1.00  0.00     0.012 A 
ATOM     86  C   UNL A   1      42.301  29.398  33.869  1.00  0.00     0.148 A 
ATOM     87  C   UNL A   1      42.458  30.565  36.417  1.00  0.00     0.002 A 
ATOM     88  C   UNL A   1      42.076  28.633  35.009  1.00  0.00     0.091 A 
ATOM     89  F   UNL A   1      42.243  28.861  32.640  1.00  0.00    -0.205 F 
ATOM     90  C   UNL A   1      42.165  29.211  36.285  1.00  0.00     0.022 A 
BRANCH  88  91
ATOM     91  S   UNL A   1      41.560  26.920  34.890  1.00  0.00     0.127 S 
ATOM     92  O   UNL A   1      42.758  26.274  34.359  1.00  0.00    -0.237 OA
ATOM     93  O   UNL A   1      41.250  26.584  36.282  1.00  0.00    -0.237 OA
ATOM     94  O   UNL A   1      40.397  26.917  34.011  1.00  0.00    -0.744 OA
ENDBRANCH  88  91
ENDBRANCH  61  84
ENDBRANCH  35  36
ENDBRANCH  28  30
ENDBRANCH  27  28
ENDBRANCH  26  27
ENDBRANCH   1  26
TORSDOF 17
ENDMDL
MODEL 3
REMARK VINA RESULT:     -11.1      1.606      2.027
REMARK SMILES Cn1c(=O)[nH]c(=O)c2c1nc(NC1CCCC1)n2CC(=O)OCCOC(=O)c1ccc(-c2c3nc(c(-c4cccc(S(=O)(=O)[O-])c4F)c4ccc([nH]4)c(-c4cccc(S(=O)(=O)[O-])c4F)c4nc(c(-c5cccc(S(=O)(=O)[O-])c5F)c5ccc2[nH]5)C=C4)C=C3)cc1
REMARK SMILES IDX 23 1 22 2 20 3 21 4 19 5 18 6 1 7 2 8 3 9 9 10 4 11 5 12
REMARK SMILES IDX 8 13 10 14 6 15 11 17 7 18 12 19 13 21 14 22 17 23 15 24
REMARK SMILES IDX 16 25 24 26 25 27 26 28 27 29 28 30 29 31 90 32 30 33 89 34
REMARK SMILES IDX 31 35 32 36 33 37 83 38 34 39 88 40 82 41 84 42 35 43 87 44
REMARK SMILES IDX 81 45 80 46 36 48 68 49 48 50 67 51 49 52 52 53 66 54 85 55
REMARK SMILES IDX 50 56 51 57 65 59 86 60 53 61 37 62 38 63 46 64 39 65 41 66
REMARK SMILES IDX 47 67 40 68 42 69 43 70 44 71 45 72 69 73 70 74 78 75 71 76
REMARK SMILES IDX 73 77 79 78 72 79 74 80 75 81 76 82 77 83 54 84 55 85 63 86
REMARK SMILES IDX 56 87 58 88 64 89 57 90 59 91 60 92 61 93 62 94
REMARK H PARENT 5 16 12 20 84 47 52 58
REMARK Flexibility Score: inf
ROOT
ATOM      1  C   UNL A   1      33.411  29.175  27.088  1.00  0.00     0.274 C 
ENDROOT
BRANCH   1   2
ATOM      2  O   UNL A   1      34.075  28.595  25.935  1.00  0.00    -0.461 OA
BRANCH   2   3
ATOM      3  C   UNL A   1      33.389  27.620  25.271  1.00  0.00     0.326 C 
ATOM      4  O   UNL A   1      32.277  27.221  25.617  1.00  0.00    -0.250 OA
BRANCH   3   5
ATOM      5  C   UNL A   1      34.034  27.125  23.991  1.00  0.00     0.248 C 
BRANCH   5   6
ATOM      6  N   UNL A   1      33.561  25.870  23.418  1.00  0.00    -0.293 N 
ATOM      7  C   UNL A   1      32.148  21.544  22.706  1.00  0.00     0.157 C 
ATOM      8  N   UNL A   1      32.968  22.426  23.514  1.00  0.00    -0.279 N 
ATOM      9  C   UNL A   1      33.773  21.923  24.525  1.00  0.00     0.329 A 
ATOM     10  C   UNL A   1      33.003  23.776  23.258  1.00  0.00     0.170 A 
ATOM     11  O   UNL A   1      33.838  20.731  24.827  1.00  0.00    -0.248 OA
ATOM     12  N   UNL A   1      34.551  22.833  25.221  1.00  0.00    -0.272 N 
ATOM     13  C   UNL A   1      33.811  24.630  23.948  1.00  0.00     0.154 A 
ATOM     14  N   UNL A   1      32.250  24.418  22.342  1.00  0.00    -0.194 NA
ATOM     15  C   UNL A   1      34.658  24.187  24.995  1.00  0.00     0.279 A 
ATOM     16  H   UNL A   1      35.092  22.470  25.961  1.00  0.00     0.175 HD
ATOM     17  C   UNL A   1      32.582  25.686  22.442  1.00  0.00     0.206 A 
ATOM     18  O   UNL A   1      35.413  24.901  25.649  1.00  0.00    -0.267 OA
BRANCH  17  19
ATOM     19  N   UNL A   1      32.093  26.699  21.706  1.00  0.00    -0.353 N 
ATOM     20  H   UNL A   1      32.581  26.955  20.890  1.00  0.00     0.163 HD
BRANCH  19  21
ATOM     21  C   UNL A   1      30.885  27.445  22.037  1.00  0.00     0.082 C 
ATOM     22  C   UNL A   1      30.059  26.842  23.166  1.00  0.00     0.025 C 
ATOM     23  C   UNL A   1      31.091  28.898  22.444  1.00  0.00     0.025 C 
ATOM     24  C   UNL A   1      29.088  27.958  23.522  1.00  0.00     0.002 C 
ATOM     25  C   UNL A   1      29.818  29.266  23.214  1.00  0.00     0.002 C 
ENDBRANCH  19  21
ENDBRANCH  17  19
ENDBRANCH   5   6
ENDBRANCH   3   5
ENDBRANCH   2   3
ENDBRANCH   1   2
BRANCH   1  26
ATOM     26  C   UNL A   1      33.608  30.698  27.171  1.00  0.00     0.275 C 
BRANCH  26  27
ATOM     27  O   UNL A   1      34.058  31.188  28.450  1.00  0.00    -0.458 OA
BRANCH  27  28
ATOM     28  C   UNL A   1      35.295  31.715  28.416  1.00  0.00     0.338 C 
ATOM     29  O   UNL A   1      35.691  32.562  27.632  1.00  0.00    -0.246 OA
BRANCH  28  30
ATOM     30  C   UNL A   1      36.310  31.002  29.179  1.00  0.00     0.060 A 
ATOM     31  C   UNL A   1      37.458  31.758  29.468  1.00  0.00     0.016 A 
ATOM     32  C   UNL A   1      36.322  29.610  29.170  1.00  0.00     0.016 A 
ATOM     33  C   UNL A   1      38.673  31.122  29.502  1.00  0.00     0.010 A 
ATOM     34  C   UNL A   1      37.540  28.971  29.268  1.00  0.00     0.010 A 
ATOM     35  C   UNL A   1      38.708  29.737  29.332  1.00  0.00    -0.014 A 
BRANCH  35  36
ATOM     36  C   UNL A   1      40.017  29.110  29.380  1.00  0.00     0.031 A 
ATOM     37  C   UNL A   1      40.496  28.885  30.770  1.00  0.00     0.074 A 
ATOM     38  C   UNL A   1      40.657  28.652  28.288  1.00  0.00     0.049 A 
ATOM     39  N   UNL A   1      41.569  29.333  31.335  1.00  0.00    -0.248 NA
ATOM     40  C   UNL A   1      39.556  28.222  31.690  1.00  0.00     0.031 C 
ATOM     41  C   UNL A   1      40.158  28.574  26.912  1.00  0.00     0.029 A 
ATOM     42  N   UNL A   1      41.840  27.986  28.226  1.00  0.00    -0.354 N 
ATOM     43  C   UNL A   1      41.533  28.825  32.632  1.00  0.00     0.074 A 
ATOM     44  C   UNL A   1      40.201  28.328  32.849  1.00  0.00     0.031 C 
ATOM     45  C   UNL A   1      40.878  27.646  26.241  1.00  0.00     0.029 A 
ATOM     46  C   UNL A   1      41.961  27.188  27.093  1.00  0.00     0.049 A 
ATOM     47  H   UNL A   1      42.542  28.060  28.913  1.00  0.00     0.167 HD
ATOM     48  C   UNL A   1      42.660  28.622  33.363  1.00  0.00     0.034 A 
ATOM     49  C   UNL A   1      42.823  26.154  26.940  1.00  0.00     0.034 A 
ATOM     50  C   UNL A   1      43.784  29.347  32.841  1.00  0.00     0.049 A 
ATOM     51  C   UNL A   1      43.882  26.304  27.965  1.00  0.00     0.074 A 
ATOM     52  C   UNL A   1      44.084  30.679  32.643  1.00  0.00     0.029 A 
ATOM     53  N   UNL A   1      44.689  28.638  32.091  1.00  0.00    -0.354 N 
ATOM     54  N   UNL A   1      44.767  27.258  27.960  1.00  0.00    -0.248 NA
ATOM     55  C   UNL A   1      43.720  25.604  29.230  1.00  0.00     0.031 C 
ATOM     56  C   UNL A   1      44.844  30.711  31.437  1.00  0.00     0.029 A 
ATOM     57  C   UNL A   1      44.990  29.396  30.992  1.00  0.00     0.049 A 
ATOM     58  H   UNL A   1      45.054  27.749  32.305  1.00  0.00     0.167 HD
ATOM     59  C   UNL A   1      44.943  27.574  29.300  1.00  0.00     0.074 A 
ATOM     60  C   UNL A   1      44.374  26.445  30.033  1.00  0.00     0.031 C 
ATOM     61  C   UNL A   1      45.265  28.843  29.684  1.00  0.00     0.034 A 
BRANCH  48  62
ATOM     62  C   UNL A   1      42.821  27.498  34.354  1.00  0.00     0.023 A 
ATOM     63  C   UNL A   1      42.676  27.801  35.724  1.00  0.00     0.012 A 
ATOM     64  C   UNL A   1      43.350  26.226  34.030  1.00  0.00     0.148 A 
ATOM     65  C   UNL A   1      43.058  26.892  36.717  1.00  0.00     0.002 A 
ATOM     66  C   UNL A   1      43.636  25.292  35.016  1.00  0.00     0.091 A 
ATOM     67  F   UNL A   1      43.718  25.953  32.774  1.00  0.00    -0.205 F 
ATOM     68  C   UNL A   1      43.522  25.630  36.364  1.00  0.00     0.022 A 
BRANCH  66  69
ATOM     69  S   UNL A   1      44.160  23.626  34.595  1.00  0.00     0.127 S 
ATOM     70  O   UNL A   1      43.027  23.151  33.808  1.00  0.00    -0.237 OA
ATOM     71  O   UNL A   1      45.383  23.879  33.832  1.00  0.00    -0.237 OA
ATOM     72  O   UNL A   1      44.387  22.962  35.873  1.00  0.00    -0.744 OA
ENDBRANCH  66  69
ENDBRANCH  48  62
BRANCH  49  73
ATOM     73  C   UNL A   1      42.677  24.884  26.196  1.00  0.00     0.023 A 
ATOM     74  C   UNL A   1      43.700  24.501  25.305  1.00  0.00     0.012 A 
ATOM     75  C   UNL A   1      41.736  23.910  26.594  1.00  0.00     0.148 A 
ATOM     76  C   UNL A   1      43.820  23.178  24.870  1.00  0.00     0.002 A 
ATOM     77  C   UNL A   1      41.859  22.594  26.157  1.00  0.00     0.091 A 
ATOM     78  F   UNL A   1      40.786  24.249  27.477  1.00  0.00    -0.205 F 
ATOM     79  C   UNL A   1      42.910  22.221  25.308  1.00  0.00     0.022 A 
BRANCH  77  80
ATOM     80  S   UNL A   1      40.752  21.292  26.716  1.00  0.00     0.127 S 
ATOM     81  O   UNL A   1      39.475  21.708  26.133  1.00  0.00    -0.237 OA
ATOM     82  O   UNL A   1      41.347  20.108  26.106  1.00  0.00    -0.237 OA
ATOM     83  O   UNL A   1      40.787  21.344  28.173  1.00  0.00    -0.744 OA
ENDBRANCH  77  80
ENDBRANCH  49  73
BRANCH  61  84
ATOM     84  C   UNL A   1      45.664  29.825  28.610  1.00  0.00     0.023 A 
ATOM     85  C   UNL A   1      44.712  30.542  27.853  1.00  0.00     0.012 A 
ATOM     86  C   UNL A   1      47.022  30.154  28.472  1.00  0.00     0.148 A 
ATOM     87  C   UNL A   1      45.107  31.542  26.961  1.00  0.00     0.002 A 
ATOM     88  C   UNL A   1      47.408  31.185  27.621  1.00  0.00     0.091 A 
ATOM     89  F   UNL A   1      47.919  29.469  29.197  1.00  0.00    -0.205 F 
ATOM     90  C   UNL A   1      46.454  31.873  26.855  1.00  0.00     0.022 A 
BRANCH  88  91
ATOM     91  S   UNL A   1      49.111  31.742  27.551  1.00  0.00     0.127 S 
ATOM     92  O   UNL A   1      49.168  32.699  28.652  1.00  0.00    -0.237 OA
ATOM     93  O   UNL A   1      49.861  30.504  27.776  1.00  0.00    -0.237 OA
ATOM     94  O   UNL A   1      49.288  32.302  26.216  1.00  0.00    -0.744 OA
ENDBRANCH  88  91
ENDBRANCH  61  84
ENDBRANCH  35  36
ENDBRANCH  28  30
ENDBRANCH  27  28
ENDBRANCH  26  27
ENDBRANCH   1  26
TORSDOF 17
ENDMDL
