MODEL 1
REMARK VINA RESULT:     -11.5      0.000      0.000
REMARK SMILES NC(=O)c1ccc(C(=O)OCCOC(=O)c2ccc(-c3c4nc(c(-c5cccc(S(=O)(=O)[O-])c5F)c5ccc([nH]5)c(-c5cccc(S(=O)(=O)[O-])c5F)c5nc(c(-c6cccc(S(=O)(=O)[O-])c6F)c6ccc3[nH]6)C=C5)C=C4)cc2)c(F)c1
REMARK SMILES IDX 12 1 11 2 10 3 8 4 9 5 7 6 4 7 5 8 81 9 6 10 79 11 80 12
REMARK SMILES IDX 2 13 1 14 3 17 13 18 14 19 15 20 16 21 17 22 78 23 18 24
REMARK SMILES IDX 77 25 19 26 20 27 21 28 71 29 22 30 76 31 70 32 72 33 23 34
REMARK SMILES IDX 75 35 69 36 68 37 24 39 56 40 36 41 55 42 37 43 40 44 54 45
REMARK SMILES IDX 73 46 38 47 39 48 53 50 74 51 41 52 25 53 26 54 34 55 27 56
REMARK SMILES IDX 29 57 35 58 28 59 30 60 31 61 32 62 33 63 57 64 58 65 66 66
REMARK SMILES IDX 59 67 61 68 67 69 60 70 62 71 63 72 64 73 65 74 42 75 43 76
REMARK SMILES IDX 51 77 44 78 46 79 52 80 45 81 47 82 48 83 49 84 50 85
REMARK H PARENT 1 15 1 16 72 38 40 49
REMARK Flexibility Score: inf
ROOT
ATOM      1  C   UNL A   1      37.114  19.966  24.984  1.00  0.00     0.275 C 
ENDROOT
BRANCH   1   2
ATOM      2  C   UNL A   1      35.620  20.285  24.996  1.00  0.00     0.275 C 
BRANCH   2   3
ATOM      3  O   UNL A   1      35.387  21.620  25.492  1.00  0.00    -0.458 OA
BRANCH   3   4
ATOM      4  C   UNL A   1      34.099  22.035  25.519  1.00  0.00     0.341 C 
ATOM      5  O   UNL A   1      33.265  21.768  26.371  1.00  0.00    -0.246 OA
BRANCH   4   6
ATOM      6  C   UNL A   1      33.830  23.001  24.433  1.00  0.00     0.095 A 
ATOM      7  C   UNL A   1      33.183  24.774  22.365  1.00  0.00     0.042 A 
ATOM      8  C   UNL A   1      32.846  23.422  22.249  1.00  0.00     0.015 A 
ATOM      9  C   UNL A   1      33.886  25.228  23.488  1.00  0.00     0.054 A 
ATOM     10  C   UNL A   1      33.196  22.535  23.269  1.00  0.00     0.019 A 
ATOM     11  C   UNL A   1      34.192  24.343  24.520  1.00  0.00     0.138 A 
ATOM     12  F   UNL A   1      34.871  24.811  25.577  1.00  0.00    -0.206 F 
BRANCH   7  13
ATOM     13  C   UNL A   1      32.844  25.746  21.299  1.00  0.00     0.248 C 
ATOM     14  N   UNL A   1      32.331  26.945  21.703  1.00  0.00    -0.366 N 
ATOM     15  H   UNL A   1      32.088  27.626  21.034  1.00  0.00     0.159 HD
ATOM     16  H   UNL A   1      32.202  27.129  22.661  1.00  0.00     0.159 HD
ATOM     17  O   UNL A   1      33.051  25.492  20.121  1.00  0.00    -0.270 OA
ENDBRANCH   7  13
ENDBRANCH   4   6
ENDBRANCH   3   4
ENDBRANCH   2   3
ENDBRANCH   1   2
BRANCH   1  18
ATOM     18  O   UNL A   1      37.866  21.133  25.365  1.00  0.00    -0.458 OA
BRANCH  18  19
ATOM     19  C   UNL A   1      39.052  20.893  25.970  1.00  0.00     0.338 C 
ATOM     20  O   UNL A   1      39.696  19.858  25.967  1.00  0.00    -0.246 OA
BRANCH  19  21
ATOM     21  C   UNL A   1      39.548  22.134  26.579  1.00  0.00     0.060 A 
ATOM     22  C   UNL A   1      38.977  23.333  26.162  1.00  0.00     0.016 A 
ATOM     23  C   UNL A   1      40.657  22.139  27.421  1.00  0.00     0.016 A 
ATOM     24  C   UNL A   1      39.555  24.548  26.519  1.00  0.00     0.010 A 
ATOM     25  C   UNL A   1      41.196  23.364  27.839  1.00  0.00     0.010 A 
ATOM     26  C   UNL A   1      40.681  24.582  27.356  1.00  0.00    -0.014 A 
BRANCH  26  27
ATOM     27  C   UNL A   1      41.343  25.885  27.656  1.00  0.00     0.031 A 
ATOM     28  C   UNL A   1      40.636  26.924  28.493  1.00  0.00     0.074 A 
ATOM     29  C   UNL A   1      42.596  26.133  27.220  1.00  0.00     0.049 A 
ATOM     30  N   UNL A   1      41.021  28.135  28.803  1.00  0.00    -0.248 NA
ATOM     31  C   UNL A   1      39.324  26.557  29.053  1.00  0.00     0.031 C 
ATOM     32  C   UNL A   1      43.405  25.216  26.417  1.00  0.00     0.029 A 
ATOM     33  N   UNL A   1      43.412  27.225  27.395  1.00  0.00    -0.354 N 
ATOM     34  C   UNL A   1      39.978  28.696  29.530  1.00  0.00     0.074 A 
ATOM     35  C   UNL A   1      38.942  27.691  29.624  1.00  0.00     0.031 C 
ATOM     36  C   UNL A   1      44.611  25.763  26.202  1.00  0.00     0.029 A 
ATOM     37  C   UNL A   1      44.641  27.100  26.789  1.00  0.00     0.049 A 
ATOM     38  H   UNL A   1      43.143  28.022  27.906  1.00  0.00     0.167 HD
ATOM     39  C   UNL A   1      39.895  29.927  30.088  1.00  0.00     0.034 A 
ATOM     40  C   UNL A   1      45.672  27.965  26.691  1.00  0.00     0.034 A 
ATOM     41  C   UNL A   1      40.953  30.900  30.068  1.00  0.00     0.049 A 
ATOM     42  C   UNL A   1      45.557  29.325  27.326  1.00  0.00     0.074 A 
ATOM     43  C   UNL A   1      40.969  32.158  30.646  1.00  0.00     0.029 A 
ATOM     44  N   UNL A   1      42.184  30.723  29.458  1.00  0.00    -0.354 N 
ATOM     45  N   UNL A   1      44.580  29.813  28.050  1.00  0.00    -0.248 NA
ATOM     46  C   UNL A   1      46.686  30.249  27.141  1.00  0.00     0.031 C 
ATOM     47  C   UNL A   1      42.207  32.746  30.375  1.00  0.00     0.029 A 
ATOM     48  C   UNL A   1      42.968  31.848  29.646  1.00  0.00     0.049 A 
ATOM     49  H   UNL A   1      42.461  29.917  28.965  1.00  0.00     0.167 HD
ATOM     50  C   UNL A   1      44.982  31.092  28.420  1.00  0.00     0.074 A 
ATOM     51  C   UNL A   1      46.303  31.295  27.862  1.00  0.00     0.031 C 
ATOM     52  C   UNL A   1      44.305  32.019  29.139  1.00  0.00     0.034 A 
BRANCH  39  53
ATOM     53  C   UNL A   1      38.628  30.296  30.814  1.00  0.00     0.023 A 
ATOM     54  C   UNL A   1      38.494  29.986  32.182  1.00  0.00     0.012 A 
ATOM     55  C   UNL A   1      37.620  31.041  30.170  1.00  0.00     0.148 A 
ATOM     56  C   UNL A   1      37.368  30.396  32.895  1.00  0.00     0.002 A 
ATOM     57  C   UNL A   1      36.520  31.483  30.898  1.00  0.00     0.091 A 
ATOM     58  F   UNL A   1      37.758  31.311  28.865  1.00  0.00    -0.205 F 
ATOM     59  C   UNL A   1      36.389  31.154  32.257  1.00  0.00     0.022 A 
BRANCH  57  60
ATOM     60  S   UNL A   1      35.247  32.535  30.188  1.00  0.00     0.127 S 
ATOM     61  O   UNL A   1      34.745  31.696  29.100  1.00  0.00    -0.237 OA
ATOM     62  O   UNL A   1      34.321  32.697  31.310  1.00  0.00    -0.237 OA
ATOM     63  O   UNL A   1      35.920  33.757  29.775  1.00  0.00    -0.744 OA
ENDBRANCH  57  60
ENDBRANCH  39  53
BRANCH  40  64
ATOM     64  C   UNL A   1      46.921  27.547  25.990  1.00  0.00     0.023 A 
ATOM     65  C   UNL A   1      47.869  26.764  26.676  1.00  0.00     0.012 A 
ATOM     66  C   UNL A   1      47.142  27.860  24.635  1.00  0.00     0.148 A 
ATOM     67  C   UNL A   1      49.016  26.306  26.027  1.00  0.00     0.002 A 
ATOM     68  C   UNL A   1      48.253  27.347  23.977  1.00  0.00     0.091 A 
ATOM     69  F   UNL A   1      46.243  28.631  24.007  1.00  0.00    -0.205 F 
ATOM     70  C   UNL A   1      49.200  26.582  24.673  1.00  0.00     0.022 A 
BRANCH  68  71
ATOM     71  S   UNL A   1      48.481  27.521  22.203  1.00  0.00     0.127 S 
ATOM     72  O   UNL A   1      49.675  28.358  22.135  1.00  0.00    -0.237 OA
ATOM     73  O   UNL A   1      48.675  26.133  21.785  1.00  0.00    -0.237 OA
ATOM     74  O   UNL A   1      47.251  28.127  21.710  1.00  0.00    -0.744 OA
ENDBRANCH  68  71
ENDBRANCH  40  64
BRANCH  52  75
ATOM     75  C   UNL A   1      44.967  33.346  29.399  1.00  0.00     0.023 A 
ATOM     76  C   UNL A   1      45.801  33.494  30.523  1.00  0.00     0.012 A 
ATOM     77  C   UNL A   1      44.878  34.390  28.457  1.00  0.00     0.148 A 
ATOM     78  C   UNL A   1      46.534  34.666  30.711  1.00  0.00     0.002 A 
ATOM     79  C   UNL A   1      45.644  35.537  28.627  1.00  0.00     0.091 A 
ATOM     80  F   UNL A   1      44.067  34.229  27.401  1.00  0.00    -0.205 F 
ATOM     81  C   UNL A   1      46.467  35.679  29.756  1.00  0.00     0.022 A 
BRANCH  79  82
ATOM     82  S   UNL A   1      45.701  36.854  27.406  1.00  0.00     0.127 S 
ATOM     83  O   UNL A   1      46.171  36.141  26.220  1.00  0.00    -0.237 OA
ATOM     84  O   UNL A   1      44.304  37.283  27.349  1.00  0.00    -0.237 OA
ATOM     85  O   UNL A   1      46.622  37.854  27.933  1.00  0.00    -0.744 OA
ENDBRANCH  79  82
ENDBRANCH  52  75
ENDBRANCH  26  27
ENDBRANCH  19  21
ENDBRANCH  18  19
ENDBRANCH   1  18
TORSDOF 15
ENDMDL
MODEL 2
REMARK VINA RESULT:     -11.3      1.044      7.927
REMARK SMILES NC(=O)c1ccc(C(=O)OCCOC(=O)c2ccc(-c3c4nc(c(-c5cccc(S(=O)(=O)[O-])c5F)c5ccc([nH]5)c(-c5cccc(S(=O)(=O)[O-])c5F)c5nc(c(-c6cccc(S(=O)(=O)[O-])c6F)c6ccc3[nH]6)C=C5)C=C4)cc2)c(F)c1
REMARK SMILES IDX 12 1 11 2 10 3 8 4 9 5 7 6 4 7 5 8 81 9 6 10 79 11 80 12
REMARK SMILES IDX 2 13 1 14 3 17 13 18 14 19 15 20 16 21 17 22 78 23 18 24
REMARK SMILES IDX 77 25 19 26 20 27 21 28 71 29 22 30 76 31 70 32 72 33 23 34
REMARK SMILES IDX 75 35 69 36 68 37 24 39 56 40 36 41 55 42 37 43 40 44 54 45
REMARK SMILES IDX 73 46 38 47 39 48 53 50 74 51 41 52 25 53 26 54 34 55 27 56
REMARK SMILES IDX 29 57 35 58 28 59 30 60 31 61 32 62 33 63 57 64 58 65 66 66
REMARK SMILES IDX 59 67 61 68 67 69 60 70 62 71 63 72 64 73 65 74 42 75 43 76
REMARK SMILES IDX 51 77 44 78 46 79 52 80 45 81 47 82 48 83 49 84 50 85
REMARK H PARENT 1 15 1 16 72 38 40 49
REMARK Flexibility Score: inf
ROOT
ATOM      1  C   UNL A   1      37.649  20.453  24.834  1.00  0.00     0.275 C 
ENDROOT
BRANCH   1   2
ATOM      2  C   UNL A   1      36.132  20.527  25.002  1.00  0.00     0.275 C 
BRANCH   2   3
ATOM      3  O   UNL A   1      35.781  21.394  26.099  1.00  0.00    -0.458 OA
BRANCH   3   4
ATOM      4  C   UNL A   1      34.472  21.715  26.218  1.00  0.00     0.341 C 
ATOM      5  O   UNL A   1      33.722  21.390  27.126  1.00  0.00    -0.246 OA
BRANCH   4   6
ATOM      6  C   UNL A   1      34.057  22.656  25.157  1.00  0.00     0.095 A 
ATOM      7  C   UNL A   1      33.407  24.497  23.149  1.00  0.00     0.042 A 
ATOM      8  C   UNL A   1      34.096  24.927  24.288  1.00  0.00     0.015 A 
ATOM      9  C   UNL A   1      33.000  23.162  23.039  1.00  0.00     0.054 A 
ATOM     10  C   UNL A   1      34.393  24.012  25.300  1.00  0.00     0.019 A 
ATOM     11  C   UNL A   1      33.339  22.248  24.035  1.00  0.00     0.138 A 
ATOM     12  F   UNL A   1      32.927  20.979  23.899  1.00  0.00    -0.206 F 
BRANCH   7  13
ATOM     13  C   UNL A   1      33.059  25.438  22.059  1.00  0.00     0.248 C 
ATOM     14  N   UNL A   1      31.776  25.391  21.595  1.00  0.00    -0.366 N 
ATOM     15  H   UNL A   1      31.493  25.995  20.870  1.00  0.00     0.159 HD
ATOM     16  H   UNL A   1      31.134  24.754  21.984  1.00  0.00     0.159 HD
ATOM     17  O   UNL A   1      33.876  26.237  21.627  1.00  0.00    -0.270 OA
ENDBRANCH   7  13
ENDBRANCH   4   6
ENDBRANCH   3   4
ENDBRANCH   2   3
ENDBRANCH   1   2
BRANCH   1  18
ATOM     18  O   UNL A   1      38.260  21.626  25.402  1.00  0.00    -0.458 OA
BRANCH  18  19
ATOM     19  C   UNL A   1      39.355  21.403  26.165  1.00  0.00     0.338 C 
ATOM     20  O   UNL A   1      40.003  20.375  26.260  1.00  0.00    -0.246 OA
BRANCH  19  21
ATOM     21  C   UNL A   1      39.752  22.654  26.825  1.00  0.00     0.060 A 
ATOM     22  C   UNL A   1      39.057  23.812  26.488  1.00  0.00     0.016 A 
ATOM     23  C   UNL A   1      40.884  22.723  27.633  1.00  0.00     0.016 A 
ATOM     24  C   UNL A   1      39.529  25.057  26.891  1.00  0.00     0.010 A 
ATOM     25  C   UNL A   1      41.318  23.972  28.099  1.00  0.00     0.010 A 
ATOM     26  C   UNL A   1      40.675  25.157  27.697  1.00  0.00    -0.014 A 
BRANCH  26  27
ATOM     27  C   UNL A   1      41.221  26.501  28.046  1.00  0.00     0.031 A 
ATOM     28  C   UNL A   1      42.630  26.877  27.655  1.00  0.00     0.074 A 
ATOM     29  C   UNL A   1      40.449  27.411  28.678  1.00  0.00     0.049 A 
ATOM     30  N   UNL A   1      43.299  27.967  27.929  1.00  0.00    -0.248 NA
ATOM     31  C   UNL A   1      43.388  25.900  26.856  1.00  0.00     0.031 C 
ATOM     32  C   UNL A   1      39.065  27.192  29.101  1.00  0.00     0.029 A 
ATOM     33  N   UNL A   1      40.713  28.702  29.068  1.00  0.00    -0.354 N 
ATOM     34  C   UNL A   1      44.570  27.781  27.399  1.00  0.00     0.074 A 
ATOM     35  C   UNL A   1      44.581  26.474  26.780  1.00  0.00     0.031 C 
ATOM     36  C   UNL A   1      38.590  28.318  29.654  1.00  0.00     0.029 A 
ATOM     37  C   UNL A   1      39.653  29.319  29.693  1.00  0.00     0.049 A 
ATOM     38  H   UNL A   1      41.579  29.144  28.915  1.00  0.00     0.167 HD
ATOM     39  C   UNL A   1      45.628  28.626  27.406  1.00  0.00     0.034 A 
ATOM     40  C   UNL A   1      39.547  30.540  30.255  1.00  0.00     0.034 A 
ATOM     41  C   UNL A   1      45.598  29.958  27.948  1.00  0.00     0.049 A 
ATOM     42  C   UNL A   1      40.734  31.464  30.245  1.00  0.00     0.074 A 
ATOM     43  C   UNL A   1      46.613  30.899  27.960  1.00  0.00     0.029 A 
ATOM     44  N   UNL A   1      44.499  30.545  28.554  1.00  0.00    -0.354 N 
ATOM     45  N   UNL A   1      41.910  31.284  29.695  1.00  0.00    -0.248 NA
ATOM     46  C   UNL A   1      40.582  32.761  30.923  1.00  0.00     0.031 C 
ATOM     47  C   UNL A   1      46.131  32.052  28.584  1.00  0.00     0.029 A 
ATOM     48  C   UNL A   1      44.811  31.836  28.944  1.00  0.00     0.049 A 
ATOM     49  H   UNL A   1      43.627  30.109  28.688  1.00  0.00     0.167 HD
ATOM     50  C   UNL A   1      42.631  32.447  29.944  1.00  0.00     0.074 A 
ATOM     51  C   UNL A   1      41.751  33.337  30.673  1.00  0.00     0.031 C 
ATOM     52  C   UNL A   1      43.911  32.738  29.615  1.00  0.00     0.034 A 
BRANCH  39  53
ATOM     53  C   UNL A   1      46.914  28.164  26.772  1.00  0.00     0.023 A 
ATOM     54  C   UNL A   1      47.944  27.649  27.584  1.00  0.00     0.012 A 
ATOM     55  C   UNL A   1      47.057  28.141  25.371  1.00  0.00     0.148 A 
ATOM     56  C   UNL A   1      49.106  27.134  27.010  1.00  0.00     0.002 A 
ATOM     57  C   UNL A   1      48.201  27.588  24.805  1.00  0.00     0.091 A 
ATOM     58  F   UNL A   1      46.073  28.652  24.618  1.00  0.00    -0.205 F 
ATOM     59  C   UNL A   1      49.229  27.092  25.624  1.00  0.00     0.022 A 
BRANCH  57  60
ATOM     60  S   UNL A   1      48.417  27.411  23.030  1.00  0.00     0.127 S 
ATOM     61  O   UNL A   1      49.769  27.938  22.844  1.00  0.00    -0.237 OA
ATOM     62  O   UNL A   1      48.296  25.964  22.848  1.00  0.00    -0.237 OA
ATOM     63  O   UNL A   1      47.352  28.192  22.416  1.00  0.00    -0.744 OA
ENDBRANCH  57  60
ENDBRANCH  39  53
BRANCH  40  64
ATOM     64  C   UNL A   1      38.244  30.970  30.844  1.00  0.00     0.023 A 
ATOM     65  C   UNL A   1      38.011  30.778  32.219  1.00  0.00     0.012 A 
ATOM     66  C   UNL A   1      37.269  31.626  30.069  1.00  0.00     0.148 A 
ATOM     67  C   UNL A   1      36.828  31.226  32.809  1.00  0.00     0.002 A 
ATOM     68  C   UNL A   1      36.123  32.127  30.674  1.00  0.00     0.091 A 
ATOM     69  F   UNL A   1      37.496  31.773  28.756  1.00  0.00    -0.205 F 
ATOM     70  C   UNL A   1      35.893  31.916  32.041  1.00  0.00     0.022 A 
BRANCH  68  71
ATOM     71  S   UNL A   1      34.948  33.161  29.793  1.00  0.00     0.127 S 
ATOM     72  O   UNL A   1      35.824  34.157  29.182  1.00  0.00    -0.237 OA
ATOM     73  O   UNL A   1      34.348  32.209  28.858  1.00  0.00    -0.237 OA
ATOM     74  O   UNL A   1      34.029  33.660  30.808  1.00  0.00    -0.744 OA
ENDBRANCH  68  71
ENDBRANCH  40  64
BRANCH  52  75
ATOM     75  C   UNL A   1      44.464  34.081  30.011  1.00  0.00     0.023 A 
ATOM     76  C   UNL A   1      45.215  34.198  31.196  1.00  0.00     0.012 A 
ATOM     77  C   UNL A   1      44.364  35.184  29.140  1.00  0.00     0.148 A 
ATOM     78  C   UNL A   1      45.854  35.396  31.514  1.00  0.00     0.002 A 
ATOM     79  C   UNL A   1      45.039  36.362  29.442  1.00  0.00     0.091 A 
ATOM     80  F   UNL A   1      43.634  35.052  28.024  1.00  0.00    -0.205 F 
ATOM     81  C   UNL A   1      45.778  36.471  30.631  1.00  0.00     0.022 A 
BRANCH  79  82
ATOM     82  S   UNL A   1      45.084  37.767  28.322  1.00  0.00     0.127 S 
ATOM     83  O   UNL A   1      43.678  38.165  28.288  1.00  0.00    -0.237 OA
ATOM     84  O   UNL A   1      45.966  38.696  29.027  1.00  0.00    -0.237 OA
ATOM     85  O   UNL A   1      45.616  37.262  27.062  1.00  0.00    -0.744 OA
ENDBRANCH  79  82
ENDBRANCH  52  75
ENDBRANCH  26  27
ENDBRANCH  19  21
ENDBRANCH  18  19
ENDBRANCH   1  18
TORSDOF 15
ENDMDL
MODEL 3
REMARK VINA RESULT:     -11.2      5.568      8.147
REMARK SMILES NC(=O)c1ccc(C(=O)OCCOC(=O)c2ccc(-c3c4nc(c(-c5cccc(S(=O)(=O)[O-])c5F)c5ccc([nH]5)c(-c5cccc(S(=O)(=O)[O-])c5F)c5nc(c(-c6cccc(S(=O)(=O)[O-])c6F)c6ccc3[nH]6)C=C5)C=C4)cc2)c(F)c1
REMARK SMILES IDX 12 1 11 2 10 3 8 4 9 5 7 6 4 7 5 8 81 9 6 10 79 11 80 12
REMARK SMILES IDX 2 13 1 14 3 17 13 18 14 19 15 20 16 21 17 22 78 23 18 24
REMARK SMILES IDX 77 25 19 26 20 27 21 28 71 29 22 30 76 31 70 32 72 33 23 34
REMARK SMILES IDX 75 35 69 36 68 37 24 39 56 40 36 41 55 42 37 43 40 44 54 45
REMARK SMILES IDX 73 46 38 47 39 48 53 50 74 51 41 52 25 53 26 54 34 55 27 56
REMARK SMILES IDX 29 57 35 58 28 59 30 60 31 61 32 62 33 63 57 64 58 65 66 66
REMARK SMILES IDX 59 67 61 68 67 69 60 70 62 71 63 72 64 73 65 74 42 75 43 76
REMARK SMILES IDX 51 77 44 78 46 79 52 80 45 81 47 82 48 83 49 84 50 85
REMARK H PARENT 1 15 1 16 72 38 40 49
REMARK Flexibility Score: inf
ROOT
ATOM      1  C   UNL A   1      31.201  31.510  26.168  1.00  0.00     0.275 C 
ENDROOT
BRANCH   1   2
ATOM      2  C   UNL A   1      31.054  30.499  25.032  1.00  0.00     0.275 C 
BRANCH   2   3
ATOM      3  O   UNL A   1      31.881  29.341  25.268  1.00  0.00    -0.458 OA
BRANCH   3   4
ATOM      4  C   UNL A   1      31.784  28.338  24.364  1.00  0.00     0.341 C 
ATOM      5  O   UNL A   1      32.058  28.401  23.175  1.00  0.00    -0.246 OA
BRANCH   4   6
ATOM      6  C   UNL A   1      31.424  27.064  25.020  1.00  0.00     0.095 A 
ATOM      7  C   UNL A   1      30.702  24.598  26.132  1.00  0.00     0.042 A 
ATOM      8  C   UNL A   1      29.846  25.224  25.220  1.00  0.00     0.015 A 
ATOM      9  C   UNL A   1      31.890  25.226  26.525  1.00  0.00     0.054 A 
ATOM     10  C   UNL A   1      30.196  26.468  24.690  1.00  0.00     0.019 A 
ATOM     11  C   UNL A   1      32.250  26.447  25.956  1.00  0.00     0.138 A 
ATOM     12  F   UNL A   1      33.392  27.023  26.361  1.00  0.00    -0.206 F 
BRANCH   7  13
ATOM     13  C   UNL A   1      30.363  23.285  26.729  1.00  0.00     0.248 C 
ATOM     14  N   UNL A   1      31.045  22.201  26.258  1.00  0.00    -0.366 N 
ATOM     15  H   UNL A   1      30.857  21.305  26.621  1.00  0.00     0.159 HD
ATOM     16  H   UNL A   1      31.725  22.314  25.555  1.00  0.00     0.159 HD
ATOM     17  O   UNL A   1      29.536  23.192  27.625  1.00  0.00    -0.270 OA
ENDBRANCH   7  13
ENDBRANCH   4   6
ENDBRANCH   3   4
ENDBRANCH   2   3
ENDBRANCH   1   2
BRANCH   1  18
ATOM     18  O   UNL A   1      32.368  31.197  26.952  1.00  0.00    -0.458 OA
BRANCH  18  19
ATOM     19  C   UNL A   1      33.135  32.253  27.306  1.00  0.00     0.338 C 
ATOM     20  O   UNL A   1      32.808  33.425  27.371  1.00  0.00    -0.246 OA
BRANCH  19  21
ATOM     21  C   UNL A   1      34.458  31.774  27.728  1.00  0.00     0.060 A 
ATOM     22  C   UNL A   1      34.602  30.414  27.984  1.00  0.00     0.016 A 
ATOM     23  C   UNL A   1      35.492  32.659  28.021  1.00  0.00     0.016 A 
ATOM     24  C   UNL A   1      35.750  29.934  28.607  1.00  0.00     0.010 A 
ATOM     25  C   UNL A   1      36.678  32.165  28.584  1.00  0.00     0.010 A 
ATOM     26  C   UNL A   1      36.804  30.805  28.926  1.00  0.00    -0.014 A 
BRANCH  26  27
ATOM     27  C   UNL A   1      37.989  30.294  29.674  1.00  0.00     0.031 A 
ATOM     28  C   UNL A   1      38.219  30.702  31.110  1.00  0.00     0.074 A 
ATOM     29  C   UNL A   1      38.846  29.429  29.091  1.00  0.00     0.049 A 
ATOM     30  N   UNL A   1      39.222  30.416  31.898  1.00  0.00    -0.248 NA
ATOM     31  C   UNL A   1      37.189  31.544  31.742  1.00  0.00     0.031 C 
ATOM     32  C   UNL A   1      38.739  28.935  27.718  1.00  0.00     0.029 A 
ATOM     33  N   UNL A   1      39.969  28.805  29.580  1.00  0.00    -0.354 N 
ATOM     34  C   UNL A   1      38.982  31.093  33.088  1.00  0.00     0.074 A 
ATOM     35  C   UNL A   1      37.733  31.803  32.923  1.00  0.00     0.031 C 
ATOM     36  C   UNL A   1      39.728  28.058  27.486  1.00  0.00     0.029 A 
ATOM     37  C   UNL A   1      40.584  27.978  28.668  1.00  0.00     0.049 A 
ATOM     38  H   UNL A   1      40.303  28.937  30.496  1.00  0.00     0.167 HD
ATOM     39  C   UNL A   1      39.721  31.109  34.222  1.00  0.00     0.034 A 
ATOM     40  C   UNL A   1      41.718  27.253  28.754  1.00  0.00     0.034 A 
ATOM     41  C   UNL A   1      40.920  30.341  34.420  1.00  0.00     0.049 A 
ATOM     42  C   UNL A   1      42.518  27.282  30.028  1.00  0.00     0.074 A 
ATOM     43  C   UNL A   1      41.710  30.266  35.555  1.00  0.00     0.029 A 
ATOM     44  N   UNL A   1      41.495  29.507  33.476  1.00  0.00    -0.354 N 
ATOM     45  N   UNL A   1      42.244  27.892  31.156  1.00  0.00    -0.248 NA
ATOM     46  C   UNL A   1      43.775  26.520  30.049  1.00  0.00     0.031 C 
ATOM     47  C   UNL A   1      42.769  29.393  35.292  1.00  0.00     0.029 A 
ATOM     48  C   UNL A   1      42.628  28.911  34.002  1.00  0.00     0.049 A 
ATOM     49  H   UNL A   1      41.148  29.359  32.566  1.00  0.00     0.167 HD
ATOM     50  C   UNL A   1      43.283  27.574  32.024  1.00  0.00     0.074 A 
ATOM     51  C   UNL A   1      44.180  26.697  31.301  1.00  0.00     0.031 C 
ATOM     52  C   UNL A   1      43.482  27.991  33.296  1.00  0.00     0.034 A 
BRANCH  39  53
ATOM     53  C   UNL A   1      39.240  31.954  35.373  1.00  0.00     0.023 A 
ATOM     54  C   UNL A   1      38.392  31.388  36.345  1.00  0.00     0.012 A 
ATOM     55  C   UNL A   1      39.715  33.269  35.548  1.00  0.00     0.148 A 
ATOM     56  C   UNL A   1      38.007  32.124  37.465  1.00  0.00     0.002 A 
ATOM     57  C   UNL A   1      39.360  33.982  36.688  1.00  0.00     0.091 A 
ATOM     58  F   UNL A   1      40.507  33.795  34.604  1.00  0.00    -0.205 F 
ATOM     59  C   UNL A   1      38.501  33.415  37.643  1.00  0.00     0.022 A 
BRANCH  57  60
ATOM     60  S   UNL A   1      40.011  35.618  37.049  1.00  0.00     0.127 S 
ATOM     61  O   UNL A   1      39.318  35.942  38.296  1.00  0.00    -0.237 OA
ATOM     62  O   UNL A   1      41.442  35.354  37.198  1.00  0.00    -0.237 OA
ATOM     63  O   UNL A   1      39.662  36.451  35.907  1.00  0.00    -0.744 OA
ENDBRANCH  57  60
ENDBRANCH  39  53
BRANCH  40  64
ATOM     64  C   UNL A   1      42.141  26.405  27.601  1.00  0.00     0.023 A 
ATOM     65  C   UNL A   1      43.020  26.936  26.639  1.00  0.00     0.012 A 
ATOM     66  C   UNL A   1      41.734  25.061  27.490  1.00  0.00     0.148 A 
ATOM     67  C   UNL A   1      43.482  26.147  25.584  1.00  0.00     0.002 A 
ATOM     68  C   UNL A   1      42.247  24.263  26.476  1.00  0.00     0.091 A 
ATOM     69  F   UNL A   1      40.873  24.582  28.399  1.00  0.00    -0.205 F 
ATOM     70  C   UNL A   1      43.110  24.806  25.513  1.00  0.00     0.022 A 
BRANCH  68  71
ATOM     71  S   UNL A   1      41.946  22.493  26.404  1.00  0.00     0.127 S 
ATOM     72  O   UNL A   1      42.643  22.119  25.178  1.00  0.00    -0.237 OA
ATOM     73  O   UNL A   1      42.575  22.028  27.640  1.00  0.00    -0.237 OA
ATOM     74  O   UNL A   1      40.496  22.346  26.381  1.00  0.00    -0.744 OA
ENDBRANCH  68  71
ENDBRANCH  40  64
BRANCH  52  75
ATOM     75  C   UNL A   1      44.705  27.502  34.026  1.00  0.00     0.023 A 
ATOM     76  C   UNL A   1      45.876  28.284  34.017  1.00  0.00     0.012 A 
ATOM     77  C   UNL A   1      44.646  26.350  34.835  1.00  0.00     0.148 A 
ATOM     78  C   UNL A   1      46.973  27.923  34.797  1.00  0.00     0.002 A 
ATOM     79  C   UNL A   1      45.727  26.020  35.643  1.00  0.00     0.091 A 
ATOM     80  F   UNL A   1      43.524  25.615  34.817  1.00  0.00    -0.205 F 
ATOM     81  C   UNL A   1      46.894  26.801  35.620  1.00  0.00     0.022 A 
BRANCH  79  82
ATOM     82  S   UNL A   1      45.685  24.653  36.808  1.00  0.00     0.127 S 
ATOM     83  O   UNL A   1      47.080  24.584  37.238  1.00  0.00    -0.237 OA
ATOM     84  O   UNL A   1      44.756  25.143  37.826  1.00  0.00    -0.237 OA
ATOM     85  O   UNL A   1      45.209  23.497  36.058  1.00  0.00    -0.744 OA
ENDBRANCH  79  82
ENDBRANCH  52  75
ENDBRANCH  26  27
ENDBRANCH  19  21
ENDBRANCH  18  19
ENDBRANCH   1  18
TORSDOF 15
ENDMDL
