MODEL 1
REMARK VINA RESULT:     -10.8      0.000      0.000
REMARK SMILES Cc1cc(C(=O)N[C@@H]2C(=O)N3C(C(=O)OCCOC(=O)c4ccc(-c5c6nc(c(-c7cccc(S(=O)(=O)[O-])c7F)c7ccc([nH]7)c(-c7cccc(S(=O)(=O)[O-])c7F)c7nc(c(-c8cccc(S(=O)(=O)[O-])c8F)c8ccc5[nH]8)C=C7)C=C6)cc4)=C(CSc4nnc(C)s4)CS[C@H]23)n(C)n1
REMARK SMILES IDX 16 1 15 2 13 3 14 4 12 5 8 6 9 7 95 8 10 9 11 10 94 11 93 12
REMARK SMILES IDX 84 13 7 14 5 15 6 16 4 18 1 19 2 20 3 21 98 22 96 23 97 24
REMARK SMILES IDX 85 25 86 26 87 27 88 28 92 29 89 30 90 31 91 32 17 33 18 34
REMARK SMILES IDX 19 35 20 36 21 37 22 38 83 39 23 40 82 41 24 42 25 43 26 44
REMARK SMILES IDX 76 45 27 46 81 47 75 48 77 49 28 50 80 51 74 52 73 53 29 55
REMARK SMILES IDX 61 56 41 57 60 58 42 59 45 60 59 61 78 62 43 63 44 64 58 66
REMARK SMILES IDX 79 67 46 68 30 69 31 70 39 71 32 72 34 73 40 74 33 75 35 76
REMARK SMILES IDX 36 77 37 78 38 79 62 80 63 81 71 82 64 83 66 84 72 85 65 86
REMARK SMILES IDX 67 87 68 88 69 89 70 90 47 91 48 92 56 93 49 94 51 95 57 96
REMARK SMILES IDX 50 97 52 98 53 99 54 100 55 101
REMARK H PARENT 7 17 77 54 45 65
REMARK Flexibility Score: inf
ROOT
ATOM      1  C   UNL A   1      46.061  22.633  37.696  1.00  0.00     0.275 C 
ENDROOT
BRANCH   1   2
ATOM      2  O   UNL A   1      46.041  21.458  38.534  1.00  0.00    -0.457 OA
BRANCH   2   3
ATOM      3  C   UNL A   1      46.296  20.287  37.915  1.00  0.00     0.355 C 
ATOM      4  O   UNL A   1      45.999  20.005  36.760  1.00  0.00    -0.244 OA
BRANCH   3   5
ATOM      5  C   UNL A   1      46.951  19.278  38.806  1.00  0.00     0.132 C 
ATOM      6  C   UNL A   1      45.119  17.821  41.280  1.00  0.00     0.206 C 
ATOM      7  C   UNL A   1      45.187  17.774  39.712  1.00  0.00     0.253 C 
ATOM      8  C   UNL A   1      46.550  18.442  41.106  1.00  0.00     0.181 C 
ATOM      9  O   UNL A   1      44.721  17.123  38.808  1.00  0.00    -0.272 OA
ATOM     10  N   UNL A   1      46.124  18.758  39.757  1.00  0.00    -0.289 N 
ATOM     11  S   UNL A   1      47.949  17.287  40.988  1.00  0.00    -0.129 SA
ATOM     12  C   UNL A   1      48.988  18.424  40.042  1.00  0.00     0.106 C 
ATOM     13  C   UNL A   1      48.297  19.177  38.915  1.00  0.00    -0.019 C 
BRANCH   6  14
ATOM     14  N   UNL A   1      44.916  16.550  42.003  1.00  0.00    -0.336 N 
ATOM     15  C   UNL A   1      44.895  16.310  43.359  1.00  0.00     0.270 C 
ATOM     16  O   UNL A   1      44.643  15.166  43.727  1.00  0.00    -0.268 OA
ATOM     17  H   UNL A   1      44.774  15.760  41.433  1.00  0.00     0.164 HD
BRANCH  15  18
ATOM     18  C   UNL A   1      45.254  17.376  44.265  1.00  0.00     0.126 A 
ATOM     19  C   UNL A   1      45.137  20.732  45.710  1.00  0.00     0.069 C 
ATOM     20  C   UNL A   1      45.413  19.335  45.301  1.00  0.00     0.060 A 
ATOM     21  C   UNL A   1      44.490  18.352  44.884  1.00  0.00     0.059 A 
ATOM     22  N   UNL A   1      46.666  18.886  45.217  1.00  0.00    -0.178 NA
ATOM     23  N   UNL A   1      46.534  17.644  44.695  1.00  0.00    -0.263 N 
ATOM     24  C   UNL A   1      47.725  16.834  44.587  1.00  0.00     0.174 C 
ENDBRANCH  15  18
ENDBRANCH   6  14
BRANCH  13  25
ATOM     25  C   UNL A   1      49.281  19.916  38.035  1.00  0.00     0.111 C 
BRANCH  25  26
ATOM     26  S   UNL A   1      50.840  19.085  37.654  1.00  0.00    -0.089 SA
BRANCH  26  27
ATOM     27  C   UNL A   1      51.248  19.616  36.046  1.00  0.00     0.174 A 
ATOM     28  N   UNL A   1      50.366  19.685  35.075  1.00  0.00    -0.132 NA
ATOM     29  S   UNL A   1      52.853  19.983  35.575  1.00  0.00    -0.091 S 
ATOM     30  N   UNL A   1      50.945  20.062  33.877  1.00  0.00    -0.143 NA
ATOM     31  C   UNL A   1      52.247  20.235  33.988  1.00  0.00     0.115 A 
ATOM     32  C   UNL A   1      53.154  20.576  32.862  1.00  0.00     0.081 C 
ENDBRANCH  26  27
ENDBRANCH  25  26
ENDBRANCH  13  25
ENDBRANCH   3   5
ENDBRANCH   2   3
ENDBRANCH   1   2
BRANCH   1  33
ATOM     33  C   UNL A   1      46.995  23.683  38.281  1.00  0.00     0.275 C 
BRANCH  33  34
ATOM     34  O   UNL A   1      46.532  24.985  37.891  1.00  0.00    -0.458 OA
BRANCH  34  35
ATOM     35  C   UNL A   1      46.963  25.413  36.681  1.00  0.00     0.338 C 
ATOM     36  O   UNL A   1      48.034  25.164  36.153  1.00  0.00    -0.246 OA
BRANCH  35  37
ATOM     37  C   UNL A   1      45.924  26.258  36.069  1.00  0.00     0.060 A 
ATOM     38  C   UNL A   1      44.580  25.899  36.172  1.00  0.00     0.016 A 
ATOM     39  C   UNL A   1      46.302  27.333  35.270  1.00  0.00     0.016 A 
ATOM     40  C   UNL A   1      43.636  26.518  35.355  1.00  0.00     0.010 A 
ATOM     41  C   UNL A   1      45.328  28.040  34.558  1.00  0.00     0.010 A 
ATOM     42  C   UNL A   1      43.989  27.609  34.545  1.00  0.00    -0.014 A 
BRANCH  42  43
ATOM     43  C   UNL A   1      42.978  28.280  33.672  1.00  0.00     0.031 A 
ATOM     44  C   UNL A   1      42.032  29.311  34.243  1.00  0.00     0.074 A 
ATOM     45  C   UNL A   1      42.880  27.952  32.367  1.00  0.00     0.049 A 
ATOM     46  N   UNL A   1      40.954  29.826  33.710  1.00  0.00    -0.248 NA
ATOM     47  C   UNL A   1      42.321  29.808  35.599  1.00  0.00     0.031 C 
ATOM     48  C   UNL A   1      43.726  26.981  31.670  1.00  0.00     0.029 A 
ATOM     49  N   UNL A   1      42.016  28.391  31.392  1.00  0.00    -0.354 N 
ATOM     50  C   UNL A   1      40.382  30.626  34.694  1.00  0.00     0.074 A 
ATOM     51  C   UNL A   1      41.247  30.545  35.852  1.00  0.00     0.031 C 
ATOM     52  C   UNL A   1      43.366  26.922  30.381  1.00  0.00     0.029 A 
ATOM     53  C   UNL A   1      42.196  27.767  30.179  1.00  0.00     0.049 A 
ATOM     54  H   UNL A   1      41.334  29.084  31.547  1.00  0.00     0.167 HD
ATOM     55  C   UNL A   1      39.246  31.362  34.639  1.00  0.00     0.034 A 
ATOM     56  C   UNL A   1      41.475  27.814  29.041  1.00  0.00     0.034 A 
ATOM     57  C   UNL A   1      38.443  31.522  33.452  1.00  0.00     0.049 A 
ATOM     58  C   UNL A   1      40.243  28.668  28.992  1.00  0.00     0.074 A 
ATOM     59  C   UNL A   1      37.309  32.297  33.280  1.00  0.00     0.029 A 
ATOM     60  N   UNL A   1      38.699  30.916  32.233  1.00  0.00    -0.354 N 
ATOM     61  N   UNL A   1      39.735  29.436  29.924  1.00  0.00    -0.248 NA
ATOM     62  C   UNL A   1      39.486  28.667  27.732  1.00  0.00     0.031 C 
ATOM     63  C   UNL A   1      36.873  32.151  31.958  1.00  0.00     0.029 A 
ATOM     64  C   UNL A   1      37.746  31.298  31.303  1.00  0.00     0.049 A 
ATOM     65  H   UNL A   1      39.449  30.303  32.054  1.00  0.00     0.167 HD
ATOM     66  C   UNL A   1      38.606  30.020  29.362  1.00  0.00     0.074 A 
ATOM     67  C   UNL A   1      38.525  29.543  27.997  1.00  0.00     0.031 C 
ATOM     68  C   UNL A   1      37.704  30.854  29.934  1.00  0.00     0.034 A 
BRANCH  55  69
ATOM     69  C   UNL A   1      38.801  32.077  35.890  1.00  0.00     0.023 A 
ATOM     70  C   UNL A   1      38.984  33.469  36.010  1.00  0.00     0.012 A 
ATOM     71  C   UNL A   1      38.133  31.379  36.917  1.00  0.00     0.148 A 
ATOM     72  C   UNL A   1      38.538  34.149  37.144  1.00  0.00     0.002 A 
ATOM     73  C   UNL A   1      37.653  32.070  38.025  1.00  0.00     0.091 A 
ATOM     74  F   UNL A   1      37.986  30.052  36.797  1.00  0.00    -0.205 F 
ATOM     75  C   UNL A   1      37.864  33.452  38.145  1.00  0.00     0.022 A 
BRANCH  73  76
ATOM     76  S   UNL A   1      36.700  31.269  39.321  1.00  0.00     0.127 S 
ATOM     77  O   UNL A   1      37.729  31.003  40.325  1.00  0.00    -0.237 OA
ATOM     78  O   UNL A   1      35.743  32.313  39.694  1.00  0.00    -0.237 OA
ATOM     79  O   UNL A   1      36.101  30.093  38.708  1.00  0.00    -0.744 OA
ENDBRANCH  73  76
ENDBRANCH  55  69
BRANCH  56  80
ATOM     80  C   UNL A   1      41.918  27.020  27.859  1.00  0.00     0.023 A 
ATOM     81  C   UNL A   1      42.744  27.623  26.892  1.00  0.00     0.012 A 
ATOM     82  C   UNL A   1      41.591  25.656  27.730  1.00  0.00     0.148 A 
ATOM     83  C   UNL A   1      43.230  26.883  25.813  1.00  0.00     0.002 A 
ATOM     84  C   UNL A   1      42.137  24.908  26.693  1.00  0.00     0.091 A 
ATOM     85  F   UNL A   1      40.780  25.105  28.645  1.00  0.00    -0.205 F 
ATOM     86  C   UNL A   1      42.941  25.523  25.723  1.00  0.00     0.022 A 
BRANCH  84  87
ATOM     87  S   UNL A   1      41.960  23.122  26.613  1.00  0.00     0.127 S 
ATOM     88  O   UNL A   1      42.760  22.690  27.755  1.00  0.00    -0.237 OA
ATOM     89  O   UNL A   1      40.515  22.951  26.770  1.00  0.00    -0.237 OA
ATOM     90  O   UNL A   1      42.463  22.741  25.300  1.00  0.00    -0.744 OA
ENDBRANCH  84  87
ENDBRANCH  56  80
BRANCH  68  91
ATOM     91  C   UNL A   1      36.559  31.323  29.078  1.00  0.00     0.023 A 
ATOM     92  C   UNL A   1      36.433  32.693  28.774  1.00  0.00     0.012 A 
ATOM     93  C   UNL A   1      35.639  30.406  28.533  1.00  0.00     0.148 A 
ATOM     94  C   UNL A   1      35.392  33.148  27.966  1.00  0.00     0.002 A 
ATOM     95  C   UNL A   1      34.628  30.861  27.695  1.00  0.00     0.091 A 
ATOM     96  F   UNL A   1      35.762  29.110  28.853  1.00  0.00    -0.205 F 
ATOM     97  C   UNL A   1      34.497  32.232  27.418  1.00  0.00     0.022 A 
BRANCH  95  98
ATOM     98  S   UNL A   1      33.482  29.742  26.880  1.00  0.00     0.127 S 
ATOM     99  O   UNL A   1      34.382  28.953  26.041  1.00  0.00    -0.237 OA
ATOM    100  O   UNL A   1      32.902  29.012  28.008  1.00  0.00    -0.237 OA
ATOM    101  O   UNL A   1      32.539  30.590  26.164  1.00  0.00    -0.744 OA
ENDBRANCH  95  98
ENDBRANCH  68  91
ENDBRANCH  42  43
ENDBRANCH  35  37
ENDBRANCH  34  35
ENDBRANCH  33  34
ENDBRANCH   1  33
TORSDOF 19
ENDMDL
MODEL 2
REMARK VINA RESULT:     -10.7      1.640      2.205
REMARK SMILES Cc1cc(C(=O)N[C@@H]2C(=O)N3C(C(=O)OCCOC(=O)c4ccc(-c5c6nc(c(-c7cccc(S(=O)(=O)[O-])c7F)c7ccc([nH]7)c(-c7cccc(S(=O)(=O)[O-])c7F)c7nc(c(-c8cccc(S(=O)(=O)[O-])c8F)c8ccc5[nH]8)C=C7)C=C6)cc4)=C(CSc4nnc(C)s4)CS[C@H]23)n(C)n1
REMARK SMILES IDX 16 1 15 2 13 3 14 4 12 5 8 6 9 7 95 8 10 9 11 10 94 11 93 12
REMARK SMILES IDX 84 13 7 14 5 15 6 16 4 18 1 19 2 20 3 21 98 22 96 23 97 24
REMARK SMILES IDX 85 25 86 26 87 27 88 28 92 29 89 30 90 31 91 32 17 33 18 34
REMARK SMILES IDX 19 35 20 36 21 37 22 38 83 39 23 40 82 41 24 42 25 43 26 44
REMARK SMILES IDX 76 45 27 46 81 47 75 48 77 49 28 50 80 51 74 52 73 53 29 55
REMARK SMILES IDX 61 56 41 57 60 58 42 59 45 60 59 61 78 62 43 63 44 64 58 66
REMARK SMILES IDX 79 67 46 68 30 69 31 70 39 71 32 72 34 73 40 74 33 75 35 76
REMARK SMILES IDX 36 77 37 78 38 79 62 80 63 81 71 82 64 83 66 84 72 85 65 86
REMARK SMILES IDX 67 87 68 88 69 89 70 90 47 91 48 92 56 93 49 94 51 95 57 96
REMARK SMILES IDX 50 97 52 98 53 99 54 100 55 101
REMARK H PARENT 7 17 77 54 45 65
REMARK Flexibility Score: inf
ROOT
ATOM      1  C   UNL A   1      47.936  23.791  39.101  1.00  0.00     0.275 C 
ENDROOT
BRANCH   1   2
ATOM      2  O   UNL A   1      47.301  22.664  39.743  1.00  0.00    -0.457 OA
BRANCH   2   3
ATOM      3  C   UNL A   1      47.884  21.464  39.540  1.00  0.00     0.355 C 
ATOM      4  O   UNL A   1      49.065  21.196  39.730  1.00  0.00    -0.244 OA
BRANCH   3   5
ATOM      5  C   UNL A   1      46.947  20.441  38.976  1.00  0.00     0.132 C 
ATOM      6  C   UNL A   1      45.983  17.826  40.932  1.00  0.00     0.206 C 
ATOM      7  C   UNL A   1      45.727  19.373  40.864  1.00  0.00     0.253 C 
ATOM      8  C   UNL A   1      46.454  18.058  39.453  1.00  0.00     0.181 C 
ATOM      9  O   UNL A   1      45.006  20.192  41.381  1.00  0.00    -0.272 OA
ATOM     10  N   UNL A   1      46.627  19.443  39.847  1.00  0.00    -0.289 N 
ATOM     11  S   UNL A   1      45.181  18.006  38.157  1.00  0.00    -0.129 SA
ATOM     12  C   UNL A   1      46.093  19.077  37.022  1.00  0.00     0.106 C 
ATOM     13  C   UNL A   1      46.750  20.302  37.643  1.00  0.00    -0.019 C 
BRANCH   6  14
ATOM     14  N   UNL A   1      44.839  16.947  41.244  1.00  0.00    -0.336 N 
ATOM     15  C   UNL A   1      44.522  16.311  42.424  1.00  0.00     0.270 C 
ATOM     16  O   UNL A   1      43.471  15.675  42.459  1.00  0.00    -0.268 OA
ATOM     17  H   UNL A   1      44.212  16.794  40.501  1.00  0.00     0.164 HD
BRANCH  15  18
ATOM     18  C   UNL A   1      45.466  16.346  43.515  1.00  0.00     0.126 A 
ATOM     19  C   UNL A   1      47.622  14.978  46.131  1.00  0.00     0.069 C 
ATOM     20  C   UNL A   1      46.817  15.789  45.189  1.00  0.00     0.060 A 
ATOM     21  C   UNL A   1      46.535  15.523  43.832  1.00  0.00     0.059 A 
ATOM     22  N   UNL A   1      46.182  16.885  45.607  1.00  0.00    -0.178 NA
ATOM     23  N   UNL A   1      45.460  17.275  44.531  1.00  0.00    -0.263 N 
ATOM     24  C   UNL A   1      44.739  18.523  44.626  1.00  0.00     0.174 C 
ENDBRANCH  15  18
ENDBRANCH   6  14
BRANCH  13  25
ATOM     25  C   UNL A   1      47.283  21.256  36.597  1.00  0.00     0.111 C 
BRANCH  25  26
ATOM     26  S   UNL A   1      47.325  20.673  34.887  1.00  0.00    -0.089 SA
BRANCH  26  27
ATOM     27  C   UNL A   1      49.018  20.494  34.519  1.00  0.00     0.174 A 
ATOM     28  N   UNL A   1      49.499  20.621  33.303  1.00  0.00    -0.132 NA
ATOM     29  S   UNL A   1      50.174  20.027  35.694  1.00  0.00    -0.091 S 
ATOM     30  N   UNL A   1      50.856  20.361  33.254  1.00  0.00    -0.143 NA
ATOM     31  C   UNL A   1      51.339  20.020  34.432  1.00  0.00     0.115 A 
ATOM     32  C   UNL A   1      52.746  19.617  34.685  1.00  0.00     0.081 C 
ENDBRANCH  26  27
ENDBRANCH  25  26
ENDBRANCH  13  25
ENDBRANCH   3   5
ENDBRANCH   2   3
ENDBRANCH   1   2
BRANCH   1  33
ATOM     33  C   UNL A   1      46.947  24.939  38.950  1.00  0.00     0.275 C 
BRANCH  33  34
ATOM     34  O   UNL A   1      46.733  25.186  37.552  1.00  0.00    -0.458 OA
BRANCH  34  35
ATOM     35  C   UNL A   1      46.979  26.453  37.145  1.00  0.00     0.338 C 
ATOM     36  O   UNL A   1      47.853  27.199  37.554  1.00  0.00    -0.246 OA
BRANCH  35  37
ATOM     37  C   UNL A   1      46.004  26.824  36.107  1.00  0.00     0.060 A 
ATOM     38  C   UNL A   1      46.312  27.821  35.181  1.00  0.00     0.016 A 
ATOM     39  C   UNL A   1      44.724  26.277  36.145  1.00  0.00     0.016 A 
ATOM     40  C   UNL A   1      45.299  28.375  34.402  1.00  0.00     0.010 A 
ATOM     41  C   UNL A   1      43.747  26.744  35.262  1.00  0.00     0.010 A 
ATOM     42  C   UNL A   1      44.002  27.839  34.416  1.00  0.00    -0.014 A 
BRANCH  42  43
ATOM     43  C   UNL A   1      42.915  28.427  33.577  1.00  0.00     0.031 A 
ATOM     44  C   UNL A   1      41.945  29.426  34.162  1.00  0.00     0.074 A 
ATOM     45  C   UNL A   1      42.769  28.048  32.289  1.00  0.00     0.049 A 
ATOM     46  N   UNL A   1      40.816  29.867  33.669  1.00  0.00    -0.248 NA
ATOM     47  C   UNL A   1      42.274  29.985  35.484  1.00  0.00     0.031 C 
ATOM     48  C   UNL A   1      43.629  27.098  31.582  1.00  0.00     0.029 A 
ATOM     49  N   UNL A   1      41.835  28.408  31.346  1.00  0.00    -0.354 N 
ATOM     50  C   UNL A   1      40.252  30.670  34.655  1.00  0.00     0.074 A 
ATOM     51  C   UNL A   1      41.177  30.675  35.768  1.00  0.00     0.031 C 
ATOM     52  C   UNL A   1      43.209  26.976  30.315  1.00  0.00     0.029 A 
ATOM     53  C   UNL A   1      41.987  27.752  30.146  1.00  0.00     0.049 A 
ATOM     54  H   UNL A   1      41.125  29.070  31.514  1.00  0.00     0.167 HD
ATOM     55  C   UNL A   1      39.077  31.345  34.634  1.00  0.00     0.034 A 
ATOM     56  C   UNL A   1      41.209  27.722  29.047  1.00  0.00     0.034 A 
ATOM     57  C   UNL A   1      38.209  31.422  33.486  1.00  0.00     0.049 A 
ATOM     58  C   UNL A   1      39.932  28.509  29.033  1.00  0.00     0.074 A 
ATOM     59  C   UNL A   1      37.028  32.131  33.348  1.00  0.00     0.029 A 
ATOM     60  N   UNL A   1      38.435  30.787  32.275  1.00  0.00    -0.354 N 
ATOM     61  N   UNL A   1      39.431  29.283  29.966  1.00  0.00    -0.248 NA
ATOM     62  C   UNL A   1      39.115  28.426  27.815  1.00  0.00     0.031 C 
ATOM     63  C   UNL A   1      36.535  31.917  32.056  1.00  0.00     0.029 A 
ATOM     64  C   UNL A   1      37.418  31.087  31.385  1.00  0.00     0.049 A 
ATOM     65  H   UNL A   1      39.207  30.208  32.078  1.00  0.00     0.167 HD
ATOM     66  C   UNL A   1      38.247  29.787  29.444  1.00  0.00     0.074 A 
ATOM     67  C   UNL A   1      38.122  29.259  28.101  1.00  0.00     0.031 C 
ATOM     68  C   UNL A   1      37.331  30.594  30.034  1.00  0.00     0.034 A 
BRANCH  55  69
ATOM     69  C   UNL A   1      38.657  32.080  35.883  1.00  0.00     0.023 A 
ATOM     70  C   UNL A   1      38.798  33.480  35.959  1.00  0.00     0.012 A 
ATOM     71  C   UNL A   1      38.055  31.388  36.954  1.00  0.00     0.148 A 
ATOM     72  C   UNL A   1      38.374  34.175  37.092  1.00  0.00     0.002 A 
ATOM     73  C   UNL A   1      37.596  32.094  38.062  1.00  0.00     0.091 A 
ATOM     74  F   UNL A   1      37.948  30.055  36.876  1.00  0.00    -0.205 F 
ATOM     75  C   UNL A   1      37.764  33.485  38.136  1.00  0.00     0.022 A 
BRANCH  73  76
ATOM     76  S   UNL A   1      36.723  31.299  39.417  1.00  0.00     0.127 S 
ATOM     77  O   UNL A   1      35.340  31.692  39.150  1.00  0.00    -0.237 OA
ATOM     78  O   UNL A   1      37.008  29.882  39.183  1.00  0.00    -0.237 OA
ATOM     79  O   UNL A   1      37.305  31.837  40.638  1.00  0.00    -0.744 OA
ENDBRANCH  73  76
ENDBRANCH  55  69
BRANCH  56  80
ATOM     80  C   UNL A   1      41.634  26.911  27.870  1.00  0.00     0.023 A 
ATOM     81  C   UNL A   1      42.461  27.494  26.891  1.00  0.00     0.012 A 
ATOM     82  C   UNL A   1      41.289  25.550  27.756  1.00  0.00     0.148 A 
ATOM     83  C   UNL A   1      42.929  26.737  25.816  1.00  0.00     0.002 A 
ATOM     84  C   UNL A   1      41.818  24.785  26.723  1.00  0.00     0.091 A 
ATOM     85  F   UNL A   1      40.478  25.018  28.682  1.00  0.00    -0.205 F 
ATOM     86  C   UNL A   1      42.623  25.381  25.742  1.00  0.00     0.022 A 
BRANCH  84  87
ATOM     87  S   UNL A   1      41.619  23.001  26.662  1.00  0.00     0.127 S 
ATOM     88  O   UNL A   1      42.200  22.590  27.937  1.00  0.00    -0.237 OA
ATOM     89  O   UNL A   1      40.165  22.859  26.572  1.00  0.00    -0.237 OA
ATOM     90  O   UNL A   1      42.333  22.572  25.467  1.00  0.00    -0.744 OA
ENDBRANCH  84  87
ENDBRANCH  56  80
BRANCH  68  91
ATOM     91  C   UNL A   1      36.121  30.973  29.224  1.00  0.00     0.023 A 
ATOM     92  C   UNL A   1      35.333  29.965  28.636  1.00  0.00     0.012 A 
ATOM     93  C   UNL A   1      35.736  32.322  29.087  1.00  0.00     0.148 A 
ATOM     94  C   UNL A   1      34.197  30.292  27.898  1.00  0.00     0.002 A 
ATOM     95  C   UNL A   1      34.579  32.638  28.386  1.00  0.00     0.091 A 
ATOM     96  F   UNL A   1      36.512  33.268  29.635  1.00  0.00    -0.205 F 
ATOM     97  C   UNL A   1      33.813  31.626  27.782  1.00  0.00     0.022 A 
BRANCH  95  98
ATOM     98  S   UNL A   1      33.966  34.322  28.257  1.00  0.00     0.127 S 
ATOM     99  O   UNL A   1      34.829  34.874  27.214  1.00  0.00    -0.237 OA
ATOM    100  O   UNL A   1      32.574  34.119  27.854  1.00  0.00    -0.237 OA
ATOM    101  O   UNL A   1      34.129  34.908  29.581  1.00  0.00    -0.744 OA
ENDBRANCH  95  98
ENDBRANCH  68  91
ENDBRANCH  42  43
ENDBRANCH  35  37
ENDBRANCH  34  35
ENDBRANCH  33  34
ENDBRANCH   1  33
TORSDOF 19
ENDMDL
MODEL 3
REMARK VINA RESULT:     -10.6      6.307     17.176
REMARK SMILES Cc1cc(C(=O)N[C@@H]2C(=O)N3C(C(=O)OCCOC(=O)c4ccc(-c5c6nc(c(-c7cccc(S(=O)(=O)[O-])c7F)c7ccc([nH]7)c(-c7cccc(S(=O)(=O)[O-])c7F)c7nc(c(-c8cccc(S(=O)(=O)[O-])c8F)c8ccc5[nH]8)C=C7)C=C6)cc4)=C(CSc4nnc(C)s4)CS[C@H]23)n(C)n1
REMARK SMILES IDX 16 1 15 2 13 3 14 4 12 5 8 6 9 7 95 8 10 9 11 10 94 11 93 12
REMARK SMILES IDX 84 13 7 14 5 15 6 16 4 18 1 19 2 20 3 21 98 22 96 23 97 24
REMARK SMILES IDX 85 25 86 26 87 27 88 28 92 29 89 30 90 31 91 32 17 33 18 34
REMARK SMILES IDX 19 35 20 36 21 37 22 38 83 39 23 40 82 41 24 42 25 43 26 44
REMARK SMILES IDX 76 45 27 46 81 47 75 48 77 49 28 50 80 51 74 52 73 53 29 55
REMARK SMILES IDX 61 56 41 57 60 58 42 59 45 60 59 61 78 62 43 63 44 64 58 66
REMARK SMILES IDX 79 67 46 68 30 69 31 70 39 71 32 72 34 73 40 74 33 75 35 76
REMARK SMILES IDX 36 77 37 78 38 79 62 80 63 81 71 82 64 83 66 84 72 85 65 86
REMARK SMILES IDX 67 87 68 88 69 89 70 90 47 91 48 92 56 93 49 94 51 95 57 96
REMARK SMILES IDX 50 97 52 98 53 99 54 100 55 101
REMARK H PARENT 7 17 77 54 45 65
REMARK Flexibility Score: inf
ROOT
ATOM      1  C   UNL A   1      36.874  29.917  29.589  1.00  0.00     0.275 C 
ENDROOT
BRANCH   1   2
ATOM      2  O   UNL A   1      35.734  29.371  28.893  1.00  0.00    -0.457 OA
BRANCH   2   3
ATOM      3  C   UNL A   1      35.635  29.686  27.585  1.00  0.00     0.355 C 
ATOM      4  O   UNL A   1      36.566  29.774  26.793  1.00  0.00    -0.244 OA
BRANCH   3   5
ATOM      5  C   UNL A   1      34.234  30.000  27.157  1.00  0.00     0.132 C 
ATOM      6  C   UNL A   1      32.831  28.187  24.639  1.00  0.00     0.206 C 
ATOM      7  C   UNL A   1      33.254  27.954  26.133  1.00  0.00     0.253 C 
ATOM      8  C   UNL A   1      32.923  29.692  25.075  1.00  0.00     0.181 C 
ATOM      9  O   UNL A   1      33.129  27.107  26.984  1.00  0.00    -0.272 OA
ATOM     10  N   UNL A   1      33.774  29.210  26.146  1.00  0.00    -0.289 N 
ATOM     11  S   UNL A   1      31.445  30.430  25.833  1.00  0.00    -0.129 SA
ATOM     12  C   UNL A   1      32.371  31.669  26.768  1.00  0.00     0.106 C 
ATOM     13  C   UNL A   1      33.633  31.174  27.462  1.00  0.00    -0.019 C 
BRANCH   6  14
ATOM     14  N   UNL A   1      31.558  27.598  24.180  1.00  0.00    -0.336 N 
ATOM     15  C   UNL A   1      31.295  26.320  23.738  1.00  0.00     0.270 C 
ATOM     16  O   UNL A   1      30.129  26.044  23.465  1.00  0.00    -0.268 OA
ATOM     17  H   UNL A   1      30.784  28.207  24.192  1.00  0.00     0.164 HD
BRANCH  15  18
ATOM     18  C   UNL A   1      32.396  25.409  23.533  1.00  0.00     0.126 A 
ATOM     19  C   UNL A   1      35.501  23.663  24.353  1.00  0.00     0.069 C 
ATOM     20  C   UNL A   1      34.277  24.248  23.759  1.00  0.00     0.060 A 
ATOM     21  C   UNL A   1      33.061  24.561  24.404  1.00  0.00     0.059 A 
ATOM     22  N   UNL A   1      34.254  24.623  22.480  1.00  0.00    -0.178 NA
ATOM     23  N   UNL A   1      33.049  25.221  22.335  1.00  0.00    -0.263 N 
ATOM     24  C   UNL A   1      32.665  25.642  21.008  1.00  0.00     0.174 C 
ENDBRANCH  15  18
ENDBRANCH   6  14
BRANCH  13  25
ATOM     25  C   UNL A   1      34.209  32.208  28.405  1.00  0.00     0.111 C 
BRANCH  25  26
ATOM     26  S   UNL A   1      33.668  33.919  28.190  1.00  0.00    -0.089 SA
BRANCH  26  27
ATOM     27  C   UNL A   1      33.621  34.577  29.802  1.00  0.00     0.174 A 
ATOM     28  N   UNL A   1      33.928  33.872  30.867  1.00  0.00    -0.132 NA
ATOM     29  S   UNL A   1      33.064  36.162  30.135  1.00  0.00    -0.091 S 
ATOM     30  N   UNL A   1      33.743  34.591  32.033  1.00  0.00    -0.143 NA
ATOM     31  C   UNL A   1      33.277  35.802  31.801  1.00  0.00     0.115 A 
ATOM     32  C   UNL A   1      32.914  36.786  32.854  1.00  0.00     0.081 C 
ENDBRANCH  26  27
ENDBRANCH  25  26
ENDBRANCH  13  25
ENDBRANCH   3   5
ENDBRANCH   2   3
ENDBRANCH   1   2
BRANCH   1  33
ATOM     33  C   UNL A   1      37.455  28.883  30.543  1.00  0.00     0.275 C 
BRANCH  33  34
ATOM     34  O   UNL A   1      36.882  29.079  31.846  1.00  0.00    -0.458 OA
BRANCH  34  35
ATOM     35  C   UNL A   1      37.445  30.065  32.582  1.00  0.00     0.338 C 
ATOM     36  O   UNL A   1      36.888  31.050  33.037  1.00  0.00    -0.246 OA
BRANCH  35  37
ATOM     37  C   UNL A   1      38.878  29.778  32.758  1.00  0.00     0.060 A 
ATOM     38  C   UNL A   1      39.828  30.764  32.490  1.00  0.00     0.016 A 
ATOM     39  C   UNL A   1      39.283  28.479  33.054  1.00  0.00     0.016 A 
ATOM     40  C   UNL A   1      41.170  30.413  32.366  1.00  0.00     0.010 A 
ATOM     41  C   UNL A   1      40.645  28.166  33.063  1.00  0.00     0.010 A 
ATOM     42  C   UNL A   1      41.606  29.113  32.664  1.00  0.00    -0.014 A 
BRANCH  42  43
ATOM     43  C   UNL A   1      43.046  28.735  32.540  1.00  0.00     0.031 A 
ATOM     44  C   UNL A   1      43.584  28.166  31.247  1.00  0.00     0.074 A 
ATOM     45  C   UNL A   1      43.880  28.871  33.592  1.00  0.00     0.049 A 
ATOM     46  N   UNL A   1      44.729  27.574  31.019  1.00  0.00    -0.248 NA
ATOM     47  C   UNL A   1      42.712  28.250  30.063  1.00  0.00     0.031 C 
ATOM     48  C   UNL A   1      43.511  29.410  34.902  1.00  0.00     0.029 A 
ATOM     49  N   UNL A   1      45.211  28.556  33.733  1.00  0.00    -0.354 N 
ATOM     50  C   UNL A   1      44.676  27.128  29.702  1.00  0.00     0.074 A 
ATOM     51  C   UNL A   1      43.392  27.538  29.174  1.00  0.00     0.031 C 
ATOM     52  C   UNL A   1      44.589  29.422  35.698  1.00  0.00     0.029 A 
ATOM     53  C   UNL A   1      45.700  28.793  34.997  1.00  0.00     0.049 A 
ATOM     54  H   UNL A   1      45.761  28.195  33.000  1.00  0.00     0.167 HD
ATOM     55  C   UNL A   1      45.610  26.445  28.997  1.00  0.00     0.034 A 
ATOM     56  C   UNL A   1      46.885  28.489  35.561  1.00  0.00     0.034 A 
ATOM     57  C   UNL A   1      46.926  26.129  29.492  1.00  0.00     0.049 A 
ATOM     58  C   UNL A   1      47.918  27.767  34.747  1.00  0.00     0.074 A 
ATOM     59  C   UNL A   1      47.963  25.494  28.831  1.00  0.00     0.029 A 
ATOM     60  N   UNL A   1      47.393  26.440  30.759  1.00  0.00    -0.354 N 
ATOM     61  N   UNL A   1      47.858  27.379  33.496  1.00  0.00    -0.248 NA
ATOM     62  C   UNL A   1      49.186  27.447  35.417  1.00  0.00     0.031 C 
ATOM     63  C   UNL A   1      49.055  25.413  29.702  1.00  0.00     0.029 A 
ATOM     64  C   UNL A   1      48.703  26.012  30.900  1.00  0.00     0.049 A 
ATOM     65  H   UNL A   1      46.870  26.899  31.456  1.00  0.00     0.167 HD
ATOM     66  C   UNL A   1      49.081  26.778  33.226  1.00  0.00     0.074 A 
ATOM     67  C   UNL A   1      49.875  26.886  34.433  1.00  0.00     0.031 C 
ATOM     68  C   UNL A   1      49.499  26.168  32.090  1.00  0.00     0.034 A 
BRANCH  55  69
ATOM     69  C   UNL A   1      45.260  26.003  27.597  1.00  0.00     0.023 A 
ATOM     70  C   UNL A   1      45.789  26.692  26.487  1.00  0.00     0.012 A 
ATOM     71  C   UNL A   1      44.466  24.858  27.384  1.00  0.00     0.148 A 
ATOM     72  C   UNL A   1      45.508  26.267  25.189  1.00  0.00     0.002 A 
ATOM     73  C   UNL A   1      44.226  24.415  26.087  1.00  0.00     0.091 A 
ATOM     74  F   UNL A   1      43.953  24.226  28.449  1.00  0.00    -0.205 F 
ATOM     75  C   UNL A   1      44.737  25.124  24.989  1.00  0.00     0.022 A 
BRANCH  73  76
ATOM     76  S   UNL A   1      43.314  22.906  25.737  1.00  0.00     0.127 S 
ATOM     77  O   UNL A   1      41.978  23.247  26.223  1.00  0.00    -0.237 OA
ATOM     78  O   UNL A   1      43.425  22.805  24.280  1.00  0.00    -0.237 OA
ATOM     79  O   UNL A   1      43.998  21.848  26.468  1.00  0.00    -0.744 OA
ENDBRANCH  73  76
ENDBRANCH  55  69
BRANCH  56  80
ATOM     80  C   UNL A   1      47.145  28.879  36.976  1.00  0.00     0.023 A 
ATOM     81  C   UNL A   1      47.692  30.145  37.256  1.00  0.00     0.012 A 
ATOM     82  C   UNL A   1      46.782  28.036  38.046  1.00  0.00     0.148 A 
ATOM     83  C   UNL A   1      47.880  30.562  38.574  1.00  0.00     0.002 A 
ATOM     84  C   UNL A   1      46.905  28.486  39.355  1.00  0.00     0.091 A 
ATOM     85  F   UNL A   1      46.288  26.822  37.762  1.00  0.00    -0.205 F 
ATOM     86  C   UNL A   1      47.470  29.741  39.622  1.00  0.00     0.022 A 
BRANCH  84  87
ATOM     87  S   UNL A   1      46.235  27.566  40.744  1.00  0.00     0.127 S 
ATOM     88  O   UNL A   1      44.814  27.510  40.411  1.00  0.00    -0.237 OA
ATOM     89  O   UNL A   1      46.945  26.290  40.636  1.00  0.00    -0.237 OA
ATOM     90  O   UNL A   1      46.583  28.341  41.927  1.00  0.00    -0.744 OA
ENDBRANCH  84  87
ENDBRANCH  56  80
BRANCH  68  91
ATOM     91  C   UNL A   1      50.887  25.587  32.089  1.00  0.00     0.023 A 
ATOM     92  C   UNL A   1      51.984  26.407  31.758  1.00  0.00     0.012 A 
ATOM     93  C   UNL A   1      51.111  24.248  32.464  1.00  0.00     0.148 A 
ATOM     94  C   UNL A   1      53.280  25.895  31.769  1.00  0.00     0.002 A 
ATOM     95  C   UNL A   1      52.410  23.756  32.514  1.00  0.00     0.091 A 
ATOM     96  F   UNL A   1      50.053  23.478  32.753  1.00  0.00    -0.205 F 
ATOM     97  C   UNL A   1      53.495  24.575  32.157  1.00  0.00     0.022 A 
BRANCH  95  98
ATOM     98  S   UNL A   1      52.784  22.093  33.082  1.00  0.00     0.127 S 
ATOM     99  O   UNL A   1      52.212  22.102  34.427  1.00  0.00    -0.237 OA
ATOM    100  O   UNL A   1      52.061  21.263  32.118  1.00  0.00    -0.237 OA
ATOM    101  O   UNL A   1      54.234  21.967  33.016  1.00  0.00    -0.744 OA
ENDBRANCH  95  98
ENDBRANCH  68  91
ENDBRANCH  42  43
ENDBRANCH  35  37
ENDBRANCH  34  35
ENDBRANCH  33  34
ENDBRANCH   1  33
TORSDOF 19
ENDMDL
