MODEL 1
REMARK VINA RESULT:     -11.9      0.000      0.000
REMARK SMILES COc1ccc2c(CC(=O)OCCOC(=O)c3ccc(-c4c5nc(c(-c6cccc(S(=O)(=O)[O-])c6F)c6ccc([nH]6)c(-c6cccc(S(=O)(=O)[O-])c6F)c6nc(c(-c7cccc(S(=O)(=O)[O-])c7F)c7ccc4[nH]7)C=C6)C=C5)cc3)c(C(=O)c3cc(C)ccn3)[nH]c2c1
REMARK SMILES IDX 12 1 11 2 9 3 10 4 8 5 7 6 3 7 4 8 92 9 5 10 91 11 6 12
REMARK SMILES IDX 90 13 80 14 2 16 1 17 81 18 82 19 83 20 84 21 89 22 85 23
REMARK SMILES IDX 88 24 86 25 87 26 13 27 14 28 15 29 16 30 17 31 18 32 79 33
REMARK SMILES IDX 19 34 78 35 20 36 21 37 22 38 72 39 23 40 77 41 71 42 73 43
REMARK SMILES IDX 24 44 76 45 70 46 69 47 25 49 57 50 37 51 56 52 38 53 41 54
REMARK SMILES IDX 55 55 74 56 39 57 40 58 54 60 75 61 42 62 26 63 27 64 35 65
REMARK SMILES IDX 28 66 30 67 36 68 29 69 31 70 32 71 33 72 34 73 58 74 59 75
REMARK SMILES IDX 67 76 60 77 62 78 68 79 61 80 63 81 64 82 65 83 66 84 43 85
REMARK SMILES IDX 44 86 52 87 45 88 47 89 53 90 46 91 48 92 49 93 50 94 51 95
REMARK H PARENT 90 15 73 48 41 59
REMARK Flexibility Score: inf
ROOT
ATOM      1  C   UNL A   1      32.018  27.936  26.113  1.00  0.00     0.274 C 
ENDROOT
BRANCH   1   2
ATOM      2  O   UNL A   1      33.150  27.272  25.512  1.00  0.00    -0.462 OA
BRANCH   2   3
ATOM      3  C   UNL A   1      33.232  25.933  25.744  1.00  0.00     0.310 C 
ATOM      4  O   UNL A   1      32.538  25.334  26.563  1.00  0.00    -0.252 OA
BRANCH   3   5
ATOM      5  C   UNL A   1      34.233  25.198  24.882  1.00  0.00     0.161 C 
BRANCH   5   6
ATOM      6  C   UNL A   1      33.698  24.106  24.002  1.00  0.00     0.000 A 
ATOM      7  C   UNL A   1      32.665  20.112  24.721  1.00  0.00     0.120 A 
ATOM      8  C   UNL A   1      33.379  20.730  25.745  1.00  0.00     0.047 A 
ATOM      9  C   UNL A   1      32.481  20.739  23.485  1.00  0.00     0.073 A 
ATOM     10  C   UNL A   1      33.843  22.041  25.592  1.00  0.00     0.014 A 
ATOM     11  C   UNL A   1      32.916  22.065  23.368  1.00  0.00     0.050 A 
ATOM     12  C   UNL A   1      33.558  22.739  24.402  1.00  0.00     0.004 A 
ATOM     13  N   UNL A   1      32.796  22.956  22.326  1.00  0.00    -0.351 N 
ATOM     14  C   UNL A   1      33.060  24.235  22.767  1.00  0.00     0.093 A 
ATOM     15  H   UNL A   1      32.556  22.714  21.402  1.00  0.00     0.167 HD
BRANCH   7  16
ATOM     16  O   UNL A   1      32.122  18.859  24.856  1.00  0.00    -0.497 OA
ATOM     17  C   UNL A   1      33.007  17.836  24.398  1.00  0.00     0.278 C 
ENDBRANCH   7  16
BRANCH  14  18
ATOM     18  C   UNL A   1      32.614  25.443  22.089  1.00  0.00     0.227 C 
ATOM     19  O   UNL A   1      33.240  25.956  21.166  1.00  0.00    -0.285 OA
BRANCH  18  20
ATOM     20  C   UNL A   1      31.442  26.184  22.612  1.00  0.00     0.113 A 
ATOM     21  C   UNL A   1      31.232  27.496  22.202  1.00  0.00     0.036 A 
ATOM     22  N   UNL A   1      30.620  25.507  23.448  1.00  0.00    -0.253 NA
ATOM     23  C   UNL A   1      30.094  28.158  22.664  1.00  0.00    -0.047 A 
ATOM     24  C   UNL A   1      29.483  26.137  23.804  1.00  0.00     0.112 A 
ATOM     25  C   UNL A   1      29.820  29.586  22.299  1.00  0.00     0.044 C 
ATOM     26  C   UNL A   1      29.184  27.446  23.451  1.00  0.00     0.023 A 
ENDBRANCH  18  20
ENDBRANCH  14  18
ENDBRANCH   5   6
ENDBRANCH   3   5
ENDBRANCH   2   3
ENDBRANCH   1   2
BRANCH   1  27
ATOM     27  C   UNL A   1      31.885  29.358  25.576  1.00  0.00     0.275 C 
BRANCH  27  28
ATOM     28  O   UNL A   1      33.132  30.052  25.740  1.00  0.00    -0.458 OA
BRANCH  28  29
ATOM     29  C   UNL A   1      33.146  30.992  26.711  1.00  0.00     0.338 C 
ATOM     30  O   UNL A   1      32.318  31.888  26.871  1.00  0.00    -0.246 OA
BRANCH  29  31
ATOM     31  C   UNL A   1      34.342  30.850  27.558  1.00  0.00     0.060 A 
ATOM     32  C   UNL A   1      35.310  31.853  27.625  1.00  0.00     0.016 A 
ATOM     33  C   UNL A   1      34.547  29.641  28.225  1.00  0.00     0.016 A 
ATOM     34  C   UNL A   1      36.523  31.605  28.270  1.00  0.00     0.010 A 
ATOM     35  C   UNL A   1      35.718  29.437  28.957  1.00  0.00     0.010 A 
ATOM     36  C   UNL A   1      36.740  30.399  28.955  1.00  0.00    -0.014 A 
BRANCH  36  37
ATOM     37  C   UNL A   1      38.025  30.143  29.668  1.00  0.00     0.031 A 
ATOM     38  C   UNL A   1      39.092  29.272  29.053  1.00  0.00     0.074 A 
ATOM     39  C   UNL A   1      38.222  30.664  30.895  1.00  0.00     0.049 A 
ATOM     40  N   UNL A   1      40.207  28.836  29.583  1.00  0.00    -0.248 NA
ATOM     41  C   UNL A   1      38.871  28.812  27.672  1.00  0.00     0.031 C 
ATOM     42  C   UNL A   1      37.266  31.502  31.621  1.00  0.00     0.029 A 
ATOM     43  N   UNL A   1      39.288  30.559  31.756  1.00  0.00    -0.354 N 
ATOM     44  C   UNL A   1      40.783  28.000  28.633  1.00  0.00     0.074 A 
ATOM     45  C   UNL A   1      39.898  27.992  27.488  1.00  0.00     0.031 C 
ATOM     46  C   UNL A   1      37.796  31.858  32.800  1.00  0.00     0.029 A 
ATOM     47  C   UNL A   1      39.103  31.227  32.943  1.00  0.00     0.049 A 
ATOM     48  H   UNL A   1      40.106  30.054  31.542  1.00  0.00     0.167 HD
ATOM     49  C   UNL A   1      41.952  27.316  28.700  1.00  0.00     0.034 A 
ATOM     50  C   UNL A   1      39.884  31.312  34.038  1.00  0.00     0.034 A 
ATOM     51  C   UNL A   1      42.878  27.392  29.800  1.00  0.00     0.049 A 
ATOM     52  C   UNL A   1      41.205  30.599  34.056  1.00  0.00     0.074 A 
ATOM     53  C   UNL A   1      44.111  26.774  29.929  1.00  0.00     0.029 A 
ATOM     54  N   UNL A   1      42.689  28.146  30.948  1.00  0.00    -0.354 N 
ATOM     55  N   UNL A   1      41.762  29.873  33.118  1.00  0.00    -0.248 NA
ATOM     56  C   UNL A   1      42.015  30.732  35.275  1.00  0.00     0.031 C 
ATOM     57  C   UNL A   1      44.671  27.162  31.153  1.00  0.00     0.029 A 
ATOM     58  C   UNL A   1      43.785  28.019  31.786  1.00  0.00     0.049 A 
ATOM     59  H   UNL A   1      41.892  28.691  31.140  1.00  0.00     0.167 HD
ATOM     60  C   UNL A   1      42.991  29.471  33.627  1.00  0.00     0.074 A 
ATOM     61  C   UNL A   1      43.113  30.066  34.943  1.00  0.00     0.031 C 
ATOM     62  C   UNL A   1      43.920  28.658  33.068  1.00  0.00     0.034 A 
BRANCH  49  63
ATOM     63  C   UNL A   1      42.334  26.460  27.522  1.00  0.00     0.023 A 
ATOM     64  C   UNL A   1      43.126  27.013  26.496  1.00  0.00     0.012 A 
ATOM     65  C   UNL A   1      41.985  25.096  27.467  1.00  0.00     0.148 A 
ATOM     66  C   UNL A   1      43.549  26.227  25.424  1.00  0.00     0.002 A 
ATOM     67  C   UNL A   1      42.437  24.311  26.411  1.00  0.00     0.091 A 
ATOM     68  F   UNL A   1      41.210  24.593  28.438  1.00  0.00    -0.205 F 
ATOM     69  C   UNL A   1      43.215  24.876  25.387  1.00  0.00     0.022 A 
BRANCH  67  70
ATOM     70  S   UNL A   1      42.110  22.546  26.322  1.00  0.00     0.127 S 
ATOM     71  O   UNL A   1      42.668  22.079  27.590  1.00  0.00    -0.237 OA
ATOM     72  O   UNL A   1      40.648  22.499  26.247  1.00  0.00    -0.237 OA
ATOM     73  O   UNL A   1      42.788  22.081  25.120  1.00  0.00    -0.744 OA
ENDBRANCH  67  70
ENDBRANCH  49  63
BRANCH  50  74
ATOM     74  C   UNL A   1      39.449  32.159  35.184  1.00  0.00     0.023 A 
ATOM     75  C   UNL A   1      39.612  33.554  35.106  1.00  0.00     0.012 A 
ATOM     76  C   UNL A   1      38.812  31.603  36.309  1.00  0.00     0.148 A 
ATOM     77  C   UNL A   1      39.159  34.381  36.134  1.00  0.00     0.002 A 
ATOM     78  C   UNL A   1      38.310  32.436  37.302  1.00  0.00     0.091 A 
ATOM     79  F   UNL A   1      38.688  30.269  36.381  1.00  0.00    -0.205 F 
ATOM     80  C   UNL A   1      38.493  33.824  37.223  1.00  0.00     0.022 A 
BRANCH  78  81
ATOM     81  S   UNL A   1      37.309  31.794  38.649  1.00  0.00     0.127 S 
ATOM     82  O   UNL A   1      36.169  32.706  38.641  1.00  0.00    -0.237 OA
ATOM     83  O   UNL A   1      37.012  30.433  38.201  1.00  0.00    -0.237 OA
ATOM     84  O   UNL A   1      38.173  31.854  39.821  1.00  0.00    -0.744 OA
ENDBRANCH  78  81
ENDBRANCH  50  74
BRANCH  62  85
ATOM     85  C   UNL A   1      45.155  28.364  33.876  1.00  0.00     0.023 A 
ATOM     86  C   UNL A   1      46.273  29.211  33.751  1.00  0.00     0.012 A 
ATOM     87  C   UNL A   1      45.196  27.292  34.786  1.00  0.00     0.148 A 
ATOM     88  C   UNL A   1      47.425  28.978  34.501  1.00  0.00     0.002 A 
ATOM     89  C   UNL A   1      46.336  27.088  35.557  1.00  0.00     0.091 A 
ATOM     90  F   UNL A   1      44.132  26.480  34.875  1.00  0.00    -0.205 F 
ATOM     91  C   UNL A   1      47.454  27.923  35.411  1.00  0.00     0.022 A 
BRANCH  89  92
ATOM     92  S   UNL A   1      46.409  25.791  36.800  1.00  0.00     0.127 S 
ATOM     93  O   UNL A   1      47.739  25.992  37.369  1.00  0.00    -0.237 OA
ATOM     94  O   UNL A   1      45.304  26.140  37.695  1.00  0.00    -0.237 OA
ATOM     95  O   UNL A   1      46.209  24.546  36.068  1.00  0.00    -0.744 OA
ENDBRANCH  89  92
ENDBRANCH  62  85
ENDBRANCH  36  37
ENDBRANCH  29  31
ENDBRANCH  28  29
ENDBRANCH  27  28
ENDBRANCH   1  27
TORSDOF 18
ENDMDL
MODEL 2
REMARK VINA RESULT:     -11.8      1.747      3.947
REMARK SMILES COc1ccc2c(CC(=O)OCCOC(=O)c3ccc(-c4c5nc(c(-c6cccc(S(=O)(=O)[O-])c6F)c6ccc([nH]6)c(-c6cccc(S(=O)(=O)[O-])c6F)c6nc(c(-c7cccc(S(=O)(=O)[O-])c7F)c7ccc4[nH]7)C=C6)C=C5)cc3)c(C(=O)c3cc(C)ccn3)[nH]c2c1
REMARK SMILES IDX 12 1 11 2 9 3 10 4 8 5 7 6 3 7 4 8 92 9 5 10 91 11 6 12
REMARK SMILES IDX 90 13 80 14 2 16 1 17 81 18 82 19 83 20 84 21 89 22 85 23
REMARK SMILES IDX 88 24 86 25 87 26 13 27 14 28 15 29 16 30 17 31 18 32 79 33
REMARK SMILES IDX 19 34 78 35 20 36 21 37 22 38 72 39 23 40 77 41 71 42 73 43
REMARK SMILES IDX 24 44 76 45 70 46 69 47 25 49 57 50 37 51 56 52 38 53 41 54
REMARK SMILES IDX 55 55 74 56 39 57 40 58 54 60 75 61 42 62 26 63 27 64 35 65
REMARK SMILES IDX 28 66 30 67 36 68 29 69 31 70 32 71 33 72 34 73 58 74 59 75
REMARK SMILES IDX 67 76 60 77 62 78 68 79 61 80 63 81 64 82 65 83 66 84 43 85
REMARK SMILES IDX 44 86 52 87 45 88 47 89 53 90 46 91 48 92 49 93 50 94 51 95
REMARK H PARENT 90 15 73 48 41 59
REMARK Flexibility Score: inf
ROOT
ATOM      1  C   UNL A   1      31.763  27.861  26.858  1.00  0.00     0.274 C 
ENDROOT
BRANCH   1   2
ATOM      2  O   UNL A   1      30.651  26.971  26.627  1.00  0.00    -0.462 OA
BRANCH   2   3
ATOM      3  C   UNL A   1      30.975  25.749  26.121  1.00  0.00     0.310 C 
ATOM      4  O   UNL A   1      31.597  24.891  26.745  1.00  0.00    -0.252 OA
BRANCH   3   5
ATOM      5  C   UNL A   1      30.479  25.490  24.717  1.00  0.00     0.161 C 
BRANCH   5   6
ATOM      6  C   UNL A   1      30.691  26.583  23.711  1.00  0.00     0.000 A 
ATOM      7  C   UNL A   1      28.275  29.728  22.363  1.00  0.00     0.120 A 
ATOM      8  C   UNL A   1      27.618  28.761  23.121  1.00  0.00     0.047 A 
ATOM      9  C   UNL A   1      29.597  29.544  21.945  1.00  0.00     0.073 A 
ATOM     10  C   UNL A   1      28.302  27.626  23.567  1.00  0.00     0.014 A 
ATOM     11  C   UNL A   1      30.275  28.422  22.436  1.00  0.00     0.050 A 
ATOM     12  C   UNL A   1      29.670  27.481  23.264  1.00  0.00     0.004 A 
ATOM     13  N   UNL A   1      31.583  28.028  22.276  1.00  0.00    -0.351 N 
ATOM     14  C   UNL A   1      31.901  27.058  23.202  1.00  0.00     0.093 A 
ATOM     15  H   UNL A   1      32.201  28.387  21.599  1.00  0.00     0.167 HD
BRANCH   7  16
ATOM     16  O   UNL A   1      27.668  30.895  21.973  1.00  0.00    -0.497 OA
ATOM     17  C   UNL A   1      27.705  31.890  22.998  1.00  0.00     0.278 C 
ENDBRANCH   7  16
BRANCH  14  18
ATOM     18  C   UNL A   1      33.257  26.736  23.618  1.00  0.00     0.227 C 
ATOM     19  O   UNL A   1      34.080  27.594  23.924  1.00  0.00    -0.285 OA
BRANCH  18  20
ATOM     20  C   UNL A   1      33.734  25.335  23.532  1.00  0.00     0.113 A 
ATOM     21  C   UNL A   1      34.466  24.803  24.588  1.00  0.00     0.036 A 
ATOM     22  N   UNL A   1      33.388  24.644  22.421  1.00  0.00    -0.253 NA
ATOM     23  C   UNL A   1      34.859  23.466  24.511  1.00  0.00    -0.047 A 
ATOM     24  C   UNL A   1      33.700  23.332  22.415  1.00  0.00     0.112 A 
ATOM     25  C   UNL A   1      35.686  22.833  25.590  1.00  0.00     0.044 C 
ATOM     26  C   UNL A   1      34.432  22.709  23.416  1.00  0.00     0.023 A 
ENDBRANCH  18  20
ENDBRANCH  14  18
ENDBRANCH   5   6
ENDBRANCH   3   5
ENDBRANCH   2   3
ENDBRANCH   1   2
BRANCH   1  27
ATOM     27  C   UNL A   1      31.525  29.204  26.175  1.00  0.00     0.275 C 
BRANCH  27  28
ATOM     28  O   UNL A   1      32.780  29.878  25.989  1.00  0.00    -0.458 OA
BRANCH  28  29
ATOM     29  C   UNL A   1      32.971  30.968  26.764  1.00  0.00     0.338 C 
ATOM     30  O   UNL A   1      32.298  31.997  26.754  1.00  0.00    -0.246 OA
BRANCH  29  31
ATOM     31  C   UNL A   1      34.156  30.797  27.621  1.00  0.00     0.060 A 
ATOM     32  C   UNL A   1      35.031  31.855  27.871  1.00  0.00     0.016 A 
ATOM     33  C   UNL A   1      34.451  29.522  28.106  1.00  0.00     0.016 A 
ATOM     34  C   UNL A   1      36.247  31.613  28.513  1.00  0.00     0.010 A 
ATOM     35  C   UNL A   1      35.619  29.307  28.839  1.00  0.00     0.010 A 
ATOM     36  C   UNL A   1      36.554  30.339  29.016  1.00  0.00    -0.014 A 
BRANCH  36  37
ATOM     37  C   UNL A   1      37.840  30.084  29.727  1.00  0.00     0.031 A 
ATOM     38  C   UNL A   1      38.916  29.234  29.099  1.00  0.00     0.074 A 
ATOM     39  C   UNL A   1      38.031  30.588  30.962  1.00  0.00     0.049 A 
ATOM     40  N   UNL A   1      40.035  28.800  29.624  1.00  0.00    -0.248 NA
ATOM     41  C   UNL A   1      38.701  28.794  27.711  1.00  0.00     0.031 C 
ATOM     42  C   UNL A   1      37.065  31.405  31.700  1.00  0.00     0.029 A 
ATOM     43  N   UNL A   1      39.096  30.480  31.823  1.00  0.00    -0.354 N 
ATOM     44  C   UNL A   1      40.620  27.985  28.662  1.00  0.00     0.074 A 
ATOM     45  C   UNL A   1      39.737  27.987  27.516  1.00  0.00     0.031 C 
ATOM     46  C   UNL A   1      37.591  31.747  32.885  1.00  0.00     0.029 A 
ATOM     47  C   UNL A   1      38.904  31.127  33.020  1.00  0.00     0.049 A 
ATOM     48  H   UNL A   1      39.919  29.986  31.602  1.00  0.00     0.167 HD
ATOM     49  C   UNL A   1      41.795  27.312  28.720  1.00  0.00     0.034 A 
ATOM     50  C   UNL A   1      39.683  31.202  34.117  1.00  0.00     0.034 A 
ATOM     51  C   UNL A   1      42.720  27.380  29.821  1.00  0.00     0.049 A 
ATOM     52  C   UNL A   1      41.011  30.503  34.125  1.00  0.00     0.074 A 
ATOM     53  C   UNL A   1      43.959  26.772  29.943  1.00  0.00     0.029 A 
ATOM     54  N   UNL A   1      42.522  28.114  30.981  1.00  0.00    -0.354 N 
ATOM     55  N   UNL A   1      41.576  29.797  33.177  1.00  0.00    -0.248 NA
ATOM     56  C   UNL A   1      41.818  30.625  35.348  1.00  0.00     0.031 C 
ATOM     57  C   UNL A   1      44.514  27.146  31.173  1.00  0.00     0.029 A 
ATOM     58  C   UNL A   1      43.618  27.984  31.818  1.00  0.00     0.049 A 
ATOM     59  H   UNL A   1      41.720  28.648  31.180  1.00  0.00     0.167 HD
ATOM     60  C   UNL A   1      42.808  29.400  33.681  1.00  0.00     0.074 A 
ATOM     61  C   UNL A   1      42.923  29.975  35.006  1.00  0.00     0.031 C 
ATOM     62  C   UNL A   1      43.746  28.604  33.111  1.00  0.00     0.034 A 
BRANCH  49  63
ATOM     63  C   UNL A   1      42.188  26.479  27.528  1.00  0.00     0.023 A 
ATOM     64  C   UNL A   1      42.966  27.059  26.507  1.00  0.00     0.012 A 
ATOM     65  C   UNL A   1      41.861  25.110  27.456  1.00  0.00     0.148 A 
ATOM     66  C   UNL A   1      43.398  26.294  25.423  1.00  0.00     0.002 A 
ATOM     67  C   UNL A   1      42.322  24.347  26.388  1.00  0.00     0.091 A 
ATOM     68  F   UNL A   1      41.099  24.580  28.423  1.00  0.00    -0.205 F 
ATOM     69  C   UNL A   1      43.086  24.938  25.369  1.00  0.00     0.022 A 
BRANCH  67  70
ATOM     70  S   UNL A   1      42.025  22.577  26.277  1.00  0.00     0.127 S 
ATOM     71  O   UNL A   1      42.727  22.237  25.041  1.00  0.00    -0.237 OA
ATOM     72  O   UNL A   1      42.661  22.074  27.496  1.00  0.00    -0.237 OA
ATOM     73  O   UNL A   1      40.577  22.424  26.248  1.00  0.00    -0.744 OA
ENDBRANCH  67  70
ENDBRANCH  49  63
BRANCH  50  74
ATOM     74  C   UNL A   1      39.238  32.027  35.275  1.00  0.00     0.023 A 
ATOM     75  C   UNL A   1      38.422  31.441  36.261  1.00  0.00     0.012 A 
ATOM     76  C   UNL A   1      39.674  33.355  35.445  1.00  0.00     0.148 A 
ATOM     77  C   UNL A   1      38.037  32.167  37.389  1.00  0.00     0.002 A 
ATOM     78  C   UNL A   1      39.337  34.052  36.598  1.00  0.00     0.091 A 
ATOM     79  F   UNL A   1      40.430  33.908  34.483  1.00  0.00    -0.205 F 
ATOM     80  C   UNL A   1      38.509  33.465  37.566  1.00  0.00     0.022 A 
BRANCH  78  81
ATOM     81  S   UNL A   1      40.038  35.667  36.958  1.00  0.00     0.127 S 
ATOM     82  O   UNL A   1      41.464  35.365  37.049  1.00  0.00    -0.237 OA
ATOM     83  O   UNL A   1      39.649  36.448  35.783  1.00  0.00    -0.237 OA
ATOM     84  O   UNL A   1      39.390  36.093  38.191  1.00  0.00    -0.744 OA
ENDBRANCH  78  81
ENDBRANCH  50  74
BRANCH  62  85
ATOM     85  C   UNL A   1      44.982  28.310  33.915  1.00  0.00     0.023 A 
ATOM     86  C   UNL A   1      46.021  29.262  33.950  1.00  0.00     0.012 A 
ATOM     87  C   UNL A   1      45.101  27.128  34.670  1.00  0.00     0.148 A 
ATOM     88  C   UNL A   1      47.171  29.028  34.702  1.00  0.00     0.002 A 
ATOM     89  C   UNL A   1      46.236  26.919  35.447  1.00  0.00     0.091 A 
ATOM     90  F   UNL A   1      44.115  26.221  34.606  1.00  0.00    -0.205 F 
ATOM     91  C   UNL A   1      47.276  27.863  35.458  1.00  0.00     0.022 A 
BRANCH  89  92
ATOM     92  S   UNL A   1      46.398  25.472  36.500  1.00  0.00     0.127 S 
ATOM     93  O   UNL A   1      46.432  24.388  35.523  1.00  0.00    -0.237 OA
ATOM     94  O   UNL A   1      47.670  25.714  37.186  1.00  0.00    -0.237 OA
ATOM     95  O   UNL A   1      45.235  25.505  37.378  1.00  0.00    -0.744 OA
ENDBRANCH  89  92
ENDBRANCH  62  85
ENDBRANCH  36  37
ENDBRANCH  29  31
ENDBRANCH  28  29
ENDBRANCH  27  28
ENDBRANCH   1  27
TORSDOF 18
ENDMDL
MODEL 3
REMARK VINA RESULT:     -11.8      5.083      9.631
REMARK SMILES COc1ccc2c(CC(=O)OCCOC(=O)c3ccc(-c4c5nc(c(-c6cccc(S(=O)(=O)[O-])c6F)c6ccc([nH]6)c(-c6cccc(S(=O)(=O)[O-])c6F)c6nc(c(-c7cccc(S(=O)(=O)[O-])c7F)c7ccc4[nH]7)C=C6)C=C5)cc3)c(C(=O)c3cc(C)ccn3)[nH]c2c1
REMARK SMILES IDX 12 1 11 2 9 3 10 4 8 5 7 6 3 7 4 8 92 9 5 10 91 11 6 12
REMARK SMILES IDX 90 13 80 14 2 16 1 17 81 18 82 19 83 20 84 21 89 22 85 23
REMARK SMILES IDX 88 24 86 25 87 26 13 27 14 28 15 29 16 30 17 31 18 32 79 33
REMARK SMILES IDX 19 34 78 35 20 36 21 37 22 38 72 39 23 40 77 41 71 42 73 43
REMARK SMILES IDX 24 44 76 45 70 46 69 47 25 49 57 50 37 51 56 52 38 53 41 54
REMARK SMILES IDX 55 55 74 56 39 57 40 58 54 60 75 61 42 62 26 63 27 64 35 65
REMARK SMILES IDX 28 66 30 67 36 68 29 69 31 70 32 71 33 72 34 73 58 74 59 75
REMARK SMILES IDX 67 76 60 77 62 78 68 79 61 80 63 81 64 82 65 83 66 84 43 85
REMARK SMILES IDX 44 86 52 87 45 88 47 89 53 90 46 91 48 92 49 93 50 94 51 95
REMARK H PARENT 90 15 73 48 41 59
REMARK Flexibility Score: inf
ROOT
ATOM      1  C   UNL A   1      36.357  22.331  23.688  1.00  0.00     0.274 C 
ENDROOT
BRANCH   1   2
ATOM      2  O   UNL A   1      35.059  22.809  24.102  1.00  0.00    -0.462 OA
BRANCH   2   3
ATOM      3  C   UNL A   1      34.114  22.856  23.125  1.00  0.00     0.310 C 
ATOM      4  O   UNL A   1      34.306  23.328  22.006  1.00  0.00    -0.252 OA
BRANCH   3   5
ATOM      5  C   UNL A   1      32.783  22.242  23.496  1.00  0.00     0.161 C 
BRANCH   5   6
ATOM      6  C   UNL A   1      32.806  21.143  24.519  1.00  0.00     0.000 A 
ATOM      7  C   UNL A   1      33.334  16.998  24.241  1.00  0.00     0.120 A 
ATOM      8  C   UNL A   1      33.115  17.647  23.028  1.00  0.00     0.047 A 
ATOM      9  C   UNL A   1      33.200  17.672  25.459  1.00  0.00     0.073 A 
ATOM     10  C   UNL A   1      32.853  19.021  22.999  1.00  0.00     0.014 A 
ATOM     11  C   UNL A   1      32.979  19.054  25.405  1.00  0.00     0.050 A 
ATOM     12  C   UNL A   1      32.839  19.747  24.207  1.00  0.00     0.004 A 
ATOM     13  N   UNL A   1      32.895  19.985  26.415  1.00  0.00    -0.351 N 
ATOM     14  C   UNL A   1      33.010  21.256  25.895  1.00  0.00     0.093 A 
ATOM     15  H   UNL A   1      32.770  19.773  27.368  1.00  0.00     0.167 HD
BRANCH   7  16
ATOM     16  O   UNL A   1      33.674  15.670  24.313  1.00  0.00    -0.497 OA
ATOM     17  C   UNL A   1      34.880  15.463  25.050  1.00  0.00     0.278 C 
ENDBRANCH   7  16
BRANCH  14  18
ATOM     18  C   UNL A   1      33.401  22.425  26.669  1.00  0.00     0.227 C 
ATOM     19  O   UNL A   1      34.276  22.388  27.530  1.00  0.00    -0.285 OA
BRANCH  18  20
ATOM     20  C   UNL A   1      32.627  23.682  26.537  1.00  0.00     0.113 A 
ATOM     21  C   UNL A   1      33.291  24.852  26.186  1.00  0.00     0.036 A 
ATOM     22  N   UNL A   1      31.292  23.595  26.740  1.00  0.00    -0.253 NA
ATOM     23  C   UNL A   1      32.536  26.013  26.014  1.00  0.00    -0.047 A 
ATOM     24  C   UNL A   1      30.577  24.708  26.477  1.00  0.00     0.112 A 
ATOM     25  C   UNL A   1      33.184  27.322  25.677  1.00  0.00     0.044 C 
ATOM     26  C   UNL A   1      31.145  25.924  26.126  1.00  0.00     0.023 A 
ENDBRANCH  18  20
ENDBRANCH  14  18
ENDBRANCH   5   6
ENDBRANCH   3   5
ENDBRANCH   2   3
ENDBRANCH   1   2
BRANCH   1  27
ATOM     27  C   UNL A   1      36.723  21.056  24.441  1.00  0.00     0.275 C 
BRANCH  27  28
ATOM     28  O   UNL A   1      37.200  21.392  25.753  1.00  0.00    -0.458 OA
BRANCH  28  29
ATOM     29  C   UNL A   1      38.528  21.228  25.944  1.00  0.00     0.338 C 
ATOM     30  O   UNL A   1      39.170  20.195  25.759  1.00  0.00    -0.246 OA
BRANCH  29  31
ATOM     31  C   UNL A   1      39.136  22.462  26.470  1.00  0.00     0.060 A 
ATOM     32  C   UNL A   1      38.618  23.719  26.157  1.00  0.00     0.016 A 
ATOM     33  C   UNL A   1      40.312  22.361  27.215  1.00  0.00     0.016 A 
ATOM     34  C   UNL A   1      39.332  24.869  26.499  1.00  0.00     0.010 A 
ATOM     35  C   UNL A   1      40.967  23.516  27.645  1.00  0.00     0.010 A 
ATOM     36  C   UNL A   1      40.510  24.785  27.257  1.00  0.00    -0.014 A 
BRANCH  36  37
ATOM     37  C   UNL A   1      41.260  26.014  27.648  1.00  0.00     0.031 A 
ATOM     38  C   UNL A   1      40.609  27.085  28.486  1.00  0.00     0.074 A 
ATOM     39  C   UNL A   1      42.525  26.189  27.215  1.00  0.00     0.049 A 
ATOM     40  N   UNL A   1      41.063  28.271  28.806  1.00  0.00    -0.248 NA
ATOM     41  C   UNL A   1      39.266  26.799  29.018  1.00  0.00     0.031 C 
ATOM     42  C   UNL A   1      43.268  25.248  26.376  1.00  0.00     0.029 A 
ATOM     43  N   UNL A   1      43.406  27.224  27.410  1.00  0.00    -0.354 N 
ATOM     44  C   UNL A   1      40.041  28.896  29.513  1.00  0.00     0.074 A 
ATOM     45  C   UNL A   1      38.942  27.957  29.581  1.00  0.00     0.031 C 
ATOM     46  C   UNL A   1      44.499  25.732  26.153  1.00  0.00     0.029 A 
ATOM     47  C   UNL A   1      44.615  27.044  26.780  1.00  0.00     0.049 A 
ATOM     48  H   UNL A   1      43.193  28.019  27.951  1.00  0.00     0.167 HD
ATOM     49  C   UNL A   1      40.026  30.132  30.070  1.00  0.00     0.034 A 
ATOM     50  C   UNL A   1      45.694  27.847  26.695  1.00  0.00     0.034 A 
ATOM     51  C   UNL A   1      41.148  31.034  30.082  1.00  0.00     0.049 A 
ATOM     52  C   UNL A   1      45.673  29.181  27.381  1.00  0.00     0.074 A 
ATOM     53  C   UNL A   1      41.239  32.285  30.670  1.00  0.00     0.029 A 
ATOM     54  N   UNL A   1      42.381  30.776  29.502  1.00  0.00    -0.354 N 
ATOM     55  N   UNL A   1      44.722  29.722  28.104  1.00  0.00    -0.248 NA
ATOM     56  C   UNL A   1      46.880  30.011  27.256  1.00  0.00     0.031 C 
ATOM     57  C   UNL A   1      42.531  32.781  30.452  1.00  0.00     0.029 A 
ATOM     58  C   UNL A   1      43.242  31.839  29.726  1.00  0.00     0.049 A 
ATOM     59  H   UNL A   1      42.610  29.959  29.004  1.00  0.00     0.167 HD
ATOM     60  C   UNL A   1      45.218  30.948  28.529  1.00  0.00     0.074 A 
ATOM     61  C   UNL A   1      46.568  31.055  28.014  1.00  0.00     0.031 C 
ATOM     62  C   UNL A   1      44.600  31.911  29.255  1.00  0.00     0.034 A 
BRANCH  49  63
ATOM     63  C   UNL A   1      38.768  30.571  30.771  1.00  0.00     0.023 A 
ATOM     64  C   UNL A   1      38.657  30.392  32.164  1.00  0.00     0.012 A 
ATOM     65  C   UNL A   1      37.737  31.232  30.074  1.00  0.00     0.148 A 
ATOM     66  C   UNL A   1      37.531  30.848  32.851  1.00  0.00     0.002 A 
ATOM     67  C   UNL A   1      36.632  31.711  30.771  1.00  0.00     0.091 A 
ATOM     68  F   UNL A   1      37.847  31.371  28.746  1.00  0.00    -0.205 F 
ATOM     69  C   UNL A   1      36.525  31.515  32.157  1.00  0.00     0.022 A 
BRANCH  67  70
ATOM     70  S   UNL A   1      35.323  32.644  29.964  1.00  0.00     0.127 S 
ATOM     71  O   UNL A   1      34.831  31.676  28.986  1.00  0.00    -0.237 OA
ATOM     72  O   UNL A   1      34.402  32.914  31.070  1.00  0.00    -0.237 OA
ATOM     73  O   UNL A   1      35.967  33.830  29.417  1.00  0.00    -0.744 OA
ENDBRANCH  67  70
ENDBRANCH  49  63
BRANCH  50  74
ATOM     74  C   UNL A   1      46.906  27.369  25.973  1.00  0.00     0.023 A 
ATOM     75  C   UNL A   1      47.759  26.445  26.603  1.00  0.00     0.012 A 
ATOM     76  C   UNL A   1      47.177  27.764  24.649  1.00  0.00     0.148 A 
ATOM     77  C   UNL A   1      48.869  25.931  25.932  1.00  0.00     0.002 A 
ATOM     78  C   UNL A   1      48.250  27.203  23.966  1.00  0.00     0.091 A 
ATOM     79  F   UNL A   1      46.369  28.666  24.072  1.00  0.00    -0.205 F 
ATOM     80  C   UNL A   1      49.105  26.296  24.609  1.00  0.00     0.022 A 
BRANCH  78  81
ATOM     81  S   UNL A   1      48.514  27.514  22.216  1.00  0.00     0.127 S 
ATOM     82  O   UNL A   1      49.744  28.299  22.231  1.00  0.00    -0.237 OA
ATOM     83  O   UNL A   1      48.654  26.162  21.673  1.00  0.00    -0.237 OA
ATOM     84  O   UNL A   1      47.312  28.208  21.771  1.00  0.00    -0.744 OA
ENDBRANCH  78  81
ENDBRANCH  50  74
BRANCH  62  85
ATOM     85  C   UNL A   1      45.379  33.167  29.539  1.00  0.00     0.023 A 
ATOM     86  C   UNL A   1      46.189  33.226  30.691  1.00  0.00     0.012 A 
ATOM     87  C   UNL A   1      45.351  34.261  28.655  1.00  0.00     0.148 A 
ATOM     88  C   UNL A   1      46.939  34.367  30.971  1.00  0.00     0.002 A 
ATOM     89  C   UNL A   1      46.130  35.382  28.923  1.00  0.00     0.091 A 
ATOM     90  F   UNL A   1      44.555  34.199  27.577  1.00  0.00    -0.205 F 
ATOM     91  C   UNL A   1      46.918  35.441  30.085  1.00  0.00     0.022 A 
BRANCH  89  92
ATOM     92  S   UNL A   1      46.204  36.769  27.783  1.00  0.00     0.127 S 
ATOM     93  O   UNL A   1      47.473  36.531  27.099  1.00  0.00    -0.237 OA
ATOM     94  O   UNL A   1      45.017  36.565  26.951  1.00  0.00    -0.237 OA
ATOM     95  O   UNL A   1      46.144  37.959  28.622  1.00  0.00    -0.744 OA
ENDBRANCH  89  92
ENDBRANCH  62  85
ENDBRANCH  36  37
ENDBRANCH  29  31
ENDBRANCH  28  29
ENDBRANCH  27  28
ENDBRANCH   1  27
TORSDOF 18
ENDMDL
