MODEL 1
REMARK VINA RESULT:     -11.8      0.000      0.000
REMARK SMILES Cc1ccc(S(=O)(=O)Nc2cc3c(cc2C(=O)OCCOC(=O)c2ccc(-c4c5nc(c(-c6cccc(S(=O)(=O)[O-])c6F)c6ccc([nH]6)c(-c6cccc(S(=O)(=O)[O-])c6F)c6nc(c(-c7cccc(S(=O)(=O)[O-])c7F)c7ccc4[nH]7)C=C6)C=C5)cc2)OCCO3)s1
REMARK SMILES IDX 19 1 18 2 16 3 17 4 15 5 10 6 11 7 12 8 14 9 13 10 90 11
REMARK SMILES IDX 87 12 89 13 88 14 9 15 6 17 7 18 8 19 5 20 1 21 2 22 3 23
REMARK SMILES IDX 91 24 4 25 20 26 21 27 22 28 23 29 24 30 25 31 86 32 26 33
REMARK SMILES IDX 85 34 27 35 28 36 29 37 79 38 30 39 84 40 78 41 80 42 31 43
REMARK SMILES IDX 83 44 77 45 76 46 32 48 64 49 44 50 63 51 45 52 48 53 62 54
REMARK SMILES IDX 81 55 46 56 47 57 61 59 82 60 49 61 33 62 34 63 42 64 35 65
REMARK SMILES IDX 37 66 43 67 36 68 38 69 39 70 40 71 41 72 65 73 66 74 74 75
REMARK SMILES IDX 67 76 69 77 75 78 68 79 70 80 71 81 72 82 73 83 50 84 51 85
REMARK SMILES IDX 59 86 52 87 54 88 60 89 53 90 55 91 56 92 57 93 58 94
REMARK H PARENT 9 16 80 47 48 58
REMARK Flexibility Score: inf
ROOT
ATOM      1  C   UNL A   1      37.017  20.671  25.161  1.00  0.00     0.275 C 
ENDROOT
BRANCH   1   2
ATOM      2  O   UNL A   1      36.499  21.796  24.411  1.00  0.00    -0.458 OA
BRANCH   2   3
ATOM      3  C   UNL A   1      36.283  22.919  25.139  1.00  0.00     0.340 C 
ATOM      4  O   UNL A   1      37.032  23.394  25.978  1.00  0.00    -0.246 OA
BRANCH   3   5
ATOM      5  C   UNL A   1      34.919  23.448  24.960  1.00  0.00     0.088 A 
ATOM      6  C   UNL A   1      33.964  22.788  24.165  1.00  0.00     0.067 A 
ATOM      7  C   UNL A   1      32.881  23.501  23.650  1.00  0.00     0.078 A 
ATOM      8  C   UNL A   1      32.658  24.807  24.059  1.00  0.00     0.163 A 
ATOM      9  C   UNL A   1      34.683  24.761  25.386  1.00  0.00     0.068 A 
ATOM     10  C   UNL A   1      33.517  25.409  24.987  1.00  0.00     0.162 A 
ATOM     11  O   UNL A   1      31.541  25.415  23.553  1.00  0.00    -0.486 OA
ATOM     12  O   UNL A   1      33.260  26.639  25.536  1.00  0.00    -0.486 OA
ATOM     13  C   UNL A   1      31.473  26.797  23.914  1.00  0.00     0.271 C 
ATOM     14  C   UNL A   1      31.874  26.977  25.368  1.00  0.00     0.271 C 
BRANCH   6  15
ATOM     15  N   UNL A   1      33.968  21.365  23.992  1.00  0.00    -0.278 N 
ATOM     16  H   UNL A   1      34.435  20.931  23.242  1.00  0.00     0.180 HD
BRANCH  15  17
ATOM     17  S   UNL A   1      33.104  20.456  25.180  1.00  0.00     0.271 S 
ATOM     18  O   UNL A   1      31.694  20.693  24.932  1.00  0.00    -0.200 OA
ATOM     19  O   UNL A   1      33.682  20.744  26.472  1.00  0.00    -0.200 OA
BRANCH  17  20
ATOM     20  C   UNL A   1      33.435  18.730  24.920  1.00  0.00     0.140 A 
ATOM     21  C   UNL A   1      32.527  14.979  25.377  1.00  0.00     0.056 C 
ATOM     22  C   UNL A   1      33.134  16.298  25.055  1.00  0.00     0.003 A 
ATOM     23  C   UNL A   1      33.888  16.659  23.958  1.00  0.00     0.016 A 
ATOM     24  S   UNL A   1      32.903  17.627  26.112  1.00  0.00    -0.127 S 
ATOM     25  C   UNL A   1      34.109  18.064  23.912  1.00  0.00     0.034 A 
ENDBRANCH  17  20
ENDBRANCH  15  17
ENDBRANCH   6  15
ENDBRANCH   3   5
ENDBRANCH   2   3
ENDBRANCH   1   2
BRANCH   1  26
ATOM     26  C   UNL A   1      38.528  20.491  25.002  1.00  0.00     0.275 C 
BRANCH  26  27
ATOM     27  O   UNL A   1      39.108  19.956  26.207  1.00  0.00    -0.458 OA
BRANCH  27  28
ATOM     28  C   UNL A   1      40.450  19.824  26.133  1.00  0.00     0.338 C 
ATOM     29  O   UNL A   1      41.043  18.829  25.750  1.00  0.00    -0.246 OA
BRANCH  28  30
ATOM     30  C   UNL A   1      41.186  21.039  26.496  1.00  0.00     0.060 A 
ATOM     31  C   UNL A   1      40.755  21.772  27.594  1.00  0.00     0.016 A 
ATOM     32  C   UNL A   1      42.065  21.607  25.570  1.00  0.00     0.016 A 
ATOM     33  C   UNL A   1      41.080  23.122  27.677  1.00  0.00     0.010 A 
ATOM     34  C   UNL A   1      42.500  22.928  25.739  1.00  0.00     0.010 A 
ATOM     35  C   UNL A   1      41.978  23.719  26.772  1.00  0.00    -0.014 A 
BRANCH  35  36
ATOM     36  C   UNL A   1      42.400  25.136  26.977  1.00  0.00     0.031 A 
ATOM     37  C   UNL A   1      43.762  25.644  26.570  1.00  0.00     0.074 A 
ATOM     38  C   UNL A   1      41.518  25.986  27.542  1.00  0.00     0.049 A 
ATOM     39  N   UNL A   1      44.304  26.813  26.813  1.00  0.00    -0.248 NA
ATOM     40  C   UNL A   1      44.627  24.741  25.795  1.00  0.00     0.031 C 
ATOM     41  C   UNL A   1      40.166  25.625  27.977  1.00  0.00     0.029 A 
ATOM     42  N   UNL A   1      41.616  27.320  27.853  1.00  0.00    -0.354 N 
ATOM     43  C   UNL A   1      45.587  26.768  26.272  1.00  0.00     0.074 A 
ATOM     44  C   UNL A   1      45.735  25.463  25.666  1.00  0.00     0.031 C 
ATOM     45  C   UNL A   1      39.545  26.710  28.448  1.00  0.00     0.029 A 
ATOM     46  C   UNL A   1      40.500  27.806  28.494  1.00  0.00     0.049 A 
ATOM     47  H   UNL A   1      42.403  27.871  27.641  1.00  0.00     0.167 HD
ATOM     48  C   UNL A   1      46.545  27.728  26.285  1.00  0.00     0.034 A 
ATOM     49  C   UNL A   1      40.278  28.967  29.136  1.00  0.00     0.034 A 
ATOM     50  C   UNL A   1      46.371  29.042  26.856  1.00  0.00     0.049 A 
ATOM     51  C   UNL A   1      41.371  29.983  29.189  1.00  0.00     0.074 A 
ATOM     52  C   UNL A   1      47.268  30.098  26.875  1.00  0.00     0.029 A 
ATOM     53  N   UNL A   1      45.231  29.481  27.514  1.00  0.00    -0.354 N 
ATOM     54  N   UNL A   1      42.561  29.934  28.644  1.00  0.00    -0.248 NA
ATOM     55  C   UNL A   1      41.096  31.210  29.944  1.00  0.00     0.031 C 
ATOM     56  C   UNL A   1      46.684  31.162  27.572  1.00  0.00     0.029 A 
ATOM     57  C   UNL A   1      45.411  30.781  27.962  1.00  0.00     0.049 A 
ATOM     58  H   UNL A   1      44.414  28.947  27.643  1.00  0.00     0.167 HD
ATOM     59  C   UNL A   1      43.181  31.126  28.988  1.00  0.00     0.074 A 
ATOM     60  C   UNL A   1      42.218  31.891  29.757  1.00  0.00     0.031 C 
ATOM     61  C   UNL A   1      44.441  31.539  28.709  1.00  0.00     0.034 A 
BRANCH  48  62
ATOM     62  C   UNL A   1      47.884  27.425  25.653  1.00  0.00     0.023 A 
ATOM     63  C   UNL A   1      48.906  26.838  26.424  1.00  0.00     0.012 A 
ATOM     64  C   UNL A   1      48.080  27.596  24.267  1.00  0.00     0.148 A 
ATOM     65  C   UNL A   1      50.105  26.438  25.830  1.00  0.00     0.002 A 
ATOM     66  C   UNL A   1      49.262  27.162  23.674  1.00  0.00     0.091 A 
ATOM     67  F   UNL A   1      47.103  28.171  23.551  1.00  0.00    -0.205 F 
ATOM     68  C   UNL A   1      50.277  26.586  24.456  1.00  0.00     0.022 A 
BRANCH  66  69
ATOM     69  S   UNL A   1      49.540  27.232  21.899  1.00  0.00     0.127 S 
ATOM     70  O   UNL A   1      50.964  26.918  21.809  1.00  0.00    -0.237 OA
ATOM     71  O   UNL A   1      48.652  26.179  21.403  1.00  0.00    -0.237 OA
ATOM     72  O   UNL A   1      49.167  28.578  21.487  1.00  0.00    -0.744 OA
ENDBRANCH  66  69
ENDBRANCH  48  62
BRANCH  49  73
ATOM     73  C   UNL A   1      38.969  29.172  29.818  1.00  0.00     0.023 A 
ATOM     74  C   UNL A   1      38.763  28.652  31.107  1.00  0.00     0.012 A 
ATOM     75  C   UNL A   1      37.981  29.994  29.238  1.00  0.00     0.148 A 
ATOM     76  C   UNL A   1      37.596  28.955  31.810  1.00  0.00     0.002 A 
ATOM     77  C   UNL A   1      36.863  30.358  29.975  1.00  0.00     0.091 A 
ATOM     78  F   UNL A   1      38.182  30.454  27.994  1.00  0.00    -0.205 F 
ATOM     79  C   UNL A   1      36.660  29.826  31.256  1.00  0.00     0.022 A 
BRANCH  77  80
ATOM     80  S   UNL A   1      35.735  31.636  29.407  1.00  0.00     0.127 S 
ATOM     81  O   UNL A   1      36.658  32.685  28.984  1.00  0.00    -0.237 OA
ATOM     82  O   UNL A   1      35.026  30.961  28.319  1.00  0.00    -0.237 OA
ATOM     83  O   UNL A   1      34.894  31.948  30.556  1.00  0.00    -0.744 OA
ENDBRANCH  77  80
ENDBRANCH  49  73
BRANCH  61  84
ATOM     84  C   UNL A   1      44.844  32.887  29.240  1.00  0.00     0.023 A 
ATOM     85  C   UNL A   1      45.493  32.974  30.489  1.00  0.00     0.012 A 
ATOM     86  C   UNL A   1      44.599  34.059  28.503  1.00  0.00     0.148 A 
ATOM     87  C   UNL A   1      45.853  34.214  31.013  1.00  0.00     0.002 A 
ATOM     88  C   UNL A   1      45.001  35.288  29.012  1.00  0.00     0.091 A 
ATOM     89  F   UNL A   1      43.961  33.954  27.327  1.00  0.00    -0.205 F 
ATOM     90  C   UNL A   1      45.617  35.368  30.272  1.00  0.00     0.022 A 
BRANCH  88  91
ATOM     91  S   UNL A   1      44.803  36.820  28.097  1.00  0.00     0.127 S 
ATOM     92  O   UNL A   1      45.643  36.579  26.924  1.00  0.00    -0.237 OA
ATOM     93  O   UNL A   1      43.365  36.836  27.824  1.00  0.00    -0.237 OA
ATOM     94  O   UNL A   1      45.260  37.880  28.985  1.00  0.00    -0.744 OA
ENDBRANCH  88  91
ENDBRANCH  61  84
ENDBRANCH  35  36
ENDBRANCH  28  30
ENDBRANCH  27  28
ENDBRANCH  26  27
ENDBRANCH   1  26
TORSDOF 17
ENDMDL
MODEL 2
REMARK VINA RESULT:     -11.6      2.098      2.828
REMARK SMILES Cc1ccc(S(=O)(=O)Nc2cc3c(cc2C(=O)OCCOC(=O)c2ccc(-c4c5nc(c(-c6cccc(S(=O)(=O)[O-])c6F)c6ccc([nH]6)c(-c6cccc(S(=O)(=O)[O-])c6F)c6nc(c(-c7cccc(S(=O)(=O)[O-])c7F)c7ccc4[nH]7)C=C6)C=C5)cc2)OCCO3)s1
REMARK SMILES IDX 19 1 18 2 16 3 17 4 15 5 10 6 11 7 12 8 14 9 13 10 90 11
REMARK SMILES IDX 87 12 89 13 88 14 9 15 6 17 7 18 8 19 5 20 1 21 2 22 3 23
REMARK SMILES IDX 91 24 4 25 20 26 21 27 22 28 23 29 24 30 25 31 86 32 26 33
REMARK SMILES IDX 85 34 27 35 28 36 29 37 79 38 30 39 84 40 78 41 80 42 31 43
REMARK SMILES IDX 83 44 77 45 76 46 32 48 64 49 44 50 63 51 45 52 48 53 62 54
REMARK SMILES IDX 81 55 46 56 47 57 61 59 82 60 49 61 33 62 34 63 42 64 35 65
REMARK SMILES IDX 37 66 43 67 36 68 38 69 39 70 40 71 41 72 65 73 66 74 74 75
REMARK SMILES IDX 67 76 69 77 75 78 68 79 70 80 71 81 72 82 73 83 50 84 51 85
REMARK SMILES IDX 59 86 52 87 54 88 60 89 53 90 55 91 56 92 57 93 58 94
REMARK H PARENT 9 16 80 47 48 58
REMARK Flexibility Score: inf
ROOT
ATOM      1  C   UNL A   1      35.906  21.570  24.706  1.00  0.00     0.275 C 
ENDROOT
BRANCH   1   2
ATOM      2  O   UNL A   1      35.693  22.997  24.820  1.00  0.00    -0.458 OA
BRANCH   2   3
ATOM      3  C   UNL A   1      35.132  23.582  23.733  1.00  0.00     0.340 C 
ATOM      4  O   UNL A   1      35.420  23.369  22.565  1.00  0.00    -0.246 OA
BRANCH   3   5
ATOM      5  C   UNL A   1      34.226  24.687  24.096  1.00  0.00     0.088 A 
ATOM      6  C   UNL A   1      33.168  25.085  23.259  1.00  0.00     0.067 A 
ATOM      7  C   UNL A   1      32.634  26.368  23.384  1.00  0.00     0.078 A 
ATOM      8  C   UNL A   1      33.027  27.180  24.437  1.00  0.00     0.163 A 
ATOM      9  C   UNL A   1      34.610  25.500  25.170  1.00  0.00     0.068 A 
ATOM     10  C   UNL A   1      33.958  26.714  25.372  1.00  0.00     0.162 A 
ATOM     11  O   UNL A   1      32.411  28.400  24.521  1.00  0.00    -0.486 OA
ATOM     12  O   UNL A   1      34.270  27.413  26.511  1.00  0.00    -0.486 OA
ATOM     13  C   UNL A   1      32.981  29.218  25.545  1.00  0.00     0.271 C 
ATOM     14  C   UNL A   1      33.251  28.387  26.788  1.00  0.00     0.271 C 
BRANCH   6  15
ATOM     15  N   UNL A   1      32.501  24.168  22.383  1.00  0.00    -0.278 N 
ATOM     16  H   UNL A   1      32.721  24.107  21.425  1.00  0.00     0.180 HD
BRANCH  15  17
ATOM     17  S   UNL A   1      31.289  23.174  23.109  1.00  0.00     0.271 S 
ATOM     18  O   UNL A   1      31.489  21.835  22.586  1.00  0.00    -0.200 OA
ATOM     19  O   UNL A   1      30.016  23.838  22.960  1.00  0.00    -0.200 OA
BRANCH  17  20
ATOM     20  C   UNL A   1      31.568  23.136  24.863  1.00  0.00     0.140 A 
ATOM     21  C   UNL A   1      33.637  22.033  27.962  1.00  0.00     0.056 C 
ATOM     22  C   UNL A   1      32.650  22.582  26.995  1.00  0.00     0.003 A 
ATOM     23  C   UNL A   1      31.892  23.730  27.090  1.00  0.00     0.016 A 
ATOM     24  S   UNL A   1      32.357  21.767  25.517  1.00  0.00    -0.127 S 
ATOM     25  C   UNL A   1      31.220  24.019  25.869  1.00  0.00     0.034 A 
ENDBRANCH  17  20
ENDBRANCH  15  17
ENDBRANCH   6  15
ENDBRANCH   3   5
ENDBRANCH   2   3
ENDBRANCH   1   2
BRANCH   1  26
ATOM     26  C   UNL A   1      37.381  21.177  24.792  1.00  0.00     0.275 C 
BRANCH  26  27
ATOM     27  O   UNL A   1      37.855  21.264  26.149  1.00  0.00    -0.458 OA
BRANCH  27  28
ATOM     28  C   UNL A   1      39.180  21.512  26.231  1.00  0.00     0.338 C 
ATOM     29  O   UNL A   1      40.062  20.800  25.781  1.00  0.00    -0.246 OA
BRANCH  28  30
ATOM     30  C   UNL A   1      39.505  22.792  26.868  1.00  0.00     0.060 A 
ATOM     31  C   UNL A   1      38.952  23.953  26.345  1.00  0.00     0.016 A 
ATOM     32  C   UNL A   1      40.592  22.862  27.744  1.00  0.00     0.016 A 
ATOM     33  C   UNL A   1      39.586  25.170  26.575  1.00  0.00     0.010 A 
ATOM     34  C   UNL A   1      41.138  24.107  28.082  1.00  0.00     0.010 A 
ATOM     35  C   UNL A   1      40.670  25.276  27.467  1.00  0.00    -0.014 A 
BRANCH  35  36
ATOM     36  C   UNL A   1      41.236  26.620  27.784  1.00  0.00     0.031 A 
ATOM     37  C   UNL A   1      42.684  26.970  27.539  1.00  0.00     0.074 A 
ATOM     38  C   UNL A   1      40.409  27.551  28.303  1.00  0.00     0.049 A 
ATOM     39  N   UNL A   1      43.335  28.052  27.892  1.00  0.00    -0.248 NA
ATOM     40  C   UNL A   1      43.509  25.997  26.806  1.00  0.00     0.031 C 
ATOM     41  C   UNL A   1      38.985  27.345  28.586  1.00  0.00     0.029 A 
ATOM     42  N   UNL A   1      40.634  28.850  28.691  1.00  0.00    -0.354 N 
ATOM     43  C   UNL A   1      44.651  27.868  27.478  1.00  0.00     0.074 A 
ATOM     44  C   UNL A   1      44.703  26.579  26.823  1.00  0.00     0.031 C 
ATOM     45  C   UNL A   1      38.455  28.480  29.049  1.00  0.00     0.029 A 
ATOM     46  C   UNL A   1      39.524  29.446  29.244  1.00  0.00     0.049 A 
ATOM     47  H   UNL A   1      41.499  29.306  28.584  1.00  0.00     0.167 HD
ATOM     48  C   UNL A   1      45.711  28.700  27.633  1.00  0.00     0.034 A 
ATOM     49  C   UNL A   1      39.379  30.600  29.920  1.00  0.00     0.034 A 
ATOM     50  C   UNL A   1      45.639  30.002  28.251  1.00  0.00     0.049 A 
ATOM     51  C   UNL A   1      40.575  31.468  30.132  1.00  0.00     0.074 A 
ATOM     52  C   UNL A   1      46.649  30.936  28.412  1.00  0.00     0.029 A 
ATOM     53  N   UNL A   1      44.499  30.554  28.816  1.00  0.00    -0.354 N 
ATOM     54  N   UNL A   1      41.801  31.293  29.703  1.00  0.00    -0.248 NA
ATOM     55  C   UNL A   1      40.373  32.690  30.918  1.00  0.00     0.031 C 
ATOM     56  C   UNL A   1      46.129  32.037  29.102  1.00  0.00     0.029 A 
ATOM     57  C   UNL A   1      44.786  31.802  29.346  1.00  0.00     0.049 A 
ATOM     58  H   UNL A   1      43.615  30.122  28.838  1.00  0.00     0.167 HD
ATOM     59  C   UNL A   1      42.520  32.383  30.166  1.00  0.00     0.074 A 
ATOM     60  C   UNL A   1      41.583  33.232  30.876  1.00  0.00     0.031 C 
ATOM     61  C   UNL A   1      43.843  32.647  30.033  1.00  0.00     0.034 A 
BRANCH  48  62
ATOM     62  C   UNL A   1      47.062  28.256  27.120  1.00  0.00     0.023 A 
ATOM     63  C   UNL A   1      48.091  27.947  28.031  1.00  0.00     0.012 A 
ATOM     64  C   UNL A   1      47.266  28.017  25.745  1.00  0.00     0.148 A 
ATOM     65  C   UNL A   1      49.303  27.419  27.582  1.00  0.00     0.002 A 
ATOM     66  C   UNL A   1      48.462  27.456  25.308  1.00  0.00     0.091 A 
ATOM     67  F   UNL A   1      46.282  28.333  24.890  1.00  0.00    -0.205 F 
ATOM     68  C   UNL A   1      49.483  27.161  26.225  1.00  0.00     0.022 A 
BRANCH  66  69
ATOM     69  S   UNL A   1      48.752  27.008  23.591  1.00  0.00     0.127 S 
ATOM     70  O   UNL A   1      48.350  28.228  22.893  1.00  0.00    -0.237 OA
ATOM     71  O   UNL A   1      50.192  26.745  23.577  1.00  0.00    -0.237 OA
ATOM     72  O   UNL A   1      47.923  25.838  23.335  1.00  0.00    -0.744 OA
ENDBRANCH  66  69
ENDBRANCH  48  62
BRANCH  49  73
ATOM     73  C   UNL A   1      38.041  30.940  30.480  1.00  0.00     0.023 A 
ATOM     74  C   UNL A   1      37.748  30.640  31.821  1.00  0.00     0.012 A 
ATOM     75  C   UNL A   1      37.112  31.678  29.719  1.00  0.00     0.148 A 
ATOM     76  C   UNL A   1      36.553  31.077  32.396  1.00  0.00     0.002 A 
ATOM     77  C   UNL A   1      35.967  32.180  30.320  1.00  0.00     0.091 A 
ATOM     78  F   UNL A   1      37.397  31.927  28.431  1.00  0.00    -0.205 F 
ATOM     79  C   UNL A   1      35.677  31.867  31.654  1.00  0.00     0.022 A 
BRANCH  77  80
ATOM     80  S   UNL A   1      34.912  33.373  29.488  1.00  0.00     0.127 S 
ATOM     81  O   UNL A   1      33.924  33.674  30.520  1.00  0.00    -0.237 OA
ATOM     82  O   UNL A   1      35.847  34.459  29.193  1.00  0.00    -0.237 OA
ATOM     83  O   UNL A   1      34.411  32.687  28.303  1.00  0.00    -0.744 OA
ENDBRANCH  77  80
ENDBRANCH  49  73
BRANCH  61  84
ATOM     84  C   UNL A   1      44.349  33.912  30.669  1.00  0.00     0.023 A 
ATOM     85  C   UNL A   1      44.866  33.870  31.981  1.00  0.00     0.012 A 
ATOM     86  C   UNL A   1      44.328  35.132  29.971  1.00  0.00     0.148 A 
ATOM     87  C   UNL A   1      45.317  35.033  32.600  1.00  0.00     0.002 A 
ATOM     88  C   UNL A   1      44.821  36.280  30.579  1.00  0.00     0.091 A 
ATOM     89  F   UNL A   1      43.812  35.153  28.732  1.00  0.00    -0.205 F 
ATOM     90  C   UNL A   1      45.304  36.235  31.897  1.00  0.00     0.022 A 
BRANCH  88  91
ATOM     91  S   UNL A   1      44.910  37.859  29.727  1.00  0.00     0.127 S 
ATOM     92  O   UNL A   1      43.847  37.720  28.731  1.00  0.00    -0.237 OA
ATOM     93  O   UNL A   1      44.619  38.809  30.800  1.00  0.00    -0.237 OA
ATOM     94  O   UNL A   1      46.261  37.949  29.190  1.00  0.00    -0.744 OA
ENDBRANCH  88  91
ENDBRANCH  61  84
ENDBRANCH  35  36
ENDBRANCH  28  30
ENDBRANCH  27  28
ENDBRANCH  26  27
ENDBRANCH   1  26
TORSDOF 17
ENDMDL
MODEL 3
REMARK VINA RESULT:     -11.4      3.474      4.200
REMARK SMILES Cc1ccc(S(=O)(=O)Nc2cc3c(cc2C(=O)OCCOC(=O)c2ccc(-c4c5nc(c(-c6cccc(S(=O)(=O)[O-])c6F)c6ccc([nH]6)c(-c6cccc(S(=O)(=O)[O-])c6F)c6nc(c(-c7cccc(S(=O)(=O)[O-])c7F)c7ccc4[nH]7)C=C6)C=C5)cc2)OCCO3)s1
REMARK SMILES IDX 19 1 18 2 16 3 17 4 15 5 10 6 11 7 12 8 14 9 13 10 90 11
REMARK SMILES IDX 87 12 89 13 88 14 9 15 6 17 7 18 8 19 5 20 1 21 2 22 3 23
REMARK SMILES IDX 91 24 4 25 20 26 21 27 22 28 23 29 24 30 25 31 86 32 26 33
REMARK SMILES IDX 85 34 27 35 28 36 29 37 79 38 30 39 84 40 78 41 80 42 31 43
REMARK SMILES IDX 83 44 77 45 76 46 32 48 64 49 44 50 63 51 45 52 48 53 62 54
REMARK SMILES IDX 81 55 46 56 47 57 61 59 82 60 49 61 33 62 34 63 42 64 35 65
REMARK SMILES IDX 37 66 43 67 36 68 38 69 39 70 40 71 41 72 65 73 66 74 74 75
REMARK SMILES IDX 67 76 69 77 75 78 68 79 70 80 71 81 72 82 73 83 50 84 51 85
REMARK SMILES IDX 59 86 52 87 54 88 60 89 53 90 55 91 56 92 57 93 58 94
REMARK H PARENT 9 16 80 47 48 58
REMARK Flexibility Score: inf
ROOT
ATOM      1  C   UNL A   1      36.885  22.890  25.753  1.00  0.00     0.275 C 
ENDROOT
BRANCH   1   2
ATOM      2  O   UNL A   1      36.620  23.776  24.640  1.00  0.00    -0.458 OA
BRANCH   2   3
ATOM      3  C   UNL A   1      35.338  23.776  24.200  1.00  0.00     0.340 C 
ATOM      4  O   UNL A   1      34.951  23.430  23.094  1.00  0.00    -0.246 OA
BRANCH   3   5
ATOM      5  C   UNL A   1      34.420  24.432  25.148  1.00  0.00     0.088 A 
ATOM      6  C   UNL A   1      33.278  23.780  25.649  1.00  0.00     0.067 A 
ATOM      7  C   UNL A   1      32.218  24.533  26.154  1.00  0.00     0.078 A 
ATOM      8  C   UNL A   1      32.361  25.903  26.317  1.00  0.00     0.163 A 
ATOM      9  C   UNL A   1      34.570  25.812  25.330  1.00  0.00     0.068 A 
ATOM     10  C   UNL A   1      33.566  26.528  25.977  1.00  0.00     0.162 A 
ATOM     11  O   UNL A   1      31.296  26.558  26.875  1.00  0.00    -0.486 OA
ATOM     12  O   UNL A   1      33.813  27.849  26.255  1.00  0.00    -0.486 OA
ATOM     13  C   UNL A   1      31.478  27.976  26.870  1.00  0.00     0.271 C 
ATOM     14  C   UNL A   1      32.904  28.321  27.262  1.00  0.00     0.271 C 
BRANCH   6  15
ATOM     15  N   UNL A   1      33.222  22.357  25.812  1.00  0.00    -0.278 N 
ATOM     16  H   UNL A   1      33.828  21.877  26.422  1.00  0.00     0.180 HD
BRANCH  15  17
ATOM     17  S   UNL A   1      32.027  21.534  24.875  1.00  0.00     0.271 S 
ATOM     18  O   UNL A   1      32.095  22.097  23.539  1.00  0.00    -0.200 OA
ATOM     19  O   UNL A   1      30.788  21.549  25.616  1.00  0.00    -0.200 OA
BRANCH  17  20
ATOM     20  C   UNL A   1      32.468  19.816  24.781  1.00  0.00     0.140 A 
ATOM     21  C   UNL A   1      33.990  16.787  22.882  1.00  0.00     0.056 C 
ATOM     22  C   UNL A   1      33.343  17.729  23.834  1.00  0.00     0.003 A 
ATOM     23  C   UNL A   1      33.352  17.706  25.213  1.00  0.00     0.016 A 
ATOM     24  S   UNL A   1      32.463  19.073  23.242  1.00  0.00    -0.127 S 
ATOM     25  C   UNL A   1      32.793  18.895  25.761  1.00  0.00     0.034 A 
ENDBRANCH  17  20
ENDBRANCH  15  17
ENDBRANCH   6  15
ENDBRANCH   3   5
ENDBRANCH   2   3
ENDBRANCH   1   2
BRANCH   1  26
ATOM     26  C   UNL A   1      38.266  22.237  25.683  1.00  0.00     0.275 C 
BRANCH  26  27
ATOM     27  O   UNL A   1      39.066  22.609  26.822  1.00  0.00    -0.458 OA
BRANCH  27  28
ATOM     28  C   UNL A   1      40.390  22.615  26.557  1.00  0.00     0.338 C 
ATOM     29  O   UNL A   1      41.019  21.687  26.075  1.00  0.00    -0.246 OA
BRANCH  28  30
ATOM     30  C   UNL A   1      41.046  23.895  26.839  1.00  0.00     0.060 A 
ATOM     31  C   UNL A   1      41.560  24.112  28.110  1.00  0.00     0.016 A 
ATOM     32  C   UNL A   1      40.850  24.969  25.966  1.00  0.00     0.016 A 
ATOM     33  C   UNL A   1      41.730  25.417  28.560  1.00  0.00     0.010 A 
ATOM     34  C   UNL A   1      41.156  26.272  26.381  1.00  0.00     0.010 A 
ATOM     35  C   UNL A   1      41.560  26.519  27.700  1.00  0.00    -0.014 A 
BRANCH  35  36
ATOM     36  C   UNL A   1      41.878  27.893  28.188  1.00  0.00     0.031 A 
ATOM     37  C   UNL A   1      43.285  28.439  28.214  1.00  0.00     0.074 A 
ATOM     38  C   UNL A   1      40.860  28.667  28.615  1.00  0.00     0.049 A 
ATOM     39  N   UNL A   1      43.717  29.562  28.736  1.00  0.00    -0.248 NA
ATOM     40  C   UNL A   1      44.342  27.640  27.574  1.00  0.00     0.031 C 
ATOM     41  C   UNL A   1      39.451  28.262  28.639  1.00  0.00     0.029 A 
ATOM     42  N   UNL A   1      40.840  29.947  29.112  1.00  0.00    -0.354 N 
ATOM     43  C   UNL A   1      45.095  29.579  28.541  1.00  0.00     0.074 A 
ATOM     44  C   UNL A   1      45.427  28.364  27.828  1.00  0.00     0.031 C 
ATOM     45  C   UNL A   1      38.702  29.280  29.073  1.00  0.00     0.029 A 
ATOM     46  C   UNL A   1      39.584  30.353  29.504  1.00  0.00     0.049 A 
ATOM     47  H   UNL A   1      41.640  30.515  29.181  1.00  0.00     0.167 HD
ATOM     48  C   UNL A   1      45.993  30.521  28.923  1.00  0.00     0.034 A 
ATOM     49  C   UNL A   1      39.177  31.420  30.213  1.00  0.00     0.034 A 
ATOM     50  C   UNL A   1      45.645  31.749  29.597  1.00  0.00     0.049 A 
ATOM     51  C   UNL A   1      40.193  32.412  30.676  1.00  0.00     0.074 A 
ATOM     52  C   UNL A   1      46.479  32.786  29.982  1.00  0.00     0.029 A 
ATOM     53  N   UNL A   1      44.364  32.106  29.992  1.00  0.00    -0.354 N 
ATOM     54  N   UNL A   1      41.484  32.426  30.452  1.00  0.00    -0.248 NA
ATOM     55  C   UNL A   1      39.702  33.530  31.488  1.00  0.00     0.031 C 
ATOM     56  C   UNL A   1      45.709  33.753  30.639  1.00  0.00     0.029 A 
ATOM     57  C   UNL A   1      44.389  33.333  30.637  1.00  0.00     0.049 A 
ATOM     58  H   UNL A   1      43.556  31.566  29.838  1.00  0.00     0.167 HD
ATOM     59  C   UNL A   1      41.964  33.557  31.094  1.00  0.00     0.074 A 
ATOM     60  C   UNL A   1      40.817  34.221  31.685  1.00  0.00     0.031 C 
ATOM     61  C   UNL A   1      43.242  33.994  31.204  1.00  0.00     0.034 A 
BRANCH  48  62
ATOM     62  C   UNL A   1      47.456  30.293  28.621  1.00  0.00     0.023 A 
ATOM     63  C   UNL A   1      48.032  30.865  27.469  1.00  0.00     0.012 A 
ATOM     64  C   UNL A   1      48.286  29.628  29.547  1.00  0.00     0.148 A 
ATOM     65  C   UNL A   1      49.406  30.769  27.239  1.00  0.00     0.002 A 
ATOM     66  C   UNL A   1      49.659  29.568  29.330  1.00  0.00     0.091 A 
ATOM     67  F   UNL A   1      47.719  29.075  30.629  1.00  0.00    -0.205 F 
ATOM     68  C   UNL A   1      50.219  30.134  28.174  1.00  0.00     0.022 A 
BRANCH  66  69
ATOM     69  S   UNL A   1      50.798  28.847  30.520  1.00  0.00     0.127 S 
ATOM     70  O   UNL A   1      52.089  29.075  29.872  1.00  0.00    -0.237 OA
ATOM     71  O   UNL A   1      50.563  29.664  31.711  1.00  0.00    -0.237 OA
ATOM     72  O   UNL A   1      50.404  27.452  30.659  1.00  0.00    -0.744 OA
ENDBRANCH  66  69
ENDBRANCH  48  62
BRANCH  49  73
ATOM     73  C   UNL A   1      37.732  31.543  30.558  1.00  0.00     0.023 A 
ATOM     74  C   UNL A   1      37.271  31.093  31.807  1.00  0.00     0.012 A 
ATOM     75  C   UNL A   1      36.847  32.227  29.700  1.00  0.00     0.148 A 
ATOM     76  C   UNL A   1      35.951  31.329  32.196  1.00  0.00     0.002 A 
ATOM     77  C   UNL A   1      35.562  32.530  30.128  1.00  0.00     0.091 A 
ATOM     78  F   UNL A   1      37.298  32.621  28.499  1.00  0.00    -0.205 F 
ATOM     79  C   UNL A   1      35.106  32.067  31.370  1.00  0.00     0.022 A 
BRANCH  77  80
ATOM     80  S   UNL A   1      34.503  33.653  29.209  1.00  0.00     0.127 S 
ATOM     81  O   UNL A   1      33.855  32.750  28.263  1.00  0.00    -0.237 OA
ATOM     82  O   UNL A   1      33.628  34.180  30.258  1.00  0.00    -0.237 OA
ATOM     83  O   UNL A   1      35.401  34.647  28.634  1.00  0.00    -0.744 OA
ENDBRANCH  77  80
ENDBRANCH  49  73
BRANCH  61  84
ATOM     84  C   UNL A   1      43.461  35.255  31.991  1.00  0.00     0.023 A 
ATOM     85  C   UNL A   1      43.610  36.481  31.310  1.00  0.00     0.012 A 
ATOM     86  C   UNL A   1      43.503  35.235  33.397  1.00  0.00     0.148 A 
ATOM     87  C   UNL A   1      43.839  37.659  32.016  1.00  0.00     0.002 A 
ATOM     88  C   UNL A   1      43.687  36.421  34.097  1.00  0.00     0.091 A 
ATOM     89  F   UNL A   1      43.379  34.054  34.024  1.00  0.00    -0.205 F 
ATOM     90  C   UNL A   1      43.868  37.631  33.408  1.00  0.00     0.022 A 
BRANCH  88  91
ATOM     91  S   UNL A   1      43.667  36.493  35.891  1.00  0.00     0.127 S 
ATOM     92  O   UNL A   1      43.865  37.921  36.135  1.00  0.00    -0.237 OA
ATOM     93  O   UNL A   1      42.326  36.000  36.208  1.00  0.00    -0.237 OA
ATOM     94  O   UNL A   1      44.749  35.627  36.339  1.00  0.00    -0.744 OA
ENDBRANCH  88  91
ENDBRANCH  61  84
ENDBRANCH  35  36
ENDBRANCH  28  30
ENDBRANCH  27  28
ENDBRANCH  26  27
ENDBRANCH   1  26
TORSDOF 17
ENDMDL
