MODEL 1
REMARK VINA RESULT:     -12.8      0.000      0.000
REMARK SMILES CN1C(=O)C[C@@H](C(=O)OCCOC(=O)c2ccc(-c3c4nc(c(-c5cccc(S(=O)(=O)[O-])c5F)c5ccc([nH]5)c(-c5cccc(S(=O)(=O)[O-])c5F)c5nc(c(-c6cccc(S(=O)(=O)[O-])c6F)c6ccc3[nH]6)C=C5)C=C4)cc2)C12CCN(c1ccc(Cl)cn1)CC2
REMARK SMILES IDX 11 1 10 2 9 3 7 4 8 5 6 6 1 7 2 8 3 9 78 10 4 11 5 12 79 13
REMARK SMILES IDX 90 14 80 15 89 16 81 17 82 18 83 19 88 20 84 21 87 22 85 23
REMARK SMILES IDX 86 24 12 25 13 26 14 27 15 28 16 29 77 30 17 31 76 32 18 33
REMARK SMILES IDX 19 34 20 35 70 36 21 37 75 38 69 39 71 40 22 41 74 42 68 43
REMARK SMILES IDX 67 44 23 46 55 47 35 48 54 49 36 50 39 51 53 52 72 53 37 54
REMARK SMILES IDX 38 55 52 57 73 58 40 59 24 60 25 61 33 62 26 63 28 64 34 65
REMARK SMILES IDX 27 66 29 67 30 68 31 69 32 70 56 71 57 72 65 73 58 74 60 75
REMARK SMILES IDX 66 76 59 77 61 78 62 79 63 80 64 81 41 82 42 83 50 84 43 85
REMARK SMILES IDX 45 86 51 87 44 88 46 89 47 90 48 91 49 92
REMARK H PARENT 71 45 39 56
REMARK Flexibility Score: inf
ROOT
ATOM      1  C   UNL A   1      35.813  20.727  25.025  1.00  0.00     0.275 C 
ENDROOT
BRANCH   1   2
ATOM      2  C   UNL A   1      34.653  21.517  24.418  1.00  0.00     0.274 C 
BRANCH   2   3
ATOM      3  O   UNL A   1      34.858  22.941  24.540  1.00  0.00    -0.462 OA
BRANCH   3   4
ATOM      4  C   UNL A   1      33.827  23.701  24.115  1.00  0.00     0.311 C 
ATOM      5  O   UNL A   1      33.411  23.696  22.959  1.00  0.00    -0.252 OA
BRANCH   4   6
ATOM      6  C   UNL A   1      33.198  24.621  25.148  1.00  0.00     0.134 C 
ATOM      7  C   UNL A   1      30.050  23.498  26.876  1.00  0.00     0.147 C 
ATOM      8  N   UNL A   1      31.371  23.768  26.339  1.00  0.00    -0.339 N 
ATOM      9  C   UNL A   1      32.494  23.345  27.037  1.00  0.00     0.223 C 
ATOM     10  C   UNL A   1      31.670  24.826  25.353  1.00  0.00     0.060 C 
ATOM     11  O   UNL A   1      32.511  22.572  27.983  1.00  0.00    -0.275 OA
ATOM     12  C   UNL A   1      33.689  24.075  26.501  1.00  0.00     0.118 C 
ATOM     13  C   UNL A   1      30.763  24.712  24.105  1.00  0.00     0.051 C 
ATOM     14  C   UNL A   1      31.437  26.230  26.024  1.00  0.00     0.051 C 
ATOM     15  C   UNL A   1      30.840  25.920  23.185  1.00  0.00     0.120 C 
ATOM     16  C   UNL A   1      31.425  27.413  25.040  1.00  0.00     0.120 C 
ATOM     17  N   UNL A   1      30.488  27.092  23.976  1.00  0.00    -0.356 N 
BRANCH  17  18
ATOM     18  C   UNL A   1      29.904  28.138  23.270  1.00  0.00     0.128 A 
ATOM     19  C   UNL A   1      28.508  28.203  23.196  1.00  0.00     0.048 A 
ATOM     20  N   UNL A   1      30.677  29.067  22.675  1.00  0.00    -0.238 NA
ATOM     21  C   UNL A   1      27.888  29.214  22.464  1.00  0.00     0.026 A 
ATOM     22  C   UNL A   1      30.053  30.040  21.956  1.00  0.00     0.134 A 
ATOM     23  C   UNL A   1      28.679  30.146  21.816  1.00  0.00     0.059 A 
ATOM     24  Cl  UNL A   1      27.969  31.389  20.875  1.00  0.00    -0.083 Cl
ENDBRANCH  17  18
ENDBRANCH   4   6
ENDBRANCH   3   4
ENDBRANCH   2   3
ENDBRANCH   1   2
BRANCH   1  25
ATOM     25  O   UNL A   1      36.689  21.596  25.762  1.00  0.00    -0.458 OA
BRANCH  25  26
ATOM     26  C   UNL A   1      38.002  21.271  25.727  1.00  0.00     0.338 C 
ATOM     27  O   UNL A   1      38.480  20.203  25.378  1.00  0.00    -0.246 OA
BRANCH  26  28
ATOM     28  C   UNL A   1      38.840  22.419  26.126  1.00  0.00     0.060 A 
ATOM     29  C   UNL A   1      39.995  22.234  26.889  1.00  0.00     0.016 A 
ATOM     30  C   UNL A   1      38.389  23.708  25.849  1.00  0.00     0.016 A 
ATOM     31  C   UNL A   1      40.660  23.331  27.434  1.00  0.00     0.010 A 
ATOM     32  C   UNL A   1      39.115  24.809  26.313  1.00  0.00     0.010 A 
ATOM     33  C   UNL A   1      40.242  24.634  27.133  1.00  0.00    -0.014 A 
BRANCH  33  34
ATOM     34  C   UNL A   1      40.997  25.818  27.624  1.00  0.00     0.031 A 
ATOM     35  C   UNL A   1      40.304  26.911  28.391  1.00  0.00     0.074 A 
ATOM     36  C   UNL A   1      42.297  25.958  27.299  1.00  0.00     0.049 A 
ATOM     37  N   UNL A   1      40.750  28.092  28.736  1.00  0.00    -0.248 NA
ATOM     38  C   UNL A   1      38.917  26.649  28.807  1.00  0.00     0.031 C 
ATOM     39  C   UNL A   1      43.084  24.990  26.533  1.00  0.00     0.029 A 
ATOM     40  N   UNL A   1      43.173  26.992  27.529  1.00  0.00    -0.354 N 
ATOM     41  C   UNL A   1      39.687  28.736  29.358  1.00  0.00     0.074 A 
ATOM     42  C   UNL A   1      38.570  27.814  29.337  1.00  0.00     0.031 C 
ATOM     43  C   UNL A   1      44.314  25.483  26.333  1.00  0.00     0.029 A 
ATOM     44  C   UNL A   1      44.384  26.826  26.899  1.00  0.00     0.049 A 
ATOM     45  H   UNL A   1      42.954  27.772  28.088  1.00  0.00     0.167 HD
ATOM     46  C   UNL A   1      39.647  29.973  29.908  1.00  0.00     0.034 A 
ATOM     47  C   UNL A   1      45.421  27.672  26.741  1.00  0.00     0.034 A 
ATOM     48  C   UNL A   1      40.769  30.872  29.965  1.00  0.00     0.049 A 
ATOM     49  C   UNL A   1      45.359  29.036  27.359  1.00  0.00     0.074 A 
ATOM     50  C   UNL A   1      40.847  32.115  30.570  1.00  0.00     0.029 A 
ATOM     51  N   UNL A   1      42.006  30.634  29.385  1.00  0.00    -0.354 N 
ATOM     52  N   UNL A   1      44.388  29.583  28.050  1.00  0.00    -0.248 NA
ATOM     53  C   UNL A   1      46.542  29.893  27.199  1.00  0.00     0.031 C 
ATOM     54  C   UNL A   1      42.127  32.636  30.340  1.00  0.00     0.029 A 
ATOM     55  C   UNL A   1      42.850  31.710  29.604  1.00  0.00     0.049 A 
ATOM     56  H   UNL A   1      42.249  29.818  28.890  1.00  0.00     0.167 HD
ATOM     57  C   UNL A   1      44.847  30.841  28.422  1.00  0.00     0.074 A 
ATOM     58  C   UNL A   1      46.194  30.963  27.902  1.00  0.00     0.031 C 
ATOM     59  C   UNL A   1      44.202  31.810  29.116  1.00  0.00     0.034 A 
BRANCH  46  60
ATOM     60  C   UNL A   1      38.348  30.415  30.531  1.00  0.00     0.023 A 
ATOM     61  C   UNL A   1      38.069  30.084  31.872  1.00  0.00     0.012 A 
ATOM     62  C   UNL A   1      37.423  31.193  29.806  1.00  0.00     0.148 A 
ATOM     63  C   UNL A   1      36.877  30.490  32.472  1.00  0.00     0.002 A 
ATOM     64  C   UNL A   1      36.254  31.626  30.423  1.00  0.00     0.091 A 
ATOM     65  F   UNL A   1      37.688  31.476  28.522  1.00  0.00    -0.205 F 
ATOM     66  C   UNL A   1      35.974  31.268  31.751  1.00  0.00     0.022 A 
BRANCH  64  67
ATOM     67  S   UNL A   1      35.076  32.695  29.586  1.00  0.00     0.127 S 
ATOM     68  O   UNL A   1      35.931  33.798  29.154  1.00  0.00    -0.237 OA
ATOM     69  O   UNL A   1      34.589  31.841  28.501  1.00  0.00    -0.237 OA
ATOM     70  O   UNL A   1      34.069  33.025  30.586  1.00  0.00    -0.744 OA
ENDBRANCH  64  67
ENDBRANCH  46  60
BRANCH  47  71
ATOM     71  C   UNL A   1      46.607  27.215  25.966  1.00  0.00     0.023 A 
ATOM     72  C   UNL A   1      46.700  27.522  24.597  1.00  0.00     0.012 A 
ATOM     73  C   UNL A   1      47.687  26.575  26.606  1.00  0.00     0.148 A 
ATOM     74  C   UNL A   1      47.849  27.197  23.876  1.00  0.00     0.002 A 
ATOM     75  C   UNL A   1      48.852  26.309  25.896  1.00  0.00     0.091 A 
ATOM     76  F   UNL A   1      47.569  26.278  27.909  1.00  0.00    -0.205 F 
ATOM     77  C   UNL A   1      48.930  26.608  24.528  1.00  0.00     0.022 A 
BRANCH  75  78
ATOM     78  S   UNL A   1      50.345  25.702  26.691  1.00  0.00     0.127 S 
ATOM     79  O   UNL A   1      51.257  25.578  25.557  1.00  0.00    -0.237 OA
ATOM     80  O   UNL A   1      50.657  26.790  27.618  1.00  0.00    -0.237 OA
ATOM     81  O   UNL A   1      49.967  24.454  27.339  1.00  0.00    -0.744 OA
ENDBRANCH  75  78
ENDBRANCH  47  71
BRANCH  59  82
ATOM     82  C   UNL A   1      44.945  33.096  29.364  1.00  0.00     0.023 A 
ATOM     83  C   UNL A   1      45.757  33.219  30.510  1.00  0.00     0.012 A 
ATOM     84  C   UNL A   1      44.891  34.157  28.439  1.00  0.00     0.148 A 
ATOM     85  C   UNL A   1      46.481  34.387  30.745  1.00  0.00     0.002 A 
ATOM     86  C   UNL A   1      45.649  35.302  28.658  1.00  0.00     0.091 A 
ATOM     87  F   UNL A   1      44.095  34.031  27.367  1.00  0.00    -0.205 F 
ATOM     88  C   UNL A   1      46.437  35.423  29.814  1.00  0.00     0.022 A 
BRANCH  86  89
ATOM     89  S   UNL A   1      45.715  36.648  27.469  1.00  0.00     0.127 S 
ATOM     90  O   UNL A   1      44.327  37.108  27.461  1.00  0.00    -0.237 OA
ATOM     91  O   UNL A   1      46.661  37.574  28.094  1.00  0.00    -0.237 OA
ATOM     92  O   UNL A   1      46.188  36.056  26.225  1.00  0.00    -0.744 OA
ENDBRANCH  86  89
ENDBRANCH  59  82
ENDBRANCH  33  34
ENDBRANCH  26  28
ENDBRANCH  25  26
ENDBRANCH   1  25
TORSDOF 15
ENDMDL
MODEL 2
REMARK VINA RESULT:     -12.7      1.994      2.627
REMARK SMILES CN1C(=O)C[C@@H](C(=O)OCCOC(=O)c2ccc(-c3c4nc(c(-c5cccc(S(=O)(=O)[O-])c5F)c5ccc([nH]5)c(-c5cccc(S(=O)(=O)[O-])c5F)c5nc(c(-c6cccc(S(=O)(=O)[O-])c6F)c6ccc3[nH]6)C=C5)C=C4)cc2)C12CCN(c1ccc(Cl)cn1)CC2
REMARK SMILES IDX 11 1 10 2 9 3 7 4 8 5 6 6 1 7 2 8 3 9 78 10 4 11 5 12 79 13
REMARK SMILES IDX 90 14 80 15 89 16 81 17 82 18 83 19 88 20 84 21 87 22 85 23
REMARK SMILES IDX 86 24 12 25 13 26 14 27 15 28 16 29 77 30 17 31 76 32 18 33
REMARK SMILES IDX 19 34 20 35 70 36 21 37 75 38 69 39 71 40 22 41 74 42 68 43
REMARK SMILES IDX 67 44 23 46 55 47 35 48 54 49 36 50 39 51 53 52 72 53 37 54
REMARK SMILES IDX 38 55 52 57 73 58 40 59 24 60 25 61 33 62 26 63 28 64 34 65
REMARK SMILES IDX 27 66 29 67 30 68 31 69 32 70 56 71 57 72 65 73 58 74 60 75
REMARK SMILES IDX 66 76 59 77 61 78 62 79 63 80 64 81 41 82 42 83 50 84 43 85
REMARK SMILES IDX 45 86 51 87 44 88 46 89 47 90 48 91 49 92
REMARK H PARENT 71 45 39 56
REMARK Flexibility Score: inf
ROOT
ATOM      1  C   UNL A   1      37.322  20.515  25.001  1.00  0.00     0.275 C 
ENDROOT
BRANCH   1   2
ATOM      2  C   UNL A   1      35.797  20.587  25.060  1.00  0.00     0.274 C 
BRANCH   2   3
ATOM      3  O   UNL A   1      35.344  21.850  25.596  1.00  0.00    -0.462 OA
BRANCH   3   4
ATOM      4  C   UNL A   1      34.263  21.769  26.399  1.00  0.00     0.311 C 
ATOM      5  O   UNL A   1      34.299  21.332  27.547  1.00  0.00    -0.252 OA
BRANCH   4   6
ATOM      6  C   UNL A   1      32.943  22.224  25.799  1.00  0.00     0.134 C 
ATOM      7  C   UNL A   1      32.728  22.689  22.072  1.00  0.00     0.147 C 
ATOM      8  N   UNL A   1      32.817  22.281  23.461  1.00  0.00    -0.339 N 
ATOM      9  C   UNL A   1      32.492  20.978  23.814  1.00  0.00     0.223 C 
ATOM     10  C   UNL A   1      32.793  23.212  24.607  1.00  0.00     0.060 C 
ATOM     11  O   UNL A   1      32.324  20.040  23.050  1.00  0.00    -0.275 OA
ATOM     12  C   UNL A   1      32.280  20.928  25.298  1.00  0.00     0.118 C 
ATOM     13  C   UNL A   1      33.864  24.319  24.462  1.00  0.00     0.051 C 
ATOM     14  C   UNL A   1      31.373  23.885  24.688  1.00  0.00     0.051 C 
ATOM     15  C   UNL A   1      33.709  25.449  25.467  1.00  0.00     0.120 C 
ATOM     16  C   UNL A   1      31.291  25.087  25.645  1.00  0.00     0.120 C 
ATOM     17  N   UNL A   1      32.371  25.998  25.303  1.00  0.00    -0.356 N 
BRANCH  17  18
ATOM     18  C   UNL A   1      32.230  27.343  25.628  1.00  0.00     0.128 A 
ATOM     19  C   UNL A   1      31.970  27.689  26.959  1.00  0.00     0.048 A 
ATOM     20  N   UNL A   1      32.349  28.286  24.673  1.00  0.00    -0.238 NA
ATOM     21  C   UNL A   1      31.784  29.024  27.316  1.00  0.00     0.026 A 
ATOM     22  C   UNL A   1      32.153  29.582  25.040  1.00  0.00     0.134 A 
ATOM     23  C   UNL A   1      31.862  29.992  26.331  1.00  0.00     0.059 A 
ATOM     24  Cl  UNL A   1      31.607  31.643  26.709  1.00  0.00    -0.083 Cl
ENDBRANCH  17  18
ENDBRANCH   4   6
ENDBRANCH   3   4
ENDBRANCH   2   3
ENDBRANCH   1   2
BRANCH   1  25
ATOM     25  O   UNL A   1      37.911  21.663  25.638  1.00  0.00    -0.458 OA
BRANCH  25  26
ATOM     26  C   UNL A   1      39.148  21.476  26.153  1.00  0.00     0.338 C 
ATOM     27  O   UNL A   1      39.801  20.444  26.128  1.00  0.00    -0.246 OA
BRANCH  26  28
ATOM     28  C   UNL A   1      39.672  22.730  26.730  1.00  0.00     0.060 A 
ATOM     29  C   UNL A   1      39.249  23.972  26.251  1.00  0.00     0.016 A 
ATOM     30  C   UNL A   1      40.700  22.660  27.668  1.00  0.00     0.016 A 
ATOM     31  C   UNL A   1      39.898  25.138  26.653  1.00  0.00     0.010 A 
ATOM     32  C   UNL A   1      41.282  23.837  28.145  1.00  0.00     0.010 A 
ATOM     33  C   UNL A   1      40.907  25.088  27.624  1.00  0.00    -0.014 A 
BRANCH  33  34
ATOM     34  C   UNL A   1      41.543  26.330  28.139  1.00  0.00     0.031 A 
ATOM     35  C   UNL A   1      40.724  27.386  28.830  1.00  0.00     0.074 A 
ATOM     36  C   UNL A   1      42.850  26.555  27.900  1.00  0.00     0.049 A 
ATOM     37  N   UNL A   1      41.063  28.601  29.177  1.00  0.00    -0.248 NA
ATOM     38  C   UNL A   1      39.333  27.035  29.156  1.00  0.00     0.031 C 
ATOM     39  C   UNL A   1      43.753  25.630  27.213  1.00  0.00     0.029 A 
ATOM     40  N   UNL A   1      43.634  27.652  28.166  1.00  0.00    -0.354 N 
ATOM     41  C   UNL A   1      39.917  29.181  29.710  1.00  0.00     0.074 A 
ATOM     42  C   UNL A   1      38.870  28.184  29.634  1.00  0.00     0.031 C 
ATOM     43  C   UNL A   1      44.957  26.205  27.087  1.00  0.00     0.029 A 
ATOM     44  C   UNL A   1      44.895  27.559  27.625  1.00  0.00     0.049 A 
ATOM     45  H   UNL A   1      43.324  28.425  28.690  1.00  0.00     0.167 HD
ATOM     46  C   UNL A   1      39.754  30.422  30.228  1.00  0.00     0.034 A 
ATOM     47  C   UNL A   1      45.880  28.472  27.518  1.00  0.00     0.034 A 
ATOM     48  C   UNL A   1      40.805  31.399  30.340  1.00  0.00     0.049 A 
ATOM     49  C   UNL A   1      45.682  29.840  28.099  1.00  0.00     0.074 A 
ATOM     50  C   UNL A   1      40.756  32.655  30.920  1.00  0.00     0.029 A 
ATOM     51  N   UNL A   1      42.094  31.237  29.853  1.00  0.00    -0.354 N 
ATOM     52  N   UNL A   1      44.630  30.331  28.708  1.00  0.00    -0.248 NA
ATOM     53  C   UNL A   1      46.811  30.775  28.001  1.00  0.00     0.031 C 
ATOM     54  C   UNL A   1      42.009  33.259  30.766  1.00  0.00     0.029 A 
ATOM     55  C   UNL A   1      42.845  32.373  30.103  1.00  0.00     0.049 A 
ATOM     56  H   UNL A   1      42.426  30.431  29.395  1.00  0.00     0.167 HD
ATOM     57  C   UNL A   1      44.974  31.624  29.082  1.00  0.00     0.074 A 
ATOM     58  C   UNL A   1      46.343  31.831  28.653  1.00  0.00     0.031 C 
ATOM     59  C   UNL A   1      44.217  32.559  29.708  1.00  0.00     0.034 A 
BRANCH  46  60
ATOM     60  C   UNL A   1      38.387  30.784  30.749  1.00  0.00     0.023 A 
ATOM     61  C   UNL A   1      38.037  30.454  32.073  1.00  0.00     0.012 A 
ATOM     62  C   UNL A   1      37.467  31.486  29.947  1.00  0.00     0.148 A 
ATOM     63  C   UNL A   1      36.780  30.786  32.580  1.00  0.00     0.002 A 
ATOM     64  C   UNL A   1      36.230  31.848  30.471  1.00  0.00     0.091 A 
ATOM     65  F   UNL A   1      37.803  31.769  28.679  1.00  0.00    -0.205 F 
ATOM     66  C   UNL A   1      35.882  31.490  31.784  1.00  0.00     0.022 A 
BRANCH  64  67
ATOM     67  S   UNL A   1      35.046  32.823  29.534  1.00  0.00     0.127 S 
ATOM     68  O   UNL A   1      35.891  33.895  29.013  1.00  0.00    -0.237 OA
ATOM     69  O   UNL A   1      34.580  31.869  28.525  1.00  0.00    -0.237 OA
ATOM     70  O   UNL A   1      34.027  33.226  30.493  1.00  0.00    -0.744 OA
ENDBRANCH  64  67
ENDBRANCH  46  60
BRANCH  47  71
ATOM     71  C   UNL A   1      47.146  28.085  26.838  1.00  0.00     0.023 A 
ATOM     72  C   UNL A   1      48.208  27.562  27.596  1.00  0.00     0.012 A 
ATOM     73  C   UNL A   1      47.257  28.132  25.433  1.00  0.00     0.148 A 
ATOM     74  C   UNL A   1      49.362  27.094  26.968  1.00  0.00     0.002 A 
ATOM     75  C   UNL A   1      48.383  27.609  24.811  1.00  0.00     0.091 A 
ATOM     76  F   UNL A   1      46.237  28.650  24.732  1.00  0.00    -0.205 F 
ATOM     77  C   UNL A   1      49.443  27.101  25.577  1.00  0.00     0.022 A 
BRANCH  75  78
ATOM     78  S   UNL A   1      48.501  27.430  23.027  1.00  0.00     0.127 S 
ATOM     79  O   UNL A   1      49.829  27.977  22.759  1.00  0.00    -0.237 OA
ATOM     80  O   UNL A   1      48.385  25.981  22.860  1.00  0.00    -0.237 OA
ATOM     81  O   UNL A   1      47.382  28.187  22.481  1.00  0.00    -0.744 OA
ENDBRANCH  75  78
ENDBRANCH  47  71
BRANCH  59  82
ATOM     82  C   UNL A   1      44.852  33.898  29.976  1.00  0.00     0.023 A 
ATOM     83  C   UNL A   1      45.565  34.100  31.174  1.00  0.00     0.012 A 
ATOM     84  C   UNL A   1      44.795  34.933  29.023  1.00  0.00     0.148 A 
ATOM     85  C   UNL A   1      46.190  35.320  31.431  1.00  0.00     0.002 A 
ATOM     86  C   UNL A   1      45.455  36.132  29.267  1.00  0.00     0.091 A 
ATOM     87  F   UNL A   1      44.090  34.731  27.899  1.00  0.00    -0.205 F 
ATOM     88  C   UNL A   1      46.145  36.331  30.474  1.00  0.00     0.022 A 
BRANCH  86  89
ATOM     89  S   UNL A   1      45.518  37.455  28.052  1.00  0.00     0.127 S 
ATOM     90  O   UNL A   1      46.263  38.486  28.772  1.00  0.00    -0.237 OA
ATOM     91  O   UNL A   1      46.249  36.833  26.947  1.00  0.00    -0.237 OA
ATOM     92  O   UNL A   1      44.131  37.780  27.747  1.00  0.00    -0.744 OA
ENDBRANCH  86  89
ENDBRANCH  59  82
ENDBRANCH  33  34
ENDBRANCH  26  28
ENDBRANCH  25  26
ENDBRANCH   1  25
TORSDOF 15
ENDMDL
MODEL 3
REMARK VINA RESULT:     -12.7      1.405      1.719
REMARK SMILES CN1C(=O)C[C@@H](C(=O)OCCOC(=O)c2ccc(-c3c4nc(c(-c5cccc(S(=O)(=O)[O-])c5F)c5ccc([nH]5)c(-c5cccc(S(=O)(=O)[O-])c5F)c5nc(c(-c6cccc(S(=O)(=O)[O-])c6F)c6ccc3[nH]6)C=C5)C=C4)cc2)C12CCN(c1ccc(Cl)cn1)CC2
REMARK SMILES IDX 11 1 10 2 9 3 7 4 8 5 6 6 1 7 2 8 3 9 78 10 4 11 5 12 79 13
REMARK SMILES IDX 90 14 80 15 89 16 81 17 82 18 83 19 88 20 84 21 87 22 85 23
REMARK SMILES IDX 86 24 12 25 13 26 14 27 15 28 16 29 77 30 17 31 76 32 18 33
REMARK SMILES IDX 19 34 20 35 70 36 21 37 75 38 69 39 71 40 22 41 74 42 68 43
REMARK SMILES IDX 67 44 23 46 55 47 35 48 54 49 36 50 39 51 53 52 72 53 37 54
REMARK SMILES IDX 38 55 52 57 73 58 40 59 24 60 25 61 33 62 26 63 28 64 34 65
REMARK SMILES IDX 27 66 29 67 30 68 31 69 32 70 56 71 57 72 65 73 58 74 60 75
REMARK SMILES IDX 66 76 59 77 61 78 62 79 63 80 64 81 41 82 42 83 50 84 43 85
REMARK SMILES IDX 45 86 51 87 44 88 46 89 47 90 48 91 49 92
REMARK H PARENT 71 45 39 56
REMARK Flexibility Score: inf
ROOT
ATOM      1  C   UNL A   1      37.115  21.265  24.467  1.00  0.00     0.275 C 
ENDROOT
BRANCH   1   2
ATOM      2  C   UNL A   1      36.649  22.458  23.633  1.00  0.00     0.274 C 
BRANCH   2   3
ATOM      3  O   UNL A   1      36.099  23.505  24.464  1.00  0.00    -0.462 OA
BRANCH   3   4
ATOM      4  C   UNL A   1      34.952  24.047  24.005  1.00  0.00     0.311 C 
ATOM      5  O   UNL A   1      34.692  24.179  22.811  1.00  0.00    -0.252 OA
BRANCH   4   6
ATOM      6  C   UNL A   1      33.972  24.539  25.057  1.00  0.00     0.134 C 
ATOM      7  C   UNL A   1      30.965  22.420  25.844  1.00  0.00     0.147 C 
ATOM      8  N   UNL A   1      32.246  23.072  25.652  1.00  0.00    -0.339 N 
ATOM      9  C   UNL A   1      33.320  22.722  26.459  1.00  0.00     0.223 C 
ATOM     10  C   UNL A   1      32.427  24.378  24.988  1.00  0.00     0.060 C 
ATOM     11  O   UNL A   1      33.381  21.758  27.208  1.00  0.00    -0.275 OA
ATOM     12  C   UNL A   1      34.371  23.785  26.339  1.00  0.00     0.118 C 
ATOM     13  C   UNL A   1      31.772  24.398  23.586  1.00  0.00     0.051 C 
ATOM     14  C   UNL A   1      31.764  25.497  25.874  1.00  0.00     0.051 C 
ATOM     15  C   UNL A   1      31.692  25.787  22.972  1.00  0.00     0.120 C 
ATOM     16  C   UNL A   1      31.616  26.859  25.175  1.00  0.00     0.120 C 
ATOM     17  N   UNL A   1      30.955  26.632  23.901  1.00  0.00    -0.356 N 
BRANCH  17  18
ATOM     18  C   UNL A   1      30.249  27.682  23.324  1.00  0.00     0.128 A 
ATOM     19  C   UNL A   1      28.857  27.714  23.464  1.00  0.00     0.048 A 
ATOM     20  N   UNL A   1      30.904  28.647  22.648  1.00  0.00    -0.238 NA
ATOM     21  C   UNL A   1      28.112  28.729  22.865  1.00  0.00     0.026 A 
ATOM     22  C   UNL A   1      30.157  29.623  22.063  1.00  0.00     0.134 A 
ATOM     23  C   UNL A   1      28.776  29.698  22.135  1.00  0.00     0.059 A 
ATOM     24  Cl  UNL A   1      27.906  30.948  21.351  1.00  0.00    -0.083 Cl
ENDBRANCH  17  18
ENDBRANCH   4   6
ENDBRANCH   3   4
ENDBRANCH   2   3
ENDBRANCH   1   2
BRANCH   1  25
ATOM     25  O   UNL A   1      37.519  21.689  25.780  1.00  0.00    -0.458 OA
BRANCH  25  26
ATOM     26  C   UNL A   1      38.824  21.495  26.082  1.00  0.00     0.338 C 
ATOM     27  O   UNL A   1      39.477  20.482  25.881  1.00  0.00    -0.246 OA
BRANCH  26  28
ATOM     28  C   UNL A   1      39.418  22.717  26.660  1.00  0.00     0.060 A 
ATOM     29  C   UNL A   1      39.038  23.982  26.207  1.00  0.00     0.016 A 
ATOM     30  C   UNL A   1      40.466  22.589  27.569  1.00  0.00     0.016 A 
ATOM     31  C   UNL A   1      39.748  25.113  26.606  1.00  0.00     0.010 A 
ATOM     32  C   UNL A   1      41.111  23.734  28.045  1.00  0.00     0.010 A 
ATOM     33  C   UNL A   1      40.779  25.006  27.550  1.00  0.00    -0.014 A 
BRANCH  33  34
ATOM     34  C   UNL A   1      41.483  26.212  28.062  1.00  0.00     0.031 A 
ATOM     35  C   UNL A   1      40.729  27.293  28.788  1.00  0.00     0.074 A 
ATOM     36  C   UNL A   1      42.791  26.383  27.791  1.00  0.00     0.049 A 
ATOM     37  N   UNL A   1      41.131  28.488  29.141  1.00  0.00    -0.248 NA
ATOM     38  C   UNL A   1      39.333  26.999  29.147  1.00  0.00     0.031 C 
ATOM     39  C   UNL A   1      43.634  25.429  27.068  1.00  0.00     0.029 A 
ATOM     40  N   UNL A   1      43.630  27.441  28.048  1.00  0.00    -0.354 N 
ATOM     41  C   UNL A   1      40.026  29.109  29.711  1.00  0.00     0.074 A 
ATOM     42  C   UNL A   1      38.934  28.160  29.652  1.00  0.00     0.031 C 
ATOM     43  C   UNL A   1      44.859  25.952  26.916  1.00  0.00     0.029 A 
ATOM     44  C   UNL A   1      44.870  27.301  27.472  1.00  0.00     0.049 A 
ATOM     45  H   UNL A   1      43.368  28.219  28.590  1.00  0.00     0.167 HD
ATOM     46  C   UNL A   1      39.931  30.350  30.249  1.00  0.00     0.034 A 
ATOM     47  C   UNL A   1      45.892  28.172  27.351  1.00  0.00     0.034 A 
ATOM     48  C   UNL A   1      41.027  31.278  30.345  1.00  0.00     0.049 A 
ATOM     49  C   UNL A   1      45.769  29.539  27.953  1.00  0.00     0.074 A 
ATOM     50  C   UNL A   1      41.048  32.527  30.942  1.00  0.00     0.029 A 
ATOM     51  N   UNL A   1      42.294  31.067  29.821  1.00  0.00    -0.354 N 
ATOM     52  N   UNL A   1      44.756  30.066  28.597  1.00  0.00    -0.248 NA
ATOM     53  C   UNL A   1      46.936  30.425  27.836  1.00  0.00     0.031 C 
ATOM     54  C   UNL A   1      42.323  33.078  30.761  1.00  0.00     0.029 A 
ATOM     55  C   UNL A   1      43.100  32.166  30.065  1.00  0.00     0.049 A 
ATOM     56  H   UNL A   1      42.578  30.253  29.344  1.00  0.00     0.167 HD
ATOM     57  C   UNL A   1      45.167  31.338  28.977  1.00  0.00     0.074 A 
ATOM     58  C   UNL A   1      46.531  31.491  28.514  1.00  0.00     0.031 C 
ATOM     59  C   UNL A   1      44.469  32.296  29.634  1.00  0.00     0.034 A 
BRANCH  46  60
ATOM     60  C   UNL A   1      38.596  30.763  30.811  1.00  0.00     0.023 A 
ATOM     61  C   UNL A   1      38.308  30.525  32.170  1.00  0.00     0.012 A 
ATOM     62  C   UNL A   1      37.645  31.426  30.011  1.00  0.00     0.148 A 
ATOM     63  C   UNL A   1      37.082  30.907  32.715  1.00  0.00     0.002 A 
ATOM     64  C   UNL A   1      36.440  31.838  30.571  1.00  0.00     0.091 A 
ATOM     65  F   UNL A   1      37.920  31.621  28.713  1.00  0.00    -0.205 F 
ATOM     66  C   UNL A   1      36.152  31.571  31.919  1.00  0.00     0.022 A 
BRANCH  64  67
ATOM     67  S   UNL A   1      35.221  32.767  29.631  1.00  0.00     0.127 S 
ATOM     68  O   UNL A   1      36.021  33.882  29.128  1.00  0.00    -0.237 OA
ATOM     69  O   UNL A   1      34.809  31.803  28.608  1.00  0.00    -0.237 OA
ATOM     70  O   UNL A   1      34.175  33.113  30.582  1.00  0.00    -0.744 OA
ENDBRANCH  64  67
ENDBRANCH  46  60
BRANCH  47  71
ATOM     71  C   UNL A   1      47.121  27.739  26.631  1.00  0.00     0.023 A 
ATOM     72  C   UNL A   1      48.088  26.976  27.309  1.00  0.00     0.012 A 
ATOM     73  C   UNL A   1      47.278  27.988  25.253  1.00  0.00     0.148 A 
ATOM     74  C   UNL A   1      49.195  26.470  26.628  1.00  0.00     0.002 A 
ATOM     75  C   UNL A   1      48.351  27.430  24.568  1.00  0.00     0.091 A 
ATOM     76  F   UNL A   1      46.351  28.731  24.631  1.00  0.00    -0.205 F 
ATOM     77  C   UNL A   1      49.317  26.682  25.256  1.00  0.00     0.022 A 
BRANCH  75  78
ATOM     78  S   UNL A   1      48.499  27.516  22.779  1.00  0.00     0.127 S 
ATOM     79  O   UNL A   1      49.769  28.219  22.618  1.00  0.00    -0.237 OA
ATOM     80  O   UNL A   1      48.527  26.100  22.410  1.00  0.00    -0.237 OA
ATOM     81  O   UNL A   1      47.317  28.231  22.320  1.00  0.00    -0.744 OA
ENDBRANCH  75  78
ENDBRANCH  47  71
BRANCH  59  82
ATOM     82  C   UNL A   1      45.168  33.603  29.902  1.00  0.00     0.023 A 
ATOM     83  C   UNL A   1      45.936  33.751  31.074  1.00  0.00     0.012 A 
ATOM     84  C   UNL A   1      45.117  34.658  28.971  1.00  0.00     0.148 A 
ATOM     85  C   UNL A   1      46.621  34.939  31.328  1.00  0.00     0.002 A 
ATOM     86  C   UNL A   1      45.835  35.825  29.211  1.00  0.00     0.091 A 
ATOM     87  F   UNL A   1      44.361  34.508  27.873  1.00  0.00    -0.205 F 
ATOM     88  C   UNL A   1      46.580  35.971  30.393  1.00  0.00     0.022 A 
BRANCH  86  89
ATOM     89  S   UNL A   1      45.905  37.168  28.020  1.00  0.00     0.127 S 
ATOM     90  O   UNL A   1      46.523  36.514  26.868  1.00  0.00    -0.237 OA
ATOM     91  O   UNL A   1      44.492  37.507  27.843  1.00  0.00    -0.237 OA
ATOM     92  O   UNL A   1      46.700  38.215  28.648  1.00  0.00    -0.744 OA
ENDBRANCH  86  89
ENDBRANCH  59  82
ENDBRANCH  33  34
ENDBRANCH  26  28
ENDBRANCH  25  26
ENDBRANCH   1  25
TORSDOF 15
ENDMDL
