MODEL 1
REMARK VINA RESULT:     -11.9      0.000      0.000
REMARK SMILES CC(C)CSc1cc2c(cc1Cl)C=C(C(=O)OCCOC(=O)c1ccc(-c3c4nc(c(-c5cccc(S(=O)(=O)[O-])c5F)c5ccc([nH]5)c(-c5cccc(S(=O)(=O)[O-])c5F)c5nc(c(-c6cccc(S(=O)(=O)[O-])c6F)c6ccc3[nH]6)C=C5)C=C4)cc1)[C@@H](C(F)(F)F)O2
REMARK SMILES IDX 18 1 17 2 15 3 16 4 14 5 6 6 7 7 11 8 8 9 10 10 12 11 9 12
REMARK SMILES IDX 91 13 13 14 86 15 5 16 4 17 2 18 1 19 3 20 87 21 88 22 89 23
REMARK SMILES IDX 90 24 19 25 20 26 21 27 22 28 23 29 24 30 85 31 25 32 84 33
REMARK SMILES IDX 26 34 27 35 28 36 78 37 29 38 83 39 77 40 79 41 30 42 82 43
REMARK SMILES IDX 76 44 75 45 31 47 63 48 43 49 62 50 44 51 47 52 61 53 80 54
REMARK SMILES IDX 45 55 46 56 60 58 81 59 48 60 32 61 33 62 41 63 34 64 36 65
REMARK SMILES IDX 42 66 35 67 37 68 38 69 39 70 40 71 64 72 65 73 73 74 66 75
REMARK SMILES IDX 68 76 74 77 67 78 69 79 70 80 71 81 72 82 49 83 50 84 58 85
REMARK SMILES IDX 51 86 53 87 59 88 52 89 54 90 55 91 56 92 57 93
REMARK H PARENT 79 46 47 57
REMARK Flexibility Score: inf
ROOT
ATOM      1  C   UNL A   1      31.400  29.688  24.981  1.00  0.00     0.275 C 
ENDROOT
BRANCH   1   2
ATOM      2  O   UNL A   1      31.789  28.318  25.220  1.00  0.00    -0.459 OA
BRANCH   2   3
ATOM      3  C   UNL A   1      32.442  27.712  24.199  1.00  0.00     0.338 C 
ATOM      4  O   UNL A   1      32.814  28.229  23.165  1.00  0.00    -0.246 OA
BRANCH   3   5
ATOM      5  C   UNL A   1      32.685  26.291  24.520  1.00  0.00     0.087 C 
ATOM      6  C   UNL A   1      34.817  21.763  25.038  1.00  0.00     0.030 A 
ATOM      7  C   UNL A   1      33.487  22.221  24.939  1.00  0.00     0.063 A 
ATOM      8  C   UNL A   1      35.842  22.710  25.176  1.00  0.00     0.055 A 
ATOM      9  C   UNL A   1      33.196  23.584  24.864  1.00  0.00     0.129 A 
ATOM     10  C   UNL A   1      35.554  24.073  25.064  1.00  0.00     0.033 A 
ATOM     11  Cl  UNL A   1      37.482  22.303  25.530  1.00  0.00    -0.083 Cl
ATOM     12  C   UNL A   1      34.236  24.502  24.879  1.00  0.00     0.019 A 
ATOM     13  O   UNL A   1      31.879  23.934  24.760  1.00  0.00    -0.475 OA
ATOM     14  C   UNL A   1      33.956  25.904  24.662  1.00  0.00     0.027 C 
ATOM     15  C   UNL A   1      31.526  25.339  24.577  1.00  0.00     0.316 C 
BRANCH   6  16
ATOM     16  S   UNL A   1      35.026  19.985  24.974  1.00  0.00    -0.124 SA
BRANCH  16  17
ATOM     17  C   UNL A   1      33.311  19.343  25.147  1.00  0.00     0.078 C 
BRANCH  17  18
ATOM     18  C   UNL A   1      32.821  18.356  24.069  1.00  0.00    -0.007 C 
ATOM     19  C   UNL A   1      32.291  19.028  22.802  1.00  0.00     0.008 C 
ATOM     20  C   UNL A   1      33.988  17.438  23.678  1.00  0.00     0.008 C 
ENDBRANCH  17  18
ENDBRANCH  16  17
ENDBRANCH   6  16
BRANCH  15  21
ATOM     21  C   UNL A   1      30.635  25.439  23.327  1.00  0.00     0.430 C 
ATOM     22  F   UNL A   1      31.382  25.604  22.207  1.00  0.00    -0.167 F 
ATOM     23  F   UNL A   1      29.906  24.314  23.134  1.00  0.00    -0.167 F 
ATOM     24  F   UNL A   1      29.772  26.477  23.395  1.00  0.00    -0.167 F 
ENDBRANCH  15  21
ENDBRANCH   3   5
ENDBRANCH   2   3
ENDBRANCH   1   2
BRANCH   1  25
ATOM     25  C   UNL A   1      31.714  30.575  26.185  1.00  0.00     0.275 C 
BRANCH  25  26
ATOM     26  O   UNL A   1      33.118  30.534  26.489  1.00  0.00    -0.458 OA
BRANCH  26  27
ATOM     27  C   UNL A   1      33.581  31.556  27.243  1.00  0.00     0.338 C 
ATOM     28  O   UNL A   1      33.007  32.599  27.513  1.00  0.00    -0.246 OA
BRANCH  27  29
ATOM     29  C   UNL A   1      34.895  31.193  27.786  1.00  0.00     0.060 A 
ATOM     30  C   UNL A   1      35.882  32.149  27.996  1.00  0.00     0.016 A 
ATOM     31  C   UNL A   1      35.097  29.878  28.194  1.00  0.00     0.016 A 
ATOM     32  C   UNL A   1      37.087  31.760  28.594  1.00  0.00     0.010 A 
ATOM     33  C   UNL A   1      36.225  29.532  28.927  1.00  0.00     0.010 A 
ATOM     34  C   UNL A   1      37.264  30.452  29.091  1.00  0.00    -0.014 A 
BRANCH  34  35
ATOM     35  C   UNL A   1      38.533  30.024  29.743  1.00  0.00     0.031 A 
ATOM     36  C   UNL A   1      38.877  30.493  31.141  1.00  0.00     0.074 A 
ATOM     37  C   UNL A   1      39.408  29.250  29.069  1.00  0.00     0.049 A 
ATOM     38  N   UNL A   1      39.943  30.233  31.856  1.00  0.00    -0.248 NA
ATOM     39  C   UNL A   1      37.929  31.401  31.812  1.00  0.00     0.031 C 
ATOM     40  C   UNL A   1      39.260  28.821  27.675  1.00  0.00     0.029 A 
ATOM     41  N   UNL A   1      40.595  28.684  29.462  1.00  0.00    -0.354 N 
ATOM     42  C   UNL A   1      39.816  30.985  33.019  1.00  0.00     0.074 A 
ATOM     43  C   UNL A   1      38.595  31.745  32.904  1.00  0.00     0.031 C 
ATOM     44  C   UNL A   1      40.281  28.011  27.353  1.00  0.00     0.029 A 
ATOM     45  C   UNL A   1      41.172  27.886  28.501  1.00  0.00     0.049 A 
ATOM     46  H   UNL A   1      40.995  28.835  30.350  1.00  0.00     0.167 HD
ATOM     47  C   UNL A   1      40.613  31.004  34.113  1.00  0.00     0.034 A 
ATOM     48  C   UNL A   1      42.281  27.122  28.545  1.00  0.00     0.034 A 
ATOM     49  C   UNL A   1      41.760  30.159  34.284  1.00  0.00     0.049 A 
ATOM     50  C   UNL A   1      43.084  27.066  29.812  1.00  0.00     0.074 A 
ATOM     51  C   UNL A   1      42.556  30.011  35.405  1.00  0.00     0.029 A 
ATOM     52  N   UNL A   1      42.258  29.303  33.317  1.00  0.00    -0.354 N 
ATOM     53  N   UNL A   1      42.867  27.681  30.949  1.00  0.00    -0.248 NA
ATOM     54  C   UNL A   1      44.268  26.193  29.816  1.00  0.00     0.031 C 
ATOM     55  C   UNL A   1      43.535  29.055  35.117  1.00  0.00     0.029 A 
ATOM     56  C   UNL A   1      43.347  28.615  33.817  1.00  0.00     0.049 A 
ATOM     57  H   UNL A   1      41.891  29.199  32.409  1.00  0.00     0.167 HD
ATOM     58  C   UNL A   1      43.878  27.265  31.806  1.00  0.00     0.074 A 
ATOM     59  C   UNL A   1      44.695  26.325  31.066  1.00  0.00     0.031 C 
ATOM     60  C   UNL A   1      44.119  27.647  33.083  1.00  0.00     0.034 A 
BRANCH  47  61
ATOM     61  C   UNL A   1      40.213  31.887  35.266  1.00  0.00     0.023 A 
ATOM     62  C   UNL A   1      40.756  33.184  35.355  1.00  0.00     0.012 A 
ATOM     63  C   UNL A   1      39.243  31.475  36.200  1.00  0.00     0.148 A 
ATOM     64  C   UNL A   1      40.357  34.053  36.370  1.00  0.00     0.002 A 
ATOM     65  C   UNL A   1      38.824  32.358  37.188  1.00  0.00     0.091 A 
ATOM     66  F   UNL A   1      38.746  30.233  36.100  1.00  0.00    -0.205 F 
ATOM     67  C   UNL A   1      39.385  33.644  37.279  1.00  0.00     0.022 A 
BRANCH  65  68
ATOM     68  S   UNL A   1      37.536  31.960  38.377  1.00  0.00     0.127 S 
ATOM     69  O   UNL A   1      37.208  30.584  38.005  1.00  0.00    -0.237 OA
ATOM     70  O   UNL A   1      38.245  32.094  39.649  1.00  0.00    -0.237 OA
ATOM     71  O   UNL A   1      36.472  32.928  38.161  1.00  0.00    -0.744 OA
ENDBRANCH  65  68
ENDBRANCH  47  61
BRANCH  48  72
ATOM     72  C   UNL A   1      42.619  26.266  27.376  1.00  0.00     0.023 A 
ATOM     73  C   UNL A   1      43.436  26.793  26.358  1.00  0.00     0.012 A 
ATOM     74  C   UNL A   1      42.214  24.918  27.308  1.00  0.00     0.148 A 
ATOM     75  C   UNL A   1      43.843  25.997  25.288  1.00  0.00     0.002 A 
ATOM     76  C   UNL A   1      42.656  24.119  26.259  1.00  0.00     0.091 A 
ATOM     77  F   UNL A   1      41.435  24.442  28.289  1.00  0.00    -0.205 F 
ATOM     78  C   UNL A   1      43.462  24.658  25.245  1.00  0.00     0.022 A 
BRANCH  76  79
ATOM     79  S   UNL A   1      42.311  22.359  26.169  1.00  0.00     0.127 S 
ATOM     80  O   UNL A   1      43.023  21.976  24.952  1.00  0.00    -0.237 OA
ATOM     81  O   UNL A   1      42.911  21.873  27.412  1.00  0.00    -0.237 OA
ATOM     82  O   UNL A   1      40.861  22.241  26.109  1.00  0.00    -0.744 OA
ENDBRANCH  76  79
ENDBRANCH  48  72
BRANCH  60  83
ATOM     83  C   UNL A   1      45.313  27.063  33.782  1.00  0.00     0.023 A 
ATOM     84  C   UNL A   1      46.523  27.782  33.782  1.00  0.00     0.012 A 
ATOM     85  C   UNL A   1      45.197  25.887  34.548  1.00  0.00     0.148 A 
ATOM     86  C   UNL A   1      47.608  27.334  34.533  1.00  0.00     0.002 A 
ATOM     87  C   UNL A   1      46.272  25.465  35.319  1.00  0.00     0.091 A 
ATOM     88  F   UNL A   1      44.034  25.221  34.523  1.00  0.00    -0.205 F 
ATOM     89  C   UNL A   1      47.479  26.185  35.310  1.00  0.00     0.022 A 
BRANCH  87  90
ATOM     90  S   UNL A   1      46.179  24.043  36.413  1.00  0.00     0.127 S 
ATOM     91  O   UNL A   1      46.007  22.946  35.461  1.00  0.00    -0.237 OA
ATOM     92  O   UNL A   1      47.483  24.077  37.076  1.00  0.00    -0.237 OA
ATOM     93  O   UNL A   1      45.044  24.283  37.293  1.00  0.00    -0.744 OA
ENDBRANCH  87  90
ENDBRANCH  60  83
ENDBRANCH  34  35
ENDBRANCH  27  29
ENDBRANCH  26  27
ENDBRANCH  25  26
ENDBRANCH   1  25
TORSDOF 18
ENDMDL
MODEL 2
REMARK VINA RESULT:     -11.9      5.208     10.256
REMARK SMILES CC(C)CSc1cc2c(cc1Cl)C=C(C(=O)OCCOC(=O)c1ccc(-c3c4nc(c(-c5cccc(S(=O)(=O)[O-])c5F)c5ccc([nH]5)c(-c5cccc(S(=O)(=O)[O-])c5F)c5nc(c(-c6cccc(S(=O)(=O)[O-])c6F)c6ccc3[nH]6)C=C5)C=C4)cc1)[C@@H](C(F)(F)F)O2
REMARK SMILES IDX 18 1 17 2 15 3 16 4 14 5 6 6 7 7 11 8 8 9 10 10 12 11 9 12
REMARK SMILES IDX 91 13 13 14 86 15 5 16 4 17 2 18 1 19 3 20 87 21 88 22 89 23
REMARK SMILES IDX 90 24 19 25 20 26 21 27 22 28 23 29 24 30 85 31 25 32 84 33
REMARK SMILES IDX 26 34 27 35 28 36 78 37 29 38 83 39 77 40 79 41 30 42 82 43
REMARK SMILES IDX 76 44 75 45 31 47 63 48 43 49 62 50 44 51 47 52 61 53 80 54
REMARK SMILES IDX 45 55 46 56 60 58 81 59 48 60 32 61 33 62 41 63 34 64 36 65
REMARK SMILES IDX 42 66 35 67 37 68 38 69 39 70 40 71 64 72 65 73 73 74 66 75
REMARK SMILES IDX 68 76 74 77 67 78 69 79 70 80 71 81 72 82 49 83 50 84 58 85
REMARK SMILES IDX 51 86 53 87 59 88 52 89 54 90 55 91 56 92 57 93
REMARK H PARENT 79 46 47 57
REMARK Flexibility Score: inf
ROOT
ATOM      1  C   UNL A   1      35.812  20.657  25.004  1.00  0.00     0.275 C 
ENDROOT
BRANCH   1   2
ATOM      2  O   UNL A   1      35.408  22.005  24.676  1.00  0.00    -0.459 OA
BRANCH   2   3
ATOM      3  C   UNL A   1      34.681  22.641  25.627  1.00  0.00     0.338 C 
ATOM      4  O   UNL A   1      34.576  22.325  26.795  1.00  0.00    -0.246 OA
BRANCH   3   5
ATOM      5  C   UNL A   1      34.025  23.834  25.054  1.00  0.00     0.087 C 
ATOM      6  C   UNL A   1      31.783  28.304  24.505  1.00  0.00     0.030 A 
ATOM      7  C   UNL A   1      31.794  27.109  23.758  1.00  0.00     0.063 A 
ATOM      8  C   UNL A   1      32.673  28.429  25.582  1.00  0.00     0.055 A 
ATOM      9  C   UNL A   1      32.585  26.025  24.141  1.00  0.00     0.129 A 
ATOM     10  C   UNL A   1      33.438  27.331  25.986  1.00  0.00     0.033 A 
ATOM     11  Cl  UNL A   1      32.933  29.901  26.445  1.00  0.00    -0.083 Cl
ATOM     12  C   UNL A   1      33.368  26.125  25.282  1.00  0.00     0.019 A 
ATOM     13  O   UNL A   1      32.523  24.904  23.362  1.00  0.00    -0.475 OA
ATOM     14  C   UNL A   1      34.083  24.964  25.763  1.00  0.00     0.027 C 
ATOM     15  C   UNL A   1      33.253  23.708  23.772  1.00  0.00     0.316 C 
BRANCH   6  16
ATOM     16  S   UNL A   1      30.604  29.539  23.964  1.00  0.00    -0.124 SA
BRANCH  16  17
ATOM     17  C   UNL A   1      29.412  28.580  22.943  1.00  0.00     0.078 C 
BRANCH  17  18
ATOM     18  C   UNL A   1      28.026  29.212  22.705  1.00  0.00    -0.007 C 
ATOM     19  C   UNL A   1      26.872  28.445  23.351  1.00  0.00     0.008 C 
ATOM     20  C   UNL A   1      28.034  30.640  23.269  1.00  0.00     0.008 C 
ENDBRANCH  17  18
ENDBRANCH  16  17
ENDBRANCH   6  16
BRANCH  15  21
ATOM     21  C   UNL A   1      32.253  22.540  23.814  1.00  0.00     0.430 C 
ATOM     22  F   UNL A   1      31.101  22.860  23.175  1.00  0.00    -0.167 F 
ATOM     23  F   UNL A   1      32.737  21.437  23.193  1.00  0.00    -0.167 F 
ATOM     24  F   UNL A   1      31.930  22.186  25.078  1.00  0.00    -0.167 F 
ENDBRANCH  15  21
ENDBRANCH   3   5
ENDBRANCH   2   3
ENDBRANCH   1   2
BRANCH   1  25
ATOM     25  C   UNL A   1      37.333  20.509  24.978  1.00  0.00     0.275 C 
BRANCH  25  26
ATOM     26  O   UNL A   1      37.959  21.626  25.629  1.00  0.00    -0.458 OA
BRANCH  26  27
ATOM     27  C   UNL A   1      39.167  21.375  26.183  1.00  0.00     0.338 C 
ATOM     28  O   UNL A   1      39.775  20.317  26.191  1.00  0.00    -0.246 OA
BRANCH  27  29
ATOM     29  C   UNL A   1      39.712  22.624  26.728  1.00  0.00     0.060 A 
ATOM     30  C   UNL A   1      40.772  22.621  27.627  1.00  0.00     0.016 A 
ATOM     31  C   UNL A   1      39.214  23.828  26.237  1.00  0.00     0.016 A 
ATOM     32  C   UNL A   1      41.307  23.844  28.050  1.00  0.00     0.010 A 
ATOM     33  C   UNL A   1      39.847  25.027  26.536  1.00  0.00     0.010 A 
ATOM     34  C   UNL A   1      40.868  25.062  27.491  1.00  0.00    -0.014 A 
BRANCH  34  35
ATOM     35  C   UNL A   1      41.435  26.373  27.917  1.00  0.00     0.031 A 
ATOM     36  C   UNL A   1      42.852  26.756  27.547  1.00  0.00     0.074 A 
ATOM     37  C   UNL A   1      40.699  27.207  28.679  1.00  0.00     0.049 A 
ATOM     38  N   UNL A   1      43.513  27.846  27.845  1.00  0.00    -0.248 NA
ATOM     39  C   UNL A   1      43.647  25.780  26.779  1.00  0.00     0.031 C 
ATOM     40  C   UNL A   1      39.363  26.916  29.207  1.00  0.00     0.029 A 
ATOM     41  N   UNL A   1      40.967  28.471  29.143  1.00  0.00    -0.354 N 
ATOM     42  C   UNL A   1      44.802  27.659  27.357  1.00  0.00     0.074 A 
ATOM     43  C   UNL A   1      44.849  26.337  26.779  1.00  0.00     0.031 C 
ATOM     44  C   UNL A   1      38.905  27.992  29.865  1.00  0.00     0.029 A 
ATOM     45  C   UNL A   1      39.922  29.038  29.836  1.00  0.00     0.049 A 
ATOM     46  H   UNL A   1      41.825  28.929  28.992  1.00  0.00     0.167 HD
ATOM     47  C   UNL A   1      45.841  28.526  27.339  1.00  0.00     0.034 A 
ATOM     48  C   UNL A   1      39.788  30.268  30.370  1.00  0.00     0.034 A 
ATOM     49  C   UNL A   1      45.761  29.882  27.800  1.00  0.00     0.049 A 
ATOM     50  C   UNL A   1      40.911  31.254  30.231  1.00  0.00     0.074 A 
ATOM     51  C   UNL A   1      46.718  30.877  27.707  1.00  0.00     0.029 A 
ATOM     52  N   UNL A   1      44.655  30.440  28.418  1.00  0.00    -0.354 N 
ATOM     53  N   UNL A   1      42.072  31.099  29.643  1.00  0.00    -0.248 NA
ATOM     54  C   UNL A   1      40.701  32.593  30.805  1.00  0.00     0.031 C 
ATOM     55  C   UNL A   1      46.185  32.043  28.264  1.00  0.00     0.029 A 
ATOM     56  C   UNL A   1      44.900  31.769  28.705  1.00  0.00     0.049 A 
ATOM     57  H   UNL A   1      43.819  29.962  28.622  1.00  0.00     0.167 HD
ATOM     58  C   UNL A   1      42.727  32.318  29.765  1.00  0.00     0.074 A 
ATOM     59  C   UNL A   1      41.825  33.211  30.463  1.00  0.00     0.031 C 
ATOM     60  C   UNL A   1      43.973  32.657  29.356  1.00  0.00     0.034 A 
BRANCH  47  61
ATOM     61  C   UNL A   1      47.127  28.076  26.698  1.00  0.00     0.023 A 
ATOM     62  C   UNL A   1      48.189  27.650  27.520  1.00  0.00     0.012 A 
ATOM     63  C   UNL A   1      47.255  27.988  25.298  1.00  0.00     0.148 A 
ATOM     64  C   UNL A   1      49.370  27.163  26.962  1.00  0.00     0.002 A 
ATOM     65  C   UNL A   1      48.422  27.469  24.748  1.00  0.00     0.091 A 
ATOM     66  F   UNL A   1      46.235  28.407  24.536  1.00  0.00    -0.205 F 
ATOM     67  C   UNL A   1      49.482  27.064  25.578  1.00  0.00     0.022 A 
BRANCH  65  68
ATOM     68  S   UNL A   1      48.654  27.240  22.980  1.00  0.00     0.127 S 
ATOM     69  O   UNL A   1      48.255  25.844  22.809  1.00  0.00    -0.237 OA
ATOM     70  O   UNL A   1      47.717  28.215  22.423  1.00  0.00    -0.237 OA
ATOM     71  O   UNL A   1      50.058  27.518  22.717  1.00  0.00    -0.744 OA
ENDBRANCH  65  68
ENDBRANCH  47  61
BRANCH  48  72
ATOM     72  C   UNL A   1      38.488  30.655  30.983  1.00  0.00     0.023 A 
ATOM     73  C   UNL A   1      38.290  30.432  32.359  1.00  0.00     0.012 A 
ATOM     74  C   UNL A   1      37.491  31.317  30.239  1.00  0.00     0.148 A 
ATOM     75  C   UNL A   1      37.119  30.856  32.986  1.00  0.00     0.002 A 
ATOM     76  C   UNL A   1      36.344  31.773  30.880  1.00  0.00     0.091 A 
ATOM     77  F   UNL A   1      37.705  31.515  28.931  1.00  0.00    -0.205 F 
ATOM     78  C   UNL A   1      36.152  31.535  32.250  1.00  0.00     0.022 A 
BRANCH  76  79
ATOM     79  S   UNL A   1      35.091  32.751  30.045  1.00  0.00     0.127 S 
ATOM     80  O   UNL A   1      34.177  33.065  31.141  1.00  0.00    -0.237 OA
ATOM     81  O   UNL A   1      35.876  33.884  29.553  1.00  0.00    -0.237 OA
ATOM     82  O   UNL A   1      34.546  31.892  29.003  1.00  0.00    -0.744 OA
ENDBRANCH  76  79
ENDBRANCH  48  72
BRANCH  60  83
ATOM     83  C   UNL A   1      44.457  34.048  29.646  1.00  0.00     0.023 A 
ATOM     84  C   UNL A   1      45.170  34.289  30.836  1.00  0.00     0.012 A 
ATOM     85  C   UNL A   1      44.332  35.071  28.685  1.00  0.00     0.148 A 
ATOM     86  C   UNL A   1      45.750  35.535  31.070  1.00  0.00     0.002 A 
ATOM     87  C   UNL A   1      44.939  36.299  28.911  1.00  0.00     0.091 A 
ATOM     88  F   UNL A   1      43.642  34.813  27.565  1.00  0.00    -0.205 F 
ATOM     89  C   UNL A   1      45.645  36.533  30.104  1.00  0.00     0.022 A 
BRANCH  87  90
ATOM     90  S   UNL A   1      44.929  37.622  27.696  1.00  0.00     0.127 S 
ATOM     91  O   UNL A   1      45.617  38.692  28.417  1.00  0.00    -0.237 OA
ATOM     92  O   UNL A   1      45.693  37.036  26.595  1.00  0.00    -0.237 OA
ATOM     93  O   UNL A   1      43.528  37.881  27.393  1.00  0.00    -0.744 OA
ENDBRANCH  87  90
ENDBRANCH  60  83
ENDBRANCH  34  35
ENDBRANCH  27  29
ENDBRANCH  26  27
ENDBRANCH  25  26
ENDBRANCH   1  25
TORSDOF 18
ENDMDL
MODEL 3
REMARK VINA RESULT:     -11.5      5.309     10.262
REMARK SMILES CC(C)CSc1cc2c(cc1Cl)C=C(C(=O)OCCOC(=O)c1ccc(-c3c4nc(c(-c5cccc(S(=O)(=O)[O-])c5F)c5ccc([nH]5)c(-c5cccc(S(=O)(=O)[O-])c5F)c5nc(c(-c6cccc(S(=O)(=O)[O-])c6F)c6ccc3[nH]6)C=C5)C=C4)cc1)[C@@H](C(F)(F)F)O2
REMARK SMILES IDX 18 1 17 2 15 3 16 4 14 5 6 6 7 7 11 8 8 9 10 10 12 11 9 12
REMARK SMILES IDX 91 13 13 14 86 15 5 16 4 17 2 18 1 19 3 20 87 21 88 22 89 23
REMARK SMILES IDX 90 24 19 25 20 26 21 27 22 28 23 29 24 30 85 31 25 32 84 33
REMARK SMILES IDX 26 34 27 35 28 36 78 37 29 38 83 39 77 40 79 41 30 42 82 43
REMARK SMILES IDX 76 44 75 45 31 47 63 48 43 49 62 50 44 51 47 52 61 53 80 54
REMARK SMILES IDX 45 55 46 56 60 58 81 59 48 60 32 61 33 62 41 63 34 64 36 65
REMARK SMILES IDX 42 66 35 67 37 68 38 69 39 70 40 71 64 72 65 73 73 74 66 75
REMARK SMILES IDX 68 76 74 77 67 78 69 79 70 80 71 81 72 82 49 83 50 84 58 85
REMARK SMILES IDX 51 86 53 87 59 88 52 89 54 90 55 91 56 92 57 93
REMARK H PARENT 79 46 47 57
REMARK Flexibility Score: inf
ROOT
ATOM      1  C   UNL A   1      35.042  20.247  25.079  1.00  0.00     0.275 C 
ENDROOT
BRANCH   1   2
ATOM      2  O   UNL A   1      34.533  21.506  24.586  1.00  0.00    -0.459 OA
BRANCH   2   3
ATOM      3  C   UNL A   1      33.367  21.432  23.900  1.00  0.00     0.338 C 
ATOM      4  O   UNL A   1      32.879  20.439  23.399  1.00  0.00    -0.246 OA
BRANCH   3   5
ATOM      5  C   UNL A   1      32.717  22.758  23.856  1.00  0.00     0.087 C 
ATOM      6  C   UNL A   1      31.894  27.721  23.765  1.00  0.00     0.030 A 
ATOM      7  C   UNL A   1      31.132  26.602  24.160  1.00  0.00     0.063 A 
ATOM      8  C   UNL A   1      33.111  27.501  23.104  1.00  0.00     0.055 A 
ATOM      9  C   UNL A   1      31.620  25.304  24.005  1.00  0.00     0.129 A 
ATOM     10  C   UNL A   1      33.616  26.203  22.983  1.00  0.00     0.033 A 
ATOM     11  Cl  UNL A   1      34.041  28.755  22.367  1.00  0.00    -0.083 Cl
ATOM     12  C   UNL A   1      32.882  25.114  23.460  1.00  0.00     0.019 A 
ATOM     13  O   UNL A   1      30.816  24.282  24.426  1.00  0.00    -0.475 OA
ATOM     14  C   UNL A   1      33.452  23.786  23.423  1.00  0.00     0.027 C 
ATOM     15  C   UNL A   1      31.318  22.912  24.379  1.00  0.00     0.316 C 
BRANCH   6  16
ATOM     16  S   UNL A   1      31.186  29.316  24.169  1.00  0.00    -0.124 SA
BRANCH  16  17
ATOM     17  C   UNL A   1      32.015  29.768  25.748  1.00  0.00     0.078 C 
BRANCH  17  18
ATOM     18  C   UNL A   1      32.680  28.627  26.543  1.00  0.00    -0.007 C 
ATOM     19  C   UNL A   1      34.041  28.992  27.137  1.00  0.00     0.008 C 
ATOM     20  C   UNL A   1      31.745  28.219  27.690  1.00  0.00     0.008 C 
ENDBRANCH  17  18
ENDBRANCH  16  17
ENDBRANCH   6  16
BRANCH  15  21
ATOM     21  C   UNL A   1      31.159  22.306  25.784  1.00  0.00     0.430 C 
ATOM     22  F   UNL A   1      29.990  22.693  26.353  1.00  0.00    -0.167 F 
ATOM     23  F   UNL A   1      31.134  20.952  25.751  1.00  0.00    -0.167 F 
ATOM     24  F   UNL A   1      32.156  22.676  26.618  1.00  0.00    -0.167 F 
ENDBRANCH  15  21
ENDBRANCH   3   5
ENDBRANCH   2   3
ENDBRANCH   1   2
BRANCH   1  25
ATOM     25  C   UNL A   1      36.553  20.137  24.874  1.00  0.00     0.275 C 
BRANCH  25  26
ATOM     26  O   UNL A   1      37.227  21.243  25.497  1.00  0.00    -0.458 OA
BRANCH  26  27
ATOM     27  C   UNL A   1      38.529  21.035  25.797  1.00  0.00     0.338 C 
ATOM     28  O   UNL A   1      39.141  19.980  25.761  1.00  0.00    -0.246 OA
BRANCH  27  29
ATOM     29  C   UNL A   1      39.158  22.324  26.110  1.00  0.00     0.060 A 
ATOM     30  C   UNL A   1      38.429  23.508  26.102  1.00  0.00     0.016 A 
ATOM     31  C   UNL A   1      40.486  22.324  26.526  1.00  0.00     0.016 A 
ATOM     32  C   UNL A   1      39.060  24.696  26.489  1.00  0.00     0.010 A 
ATOM     33  C   UNL A   1      41.059  23.472  27.058  1.00  0.00     0.010 A 
ATOM     34  C   UNL A   1      40.376  24.690  26.997  1.00  0.00    -0.014 A 
BRANCH  34  35
ATOM     35  C   UNL A   1      41.059  25.942  27.428  1.00  0.00     0.031 A 
ATOM     36  C   UNL A   1      42.475  26.238  26.984  1.00  0.00     0.074 A 
ATOM     37  C   UNL A   1      40.431  26.797  28.259  1.00  0.00     0.049 A 
ATOM     38  N   UNL A   1      43.230  27.268  27.275  1.00  0.00    -0.248 NA
ATOM     39  C   UNL A   1      43.152  25.237  26.139  1.00  0.00     0.031 C 
ATOM     40  C   UNL A   1      39.111  26.582  28.859  1.00  0.00     0.029 A 
ATOM     41  N   UNL A   1      40.815  28.023  28.745  1.00  0.00    -0.354 N 
ATOM     42  C   UNL A   1      44.470  27.009  26.703  1.00  0.00     0.074 A 
ATOM     43  C   UNL A   1      44.389  25.708  26.082  1.00  0.00     0.031 C 
ATOM     44  C   UNL A   1      38.771  27.663  29.577  1.00  0.00     0.029 A 
ATOM     45  C   UNL A   1      39.857  28.636  29.518  1.00  0.00     0.049 A 
ATOM     46  H   UNL A   1      41.694  28.425  28.556  1.00  0.00     0.167 HD
ATOM     47  C   UNL A   1      45.566  27.801  26.648  1.00  0.00     0.034 A 
ATOM     48  C   UNL A   1      39.842  29.853  30.097  1.00  0.00     0.034 A 
ATOM     49  C   UNL A   1      45.611  29.142  27.155  1.00  0.00     0.049 A 
ATOM     50  C   UNL A   1      41.024  30.763  29.920  1.00  0.00     0.074 A 
ATOM     51  C   UNL A   1      46.630  30.071  27.035  1.00  0.00     0.029 A 
ATOM     52  N   UNL A   1      44.586  29.754  27.857  1.00  0.00    -0.354 N 
ATOM     53  N   UNL A   1      42.133  30.548  29.257  1.00  0.00    -0.248 NA
ATOM     54  C   UNL A   1      40.945  32.092  30.548  1.00  0.00     0.031 C 
ATOM     55  C   UNL A   1      46.215  31.251  27.659  1.00  0.00     0.029 A 
ATOM     56  C   UNL A   1      44.942  31.052  28.170  1.00  0.00     0.049 A 
ATOM     57  H   UNL A   1      43.732  29.328  28.096  1.00  0.00     0.167 HD
ATOM     58  C   UNL A   1      42.881  31.713  29.377  1.00  0.00     0.074 A 
ATOM     59  C   UNL A   1      42.087  32.642  30.156  1.00  0.00     0.031 C 
ATOM     60  C   UNL A   1      44.121  31.979  28.904  1.00  0.00     0.034 A 
BRANCH  47  61
ATOM     61  C   UNL A   1      46.777  27.286  25.916  1.00  0.00     0.023 A 
ATOM     62  C   UNL A   1      47.603  26.333  26.545  1.00  0.00     0.012 A 
ATOM     63  C   UNL A   1      47.046  27.669  24.588  1.00  0.00     0.148 A 
ATOM     64  C   UNL A   1      48.693  25.783  25.873  1.00  0.00     0.002 A 
ATOM     65  C   UNL A   1      48.115  27.091  23.911  1.00  0.00     0.091 A 
ATOM     66  F   UNL A   1      46.252  28.583  24.013  1.00  0.00    -0.205 F 
ATOM     67  C   UNL A   1      48.942  26.154  24.554  1.00  0.00     0.022 A 
BRANCH  65  68
ATOM     68  S   UNL A   1      48.495  27.450  22.191  1.00  0.00     0.127 S 
ATOM     69  O   UNL A   1      49.734  28.216  22.317  1.00  0.00    -0.237 OA
ATOM     70  O   UNL A   1      48.661  26.109  21.631  1.00  0.00    -0.237 OA
ATOM     71  O   UNL A   1      47.358  28.196  21.673  1.00  0.00    -0.744 OA
ENDBRANCH  65  68
ENDBRANCH  47  61
BRANCH  48  72
ATOM     72  C   UNL A   1      38.613  30.308  30.800  1.00  0.00     0.023 A 
ATOM     73  C   UNL A   1      38.498  30.087  32.186  1.00  0.00     0.012 A 
ATOM     74  C   UNL A   1      37.605  31.029  30.130  1.00  0.00     0.148 A 
ATOM     75  C   UNL A   1      37.400  30.572  32.895  1.00  0.00     0.002 A 
ATOM     76  C   UNL A   1      36.532  31.544  30.850  1.00  0.00     0.091 A 
ATOM     77  F   UNL A   1      37.738  31.223  28.811  1.00  0.00    -0.205 F 
ATOM     78  C   UNL A   1      36.423  31.308  32.230  1.00  0.00     0.022 A 
BRANCH  76  79
ATOM     79  S   UNL A   1      35.280  32.595  30.107  1.00  0.00     0.127 S 
ATOM     80  O   UNL A   1      36.093  33.652  29.508  1.00  0.00    -0.237 OA
ATOM     81  O   UNL A   1      34.655  31.682  29.150  1.00  0.00    -0.237 OA
ATOM     82  O   UNL A   1      34.415  33.014  31.200  1.00  0.00    -0.744 OA
ENDBRANCH  76  79
ENDBRANCH  48  72
BRANCH  60  83
ATOM     83  C   UNL A   1      44.720  33.322  29.206  1.00  0.00     0.023 A 
ATOM     84  C   UNL A   1      45.465  33.487  30.389  1.00  0.00     0.012 A 
ATOM     85  C   UNL A   1      44.666  34.366  28.262  1.00  0.00     0.148 A 
ATOM     86  C   UNL A   1      46.147  34.678  30.632  1.00  0.00     0.002 A 
ATOM     87  C   UNL A   1      45.373  35.537  28.497  1.00  0.00     0.091 A 
ATOM     88  F   UNL A   1      43.944  34.181  27.148  1.00  0.00    -0.205 F 
ATOM     89  C   UNL A   1      46.111  35.696  29.682  1.00  0.00     0.022 A 
BRANCH  87  90
ATOM     90  S   UNL A   1      45.455  36.875  27.301  1.00  0.00     0.127 S 
ATOM     91  O   UNL A   1      46.330  37.829  27.981  1.00  0.00    -0.237 OA
ATOM     92  O   UNL A   1      46.055  36.216  26.140  1.00  0.00    -0.237 OA
ATOM     93  O   UNL A   1      44.084  37.325  27.102  1.00  0.00    -0.744 OA
ENDBRANCH  87  90
ENDBRANCH  60  83
ENDBRANCH  34  35
ENDBRANCH  27  29
ENDBRANCH  26  27
ENDBRANCH  25  26
ENDBRANCH   1  25
TORSDOF 18
ENDMDL
