MODEL 1
REMARK VINA RESULT:     -12.2      0.000      0.000
REMARK SMILES CS(=O)(=O)c1ccc(/C=C(/C(=O)OCCOC(=O)c2ccc(-c3c4nc(c(-c5cccc(S(=O)(=O)[O-])c5F)c5ccc([nH]5)c(-c5cccc(S(=O)(=O)[O-])c5F)c5nc(c(-c6cccc(S(=O)(=O)[O-])c6F)c6ccc3[nH]6)C=C5)C=C4)cc2)c2cccc(Br)c2)cc1
REMARK SMILES IDX 15 1 14 2 13 3 11 4 12 5 10 6 9 7 8 8 5 9 6 10 90 11 7 12
REMARK SMILES IDX 89 13 2 14 1 15 3 16 4 17 82 18 83 19 88 20 84 21 86 22
REMARK SMILES IDX 85 23 87 24 16 25 17 26 18 27 19 28 20 29 81 30 21 31 80 32
REMARK SMILES IDX 22 33 23 34 24 35 74 36 25 37 79 38 73 39 75 40 26 41 78 42
REMARK SMILES IDX 72 43 71 44 27 46 59 47 39 48 58 49 40 50 43 51 57 52 76 53
REMARK SMILES IDX 41 54 42 55 56 57 77 58 44 59 28 60 29 61 37 62 30 63 32 64
REMARK SMILES IDX 38 65 31 66 33 67 34 68 35 69 36 70 60 71 61 72 69 73 62 74
REMARK SMILES IDX 64 75 70 76 63 77 65 78 66 79 67 80 68 81 45 82 46 83 54 84
REMARK SMILES IDX 47 85 49 86 55 87 48 88 50 89 51 90 52 91 53 92
REMARK H PARENT 75 45 43 56
REMARK Flexibility Score: inf
ROOT
ATOM      1  C   UNL A   1      31.781  28.609  26.565  1.00  0.00     0.275 C 
ENDROOT
BRANCH   1   2
ATOM      2  C   UNL A   1      31.554  27.488  25.554  1.00  0.00     0.275 C 
BRANCH   2   3
ATOM      3  O   UNL A   1      32.501  26.419  25.761  1.00  0.00    -0.458 OA
BRANCH   3   4
ATOM      4  C   UNL A   1      33.050  25.902  24.631  1.00  0.00     0.338 C 
ATOM      5  O   UNL A   1      33.303  26.527  23.611  1.00  0.00    -0.246 OA
BRANCH   4   6
ATOM      6  C   UNL A   1      33.348  24.446  24.775  1.00  0.00     0.067 C 
ATOM      7  C   UNL A   1      32.310  23.579  24.809  1.00  0.00     0.024 C 
BRANCH   7   8
ATOM      8  C   UNL A   1      32.378  22.110  24.659  1.00  0.00    -0.025 A 
ATOM      9  C   UNL A   1      32.796  19.381  24.162  1.00  0.00     0.067 A 
ATOM     10  C   UNL A   1      32.945  19.877  25.454  1.00  0.00     0.021 A 
ATOM     11  C   UNL A   1      32.350  20.212  23.133  1.00  0.00     0.021 A 
ATOM     12  C   UNL A   1      32.707  21.231  25.699  1.00  0.00     0.009 A 
ATOM     13  C   UNL A   1      32.145  21.572  23.385  1.00  0.00     0.009 A 
BRANCH   9  14
ATOM     14  S   UNL A   1      33.211  17.689  23.825  1.00  0.00     0.175 S 
ATOM     15  C   UNL A   1      32.472  16.781  25.162  1.00  0.00     0.163 C 
ATOM     16  O   UNL A   1      34.648  17.557  23.953  1.00  0.00    -0.224 OA
ATOM     17  O   UNL A   1      32.538  17.328  22.590  1.00  0.00    -0.224 OA
ENDBRANCH   9  14
ENDBRANCH   7   8
BRANCH   6  18
ATOM     18  C   UNL A   1      34.756  24.009  24.686  1.00  0.00    -0.010 A 
ATOM     19  C   UNL A   1      35.197  23.337  23.534  1.00  0.00     0.009 A 
ATOM     20  C   UNL A   1      35.675  24.317  25.694  1.00  0.00     0.024 A 
ATOM     21  C   UNL A   1      36.545  23.006  23.378  1.00  0.00     0.002 A 
ATOM     22  C   UNL A   1      37.020  23.975  25.533  1.00  0.00     0.018 A 
ATOM     23  C   UNL A   1      37.459  23.325  24.380  1.00  0.00     0.016 A 
ATOM     24  Br  UNL A   1      38.265  24.430  26.880  1.00  0.00    -0.051 Br
ENDBRANCH   6  18
ENDBRANCH   4   6
ENDBRANCH   3   4
ENDBRANCH   2   3
ENDBRANCH   1   2
BRANCH   1  25
ATOM     25  O   UNL A   1      32.654  29.599  25.997  1.00  0.00    -0.458 OA
BRANCH  25  26
ATOM     26  C   UNL A   1      33.008  30.619  26.810  1.00  0.00     0.338 C 
ATOM     27  O   UNL A   1      32.298  31.547  27.178  1.00  0.00    -0.246 OA
BRANCH  26  28
ATOM     28  C   UNL A   1      34.404  30.459  27.259  1.00  0.00     0.060 A 
ATOM     29  C   UNL A   1      34.978  29.193  27.325  1.00  0.00     0.016 A 
ATOM     30  C   UNL A   1      35.101  31.560  27.759  1.00  0.00     0.016 A 
ATOM     31  C   UNL A   1      36.178  29.011  28.012  1.00  0.00     0.010 A 
ATOM     32  C   UNL A   1      36.363  31.383  28.343  1.00  0.00     0.010 A 
ATOM     33  C   UNL A   1      36.896  30.098  28.538  1.00  0.00    -0.014 A 
BRANCH  33  34
ATOM     34  C   UNL A   1      38.157  29.884  29.320  1.00  0.00     0.031 A 
ATOM     35  C   UNL A   1      39.276  29.024  28.770  1.00  0.00     0.074 A 
ATOM     36  C   UNL A   1      38.330  30.459  30.531  1.00  0.00     0.049 A 
ATOM     37  N   UNL A   1      40.339  28.560  29.380  1.00  0.00    -0.248 NA
ATOM     38  C   UNL A   1      39.183  28.615  27.358  1.00  0.00     0.031 C 
ATOM     39  C   UNL A   1      37.363  31.326  31.203  1.00  0.00     0.029 A 
ATOM     40  N   UNL A   1      39.383  30.401  31.414  1.00  0.00    -0.354 N 
ATOM     41  C   UNL A   1      40.974  27.722  28.467  1.00  0.00     0.074 A 
ATOM     42  C   UNL A   1      40.196  27.766  27.249  1.00  0.00     0.031 C 
ATOM     43  C   UNL A   1      37.885  31.766  32.356  1.00  0.00     0.029 A 
ATOM     44  C   UNL A   1      39.174  31.123  32.568  1.00  0.00     0.049 A 
ATOM     45  H   UNL A   1      40.207  29.892  31.238  1.00  0.00     0.167 HD
ATOM     46  C   UNL A   1      42.102  26.987  28.626  1.00  0.00     0.034 A 
ATOM     47  C   UNL A   1      39.902  31.225  33.699  1.00  0.00     0.034 A 
ATOM     48  C   UNL A   1      42.948  27.034  29.790  1.00  0.00     0.049 A 
ATOM     49  C   UNL A   1      41.175  30.441  33.832  1.00  0.00     0.074 A 
ATOM     50  C   UNL A   1      44.140  26.364  30.012  1.00  0.00     0.029 A 
ATOM     51  N   UNL A   1      42.712  27.809  30.913  1.00  0.00    -0.354 N 
ATOM     52  N   UNL A   1      41.755  29.659  32.955  1.00  0.00    -0.248 NA
ATOM     53  C   UNL A   1      41.891  30.548  35.111  1.00  0.00     0.031 C 
ATOM     54  C   UNL A   1      44.626  26.737  31.270  1.00  0.00     0.029 A 
ATOM     55  C   UNL A   1      43.740  27.643  31.827  1.00  0.00     0.049 A 
ATOM     56  H   UNL A   1      41.929  28.392  31.043  1.00  0.00     0.167 HD
ATOM     57  C   UNL A   1      42.905  29.183  33.574  1.00  0.00     0.074 A 
ATOM     58  C   UNL A   1      42.960  29.795  34.886  1.00  0.00     0.031 C 
ATOM     59  C   UNL A   1      43.814  28.294  33.108  1.00  0.00     0.034 A 
BRANCH  46  60
ATOM     60  C   UNL A   1      42.526  26.081  27.497  1.00  0.00     0.023 A 
ATOM     61  C   UNL A   1      43.437  26.542  26.528  1.00  0.00     0.012 A 
ATOM     62  C   UNL A   1      42.093  24.739  27.457  1.00  0.00     0.148 A 
ATOM     63  C   UNL A   1      43.895  25.691  25.524  1.00  0.00     0.002 A 
ATOM     64  C   UNL A   1      42.586  23.884  26.476  1.00  0.00     0.091 A 
ATOM     65  F   UNL A   1      41.210  24.322  28.374  1.00  0.00    -0.205 F 
ATOM     66  C   UNL A   1      43.480  24.361  25.504  1.00  0.00     0.022 A 
BRANCH  64  67
ATOM     67  S   UNL A   1      42.172  22.136  26.429  1.00  0.00     0.127 S 
ATOM     68  O   UNL A   1      43.027  21.659  25.343  1.00  0.00    -0.237 OA
ATOM     69  O   UNL A   1      42.571  21.684  27.763  1.00  0.00    -0.237 OA
ATOM     70  O   UNL A   1      40.739  22.076  26.176  1.00  0.00    -0.744 OA
ENDBRANCH  64  67
ENDBRANCH  46  60
BRANCH  47  71
ATOM     71  C   UNL A   1      39.427  32.115  34.797  1.00  0.00     0.023 A 
ATOM     72  C   UNL A   1      39.446  33.511  34.614  1.00  0.00     0.012 A 
ATOM     73  C   UNL A   1      38.884  31.588  35.984  1.00  0.00     0.148 A 
ATOM     74  C   UNL A   1      38.935  34.363  35.594  1.00  0.00     0.002 A 
ATOM     75  C   UNL A   1      38.309  32.438  36.922  1.00  0.00     0.091 A 
ATOM     76  F   UNL A   1      38.906  30.259  36.162  1.00  0.00    -0.205 F 
ATOM     77  C   UNL A   1      38.347  33.827  36.737  1.00  0.00     0.022 A 
BRANCH  75  78
ATOM     78  S   UNL A   1      37.373  31.798  38.316  1.00  0.00     0.127 S 
ATOM     79  O   UNL A   1      38.321  31.954  39.414  1.00  0.00    -0.237 OA
ATOM     80  O   UNL A   1      36.223  32.702  38.361  1.00  0.00    -0.237 OA
ATOM     81  O   UNL A   1      37.034  30.429  37.947  1.00  0.00    -0.744 OA
ENDBRANCH  75  78
ENDBRANCH  47  71
BRANCH  59  82
ATOM     82  C   UNL A   1      44.959  27.932  34.013  1.00  0.00     0.023 A 
ATOM     83  C   UNL A   1      46.136  28.707  33.982  1.00  0.00     0.012 A 
ATOM     84  C   UNL A   1      44.848  26.876  34.937  1.00  0.00     0.148 A 
ATOM     85  C   UNL A   1      47.194  28.421  34.842  1.00  0.00     0.002 A 
ATOM     86  C   UNL A   1      45.894  26.619  35.817  1.00  0.00     0.091 A 
ATOM     87  F   UNL A   1      43.728  26.138  34.935  1.00  0.00    -0.205 F 
ATOM     88  C   UNL A   1      47.070  27.384  35.766  1.00  0.00     0.022 A 
BRANCH  86  89
ATOM     89  S   UNL A   1      45.789  25.354  37.089  1.00  0.00     0.127 S 
ATOM     90  O   UNL A   1      47.083  25.493  37.755  1.00  0.00    -0.237 OA
ATOM     91  O   UNL A   1      44.643  25.801  37.881  1.00  0.00    -0.237 OA
ATOM     92  O   UNL A   1      45.579  24.097  36.383  1.00  0.00    -0.744 OA
ENDBRANCH  86  89
ENDBRANCH  59  82
ENDBRANCH  33  34
ENDBRANCH  26  28
ENDBRANCH  25  26
ENDBRANCH   1  25
TORSDOF 17
ENDMDL
MODEL 2
REMARK VINA RESULT:     -12.0      1.733      2.027
REMARK SMILES CS(=O)(=O)c1ccc(/C=C(/C(=O)OCCOC(=O)c2ccc(-c3c4nc(c(-c5cccc(S(=O)(=O)[O-])c5F)c5ccc([nH]5)c(-c5cccc(S(=O)(=O)[O-])c5F)c5nc(c(-c6cccc(S(=O)(=O)[O-])c6F)c6ccc3[nH]6)C=C5)C=C4)cc2)c2cccc(Br)c2)cc1
REMARK SMILES IDX 15 1 14 2 13 3 11 4 12 5 10 6 9 7 8 8 5 9 6 10 90 11 7 12
REMARK SMILES IDX 89 13 2 14 1 15 3 16 4 17 82 18 83 19 88 20 84 21 86 22
REMARK SMILES IDX 85 23 87 24 16 25 17 26 18 27 19 28 20 29 81 30 21 31 80 32
REMARK SMILES IDX 22 33 23 34 24 35 74 36 25 37 79 38 73 39 75 40 26 41 78 42
REMARK SMILES IDX 72 43 71 44 27 46 59 47 39 48 58 49 40 50 43 51 57 52 76 53
REMARK SMILES IDX 41 54 42 55 56 57 77 58 44 59 28 60 29 61 37 62 30 63 32 64
REMARK SMILES IDX 38 65 31 66 33 67 34 68 35 69 36 70 60 71 61 72 69 73 62 74
REMARK SMILES IDX 64 75 70 76 63 77 65 78 66 79 67 80 68 81 45 82 46 83 54 84
REMARK SMILES IDX 47 85 49 86 55 87 48 88 50 89 51 90 52 91 53 92
REMARK H PARENT 75 45 43 56
REMARK Flexibility Score: inf
ROOT
ATOM      1  C   UNL A   1      31.769  28.645  26.105  1.00  0.00     0.275 C 
ENDROOT
BRANCH   1   2
ATOM      2  C   UNL A   1      32.451  27.279  26.122  1.00  0.00     0.275 C 
BRANCH   2   3
ATOM      3  O   UNL A   1      32.037  26.491  24.986  1.00  0.00    -0.458 OA
BRANCH   3   4
ATOM      4  C   UNL A   1      33.045  26.015  24.210  1.00  0.00     0.338 C 
ATOM      5  O   UNL A   1      33.714  26.674  23.427  1.00  0.00    -0.246 OA
BRANCH   4   6
ATOM      6  C   UNL A   1      33.279  24.558  24.436  1.00  0.00     0.067 C 
ATOM      7  C   UNL A   1      32.206  23.737  24.497  1.00  0.00     0.024 C 
BRANCH   7   8
ATOM      8  C   UNL A   1      32.215  22.261  24.427  1.00  0.00    -0.025 A 
ATOM      9  C   UNL A   1      32.532  19.494  24.092  1.00  0.00     0.067 A 
ATOM     10  C   UNL A   1      32.645  20.052  25.362  1.00  0.00     0.021 A 
ATOM     11  C   UNL A   1      32.171  20.286  23.001  1.00  0.00     0.021 A 
ATOM     12  C   UNL A   1      32.457  21.426  25.525  1.00  0.00     0.009 A 
ATOM     13  C   UNL A   1      32.016  21.665  23.172  1.00  0.00     0.009 A 
BRANCH   9  14
ATOM     14  S   UNL A   1      32.887  17.770  23.863  1.00  0.00     0.175 S 
ATOM     15  C   UNL A   1      34.614  17.621  24.254  1.00  0.00     0.163 C 
ATOM     16  O   UNL A   1      32.735  17.476  22.452  1.00  0.00    -0.224 OA
ATOM     17  O   UNL A   1      32.120  17.046  24.860  1.00  0.00    -0.224 OA
ENDBRANCH   9  14
ENDBRANCH   7   8
BRANCH   6  18
ATOM     18  C   UNL A   1      34.669  24.059  24.398  1.00  0.00    -0.010 A 
ATOM     19  C   UNL A   1      35.124  23.375  23.259  1.00  0.00     0.009 A 
ATOM     20  C   UNL A   1      35.561  24.321  25.443  1.00  0.00     0.024 A 
ATOM     21  C   UNL A   1      36.461  22.986  23.152  1.00  0.00     0.002 A 
ATOM     22  C   UNL A   1      36.895  23.922  25.331  1.00  0.00     0.018 A 
ATOM     23  C   UNL A   1      37.349  23.259  24.191  1.00  0.00     0.016 A 
ATOM     24  Br  UNL A   1      38.106  24.313  26.728  1.00  0.00    -0.051 Br
ENDBRANCH   6  18
ENDBRANCH   4   6
ENDBRANCH   3   4
ENDBRANCH   2   3
ENDBRANCH   1   2
BRANCH   1  25
ATOM     25  O   UNL A   1      32.730  29.657  25.765  1.00  0.00    -0.458 OA
BRANCH  25  26
ATOM     26  C   UNL A   1      32.998  30.572  26.723  1.00  0.00     0.338 C 
ATOM     27  O   UNL A   1      32.224  31.402  27.185  1.00  0.00    -0.246 OA
BRANCH  26  28
ATOM     28  C   UNL A   1      34.384  30.423  27.204  1.00  0.00     0.060 A 
ATOM     29  C   UNL A   1      34.983  29.167  27.238  1.00  0.00     0.016 A 
ATOM     30  C   UNL A   1      35.045  31.517  27.765  1.00  0.00     0.016 A 
ATOM     31  C   UNL A   1      36.168  28.982  27.950  1.00  0.00     0.010 A 
ATOM     32  C   UNL A   1      36.294  31.343  28.375  1.00  0.00     0.010 A 
ATOM     33  C   UNL A   1      36.849  30.062  28.536  1.00  0.00    -0.014 A 
BRANCH  33  34
ATOM     34  C   UNL A   1      38.093  29.843  29.345  1.00  0.00     0.031 A 
ATOM     35  C   UNL A   1      39.237  29.014  28.799  1.00  0.00     0.074 A 
ATOM     36  C   UNL A   1      38.227  30.387  30.574  1.00  0.00     0.049 A 
ATOM     37  N   UNL A   1      40.291  28.547  29.423  1.00  0.00    -0.248 NA
ATOM     38  C   UNL A   1      39.185  28.642  27.375  1.00  0.00     0.031 C 
ATOM     39  C   UNL A   1      37.232  31.223  31.245  1.00  0.00     0.029 A 
ATOM     40  N   UNL A   1      39.259  30.319  31.482  1.00  0.00    -0.354 N 
ATOM     41  C   UNL A   1      40.959  27.743  28.505  1.00  0.00     0.074 A 
ATOM     42  C   UNL A   1      40.212  27.810  27.269  1.00  0.00     0.031 C 
ATOM     43  C   UNL A   1      37.719  31.639  32.422  1.00  0.00     0.029 A 
ATOM     44  C   UNL A   1      39.012  31.006  32.649  1.00  0.00     0.049 A 
ATOM     45  H   UNL A   1      40.094  29.826  31.312  1.00  0.00     0.167 HD
ATOM     46  C   UNL A   1      42.094  27.019  28.672  1.00  0.00     0.034 A 
ATOM     47  C   UNL A   1      39.710  31.088  33.801  1.00  0.00     0.034 A 
ATOM     48  C   UNL A   1      42.909  27.045  29.858  1.00  0.00     0.049 A 
ATOM     49  C   UNL A   1      40.989  30.317  33.945  1.00  0.00     0.074 A 
ATOM     50  C   UNL A   1      44.104  26.385  30.092  1.00  0.00     0.029 A 
ATOM     51  N   UNL A   1      42.635  27.786  30.995  1.00  0.00    -0.354 N 
ATOM     52  N   UNL A   1      41.601  29.567  33.061  1.00  0.00    -0.248 NA
ATOM     53  C   UNL A   1      41.672  30.399  35.243  1.00  0.00     0.031 C 
ATOM     54  C   UNL A   1      44.554  26.730  31.371  1.00  0.00     0.029 A 
ATOM     55  C   UNL A   1      43.642  27.609  31.930  1.00  0.00     0.049 A 
ATOM     56  H   UNL A   1      41.841  28.355  31.121  1.00  0.00     0.167 HD
ATOM     57  C   UNL A   1      42.742  29.089  33.696  1.00  0.00     0.074 A 
ATOM     58  C   UNL A   1      42.756  29.666  35.025  1.00  0.00     0.031 C 
ATOM     59  C   UNL A   1      43.675  28.226  33.230  1.00  0.00     0.034 A 
BRANCH  46  60
ATOM     60  C   UNL A   1      42.558  26.149  27.531  1.00  0.00     0.023 A 
ATOM     61  C   UNL A   1      43.523  26.632  26.626  1.00  0.00     0.012 A 
ATOM     62  C   UNL A   1      42.106  24.818  27.416  1.00  0.00     0.148 A 
ATOM     63  C   UNL A   1      44.016  25.811  25.612  1.00  0.00     0.002 A 
ATOM     64  C   UNL A   1      42.633  23.993  26.427  1.00  0.00     0.091 A 
ATOM     65  F   UNL A   1      41.172  24.382  28.272  1.00  0.00    -0.205 F 
ATOM     66  C   UNL A   1      43.581  24.491  25.519  1.00  0.00     0.022 A 
BRANCH  64  67
ATOM     67  S   UNL A   1      42.194  22.256  26.291  1.00  0.00     0.127 S 
ATOM     68  O   UNL A   1      42.973  21.845  25.124  1.00  0.00    -0.237 OA
ATOM     69  O   UNL A   1      42.670  21.712  27.564  1.00  0.00    -0.237 OA
ATOM     70  O   UNL A   1      40.747  22.226  26.127  1.00  0.00    -0.744 OA
ENDBRANCH  64  67
ENDBRANCH  46  60
BRANCH  47  71
ATOM     71  C   UNL A   1      39.195  31.941  34.909  1.00  0.00     0.023 A 
ATOM     72  C   UNL A   1      38.307  31.390  35.852  1.00  0.00     0.012 A 
ATOM     73  C   UNL A   1      39.640  33.266  35.082  1.00  0.00     0.148 A 
ATOM     74  C   UNL A   1      37.871  32.143  36.943  1.00  0.00     0.002 A 
ATOM     75  C   UNL A   1      39.261  33.985  36.209  1.00  0.00     0.091 A 
ATOM     76  F   UNL A   1      40.455  33.791  34.156  1.00  0.00    -0.205 F 
ATOM     77  C   UNL A   1      38.365  33.431  37.134  1.00  0.00     0.022 A 
BRANCH  75  78
ATOM     78  S   UNL A   1      40.010  35.570  36.604  1.00  0.00     0.127 S 
ATOM     79  O   UNL A   1      39.399  35.881  37.892  1.00  0.00    -0.237 OA
ATOM     80  O   UNL A   1      41.434  35.236  36.662  1.00  0.00    -0.237 OA
ATOM     81  O   UNL A   1      39.653  36.443  35.493  1.00  0.00    -0.744 OA
ENDBRANCH  75  78
ENDBRANCH  47  71
BRANCH  59  82
ATOM     82  C   UNL A   1      44.802  27.854  34.153  1.00  0.00     0.023 A 
ATOM     83  C   UNL A   1      44.665  26.731  34.993  1.00  0.00     0.012 A 
ATOM     84  C   UNL A   1      46.016  28.567  34.141  1.00  0.00     0.148 A 
ATOM     85  C   UNL A   1      45.712  26.338  35.825  1.00  0.00     0.002 A 
ATOM     86  C   UNL A   1      47.069  28.148  34.947  1.00  0.00     0.091 A 
ATOM     87  F   UNL A   1      46.117  29.645  33.350  1.00  0.00    -0.205 F 
ATOM     88  C   UNL A   1      46.916  27.039  35.795  1.00  0.00     0.022 A 
BRANCH  86  89
ATOM     89  S   UNL A   1      48.678  28.945  34.915  1.00  0.00     0.127 S 
ATOM     90  O   UNL A   1      48.912  29.087  33.478  1.00  0.00    -0.237 OA
ATOM     91  O   UNL A   1      48.419  30.202  35.618  1.00  0.00    -0.237 OA
ATOM     92  O   UNL A   1      49.584  28.042  35.611  1.00  0.00    -0.744 OA
ENDBRANCH  86  89
ENDBRANCH  59  82
ENDBRANCH  33  34
ENDBRANCH  26  28
ENDBRANCH  25  26
ENDBRANCH   1  25
TORSDOF 17
ENDMDL
MODEL 3
REMARK VINA RESULT:     -11.8      4.033      9.418
REMARK SMILES CS(=O)(=O)c1ccc(/C=C(/C(=O)OCCOC(=O)c2ccc(-c3c4nc(c(-c5cccc(S(=O)(=O)[O-])c5F)c5ccc([nH]5)c(-c5cccc(S(=O)(=O)[O-])c5F)c5nc(c(-c6cccc(S(=O)(=O)[O-])c6F)c6ccc3[nH]6)C=C5)C=C4)cc2)c2cccc(Br)c2)cc1
REMARK SMILES IDX 15 1 14 2 13 3 11 4 12 5 10 6 9 7 8 8 5 9 6 10 90 11 7 12
REMARK SMILES IDX 89 13 2 14 1 15 3 16 4 17 82 18 83 19 88 20 84 21 86 22
REMARK SMILES IDX 85 23 87 24 16 25 17 26 18 27 19 28 20 29 81 30 21 31 80 32
REMARK SMILES IDX 22 33 23 34 24 35 74 36 25 37 79 38 73 39 75 40 26 41 78 42
REMARK SMILES IDX 72 43 71 44 27 46 59 47 39 48 58 49 40 50 43 51 57 52 76 53
REMARK SMILES IDX 41 54 42 55 56 57 77 58 44 59 28 60 29 61 37 62 30 63 32 64
REMARK SMILES IDX 38 65 31 66 33 67 34 68 35 69 36 70 60 71 61 72 69 73 62 74
REMARK SMILES IDX 64 75 70 76 63 77 65 78 66 79 67 80 68 81 45 82 46 83 54 84
REMARK SMILES IDX 47 85 49 86 55 87 48 88 50 89 51 90 52 91 53 92
REMARK H PARENT 75 45 43 56
REMARK Flexibility Score: inf
ROOT
ATOM      1  C   UNL A   1      33.069  35.520  28.462  1.00  0.00     0.275 C 
ENDROOT
BRANCH   1   2
ATOM      2  C   UNL A   1      34.437  35.060  27.965  1.00  0.00     0.275 C 
BRANCH   2   3
ATOM      3  O   UNL A   1      34.399  33.666  27.592  1.00  0.00    -0.458 OA
BRANCH   3   4
ATOM      4  C   UNL A   1      35.447  32.919  28.028  1.00  0.00     0.338 C 
ATOM      5  O   UNL A   1      36.538  33.353  28.370  1.00  0.00    -0.246 OA
BRANCH   4   6
ATOM      6  C   UNL A   1      35.111  31.465  28.072  1.00  0.00     0.067 C 
ATOM      7  C   UNL A   1      33.947  31.058  27.516  1.00  0.00     0.024 C 
BRANCH   7   8
ATOM      8  C   UNL A   1      33.557  29.668  27.197  1.00  0.00    -0.025 A 
ATOM      9  C   UNL A   1      32.572  27.177  26.366  1.00  0.00     0.067 A 
ATOM     10  C   UNL A   1      33.884  27.533  26.069  1.00  0.00     0.021 A 
ATOM     11  C   UNL A   1      31.774  28.009  27.153  1.00  0.00     0.021 A 
ATOM     12  C   UNL A   1      34.376  28.762  26.511  1.00  0.00     0.009 A 
ATOM     13  C   UNL A   1      32.268  29.250  27.564  1.00  0.00     0.009 A 
BRANCH   9  14
ATOM     14  S   UNL A   1      31.907  25.670  25.706  1.00  0.00     0.175 S 
ATOM     15  C   UNL A   1      30.148  25.852  25.880  1.00  0.00     0.163 C 
ATOM     16  O   UNL A   1      32.319  24.590  26.581  1.00  0.00    -0.224 OA
ATOM     17  O   UNL A   1      32.235  25.648  24.292  1.00  0.00    -0.224 OA
ENDBRANCH   9  14
ENDBRANCH   7   8
BRANCH   6  18
ATOM     18  C   UNL A   1      36.144  30.524  28.551  1.00  0.00    -0.010 A 
ATOM     19  C   UNL A   1      37.084  30.012  27.642  1.00  0.00     0.009 A 
ATOM     20  C   UNL A   1      36.248  30.192  29.906  1.00  0.00     0.024 A 
ATOM     21  C   UNL A   1      38.134  29.205  28.086  1.00  0.00     0.002 A 
ATOM     22  C   UNL A   1      37.297  29.378  30.340  1.00  0.00     0.018 A 
ATOM     23  C   UNL A   1      38.240  28.886  29.439  1.00  0.00     0.016 A 
ATOM     24  Br  UNL A   1      37.457  28.965  32.178  1.00  0.00    -0.051 Br
ENDBRANCH   6  18
ENDBRANCH   4   6
ENDBRANCH   3   4
ENDBRANCH   2   3
ENDBRANCH   1   2
BRANCH   1  25
ATOM     25  O   UNL A   1      32.746  34.835  29.683  1.00  0.00    -0.458 OA
BRANCH  25  26
ATOM     26  C   UNL A   1      32.901  35.543  30.823  1.00  0.00     0.338 C 
ATOM     27  O   UNL A   1      32.276  36.541  31.160  1.00  0.00    -0.246 OA
BRANCH  26  28
ATOM     28  C   UNL A   1      33.932  34.924  31.677  1.00  0.00     0.060 A 
ATOM     29  C   UNL A   1      34.669  35.703  32.563  1.00  0.00     0.016 A 
ATOM     30  C   UNL A   1      34.272  33.582  31.489  1.00  0.00     0.016 A 
ATOM     31  C   UNL A   1      35.822  35.182  33.151  1.00  0.00     0.010 A 
ATOM     32  C   UNL A   1      35.363  33.034  32.177  1.00  0.00     0.010 A 
ATOM     33  C   UNL A   1      36.197  33.840  32.971  1.00  0.00    -0.014 A 
BRANCH  33  34
ATOM     34  C   UNL A   1      37.467  33.307  33.564  1.00  0.00     0.031 A 
ATOM     35  C   UNL A   1      37.676  33.290  35.064  1.00  0.00     0.074 A 
ATOM     36  C   UNL A   1      38.451  32.822  32.776  1.00  0.00     0.049 A 
ATOM     37  N   UNL A   1      38.773  33.065  35.743  1.00  0.00    -0.248 NA
ATOM     38  C   UNL A   1      36.509  33.583  35.913  1.00  0.00     0.031 C 
ATOM     39  C   UNL A   1      38.411  32.749  31.315  1.00  0.00     0.029 A 
ATOM     40  N   UNL A   1      39.682  32.295  33.093  1.00  0.00    -0.354 N 
ATOM     41  C   UNL A   1      38.456  33.296  37.079  1.00  0.00     0.074 A 
ATOM     42  C   UNL A   1      37.054  33.649  37.120  1.00  0.00     0.031 C 
ATOM     43  C   UNL A   1      39.527  32.159  30.868  1.00  0.00     0.029 A 
ATOM     44  C   UNL A   1      40.419  31.916  31.993  1.00  0.00     0.049 A 
ATOM     45  H   UNL A   1      40.005  32.197  34.018  1.00  0.00     0.167 HD
ATOM     46  C   UNL A   1      39.256  33.219  38.171  1.00  0.00     0.034 A 
ATOM     47  C   UNL A   1      41.688  31.470  31.880  1.00  0.00     0.034 A 
ATOM     48  C   UNL A   1      40.617  32.750  38.153  1.00  0.00     0.049 A 
ATOM     49  C   UNL A   1      42.538  31.344  33.110  1.00  0.00     0.074 A 
ATOM     50  C   UNL A   1      41.482  32.587  39.222  1.00  0.00     0.029 A 
ATOM     51  N   UNL A   1      41.302  32.343  37.021  1.00  0.00    -0.354 N 
ATOM     52  N   UNL A   1      42.214  31.567  34.361  1.00  0.00    -0.248 NA
ATOM     53  C   UNL A   1      43.929  30.912  32.915  1.00  0.00     0.031 C 
ATOM     54  C   UNL A   1      42.691  32.079  38.735  1.00  0.00     0.029 A 
ATOM     55  C   UNL A   1      42.575  31.919  37.364  1.00  0.00     0.049 A 
ATOM     56  H   UNL A   1      40.938  32.354  36.106  1.00  0.00     0.167 HD
ATOM     57  C   UNL A   1      43.360  31.299  35.102  1.00  0.00     0.074 A 
ATOM     58  C   UNL A   1      44.374  30.861  34.165  1.00  0.00     0.031 C 
ATOM     59  C   UNL A   1      43.561  31.436  36.433  1.00  0.00     0.034 A 
BRANCH  46  60
ATOM     60  C   UNL A   1      38.678  33.618  39.506  1.00  0.00     0.023 A 
ATOM     61  C   UNL A   1      38.913  34.909  40.016  1.00  0.00     0.012 A 
ATOM     62  C   UNL A   1      37.823  32.742  40.206  1.00  0.00     0.148 A 
ATOM     63  C   UNL A   1      38.323  35.316  41.212  1.00  0.00     0.002 A 
ATOM     64  C   UNL A   1      37.206  33.169  41.377  1.00  0.00     0.091 A 
ATOM     65  F   UNL A   1      37.629  31.509  39.718  1.00  0.00    -0.205 F 
ATOM     66  C   UNL A   1      37.461  34.453  41.886  1.00  0.00     0.022 A 
BRANCH  64  67
ATOM     67  S   UNL A   1      36.016  32.154  42.262  1.00  0.00     0.127 S 
ATOM     68  O   UNL A   1      35.525  33.088  43.273  1.00  0.00    -0.237 OA
ATOM     69  O   UNL A   1      35.047  31.823  41.216  1.00  0.00    -0.237 OA
ATOM     70  O   UNL A   1      36.768  31.014  42.768  1.00  0.00    -0.744 OA
ENDBRANCH  64  67
ENDBRANCH  46  60
BRANCH  47  71
ATOM     71  C   UNL A   1      42.221  31.113  30.535  1.00  0.00     0.023 A 
ATOM     72  C   UNL A   1      42.989  32.053  29.823  1.00  0.00     0.012 A 
ATOM     73  C   UNL A   1      42.040  29.826  29.993  1.00  0.00     0.148 A 
ATOM     74  C   UNL A   1      43.565  31.718  28.596  1.00  0.00     0.002 A 
ATOM     75  C   UNL A   1      42.677  29.475  28.809  1.00  0.00     0.091 A 
ATOM     76  F   UNL A   1      41.274  28.953  30.663  1.00  0.00    -0.205 F 
ATOM     77  C   UNL A   1      43.427  30.424  28.101  1.00  0.00     0.022 A 
BRANCH  75  78
ATOM     78  S   UNL A   1      42.692  27.776  28.222  1.00  0.00     0.127 S 
ATOM     79  O   UNL A   1      43.587  27.862  27.073  1.00  0.00    -0.237 OA
ATOM     80  O   UNL A   1      43.235  27.054  29.373  1.00  0.00    -0.237 OA
ATOM     81  O   UNL A   1      41.299  27.464  27.932  1.00  0.00    -0.744 OA
ENDBRANCH  75  78
ENDBRANCH  47  71
BRANCH  59  82
ATOM     82  C   UNL A   1      44.925  31.098  36.970  1.00  0.00     0.023 A 
ATOM     83  C   UNL A   1      45.902  32.110  37.059  1.00  0.00     0.012 A 
ATOM     84  C   UNL A   1      45.218  29.807  37.447  1.00  0.00     0.148 A 
ATOM     85  C   UNL A   1      47.159  31.834  37.594  1.00  0.00     0.002 A 
ATOM     86  C   UNL A   1      46.461  29.548  38.013  1.00  0.00     0.091 A 
ATOM     87  F   UNL A   1      44.281  28.854  37.332  1.00  0.00    -0.205 F 
ATOM     88  C   UNL A   1      47.435  30.558  38.080  1.00  0.00     0.022 A 
BRANCH  86  89
ATOM     89  S   UNL A   1      46.876  27.955  38.732  1.00  0.00     0.127 S 
ATOM     90  O   UNL A   1      45.831  27.804  39.744  1.00  0.00    -0.237 OA
ATOM     91  O   UNL A   1      46.751  27.052  37.587  1.00  0.00    -0.237 OA
ATOM     92  O   UNL A   1      48.231  28.091  39.246  1.00  0.00    -0.744 OA
ENDBRANCH  86  89
ENDBRANCH  59  82
ENDBRANCH  33  34
ENDBRANCH  26  28
ENDBRANCH  25  26
ENDBRANCH   1  25
TORSDOF 17
ENDMDL
