MODEL 1
REMARK VINA RESULT:     -12.1      0.000      0.000
REMARK SMILES O=C(OCCOC(=O)[C@H]1Cc2[nH]cnc2CN1C(=O)c1ccncc1Cl)c1ccc(-c2c3nc(c(-c4cccc(S(=O)(=O)[O-])c4F)c4ccc([nH]4)c(-c4cccc(S(=O)(=O)[O-])c4F)c4nc(c(-c5cccc(S(=O)(=O)[O-])c5F)c5ccc2[nH]5)C=C4)C=C3)cc1
REMARK SMILES IDX 4 1 3 2 2 3 1 4 27 5 28 6 89 7 29 8 88 9 30 10 31 11 32 12
REMARK SMILES IDX 82 13 33 14 87 15 81 16 83 17 34 18 86 19 80 20 79 21 35 23
REMARK SMILES IDX 67 24 47 25 66 26 48 27 51 28 65 29 84 30 49 31 50 32 64 34
REMARK SMILES IDX 85 35 52 36 36 37 37 38 45 39 38 40 40 41 46 42 39 43 41 44
REMARK SMILES IDX 42 45 43 46 44 47 68 48 69 49 77 50 70 51 72 52 78 53 71 54
REMARK SMILES IDX 73 55 74 56 75 57 76 58 53 59 54 60 62 61 55 62 57 63 63 64
REMARK SMILES IDX 56 65 58 66 59 67 60 68 61 69 5 70 6 71 7 72 8 73 9 74 10 75
REMARK SMILES IDX 17 76 11 77 16 78 12 79 15 80 13 81 14 83 18 84 19 85 20 86
REMARK SMILES IDX 21 87 25 88 22 89 24 90 26 91 23 92
REMARK H PARENT 83 22 51 33 12 82
REMARK Flexibility Score: inf
ROOT
ATOM      1  C   UNL A   1      33.160  30.060  27.461  1.00  0.00     0.275 C 
ENDROOT
BRANCH   1   2
ATOM      2  O   UNL A   1      34.428  30.728  27.348  1.00  0.00    -0.458 OA
BRANCH   2   3
ATOM      3  C   UNL A   1      34.946  31.384  28.407  1.00  0.00     0.338 C 
ATOM      4  O   UNL A   1      34.305  32.132  29.104  1.00  0.00    -0.246 OA
BRANCH   3   5
ATOM      5  C   UNL A   1      36.295  30.887  28.805  1.00  0.00     0.060 A 
ATOM      6  C   UNL A   1      37.430  31.702  28.871  1.00  0.00     0.016 A 
ATOM      7  C   UNL A   1      36.397  29.523  29.100  1.00  0.00     0.016 A 
ATOM      8  C   UNL A   1      38.674  31.154  29.126  1.00  0.00     0.010 A 
ATOM      9  C   UNL A   1      37.639  28.972  29.368  1.00  0.00     0.010 A 
ATOM     10  C   UNL A   1      38.777  29.783  29.323  1.00  0.00    -0.014 A 
BRANCH  10  11
ATOM     11  C   UNL A   1      40.112  29.222  29.439  1.00  0.00     0.031 A 
ATOM     12  C   UNL A   1      40.673  29.057  30.808  1.00  0.00     0.074 A 
ATOM     13  C   UNL A   1      40.729  28.702  28.363  1.00  0.00     0.049 A 
ATOM     14  N   UNL A   1      41.771  29.527  31.308  1.00  0.00    -0.248 NA
ATOM     15  C   UNL A   1      39.856  28.303  31.765  1.00  0.00     0.031 C 
ATOM     16  C   UNL A   1      40.167  28.488  27.027  1.00  0.00     0.029 A 
ATOM     17  N   UNL A   1      41.935  28.078  28.305  1.00  0.00    -0.354 N 
ATOM     18  C   UNL A   1      41.877  28.972  32.586  1.00  0.00     0.074 A 
ATOM     19  C   UNL A   1      40.605  28.359  32.866  1.00  0.00     0.031 C 
ATOM     20  C   UNL A   1      40.895  27.541  26.400  1.00  0.00     0.029 A 
ATOM     21  C   UNL A   1      42.037  27.206  27.231  1.00  0.00     0.049 A 
ATOM     22  H   UNL A   1      42.658  28.227  28.956  1.00  0.00     0.167 HD
ATOM     23  C   UNL A   1      43.057  28.869  33.261  1.00  0.00     0.034 A 
ATOM     24  C   UNL A   1      42.938  26.207  27.100  1.00  0.00     0.034 A 
ATOM     25  C   UNL A   1      44.091  29.683  32.692  1.00  0.00     0.049 A 
ATOM     26  C   UNL A   1      44.057  26.480  28.032  1.00  0.00     0.074 A 
ATOM     27  C   UNL A   1      44.263  31.031  32.454  1.00  0.00     0.029 A 
ATOM     28  N   UNL A   1      45.072  29.051  31.968  1.00  0.00    -0.354 N 
ATOM     29  N   UNL A   1      44.874  27.489  27.907  1.00  0.00    -0.248 NA
ATOM     30  C   UNL A   1      44.034  25.853  29.343  1.00  0.00     0.031 C 
ATOM     31  C   UNL A   1      44.985  31.091  31.226  1.00  0.00     0.029 A 
ATOM     32  C   UNL A   1      45.223  29.777  30.818  1.00  0.00     0.049 A 
ATOM     33  H   UNL A   1      45.567  28.240  32.225  1.00  0.00     0.167 HD
ATOM     34  C   UNL A   1      45.149  27.886  29.209  1.00  0.00     0.074 A 
ATOM     35  C   UNL A   1      44.707  26.769  30.044  1.00  0.00     0.031 C 
ATOM     36  C   UNL A   1      45.436  29.188  29.513  1.00  0.00     0.034 A 
BRANCH  23  37
ATOM     37  C   UNL A   1      43.385  27.804  34.281  1.00  0.00     0.023 A 
ATOM     38  C   UNL A   1      43.793  28.220  35.570  1.00  0.00     0.012 A 
ATOM     39  C   UNL A   1      43.562  26.440  33.967  1.00  0.00     0.148 A 
ATOM     40  C   UNL A   1      44.373  27.331  36.482  1.00  0.00     0.002 A 
ATOM     41  C   UNL A   1      44.056  25.542  34.909  1.00  0.00     0.091 A 
ATOM     42  F   UNL A   1      43.382  26.013  32.712  1.00  0.00    -0.205 F 
ATOM     43  C   UNL A   1      44.492  25.986  36.158  1.00  0.00     0.022 A 
BRANCH  41  44
ATOM     44  S   UNL A   1      44.136  23.789  34.537  1.00  0.00     0.127 S 
ATOM     45  O   UNL A   1      44.968  23.780  33.339  1.00  0.00    -0.237 OA
ATOM     46  O   UNL A   1      44.771  23.246  35.738  1.00  0.00    -0.237 OA
ATOM     47  O   UNL A   1      42.743  23.389  34.371  1.00  0.00    -0.744 OA
ENDBRANCH  41  44
ENDBRANCH  23  37
BRANCH  24  48
ATOM     48  C   UNL A   1      42.772  24.919  26.400  1.00  0.00     0.023 A 
ATOM     49  C   UNL A   1      43.716  24.524  25.436  1.00  0.00     0.012 A 
ATOM     50  C   UNL A   1      41.813  23.970  26.828  1.00  0.00     0.148 A 
ATOM     51  C   UNL A   1      43.714  23.224  24.921  1.00  0.00     0.002 A 
ATOM     52  C   UNL A   1      41.802  22.685  26.300  1.00  0.00     0.091 A 
ATOM     53  F   UNL A   1      40.970  24.303  27.815  1.00  0.00    -0.205 F 
ATOM     54  C   UNL A   1      42.759  22.305  25.351  1.00  0.00     0.022 A 
BRANCH  52  55
ATOM     55  S   UNL A   1      40.598  21.452  26.811  1.00  0.00     0.127 S 
ATOM     56  O   UNL A   1      41.040  20.269  26.072  1.00  0.00    -0.237 OA
ATOM     57  O   UNL A   1      40.820  21.393  28.252  1.00  0.00    -0.237 OA
ATOM     58  O   UNL A   1      39.302  21.969  26.388  1.00  0.00    -0.744 OA
ENDBRANCH  52  55
ENDBRANCH  24  48
BRANCH  36  59
ATOM     59  C   UNL A   1      45.645  30.169  28.383  1.00  0.00     0.023 A 
ATOM     60  C   UNL A   1      44.554  30.806  27.755  1.00  0.00     0.012 A 
ATOM     61  C   UNL A   1      46.942  30.636  28.113  1.00  0.00     0.148 A 
ATOM     62  C   UNL A   1      44.749  31.867  26.869  1.00  0.00     0.002 A 
ATOM     63  C   UNL A   1      47.130  31.730  27.272  1.00  0.00     0.091 A 
ATOM     64  F   UNL A   1      47.977  30.033  28.720  1.00  0.00    -0.205 F 
ATOM     65  C   UNL A   1      46.036  32.341  26.641  1.00  0.00     0.022 A 
BRANCH  63  66
ATOM     66  S   UNL A   1      48.748  32.485  27.077  1.00  0.00     0.127 S 
ATOM     67  O   UNL A   1      49.063  32.893  28.442  1.00  0.00    -0.237 OA
ATOM     68  O   UNL A   1      49.559  31.376  26.567  1.00  0.00    -0.237 OA
ATOM     69  O   UNL A   1      48.559  33.565  26.116  1.00  0.00    -0.744 OA
ENDBRANCH  63  66
ENDBRANCH  36  59
ENDBRANCH  10  11
ENDBRANCH   3   5
ENDBRANCH   2   3
ENDBRANCH   1   2
BRANCH   1  70
ATOM     70  C   UNL A   1      32.023  30.547  26.565  1.00  0.00     0.274 C 
BRANCH  70  71
ATOM     71  O   UNL A   1      31.403  29.554  25.711  1.00  0.00    -0.461 OA
BRANCH  71  72
ATOM     72  C   UNL A   1      32.267  28.874  24.894  1.00  0.00     0.329 C 
ATOM     73  O   UNL A   1      33.063  29.428  24.145  1.00  0.00    -0.250 OA
BRANCH  72  74
ATOM     74  C   UNL A   1      32.036  27.353  24.842  1.00  0.00     0.201 C 
ATOM     75  C   UNL A   1      31.603  26.815  26.246  1.00  0.00     0.093 C 
ATOM     76  N   UNL A   1      31.247  26.735  23.690  1.00  0.00    -0.318 N 
ATOM     77  C   UNL A   1      31.321  25.363  26.150  1.00  0.00     0.042 A 
ATOM     78  C   UNL A   1      31.236  25.253  23.629  1.00  0.00     0.179 C 
ATOM     79  N   UNL A   1      31.182  24.443  27.147  1.00  0.00    -0.348 N 
ATOM     80  C   UNL A   1      31.131  24.666  24.983  1.00  0.00     0.081 A 
ATOM     81  C   UNL A   1      30.889  23.244  26.550  1.00  0.00     0.197 A 
ATOM     82  H   UNL A   1      31.276  24.608  28.112  1.00  0.00     0.167 HD
ATOM     83  N   UNL A   1      30.857  23.350  25.238  1.00  0.00    -0.240 NA
BRANCH  76  84
ATOM     84  C   UNL A   1      30.795  27.325  22.509  1.00  0.00     0.256 C 
ATOM     85  O   UNL A   1      31.172  26.988  21.386  1.00  0.00    -0.269 OA
BRANCH  84  86
ATOM     86  C   UNL A   1      29.775  28.367  22.501  1.00  0.00     0.061 A 
ATOM     87  C   UNL A   1      30.148  29.627  22.026  1.00  0.00     0.035 A 
ATOM     88  C   UNL A   1      28.536  28.171  23.099  1.00  0.00     0.072 A 
ATOM     89  C   UNL A   1      29.213  30.642  22.097  1.00  0.00     0.112 A 
ATOM     90  C   UNL A   1      27.653  29.238  23.064  1.00  0.00     0.132 A 
ATOM     91  Cl  UNL A   1      28.069  26.694  23.851  1.00  0.00    -0.082 Cl
ATOM     92  N   UNL A   1      27.959  30.467  22.570  1.00  0.00    -0.263 NA
ENDBRANCH  84  86
ENDBRANCH  76  84
ENDBRANCH  72  74
ENDBRANCH  71  72
ENDBRANCH  70  71
ENDBRANCH   1  70
TORSDOF 16
ENDMDL
MODEL 2
REMARK VINA RESULT:     -11.8      1.798      3.149
REMARK SMILES O=C(OCCOC(=O)[C@H]1Cc2[nH]cnc2CN1C(=O)c1ccncc1Cl)c1ccc(-c2c3nc(c(-c4cccc(S(=O)(=O)[O-])c4F)c4ccc([nH]4)c(-c4cccc(S(=O)(=O)[O-])c4F)c4nc(c(-c5cccc(S(=O)(=O)[O-])c5F)c5ccc2[nH]5)C=C4)C=C3)cc1
REMARK SMILES IDX 4 1 3 2 2 3 1 4 27 5 28 6 89 7 29 8 88 9 30 10 31 11 32 12
REMARK SMILES IDX 82 13 33 14 87 15 81 16 83 17 34 18 86 19 80 20 79 21 35 23
REMARK SMILES IDX 67 24 47 25 66 26 48 27 51 28 65 29 84 30 49 31 50 32 64 34
REMARK SMILES IDX 85 35 52 36 36 37 37 38 45 39 38 40 40 41 46 42 39 43 41 44
REMARK SMILES IDX 42 45 43 46 44 47 68 48 69 49 77 50 70 51 72 52 78 53 71 54
REMARK SMILES IDX 73 55 74 56 75 57 76 58 53 59 54 60 62 61 55 62 57 63 63 64
REMARK SMILES IDX 56 65 58 66 59 67 60 68 61 69 5 70 6 71 7 72 8 73 9 74 10 75
REMARK SMILES IDX 17 76 11 77 16 78 12 79 15 80 13 81 14 83 18 84 19 85 20 86
REMARK SMILES IDX 21 87 25 88 22 89 24 90 26 91 23 92
REMARK H PARENT 83 22 51 33 12 82
REMARK Flexibility Score: inf
ROOT
ATOM      1  C   UNL A   1      33.990  31.443  27.779  1.00  0.00     0.275 C 
ENDROOT
BRANCH   1   2
ATOM      2  O   UNL A   1      34.933  31.611  28.850  1.00  0.00    -0.458 OA
BRANCH   2   3
ATOM      3  C   UNL A   1      36.070  32.309  28.649  1.00  0.00     0.338 C 
ATOM      4  O   UNL A   1      36.090  33.485  28.379  1.00  0.00    -0.246 OA
BRANCH   3   5
ATOM      5  C   UNL A   1      37.296  31.568  29.065  1.00  0.00     0.060 A 
ATOM      6  C   UNL A   1      38.417  32.184  29.631  1.00  0.00     0.016 A 
ATOM      7  C   UNL A   1      37.298  30.187  28.842  1.00  0.00     0.016 A 
ATOM      8  C   UNL A   1      39.567  31.459  29.880  1.00  0.00     0.010 A 
ATOM      9  C   UNL A   1      38.444  29.453  29.102  1.00  0.00     0.010 A 
ATOM     10  C   UNL A   1      39.589  30.106  29.566  1.00  0.00    -0.014 A 
BRANCH  10  11
ATOM     11  C   UNL A   1      40.857  29.408  29.699  1.00  0.00     0.031 A 
ATOM     12  C   UNL A   1      41.313  29.065  31.074  1.00  0.00     0.074 A 
ATOM     13  C   UNL A   1      41.490  28.931  28.613  1.00  0.00     0.049 A 
ATOM     14  N   UNL A   1      42.415  29.378  31.676  1.00  0.00    -0.248 NA
ATOM     15  C   UNL A   1      40.371  28.311  31.908  1.00  0.00     0.031 C 
ATOM     16  C   UNL A   1      40.996  28.895  27.234  1.00  0.00     0.029 A 
ATOM     17  N   UNL A   1      42.634  28.199  28.560  1.00  0.00    -0.354 N 
ATOM     18  C   UNL A   1      42.389  28.701  32.899  1.00  0.00     0.074 A 
ATOM     19  C   UNL A   1      41.050  28.193  33.048  1.00  0.00     0.031 C 
ATOM     20  C   UNL A   1      41.672  27.943  26.559  1.00  0.00     0.029 A 
ATOM     21  C   UNL A   1      42.723  27.424  27.414  1.00  0.00     0.049 A 
ATOM     22  H   UNL A   1      43.325  28.217  29.261  1.00  0.00     0.167 HD
ATOM     23  C   UNL A   1      43.508  28.422  33.624  1.00  0.00     0.034 A 
ATOM     24  C   UNL A   1      43.534  26.357  27.237  1.00  0.00     0.034 A 
ATOM     25  C   UNL A   1      44.647  29.179  33.193  1.00  0.00     0.049 A 
ATOM     26  C   UNL A   1      44.613  26.433  28.250  1.00  0.00     0.074 A 
ATOM     27  C   UNL A   1      44.958  30.520  33.096  1.00  0.00     0.029 A 
ATOM     28  N   UNL A   1      45.610  28.523  32.466  1.00  0.00    -0.354 N 
ATOM     29  N   UNL A   1      45.525  27.364  28.268  1.00  0.00    -0.248 NA
ATOM     30  C   UNL A   1      44.449  25.694  29.491  1.00  0.00     0.031 C 
ATOM     31  C   UNL A   1      45.759  30.620  31.921  1.00  0.00     0.029 A 
ATOM     32  C   UNL A   1      45.900  29.332  31.401  1.00  0.00     0.049 A 
ATOM     33  H   UNL A   1      46.010  27.647  32.670  1.00  0.00     0.167 HD
ATOM     34  C   UNL A   1      45.753  27.611  29.616  1.00  0.00     0.074 A 
ATOM     35  C   UNL A   1      45.158  26.472  30.313  1.00  0.00     0.031 C 
ATOM     36  C   UNL A   1      46.139  28.846  30.059  1.00  0.00     0.034 A 
BRANCH  23  37
ATOM     37  C   UNL A   1      43.672  27.241  34.552  1.00  0.00     0.023 A 
ATOM     38  C   UNL A   1      43.897  27.500  35.924  1.00  0.00     0.012 A 
ATOM     39  C   UNL A   1      43.872  25.915  34.114  1.00  0.00     0.148 A 
ATOM     40  C   UNL A   1      44.327  26.498  36.802  1.00  0.00     0.002 A 
ATOM     41  C   UNL A   1      44.212  24.905  35.008  1.00  0.00     0.091 A 
ATOM     42  F   UNL A   1      43.867  25.635  32.805  1.00  0.00    -0.205 F 
ATOM     43  C   UNL A   1      44.471  25.194  36.348  1.00  0.00     0.022 A 
BRANCH  41  44
ATOM     44  S   UNL A   1      44.319  23.201  34.454  1.00  0.00     0.127 S 
ATOM     45  O   UNL A   1      43.018  23.014  33.822  1.00  0.00    -0.237 OA
ATOM     46  O   UNL A   1      45.456  23.245  33.534  1.00  0.00    -0.237 OA
ATOM     47  O   UNL A   1      44.572  22.439  35.672  1.00  0.00    -0.744 OA
ENDBRANCH  41  44
ENDBRANCH  23  37
BRANCH  24  48
ATOM     48  C   UNL A   1      43.294  25.160  26.407  1.00  0.00     0.023 A 
ATOM     49  C   UNL A   1      44.136  24.892  25.314  1.00  0.00     0.012 A 
ATOM     50  C   UNL A   1      42.380  24.159  26.812  1.00  0.00     0.148 A 
ATOM     51  C   UNL A   1      44.078  23.663  24.649  1.00  0.00     0.002 A 
ATOM     52  C   UNL A   1      42.312  22.946  26.137  1.00  0.00     0.091 A 
ATOM     53  F   UNL A   1      41.641  24.364  27.911  1.00  0.00    -0.205 F 
ATOM     54  C   UNL A   1      43.168  22.691  25.059  1.00  0.00     0.022 A 
BRANCH  52  55
ATOM     55  S   UNL A   1      41.161  21.651  26.614  1.00  0.00     0.127 S 
ATOM     56  O   UNL A   1      41.569  20.545  25.747  1.00  0.00    -0.237 OA
ATOM     57  O   UNL A   1      41.479  21.470  28.027  1.00  0.00    -0.237 OA
ATOM     58  O   UNL A   1      39.833  22.177  26.323  1.00  0.00    -0.744 OA
ENDBRANCH  52  55
ENDBRANCH  24  48
BRANCH  36  59
ATOM     59  C   UNL A   1      46.509  29.901  29.042  1.00  0.00     0.023 A 
ATOM     60  C   UNL A   1      47.813  29.980  28.510  1.00  0.00     0.012 A 
ATOM     61  C   UNL A   1      45.490  30.656  28.438  1.00  0.00     0.148 A 
ATOM     62  C   UNL A   1      48.100  30.802  27.419  1.00  0.00     0.002 A 
ATOM     63  C   UNL A   1      45.768  31.433  27.316  1.00  0.00     0.091 A 
ATOM     64  F   UNL A   1      44.248  30.572  28.942  1.00  0.00    -0.205 F 
ATOM     65  C   UNL A   1      47.074  31.515  26.810  1.00  0.00     0.022 A 
BRANCH  63  66
ATOM     66  S   UNL A   1      44.452  32.238  26.395  1.00  0.00     0.127 S 
ATOM     67  O   UNL A   1      43.543  31.129  26.126  1.00  0.00    -0.237 OA
ATOM     68  O   UNL A   1      43.947  33.224  27.354  1.00  0.00    -0.237 OA
ATOM     69  O   UNL A   1      45.100  32.829  25.230  1.00  0.00    -0.744 OA
ENDBRANCH  63  66
ENDBRANCH  36  59
ENDBRANCH  10  11
ENDBRANCH   3   5
ENDBRANCH   2   3
ENDBRANCH   1   2
BRANCH   1  70
ATOM     70  C   UNL A   1      34.073  30.158  26.958  1.00  0.00     0.274 C 
BRANCH  70  71
ATOM     71  O   UNL A   1      33.199  30.069  25.807  1.00  0.00    -0.461 OA
BRANCH  71  72
ATOM     72  C   UNL A   1      32.063  29.326  25.998  1.00  0.00     0.329 C 
ATOM     73  O   UNL A   1      31.848  28.675  27.014  1.00  0.00    -0.250 OA
BRANCH  72  74
ATOM     74  C   UNL A   1      31.154  29.214  24.761  1.00  0.00     0.201 C 
ATOM     75  C   UNL A   1      30.282  30.504  24.602  1.00  0.00     0.093 C 
ATOM     76  N   UNL A   1      31.718  28.702  23.438  1.00  0.00    -0.318 N 
ATOM     77  C   UNL A   1      29.469  30.398  23.368  1.00  0.00     0.042 A 
ATOM     78  C   UNL A   1      30.728  28.456  22.360  1.00  0.00     0.179 C 
ATOM     79  N   UNL A   1      28.391  31.136  22.978  1.00  0.00    -0.348 N 
ATOM     80  C   UNL A   1      29.681  29.501  22.352  1.00  0.00     0.081 A 
ATOM     81  C   UNL A   1      28.016  30.680  21.740  1.00  0.00     0.197 A 
ATOM     82  H   UNL A   1      27.962  31.861  23.488  1.00  0.00     0.167 HD
ATOM     83  N   UNL A   1      28.779  29.684  21.339  1.00  0.00    -0.240 NA
BRANCH  76  84
ATOM     84  C   UNL A   1      32.961  28.130  23.167  1.00  0.00     0.256 C 
ATOM     85  O   UNL A   1      33.888  28.730  22.620  1.00  0.00    -0.269 OA
BRANCH  84  86
ATOM     86  C   UNL A   1      33.296  26.769  23.567  1.00  0.00     0.061 A 
ATOM     87  C   UNL A   1      33.825  26.587  24.848  1.00  0.00     0.035 A 
ATOM     88  C   UNL A   1      33.257  25.717  22.660  1.00  0.00     0.072 A 
ATOM     89  C   UNL A   1      34.225  25.313  25.202  1.00  0.00     0.112 A 
ATOM     90  C   UNL A   1      33.626  24.469  23.136  1.00  0.00     0.132 A 
ATOM     91  Cl  UNL A   1      32.772  25.900  21.018  1.00  0.00    -0.082 Cl
ATOM     92  N   UNL A   1      34.102  24.241  24.389  1.00  0.00    -0.263 NA
ENDBRANCH  84  86
ENDBRANCH  76  84
ENDBRANCH  72  74
ENDBRANCH  71  72
ENDBRANCH  70  71
ENDBRANCH   1  70
TORSDOF 16
ENDMDL
MODEL 3
REMARK VINA RESULT:     -11.8      1.383      1.663
REMARK SMILES O=C(OCCOC(=O)[C@H]1Cc2[nH]cnc2CN1C(=O)c1ccncc1Cl)c1ccc(-c2c3nc(c(-c4cccc(S(=O)(=O)[O-])c4F)c4ccc([nH]4)c(-c4cccc(S(=O)(=O)[O-])c4F)c4nc(c(-c5cccc(S(=O)(=O)[O-])c5F)c5ccc2[nH]5)C=C4)C=C3)cc1
REMARK SMILES IDX 4 1 3 2 2 3 1 4 27 5 28 6 89 7 29 8 88 9 30 10 31 11 32 12
REMARK SMILES IDX 82 13 33 14 87 15 81 16 83 17 34 18 86 19 80 20 79 21 35 23
REMARK SMILES IDX 67 24 47 25 66 26 48 27 51 28 65 29 84 30 49 31 50 32 64 34
REMARK SMILES IDX 85 35 52 36 36 37 37 38 45 39 38 40 40 41 46 42 39 43 41 44
REMARK SMILES IDX 42 45 43 46 44 47 68 48 69 49 77 50 70 51 72 52 78 53 71 54
REMARK SMILES IDX 73 55 74 56 75 57 76 58 53 59 54 60 62 61 55 62 57 63 63 64
REMARK SMILES IDX 56 65 58 66 59 67 60 68 61 69 5 70 6 71 7 72 8 73 9 74 10 75
REMARK SMILES IDX 17 76 11 77 16 78 12 79 15 80 13 81 14 83 18 84 19 85 20 86
REMARK SMILES IDX 21 87 25 88 22 89 24 90 26 91 23 92
REMARK H PARENT 83 22 51 33 12 82
REMARK Flexibility Score: inf
ROOT
ATOM      1  C   UNL A   1      32.539  31.124  27.205  1.00  0.00     0.275 C 
ENDROOT
BRANCH   1   2
ATOM      2  O   UNL A   1      33.918  30.780  27.418  1.00  0.00    -0.458 OA
BRANCH   2   3
ATOM      3  C   UNL A   1      34.829  31.746  27.657  1.00  0.00     0.338 C 
ATOM      4  O   UNL A   1      34.571  32.924  27.632  1.00  0.00    -0.246 OA
BRANCH   3   5
ATOM      5  C   UNL A   1      36.103  31.223  28.229  1.00  0.00     0.060 A 
ATOM      6  C   UNL A   1      37.106  32.042  28.761  1.00  0.00     0.016 A 
ATOM      7  C   UNL A   1      36.281  29.836  28.197  1.00  0.00     0.016 A 
ATOM      8  C   UNL A   1      38.314  31.503  29.162  1.00  0.00     0.010 A 
ATOM      9  C   UNL A   1      37.486  29.290  28.609  1.00  0.00     0.010 A 
ATOM     10  C   UNL A   1      38.515  30.134  29.035  1.00  0.00    -0.014 A 
BRANCH  10  11
ATOM     11  C   UNL A   1      39.844  29.623  29.324  1.00  0.00     0.031 A 
ATOM     12  C   UNL A   1      40.315  29.687  30.735  1.00  0.00     0.074 A 
ATOM     13  C   UNL A   1      40.534  28.950  28.386  1.00  0.00     0.049 A 
ATOM     14  N   UNL A   1      41.374  30.251  31.222  1.00  0.00    -0.248 NA
ATOM     15  C   UNL A   1      39.443  29.081  31.746  1.00  0.00     0.031 C 
ATOM     16  C   UNL A   1      40.062  28.517  27.069  1.00  0.00     0.029 A 
ATOM     17  N   UNL A   1      41.745  28.346  28.505  1.00  0.00    -0.354 N 
ATOM     18  C   UNL A   1      41.401  29.908  32.576  1.00  0.00     0.074 A 
ATOM     19  C   UNL A   1      40.117  29.325  32.869  1.00  0.00     0.031 C 
ATOM     20  C   UNL A   1      40.837  27.495  26.648  1.00  0.00     0.029 A 
ATOM     21  C   UNL A   1      41.925  27.318  27.593  1.00  0.00     0.049 A 
ATOM     22  H   UNL A   1      42.423  28.611  29.169  1.00  0.00     0.167 HD
ATOM     23  C   UNL A   1      42.534  29.935  33.333  1.00  0.00     0.034 A 
ATOM     24  C   UNL A   1      42.840  26.327  27.681  1.00  0.00     0.034 A 
ATOM     25  C   UNL A   1      43.597  30.667  32.707  1.00  0.00     0.049 A 
ATOM     26  C   UNL A   1      43.894  26.764  28.626  1.00  0.00     0.074 A 
ATOM     27  C   UNL A   1      43.774  31.963  32.269  1.00  0.00     0.029 A 
ATOM     28  N   UNL A   1      44.628  29.946  32.158  1.00  0.00    -0.354 N 
ATOM     29  N   UNL A   1      44.709  27.755  28.394  1.00  0.00    -0.248 NA
ATOM     30  C   UNL A   1      43.789  26.353  30.016  1.00  0.00     0.031 C 
ATOM     31  C   UNL A   1      44.574  31.840  31.096  1.00  0.00     0.029 A 
ATOM     32  C   UNL A   1      44.849  30.482  30.919  1.00  0.00     0.049 A 
ATOM     33  H   UNL A   1      45.111  29.195  32.572  1.00  0.00     0.167 HD
ATOM     34  C   UNL A   1      44.895  28.359  29.631  1.00  0.00     0.074 A 
ATOM     35  C   UNL A   1      44.408  27.381  30.603  1.00  0.00     0.031 C 
ATOM     36  C   UNL A   1      45.151  29.698  29.740  1.00  0.00     0.034 A 
BRANCH  23  37
ATOM     37  C   UNL A   1      42.803  29.051  34.528  1.00  0.00     0.023 A 
ATOM     38  C   UNL A   1      43.311  29.656  35.702  1.00  0.00     0.012 A 
ATOM     39  C   UNL A   1      42.828  27.641  34.477  1.00  0.00     0.148 A 
ATOM     40  C   UNL A   1      43.843  28.897  36.751  1.00  0.00     0.002 A 
ATOM     41  C   UNL A   1      43.274  26.889  35.560  1.00  0.00     0.091 A 
ATOM     42  F   UNL A   1      42.547  27.008  33.333  1.00  0.00    -0.205 F 
ATOM     43  C   UNL A   1      43.811  27.510  36.688  1.00  0.00     0.022 A 
BRANCH  41  44
ATOM     44  S   UNL A   1      43.162  25.098  35.528  1.00  0.00     0.127 S 
ATOM     45  O   UNL A   1      44.087  24.764  34.451  1.00  0.00    -0.237 OA
ATOM     46  O   UNL A   1      43.614  24.736  36.872  1.00  0.00    -0.237 OA
ATOM     47  O   UNL A   1      41.748  24.828  35.286  1.00  0.00    -0.744 OA
ENDBRANCH  41  44
ENDBRANCH  23  37
BRANCH  24  48
ATOM     48  C   UNL A   1      42.730  24.941  27.185  1.00  0.00     0.023 A 
ATOM     49  C   UNL A   1      41.495  24.274  27.253  1.00  0.00     0.012 A 
ATOM     50  C   UNL A   1      43.776  24.343  26.443  1.00  0.00     0.148 A 
ATOM     51  C   UNL A   1      41.301  23.055  26.596  1.00  0.00     0.002 A 
ATOM     52  C   UNL A   1      43.586  23.122  25.807  1.00  0.00     0.091 A 
ATOM     53  F   UNL A   1      44.926  25.014  26.290  1.00  0.00    -0.205 F 
ATOM     54  C   UNL A   1      42.344  22.479  25.873  1.00  0.00     0.022 A 
BRANCH  52  55
ATOM     55  S   UNL A   1      44.889  22.325  24.860  1.00  0.00     0.127 S 
ATOM     56  O   UNL A   1      44.244  21.080  24.440  1.00  0.00    -0.237 OA
ATOM     57  O   UNL A   1      45.116  23.289  23.788  1.00  0.00    -0.237 OA
ATOM     58  O   UNL A   1      45.994  22.139  25.792  1.00  0.00    -0.744 OA
ENDBRANCH  52  55
ENDBRANCH  24  48
BRANCH  36  59
ATOM     59  C   UNL A   1      45.426  30.490  28.484  1.00  0.00     0.023 A 
ATOM     60  C   UNL A   1      44.374  30.994  27.691  1.00  0.00     0.012 A 
ATOM     61  C   UNL A   1      46.734  30.938  28.229  1.00  0.00     0.148 A 
ATOM     62  C   UNL A   1      44.617  31.905  26.661  1.00  0.00     0.002 A 
ATOM     63  C   UNL A   1      46.966  31.888  27.238  1.00  0.00     0.091 A 
ATOM     64  F   UNL A   1      47.732  30.462  28.992  1.00  0.00    -0.205 F 
ATOM     65  C   UNL A   1      45.912  32.366  26.446  1.00  0.00     0.022 A 
BRANCH  63  66
ATOM     66  S   UNL A   1      48.585  32.637  27.032  1.00  0.00     0.127 S 
ATOM     67  O   UNL A   1      49.373  31.526  26.507  1.00  0.00    -0.237 OA
ATOM     68  O   UNL A   1      48.322  33.710  26.068  1.00  0.00    -0.237 OA
ATOM     69  O   UNL A   1      48.962  33.117  28.356  1.00  0.00    -0.744 OA
ENDBRANCH  63  66
ENDBRANCH  36  59
ENDBRANCH  10  11
ENDBRANCH   3   5
ENDBRANCH   2   3
ENDBRANCH   1   2
BRANCH   1  70
ATOM     70  C   UNL A   1      31.852  30.556  25.965  1.00  0.00     0.274 C 
BRANCH  70  71
ATOM     71  O   UNL A   1      31.666  29.119  25.931  1.00  0.00    -0.461 OA
BRANCH  71  72
ATOM     72  C   UNL A   1      32.434  28.458  25.010  1.00  0.00     0.329 C 
ATOM     73  O   UNL A   1      33.192  29.028  24.232  1.00  0.00    -0.250 OA
BRANCH  72  74
ATOM     74  C   UNL A   1      32.138  26.953  24.889  1.00  0.00     0.201 C 
ATOM     75  C   UNL A   1      31.668  26.374  26.264  1.00  0.00     0.093 C 
ATOM     76  N   UNL A   1      31.334  26.421  23.705  1.00  0.00    -0.318 N 
ATOM     77  C   UNL A   1      31.324  24.942  26.103  1.00  0.00     0.042 A 
ATOM     78  C   UNL A   1      31.258  24.945  23.579  1.00  0.00     0.179 C 
ATOM     79  N   UNL A   1      31.136  23.986  27.057  1.00  0.00    -0.348 N 
ATOM     80  C   UNL A   1      31.115  24.305  24.905  1.00  0.00     0.081 A 
ATOM     81  C   UNL A   1      30.795  22.828  26.406  1.00  0.00     0.197 A 
ATOM     82  H   UNL A   1      31.227  24.104  28.030  1.00  0.00     0.167 HD
ATOM     83  N   UNL A   1      30.781  22.993  25.099  1.00  0.00    -0.240 NA
BRANCH  76  84
ATOM     84  C   UNL A   1      30.919  27.081  22.548  1.00  0.00     0.256 C 
ATOM     85  O   UNL A   1      31.300  26.784  21.415  1.00  0.00    -0.269 OA
BRANCH  84  86
ATOM     86  C   UNL A   1      29.937  28.158  22.576  1.00  0.00     0.061 A 
ATOM     87  C   UNL A   1      30.351  29.418  22.135  1.00  0.00     0.035 A 
ATOM     88  C   UNL A   1      28.695  27.990  23.177  1.00  0.00     0.072 A 
ATOM     89  C   UNL A   1      29.453  30.462  22.241  1.00  0.00     0.112 A 
ATOM     90  C   UNL A   1      27.849  29.087  23.178  1.00  0.00     0.132 A 
ATOM     91  Cl  UNL A   1      28.180  26.509  23.889  1.00  0.00    -0.082 Cl
ATOM     92  N   UNL A   1      28.196  30.319  22.717  1.00  0.00    -0.263 NA
ENDBRANCH  84  86
ENDBRANCH  76  84
ENDBRANCH  72  74
ENDBRANCH  71  72
ENDBRANCH  70  71
ENDBRANCH   1  70
TORSDOF 16
ENDMDL
