MODEL 1
REMARK VINA RESULT:     -10.2      0.000      0.000
REMARK SMILES C[C@H](C1CCCC1)[N@H+](CC(=O)OCCOC(=O)c1ccc(-c2c3nc(c(-c4cccc(S(=O)(=O)[O-])c4F)c4ccc([nH]4)c(-c4cccc(S(=O)(=O)[O-])c4F)c4nc(c(-c5cccc(S(=O)(=O)[O-])c5F)c5ccc2[nH]5)C=C4)C=C3)cc1)CC(F)(F)F
REMARK SMILES IDX 13 1 12 2 10 3 11 4 9 5 8 6 2 8 1 9 3 10 4 11 7 12 5 13 6 14
REMARK SMILES IDX 81 15 82 16 83 17 84 18 85 19 14 20 15 21 16 22 17 23 18 24
REMARK SMILES IDX 19 25 80 26 20 27 79 28 21 29 22 30 23 31 73 32 24 33 78 34
REMARK SMILES IDX 72 35 74 36 25 37 77 38 71 39 70 40 26 42 58 43 38 44 57 45
REMARK SMILES IDX 39 46 42 47 56 48 75 49 40 50 41 51 55 53 76 54 43 55 27 56
REMARK SMILES IDX 28 57 36 58 29 59 31 60 37 61 30 62 32 63 33 64 34 65 35 66
REMARK SMILES IDX 59 67 60 68 68 69 61 70 63 71 69 72 62 73 64 74 65 75 66 76
REMARK SMILES IDX 67 77 44 78 45 79 53 80 46 81 48 82 54 83 47 84 49 85 50 86
REMARK SMILES IDX 51 87 52 88
REMARK H PARENT 8 7 74 41 42 52
REMARK Flexibility Score: inf
ROOT
ATOM      1  C   UNL A   1      31.372  29.223  24.276  1.00  0.00     0.274 C 
ENDROOT
BRANCH   1   2
ATOM      2  O   UNL A   1      32.457  28.604  23.566  1.00  0.00    -0.458 OA
BRANCH   2   3
ATOM      3  C   UNL A   1      32.189  27.455  22.894  1.00  0.00     0.361 C 
ATOM      4  O   UNL A   1      31.082  27.133  22.476  1.00  0.00    -0.245 OA
BRANCH   3   5
ATOM      5  C   UNL A   1      33.404  26.538  22.758  1.00  0.00     0.387 C 
BRANCH   5   6
ATOM      6  N   UNL A   1      33.268  25.264  23.506  1.00  0.00    -0.316 N 
ATOM      7  H   UNL A   1      32.372  24.819  23.301  1.00  0.00     0.349 HD
BRANCH   6   8
ATOM      8  C   UNL A   1      34.129  24.188  22.987  1.00  0.00     0.184 C 
ATOM      9  C   UNL A   1      33.267  23.374  22.009  1.00  0.00     0.075 C 
BRANCH   8  10
ATOM     10  C   UNL A   1      34.910  23.296  23.987  1.00  0.00     0.047 C 
ATOM     11  C   UNL A   1      34.394  21.878  24.257  1.00  0.00     0.010 C 
ATOM     12  C   UNL A   1      36.330  22.993  23.478  1.00  0.00     0.010 C 
ATOM     13  C   UNL A   1      35.568  21.215  24.965  1.00  0.00     0.001 C 
ATOM     14  C   UNL A   1      36.817  21.825  24.332  1.00  0.00     0.001 C 
ENDBRANCH   8  10
ENDBRANCH   6   8
BRANCH   6  15
ATOM     15  C   UNL A   1      33.080  25.478  24.958  1.00  0.00     0.380 C 
BRANCH  15  16
ATOM     16  C   UNL A   1      31.811  24.975  25.686  1.00  0.00     0.438 C 
ATOM     17  F   UNL A   1      32.137  24.439  26.890  1.00  0.00    -0.165 F 
ATOM     18  F   UNL A   1      30.964  25.999  25.950  1.00  0.00    -0.165 F 
ATOM     19  F   UNL A   1      31.131  24.037  24.995  1.00  0.00    -0.165 F 
ENDBRANCH  15  16
ENDBRANCH   6  15
ENDBRANCH   5   6
ENDBRANCH   3   5
ENDBRANCH   2   3
ENDBRANCH   1   2
BRANCH   1  20
ATOM     20  C   UNL A   1      31.783  29.524  25.715  1.00  0.00     0.275 C 
BRANCH  20  21
ATOM     21  O   UNL A   1      33.060  30.187  25.744  1.00  0.00    -0.458 OA
BRANCH  21  22
ATOM     22  C   UNL A   1      33.211  31.091  26.737  1.00  0.00     0.338 C 
ATOM     23  O   UNL A   1      32.439  31.972  27.069  1.00  0.00    -0.246 OA
BRANCH  22  24
ATOM     24  C   UNL A   1      34.459  30.822  27.457  1.00  0.00     0.060 A 
ATOM     25  C   UNL A   1      34.662  29.559  28.017  1.00  0.00     0.016 A 
ATOM     26  C   UNL A   1      35.377  31.852  27.648  1.00  0.00     0.016 A 
ATOM     27  C   UNL A   1      35.795  29.323  28.790  1.00  0.00     0.010 A 
ATOM     28  C   UNL A   1      36.529  31.603  28.393  1.00  0.00     0.010 A 
ATOM     29  C   UNL A   1      36.742  30.340  28.972  1.00  0.00    -0.014 A 
BRANCH  29  30
ATOM     30  C   UNL A   1      38.003  30.071  29.699  1.00  0.00     0.031 A 
ATOM     31  C   UNL A   1      39.026  29.131  29.135  1.00  0.00     0.074 A 
ATOM     32  C   UNL A   1      38.170  30.627  30.913  1.00  0.00     0.049 A 
ATOM     33  N   UNL A   1      40.126  28.689  29.686  1.00  0.00    -0.248 NA
ATOM     34  C   UNL A   1      38.781  28.615  27.779  1.00  0.00     0.031 C 
ATOM     35  C   UNL A   1      37.221  31.537  31.559  1.00  0.00     0.029 A 
ATOM     36  N   UNL A   1      39.176  30.485  31.834  1.00  0.00    -0.354 N 
ATOM     37  C   UNL A   1      40.685  27.811  28.768  1.00  0.00     0.074 A 
ATOM     38  C   UNL A   1      39.807  27.789  27.617  1.00  0.00     0.031 C 
ATOM     39  C   UNL A   1      37.680  31.857  32.777  1.00  0.00     0.029 A 
ATOM     40  C   UNL A   1      38.930  31.145  33.014  1.00  0.00     0.049 A 
ATOM     41  H   UNL A   1      39.992  29.962  31.667  1.00  0.00     0.167 HD
ATOM     42  C   UNL A   1      41.831  27.098  28.876  1.00  0.00     0.034 A 
ATOM     43  C   UNL A   1      39.622  31.155  34.169  1.00  0.00     0.034 A 
ATOM     44  C   UNL A   1      42.710  27.156  30.014  1.00  0.00     0.049 A 
ATOM     45  C   UNL A   1      40.895  30.364  34.255  1.00  0.00     0.074 A 
ATOM     46  C   UNL A   1      43.924  26.517  30.198  1.00  0.00     0.029 A 
ATOM     47  N   UNL A   1      42.468  27.892  31.165  1.00  0.00    -0.354 N 
ATOM     48  N   UNL A   1      41.469  29.628  33.334  1.00  0.00    -0.248 NA
ATOM     49  C   UNL A   1      41.630  30.422  35.526  1.00  0.00     0.031 C 
ATOM     50  C   UNL A   1      44.411  26.861  31.465  1.00  0.00     0.029 A 
ATOM     51  C   UNL A   1      43.503  27.718  32.066  1.00  0.00     0.049 A 
ATOM     52  H   UNL A   1      41.674  28.455  31.317  1.00  0.00     0.167 HD
ATOM     53  C   UNL A   1      42.642  29.151  33.904  1.00  0.00     0.074 A 
ATOM     54  C   UNL A   1      42.708  29.702  35.243  1.00  0.00     0.031 C 
ATOM     55  C   UNL A   1      43.570  28.316  33.376  1.00  0.00     0.034 A 
BRANCH  42  56
ATOM     56  C   UNL A   1      42.225  26.222  27.716  1.00  0.00     0.023 A 
ATOM     57  C   UNL A   1      43.041  26.751  26.696  1.00  0.00     0.012 A 
ATOM     58  C   UNL A   1      41.846  24.867  27.665  1.00  0.00     0.148 A 
ATOM     59  C   UNL A   1      43.458  25.950  25.633  1.00  0.00     0.002 A 
ATOM     60  C   UNL A   1      42.291  24.066  26.618  1.00  0.00     0.091 A 
ATOM     61  F   UNL A   1      41.047  24.388  28.630  1.00  0.00    -0.205 F 
ATOM     62  C   UNL A   1      43.091  24.607  25.599  1.00  0.00     0.022 A 
BRANCH  60  63
ATOM     63  S   UNL A   1      41.921  22.310  26.527  1.00  0.00     0.127 S 
ATOM     64  O   UNL A   1      40.460  22.314  26.536  1.00  0.00    -0.237 OA
ATOM     65  O   UNL A   1      42.520  21.929  25.247  1.00  0.00    -0.237 OA
ATOM     66  O   UNL A   1      42.559  21.711  27.691  1.00  0.00    -0.744 OA
ENDBRANCH  60  63
ENDBRANCH  42  56
BRANCH  43  67
ATOM     67  C   UNL A   1      39.138  31.989  35.305  1.00  0.00     0.023 A 
ATOM     68  C   UNL A   1      38.254  31.422  36.242  1.00  0.00     0.012 A 
ATOM     69  C   UNL A   1      39.609  33.300  35.508  1.00  0.00     0.148 A 
ATOM     70  C   UNL A   1      37.839  32.151  37.357  1.00  0.00     0.002 A 
ATOM     71  C   UNL A   1      39.235  34.001  36.649  1.00  0.00     0.091 A 
ATOM     72  F   UNL A   1      40.432  33.832  34.593  1.00  0.00    -0.205 F 
ATOM     73  C   UNL A   1      38.341  33.433  37.569  1.00  0.00     0.022 A 
BRANCH  71  74
ATOM     74  S   UNL A   1      39.957  35.595  37.061  1.00  0.00     0.127 S 
ATOM     75  O   UNL A   1      39.280  35.918  38.313  1.00  0.00    -0.237 OA
ATOM     76  O   UNL A   1      41.378  35.266  37.196  1.00  0.00    -0.237 OA
ATOM     77  O   UNL A   1      39.655  36.456  35.926  1.00  0.00    -0.744 OA
ENDBRANCH  71  74
ENDBRANCH  43  67
BRANCH  55  78
ATOM     78  C   UNL A   1      44.743  27.953  34.246  1.00  0.00     0.023 A 
ATOM     79  C   UNL A   1      45.832  28.841  34.340  1.00  0.00     0.012 A 
ATOM     80  C   UNL A   1      44.738  26.773  35.013  1.00  0.00     0.148 A 
ATOM     81  C   UNL A   1      46.913  28.546  35.169  1.00  0.00     0.002 A 
ATOM     82  C   UNL A   1      45.802  26.506  35.867  1.00  0.00     0.091 A 
ATOM     83  F   UNL A   1      43.703  25.930  34.889  1.00  0.00    -0.205 F 
ATOM     84  C   UNL A   1      46.893  27.386  35.941  1.00  0.00     0.022 A 
BRANCH  82  85
ATOM     85  S   UNL A   1      45.811  25.073  36.952  1.00  0.00     0.127 S 
ATOM     86  O   UNL A   1      45.927  23.974  35.996  1.00  0.00    -0.237 OA
ATOM     87  O   UNL A   1      47.005  25.300  37.767  1.00  0.00    -0.237 OA
ATOM     88  O   UNL A   1      44.559  25.136  37.694  1.00  0.00    -0.744 OA
ENDBRANCH  82  85
ENDBRANCH  55  78
ENDBRANCH  29  30
ENDBRANCH  22  24
ENDBRANCH  21  22
ENDBRANCH  20  21
ENDBRANCH   1  20
TORSDOF 19
ENDMDL
MODEL 2
REMARK VINA RESULT:      -9.8      4.900      9.937
REMARK SMILES C[C@H](C1CCCC1)[N@H+](CC(=O)OCCOC(=O)c1ccc(-c2c3nc(c(-c4cccc(S(=O)(=O)[O-])c4F)c4ccc([nH]4)c(-c4cccc(S(=O)(=O)[O-])c4F)c4nc(c(-c5cccc(S(=O)(=O)[O-])c5F)c5ccc2[nH]5)C=C4)C=C3)cc1)CC(F)(F)F
REMARK SMILES IDX 13 1 12 2 10 3 11 4 9 5 8 6 2 8 1 9 3 10 4 11 7 12 5 13 6 14
REMARK SMILES IDX 81 15 82 16 83 17 84 18 85 19 14 20 15 21 16 22 17 23 18 24
REMARK SMILES IDX 19 25 80 26 20 27 79 28 21 29 22 30 23 31 73 32 24 33 78 34
REMARK SMILES IDX 72 35 74 36 25 37 77 38 71 39 70 40 26 42 58 43 38 44 57 45
REMARK SMILES IDX 39 46 42 47 56 48 75 49 40 50 41 51 55 53 76 54 43 55 27 56
REMARK SMILES IDX 28 57 36 58 29 59 31 60 37 61 30 62 32 63 33 64 34 65 35 66
REMARK SMILES IDX 59 67 60 68 68 69 61 70 63 71 69 72 62 73 64 74 65 75 66 76
REMARK SMILES IDX 67 77 44 78 45 79 53 80 46 81 48 82 54 83 47 84 49 85 50 86
REMARK SMILES IDX 51 87 52 88
REMARK H PARENT 8 7 74 41 42 52
REMARK Flexibility Score: inf
ROOT
ATOM      1  C   UNL A   1      35.205  20.805  24.687  1.00  0.00     0.274 C 
ENDROOT
BRANCH   1   2
ATOM      2  O   UNL A   1      35.100  22.238  24.714  1.00  0.00    -0.458 OA
BRANCH   2   3
ATOM      3  C   UNL A   1      34.990  22.879  23.522  1.00  0.00     0.361 C 
ATOM      4  O   UNL A   1      35.924  23.091  22.755  1.00  0.00    -0.245 OA
BRANCH   3   5
ATOM      5  C   UNL A   1      33.579  23.391  23.240  1.00  0.00     0.387 C 
BRANCH   5   6
ATOM      6  N   UNL A   1      32.961  24.085  24.396  1.00  0.00    -0.316 N 
ATOM      7  H   UNL A   1      33.434  23.832  25.264  1.00  0.00     0.349 HD
BRANCH   6   8
ATOM      8  C   UNL A   1      33.259  25.527  24.439  1.00  0.00     0.184 C 
ATOM      9  C   UNL A   1      33.153  25.948  25.913  1.00  0.00     0.075 C 
BRANCH   8  10
ATOM     10  C   UNL A   1      32.502  26.484  23.483  1.00  0.00     0.047 C 
ATOM     11  C   UNL A   1      31.071  26.898  23.847  1.00  0.00     0.010 C 
ATOM     12  C   UNL A   1      33.188  27.859  23.407  1.00  0.00     0.010 C 
ATOM     13  C   UNL A   1      30.808  28.075  22.916  1.00  0.00     0.001 C 
ATOM     14  C   UNL A   1      32.152  28.786  22.775  1.00  0.00     0.001 C 
ENDBRANCH   8  10
ENDBRANCH   6   8
BRANCH   6  15
ATOM     15  C   UNL A   1      31.615  23.560  24.717  1.00  0.00     0.380 C 
BRANCH  15  16
ATOM     16  C   UNL A   1      31.409  22.514  25.839  1.00  0.00     0.438 C 
ATOM     17  F   UNL A   1      30.099  22.448  26.189  1.00  0.00    -0.165 F 
ATOM     18  F   UNL A   1      31.745  21.273  25.414  1.00  0.00    -0.165 F 
ATOM     19  F   UNL A   1      32.114  22.780  26.958  1.00  0.00    -0.165 F 
ENDBRANCH  15  16
ENDBRANCH   6  15
ENDBRANCH   5   6
ENDBRANCH   3   5
ENDBRANCH   2   3
ENDBRANCH   1   2
BRANCH   1  20
ATOM     20  C   UNL A   1      36.645  20.374  24.950  1.00  0.00     0.275 C 
BRANCH  20  21
ATOM     21  O   UNL A   1      37.320  21.347  25.766  1.00  0.00    -0.458 OA
BRANCH  21  22
ATOM     22  C   UNL A   1      38.614  21.065  26.038  1.00  0.00     0.338 C 
ATOM     23  O   UNL A   1      39.191  20.001  25.904  1.00  0.00    -0.246 OA
BRANCH  22  24
ATOM     24  C   UNL A   1      39.299  22.286  26.472  1.00  0.00     0.060 A 
ATOM     25  C   UNL A   1      38.847  23.522  26.004  1.00  0.00     0.016 A 
ATOM     26  C   UNL A   1      40.439  22.189  27.266  1.00  0.00     0.016 A 
ATOM     27  C   UNL A   1      39.550  24.679  26.325  1.00  0.00     0.010 A 
ATOM     28  C   UNL A   1      41.122  23.353  27.616  1.00  0.00     0.010 A 
ATOM     29  C   UNL A   1      40.685  24.603  27.144  1.00  0.00    -0.014 A 
BRANCH  29  30
ATOM     30  C   UNL A   1      41.379  25.834  27.582  1.00  0.00     0.031 A 
ATOM     31  C   UNL A   1      40.644  26.898  28.342  1.00  0.00     0.074 A 
ATOM     32  C   UNL A   1      42.662  26.010  27.213  1.00  0.00     0.049 A 
ATOM     33  N   UNL A   1      41.058  28.085  28.700  1.00  0.00    -0.248 NA
ATOM     34  C   UNL A   1      39.263  26.593  28.747  1.00  0.00     0.031 C 
ATOM     35  C   UNL A   1      43.457  25.043  26.453  1.00  0.00     0.029 A 
ATOM     36  N   UNL A   1      43.510  27.072  27.395  1.00  0.00    -0.354 N 
ATOM     37  C   UNL A   1      39.980  28.688  29.334  1.00  0.00     0.074 A 
ATOM     38  C   UNL A   1      38.894  27.731  29.320  1.00  0.00     0.031 C 
ATOM     39  C   UNL A   1      44.670  25.563  26.217  1.00  0.00     0.029 A 
ATOM     40  C   UNL A   1      44.724  26.910  26.772  1.00  0.00     0.049 A 
ATOM     41  H   UNL A   1      43.273  27.870  27.919  1.00  0.00     0.167 HD
ATOM     42  C   UNL A   1      39.912  29.924  29.883  1.00  0.00     0.034 A 
ATOM     43  C   UNL A   1      45.757  27.764  26.639  1.00  0.00     0.034 A 
ATOM     44  C   UNL A   1      41.011  30.851  29.916  1.00  0.00     0.049 A 
ATOM     45  C   UNL A   1      45.657  29.123  27.270  1.00  0.00     0.074 A 
ATOM     46  C   UNL A   1      41.063  32.105  30.499  1.00  0.00     0.029 A 
ATOM     47  N   UNL A   1      42.253  30.628  29.339  1.00  0.00    -0.354 N 
ATOM     48  N   UNL A   1      44.670  29.635  27.965  1.00  0.00    -0.248 NA
ATOM     49  C   UNL A   1      46.816  30.013  27.120  1.00  0.00     0.031 C 
ATOM     50  C   UNL A   1      42.335  32.644  30.266  1.00  0.00     0.029 A 
ATOM     51  C   UNL A   1      43.075  31.722  29.543  1.00  0.00     0.049 A 
ATOM     52  H   UNL A   1      42.510  29.811  28.853  1.00  0.00     0.167 HD
ATOM     53  C   UNL A   1      45.095  30.898  28.355  1.00  0.00     0.074 A 
ATOM     54  C   UNL A   1      46.439  31.064  27.837  1.00  0.00     0.031 C 
ATOM     55  C   UNL A   1      44.427  31.845  29.059  1.00  0.00     0.034 A 
BRANCH  42  56
ATOM     56  C   UNL A   1      38.616  30.333  30.530  1.00  0.00     0.023 A 
ATOM     57  C   UNL A   1      38.394  30.027  31.888  1.00  0.00     0.012 A 
ATOM     58  C   UNL A   1      37.649  31.072  29.822  1.00  0.00     0.148 A 
ATOM     59  C   UNL A   1      37.222  30.433  32.526  1.00  0.00     0.002 A 
ATOM     60  C   UNL A   1      36.496  31.500  30.473  1.00  0.00     0.091 A 
ATOM     61  F   UNL A   1      37.864  31.330  28.524  1.00  0.00    -0.205 F 
ATOM     62  C   UNL A   1      36.279  31.177  31.822  1.00  0.00     0.022 A 
BRANCH  60  63
ATOM     63  S   UNL A   1      35.256  32.517  29.662  1.00  0.00     0.127 S 
ATOM     64  O   UNL A   1      34.355  32.826  30.770  1.00  0.00    -0.237 OA
ATOM     65  O   UNL A   1      36.046  33.655  29.186  1.00  0.00    -0.237 OA
ATOM     66  O   UNL A   1      34.697  31.689  28.603  1.00  0.00    -0.744 OA
ENDBRANCH  60  63
ENDBRANCH  42  56
BRANCH  43  67
ATOM     67  C   UNL A   1      46.986  27.320  25.923  1.00  0.00     0.023 A 
ATOM     68  C   UNL A   1      47.150  27.663  24.568  1.00  0.00     0.012 A 
ATOM     69  C   UNL A   1      48.021  26.638  26.592  1.00  0.00     0.148 A 
ATOM     70  C   UNL A   1      48.321  27.327  23.888  1.00  0.00     0.002 A 
ATOM     71  C   UNL A   1      49.207  26.355  25.923  1.00  0.00     0.091 A 
ATOM     72  F   UNL A   1      47.838  26.299  27.875  1.00  0.00    -0.205 F 
ATOM     73  C   UNL A   1      49.355  26.687  24.568  1.00  0.00     0.022 A 
BRANCH  71  74
ATOM     74  S   UNL A   1      50.634  25.668  26.775  1.00  0.00     0.127 S 
ATOM     75  O   UNL A   1      50.969  26.738  27.709  1.00  0.00    -0.237 OA
ATOM     76  O   UNL A   1      50.077  24.463  27.392  1.00  0.00    -0.237 OA
ATOM     77  O   UNL A   1      51.610  25.399  25.728  1.00  0.00    -0.744 OA
ENDBRANCH  71  74
ENDBRANCH  43  67
BRANCH  55  78
ATOM     78  C   UNL A   1      45.144  33.142  29.318  1.00  0.00     0.023 A 
ATOM     79  C   UNL A   1      45.913  33.283  30.490  1.00  0.00     0.012 A 
ATOM     80  C   UNL A   1      45.107  34.190  28.379  1.00  0.00     0.148 A 
ATOM     81  C   UNL A   1      46.617  34.460  30.734  1.00  0.00     0.002 A 
ATOM     82  C   UNL A   1      45.843  35.346  28.612  1.00  0.00     0.091 A 
ATOM     83  F   UNL A   1      44.348  34.045  27.283  1.00  0.00    -0.205 F 
ATOM     84  C   UNL A   1      46.592  35.486  29.791  1.00  0.00     0.022 A 
BRANCH  82  85
ATOM     85  S   UNL A   1      45.925  36.677  27.408  1.00  0.00     0.127 S 
ATOM     86  O   UNL A   1      46.495  35.997  26.247  1.00  0.00    -0.237 OA
ATOM     87  O   UNL A   1      44.521  37.060  27.262  1.00  0.00    -0.237 OA
ATOM     88  O   UNL A   1      46.765  37.702  28.015  1.00  0.00    -0.744 OA
ENDBRANCH  82  85
ENDBRANCH  55  78
ENDBRANCH  29  30
ENDBRANCH  22  24
ENDBRANCH  21  22
ENDBRANCH  20  21
ENDBRANCH   1  20
TORSDOF 19
ENDMDL
MODEL 3
REMARK VINA RESULT:      -9.7      1.885      2.401
REMARK SMILES C[C@H](C1CCCC1)[N@H+](CC(=O)OCCOC(=O)c1ccc(-c2c3nc(c(-c4cccc(S(=O)(=O)[O-])c4F)c4ccc([nH]4)c(-c4cccc(S(=O)(=O)[O-])c4F)c4nc(c(-c5cccc(S(=O)(=O)[O-])c5F)c5ccc2[nH]5)C=C4)C=C3)cc1)CC(F)(F)F
REMARK SMILES IDX 13 1 12 2 10 3 11 4 9 5 8 6 2 8 1 9 3 10 4 11 7 12 5 13 6 14
REMARK SMILES IDX 81 15 82 16 83 17 84 18 85 19 14 20 15 21 16 22 17 23 18 24
REMARK SMILES IDX 19 25 80 26 20 27 79 28 21 29 22 30 23 31 73 32 24 33 78 34
REMARK SMILES IDX 72 35 74 36 25 37 77 38 71 39 70 40 26 42 58 43 38 44 57 45
REMARK SMILES IDX 39 46 42 47 56 48 75 49 40 50 41 51 55 53 76 54 43 55 27 56
REMARK SMILES IDX 28 57 36 58 29 59 31 60 37 61 30 62 32 63 33 64 34 65 35 66
REMARK SMILES IDX 59 67 60 68 68 69 61 70 63 71 69 72 62 73 64 74 65 75 66 76
REMARK SMILES IDX 67 77 44 78 45 79 53 80 46 81 48 82 54 83 47 84 49 85 50 86
REMARK SMILES IDX 51 87 52 88
REMARK H PARENT 8 7 74 41 42 52
REMARK Flexibility Score: inf
ROOT
ATOM      1  C   UNL A   1      33.669  28.607  24.440  1.00  0.00     0.274 C 
ENDROOT
BRANCH   1   2
ATOM      2  O   UNL A   1      32.998  27.360  24.192  1.00  0.00    -0.458 OA
BRANCH   2   3
ATOM      3  C   UNL A   1      33.305  26.313  25.000  1.00  0.00     0.361 C 
ATOM      4  O   UNL A   1      32.968  26.218  26.176  1.00  0.00    -0.245 OA
BRANCH   3   5
ATOM      5  C   UNL A   1      34.190  25.268  24.324  1.00  0.00     0.387 C 
BRANCH   5   6
ATOM      6  N   UNL A   1      34.065  23.915  24.920  1.00  0.00    -0.316 N 
ATOM      7  H   UNL A   1      33.215  23.844  25.481  1.00  0.00     0.349 HD
BRANCH   6   8
ATOM      8  C   UNL A   1      33.722  22.873  23.937  1.00  0.00     0.184 C 
ATOM      9  C   UNL A   1      32.677  23.492  22.994  1.00  0.00     0.075 C 
BRANCH   8  10
ATOM     10  C   UNL A   1      33.320  21.463  24.438  1.00  0.00     0.047 C 
ATOM     11  C   UNL A   1      32.430  20.595  23.541  1.00  0.00     0.010 C 
ATOM     12  C   UNL A   1      34.549  20.550  24.592  1.00  0.00     0.010 C 
ATOM     13  C   UNL A   1      32.552  19.213  24.171  1.00  0.00     0.001 C 
ATOM     14  C   UNL A   1      33.983  19.136  24.699  1.00  0.00     0.001 C 
ENDBRANCH   8  10
ENDBRANCH   6   8
BRANCH   6  15
ATOM     15  C   UNL A   1      35.057  23.675  25.992  1.00  0.00     0.380 C 
BRANCH  15  16
ATOM     16  C   UNL A   1      36.564  23.529  25.672  1.00  0.00     0.438 C 
ATOM     17  F   UNL A   1      36.776  23.641  24.335  1.00  0.00    -0.165 F 
ATOM     18  F   UNL A   1      37.281  24.524  26.247  1.00  0.00    -0.165 F 
ATOM     19  F   UNL A   1      37.086  22.351  26.068  1.00  0.00    -0.165 F 
ENDBRANCH  15  16
ENDBRANCH   6  15
ENDBRANCH   5   6
ENDBRANCH   3   5
ENDBRANCH   2   3
ENDBRANCH   1   2
BRANCH   1  20
ATOM     20  C   UNL A   1      32.669  29.666  24.897  1.00  0.00     0.275 C 
BRANCH  20  21
ATOM     21  O   UNL A   1      32.620  29.723  26.334  1.00  0.00    -0.458 OA
BRANCH  21  22
ATOM     22  C   UNL A   1      33.032  30.892  26.873  1.00  0.00     0.338 C 
ATOM     23  O   UNL A   1      32.461  31.967  26.849  1.00  0.00    -0.246 OA
BRANCH  22  24
ATOM     24  C   UNL A   1      34.289  30.681  27.595  1.00  0.00     0.060 A 
ATOM     25  C   UNL A   1      35.155  31.761  27.784  1.00  0.00     0.016 A 
ATOM     26  C   UNL A   1      34.641  29.395  28.000  1.00  0.00     0.016 A 
ATOM     27  C   UNL A   1      36.396  31.552  28.377  1.00  0.00     0.010 A 
ATOM     28  C   UNL A   1      35.870  29.195  28.625  1.00  0.00     0.010 A 
ATOM     29  C   UNL A   1      36.757  30.269  28.813  1.00  0.00    -0.014 A 
BRANCH  29  30
ATOM     30  C   UNL A   1      38.027  30.053  29.542  1.00  0.00     0.031 A 
ATOM     31  C   UNL A   1      39.088  29.155  28.980  1.00  0.00     0.074 A 
ATOM     32  C   UNL A   1      38.171  30.618  30.755  1.00  0.00     0.049 A 
ATOM     33  N   UNL A   1      40.205  28.760  29.532  1.00  0.00    -0.248 NA
ATOM     34  C   UNL A   1      38.865  28.627  27.625  1.00  0.00     0.031 C 
ATOM     35  C   UNL A   1      37.185  31.490  31.399  1.00  0.00     0.029 A 
ATOM     36  N   UNL A   1      39.181  30.518  31.676  1.00  0.00    -0.354 N 
ATOM     37  C   UNL A   1      40.799  27.904  28.615  1.00  0.00     0.074 A 
ATOM     38  C   UNL A   1      39.923  27.843  27.464  1.00  0.00     0.031 C 
ATOM     39  C   UNL A   1      37.629  31.830  32.616  1.00  0.00     0.029 A 
ATOM     40  C   UNL A   1      38.908  31.170  32.855  1.00  0.00     0.049 A 
ATOM     41  H   UNL A   1      40.018  30.029  31.510  1.00  0.00     0.167 HD
ATOM     42  C   UNL A   1      41.974  27.238  28.725  1.00  0.00     0.034 A 
ATOM     43  C   UNL A   1      39.599  31.210  34.011  1.00  0.00     0.034 A 
ATOM     44  C   UNL A   1      42.849  27.333  29.863  1.00  0.00     0.049 A 
ATOM     45  C   UNL A   1      40.903  30.472  34.098  1.00  0.00     0.074 A 
ATOM     46  C   UNL A   1      44.088  26.745  30.049  1.00  0.00     0.029 A 
ATOM     47  N   UNL A   1      42.576  28.061  31.013  1.00  0.00    -0.354 N 
ATOM     48  N   UNL A   1      41.506  29.758  33.179  1.00  0.00    -0.248 NA
ATOM     49  C   UNL A   1      41.634  30.562  35.369  1.00  0.00     0.031 C 
ATOM     50  C   UNL A   1      44.560  27.111  31.316  1.00  0.00     0.029 A 
ATOM     51  C   UNL A   1      43.617  27.932  31.915  1.00  0.00     0.049 A 
ATOM     52  H   UNL A   1      41.760  28.591  31.164  1.00  0.00     0.167 HD
ATOM     53  C   UNL A   1      42.698  29.331  33.750  1.00  0.00     0.074 A 
ATOM     54  C   UNL A   1      42.741  29.886  35.088  1.00  0.00     0.031 C 
ATOM     55  C   UNL A   1      43.660  28.534  33.224  1.00  0.00     0.034 A 
BRANCH  42  56
ATOM     56  C   UNL A   1      42.403  26.377  27.567  1.00  0.00     0.023 A 
ATOM     57  C   UNL A   1      43.217  26.931  26.558  1.00  0.00     0.012 A 
ATOM     58  C   UNL A   1      42.061  25.012  27.507  1.00  0.00     0.148 A 
ATOM     59  C   UNL A   1      43.667  26.145  25.497  1.00  0.00     0.002 A 
ATOM     60  C   UNL A   1      42.539  24.227  26.463  1.00  0.00     0.091 A 
ATOM     61  F   UNL A   1      41.264  24.509  28.461  1.00  0.00    -0.205 F 
ATOM     62  C   UNL A   1      43.336  24.793  25.455  1.00  0.00     0.022 A 
BRANCH  60  63
ATOM     63  S   UNL A   1      42.216  22.463  26.362  1.00  0.00     0.127 S 
ATOM     64  O   UNL A   1      42.705  22.148  25.022  1.00  0.00    -0.237 OA
ATOM     65  O   UNL A   1      43.038  21.930  27.450  1.00  0.00    -0.237 OA
ATOM     66  O   UNL A   1      40.781  22.311  26.563  1.00  0.00    -0.744 OA
ENDBRANCH  60  63
ENDBRANCH  42  56
BRANCH  43  67
ATOM     67  C   UNL A   1      39.080  32.026  35.145  1.00  0.00     0.023 A 
ATOM     68  C   UNL A   1      39.057  33.428  35.025  1.00  0.00     0.012 A 
ATOM     69  C   UNL A   1      38.537  31.424  36.296  1.00  0.00     0.148 A 
ATOM     70  C   UNL A   1      38.511  34.218  36.037  1.00  0.00     0.002 A 
ATOM     71  C   UNL A   1      37.946  32.214  37.276  1.00  0.00     0.091 A 
ATOM     72  F   UNL A   1      38.589  30.089  36.404  1.00  0.00    -0.205 F 
ATOM     73  C   UNL A   1      37.942  33.611  37.155  1.00  0.00     0.022 A 
BRANCH  71  74
ATOM     74  S   UNL A   1      37.063  31.494  38.667  1.00  0.00     0.127 S 
ATOM     75  O   UNL A   1      36.844  30.126  38.209  1.00  0.00    -0.237 OA
ATOM     76  O   UNL A   1      38.032  31.632  39.756  1.00  0.00    -0.237 OA
ATOM     77  O   UNL A   1      35.871  32.316  38.828  1.00  0.00    -0.744 OA
ENDBRANCH  71  74
ENDBRANCH  43  67
BRANCH  55  78
ATOM     78  C   UNL A   1      44.845  28.221  34.095  1.00  0.00     0.023 A 
ATOM     79  C   UNL A   1      45.964  29.076  34.071  1.00  0.00     0.012 A 
ATOM     80  C   UNL A   1      44.827  27.124  34.977  1.00  0.00     0.148 A 
ATOM     81  C   UNL A   1      47.059  28.830  34.896  1.00  0.00     0.002 A 
ATOM     82  C   UNL A   1      45.907  26.908  35.825  1.00  0.00     0.091 A 
ATOM     83  F   UNL A   1      43.763  26.308  34.966  1.00  0.00    -0.205 F 
ATOM     84  C   UNL A   1      47.027  27.754  35.781  1.00  0.00     0.022 A 
BRANCH  82  85
ATOM     85  S   UNL A   1      45.904  25.591  37.048  1.00  0.00     0.127 S 
ATOM     86  O   UNL A   1      44.679  25.875  37.792  1.00  0.00    -0.237 OA
ATOM     87  O   UNL A   1      45.848  24.388  36.218  1.00  0.00    -0.237 OA
ATOM     88  O   UNL A   1      47.147  25.746  37.793  1.00  0.00    -0.744 OA
ENDBRANCH  82  85
ENDBRANCH  55  78
ENDBRANCH  29  30
ENDBRANCH  22  24
ENDBRANCH  21  22
ENDBRANCH  20  21
ENDBRANCH   1  20
TORSDOF 19
ENDMDL
