MODEL 1
REMARK VINA RESULT:     -11.9      0.000      0.000
REMARK SMILES C[C@H]1CC[C@@]2(CO)C(C(=O)OCCOC(=O)c3ccc(-c4c5nc(c(-c6cccc(S(=O)(=O)[O-])c6F)c6ccc([nH]6)c(-c6cccc(S(=O)(=O)[O-])c6F)c6nc(c(-c7cccc(S(=O)(=O)[O-])c7F)c7ccc4[nH]7)C=C6)C=C5)cc3)=C[C@@H](O)C[C@@H]2[C@@]1(C)CCc1ccoc1
REMARK SMILES IDX 12 1 11 2 9 3 10 4 8 5 1 6 2 7 3 8 85 9 4 10 84 11 86 12
REMARK SMILES IDX 5 13 83 14 81 15 80 16 87 17 88 18 89 19 90 20 93 21 91 22
REMARK SMILES IDX 92 23 6 24 7 25 82 27 13 29 14 30 15 31 16 32 17 33 18 34
REMARK SMILES IDX 79 35 19 36 78 37 20 38 21 39 22 40 72 41 23 42 77 43 71 44
REMARK SMILES IDX 73 45 24 46 76 47 70 48 69 49 25 51 57 52 37 53 56 54 38 55
REMARK SMILES IDX 41 56 55 57 74 58 39 59 40 60 54 62 75 63 42 64 26 65 27 66
REMARK SMILES IDX 35 67 28 68 30 69 36 70 29 71 31 72 32 73 33 74 34 75 58 76
REMARK SMILES IDX 59 77 67 78 60 79 62 80 68 81 61 82 63 83 64 84 65 85 66 86
REMARK SMILES IDX 43 87 44 88 52 89 45 90 47 91 53 92 46 93 48 94 49 95 50 96
REMARK SMILES IDX 51 97
REMARK H PARENT 7 26 82 28 73 50 41 61
REMARK Flexibility Score: inf
ROOT
ATOM      1  C   UNL A   1      37.971  21.112  25.032  1.00  0.00     0.275 C 
ENDROOT
BRANCH   1   2
ATOM      2  O   UNL A   1      36.684  20.532  24.737  1.00  0.00    -0.459 OA
BRANCH   2   3
ATOM      3  C   UNL A   1      35.625  21.283  25.162  1.00  0.00     0.334 C 
ATOM      4  O   UNL A   1      35.710  22.106  26.048  1.00  0.00    -0.247 OA
BRANCH   3   5
ATOM      5  C   UNL A   1      34.370  21.002  24.366  1.00  0.00     0.044 C 
ATOM      6  C   UNL A   1      34.645  25.297  25.422  1.00  0.00     0.008 C 
ATOM      7  C   UNL A   1      33.442  25.174  24.453  1.00  0.00    -0.008 C 
ATOM      8  C   UNL A   1      33.977  24.729  23.087  1.00  0.00     0.005 C 
ATOM      9  C   UNL A   1      32.249  24.255  24.958  1.00  0.00    -0.026 C 
ATOM     10  C   UNL A   1      34.458  23.281  23.048  1.00  0.00     0.015 C 
ATOM     11  C   UNL A   1      32.827  22.792  25.081  1.00  0.00     0.011 C 
ATOM     12  C   UNL A   1      31.042  24.342  23.989  1.00  0.00     0.012 C 
ATOM     13  C   UNL A   1      33.578  22.227  23.791  1.00  0.00     0.029 C 
ATOM     14  C   UNL A   1      31.883  21.685  25.647  1.00  0.00     0.041 C 
ATOM     15  C   UNL A   1      32.599  20.337  25.903  1.00  0.00     0.138 C 
ATOM     16  C   UNL A   1      33.635  19.973  24.857  1.00  0.00     0.016 C 
BRANCH   9  17
ATOM     17  C   UNL A   1      31.770  24.889  26.319  1.00  0.00     0.012 C 
BRANCH  17  18
ATOM     18  C   UNL A   1      30.684  25.978  26.319  1.00  0.00     0.039 C 
BRANCH  18  19
ATOM     19  C   UNL A   1      31.258  27.364  26.394  1.00  0.00    -0.010 A 
ATOM     20  C   UNL A   1      31.610  28.088  27.569  1.00  0.00     0.045 A 
ATOM     21  C   UNL A   1      31.544  28.225  25.348  1.00  0.00     0.198 A 
ATOM     22  C   UNL A   1      32.051  29.322  27.155  1.00  0.00     0.195 A 
ATOM     23  O   UNL A   1      32.014  29.411  25.804  1.00  0.00    -0.472 OA
ENDBRANCH  18  19
ENDBRANCH  17  18
ENDBRANCH   9  17
BRANCH  13  24
ATOM     24  C   UNL A   1      32.620  21.637  22.678  1.00  0.00     0.168 C 
BRANCH  24  25
ATOM     25  O   UNL A   1      32.559  22.415  21.493  1.00  0.00    -0.395 OA
ATOM     26  H   UNL A   1      32.348  23.334  21.720  1.00  0.00     0.210 HD
ENDBRANCH  24  25
ENDBRANCH  13  24
BRANCH  15  27
ATOM     27  O   UNL A   1      33.245  20.402  27.172  1.00  0.00    -0.389 OA
ATOM     28  H   UNL A   1      32.635  20.775  27.827  1.00  0.00     0.211 HD
ENDBRANCH  15  27
ENDBRANCH   3   5
ENDBRANCH   2   3
ENDBRANCH   1   2
BRANCH   1  29
ATOM     29  C   UNL A   1      38.942  20.072  25.602  1.00  0.00     0.275 C 
BRANCH  29  30
ATOM     30  O   UNL A   1      40.269  20.606  25.777  1.00  0.00    -0.458 OA
BRANCH  30  31
ATOM     31  C   UNL A   1      40.700  20.675  27.061  1.00  0.00     0.338 C 
ATOM     32  O   UNL A   1      40.981  19.729  27.783  1.00  0.00    -0.246 OA
BRANCH  31  33
ATOM     33  C   UNL A   1      40.966  22.079  27.448  1.00  0.00     0.060 A 
ATOM     34  C   UNL A   1      40.386  23.084  26.664  1.00  0.00     0.016 A 
ATOM     35  C   UNL A   1      41.779  22.420  28.530  1.00  0.00     0.016 A 
ATOM     36  C   UNL A   1      40.597  24.428  26.968  1.00  0.00     0.010 A 
ATOM     37  C   UNL A   1      42.024  23.771  28.811  1.00  0.00     0.010 A 
ATOM     38  C   UNL A   1      41.440  24.780  28.027  1.00  0.00    -0.014 A 
BRANCH  38  39
ATOM     39  C   UNL A   1      41.827  26.200  28.209  1.00  0.00     0.031 A 
ATOM     40  C   UNL A   1      43.223  26.616  27.843  1.00  0.00     0.074 A 
ATOM     41  C   UNL A   1      40.956  27.106  28.689  1.00  0.00     0.049 A 
ATOM     42  N   UNL A   1      43.795  27.785  27.962  1.00  0.00    -0.248 NA
ATOM     43  C   UNL A   1      44.084  25.578  27.252  1.00  0.00     0.031 C 
ATOM     44  C   UNL A   1      39.562  26.840  29.034  1.00  0.00     0.029 A 
ATOM     45  N   UNL A   1      41.133  28.434  28.991  1.00  0.00    -0.354 N 
ATOM     46  C   UNL A   1      45.084  27.624  27.471  1.00  0.00     0.074 A 
ATOM     47  C   UNL A   1      45.210  26.247  27.045  1.00  0.00     0.031 C 
ATOM     48  C   UNL A   1      39.022  27.960  29.549  1.00  0.00     0.029 A 
ATOM     49  C   UNL A   1      40.038  29.011  29.590  1.00  0.00     0.049 A 
ATOM     50  H   UNL A   1      41.964  28.925  28.797  1.00  0.00     0.167 HD
ATOM     51  C   UNL A   1      46.076  28.539  27.378  1.00  0.00     0.034 A 
ATOM     52  C   UNL A   1      39.888  30.235  30.135  1.00  0.00     0.034 A 
ATOM     53  C   UNL A   1      45.971  29.898  27.829  1.00  0.00     0.049 A 
ATOM     54  C   UNL A   1      41.034  31.215  30.089  1.00  0.00     0.074 A 
ATOM     55  C   UNL A   1      46.936  30.889  27.801  1.00  0.00     0.029 A 
ATOM     56  N   UNL A   1      44.841  30.453  28.407  1.00  0.00    -0.354 N 
ATOM     57  N   UNL A   1      42.219  31.078  29.545  1.00  0.00    -0.248 NA
ATOM     58  C   UNL A   1      40.814  32.531  30.711  1.00  0.00     0.031 C 
ATOM     59  C   UNL A   1      46.393  32.040  28.381  1.00  0.00     0.029 A 
ATOM     60  C   UNL A   1      45.084  31.772  28.747  1.00  0.00     0.049 A 
ATOM     61  H   UNL A   1      43.990  29.979  28.555  1.00  0.00     0.167 HD
ATOM     62  C   UNL A   1      42.872  32.293  29.731  1.00  0.00     0.074 A 
ATOM     63  C   UNL A   1      41.944  33.164  30.420  1.00  0.00     0.031 C 
ATOM     64  C   UNL A   1      44.133  32.649  29.379  1.00  0.00     0.034 A 
BRANCH  51  65
ATOM     65  C   UNL A   1      47.366  28.091  26.752  1.00  0.00     0.023 A 
ATOM     66  C   UNL A   1      48.471  27.807  27.578  1.00  0.00     0.012 A 
ATOM     67  C   UNL A   1      47.475  27.920  25.358  1.00  0.00     0.148 A 
ATOM     68  C   UNL A   1      49.676  27.379  27.024  1.00  0.00     0.002 A 
ATOM     69  C   UNL A   1      48.668  27.460  24.818  1.00  0.00     0.091 A 
ATOM     70  F   UNL A   1      46.418  28.223  24.593  1.00  0.00    -0.205 F 
ATOM     71  C   UNL A   1      49.772  27.198  25.647  1.00  0.00     0.022 A 
BRANCH  69  72
ATOM     72  S   UNL A   1      48.877  27.141  23.063  1.00  0.00     0.127 S 
ATOM     73  O   UNL A   1      48.228  28.311  22.472  1.00  0.00    -0.237 OA
ATOM     74  O   UNL A   1      50.333  27.115  22.926  1.00  0.00    -0.237 OA
ATOM     75  O   UNL A   1      48.218  25.867  22.806  1.00  0.00    -0.744 OA
ENDBRANCH  69  72
ENDBRANCH  51  65
BRANCH  52  76
ATOM     76  C   UNL A   1      38.595  30.614  30.774  1.00  0.00     0.023 A 
ATOM     77  C   UNL A   1      38.358  30.279  32.121  1.00  0.00     0.012 A 
ATOM     78  C   UNL A   1      37.599  31.304  30.053  1.00  0.00     0.148 A 
ATOM     79  C   UNL A   1      37.144  30.598  32.731  1.00  0.00     0.002 A 
ATOM     80  C   UNL A   1      36.413  31.664  30.681  1.00  0.00     0.091 A 
ATOM     81  F   UNL A   1      37.835  31.594  28.765  1.00  0.00    -0.205 F 
ATOM     82  C   UNL A   1      36.176  31.299  32.015  1.00  0.00     0.022 A 
BRANCH  80  83
ATOM     83  S   UNL A   1      35.156  32.661  29.873  1.00  0.00     0.127 S 
ATOM     84  O   UNL A   1      35.934  33.806  29.408  1.00  0.00    -0.237 OA
ATOM     85  O   UNL A   1      34.693  31.761  28.816  1.00  0.00    -0.237 OA
ATOM     86  O   UNL A   1      34.161  32.949  30.897  1.00  0.00    -0.744 OA
ENDBRANCH  80  83
ENDBRANCH  52  76
BRANCH  64  87
ATOM     87  C   UNL A   1      44.591  34.049  29.698  1.00  0.00     0.023 A 
ATOM     88  C   UNL A   1      45.208  34.316  30.937  1.00  0.00     0.012 A 
ATOM     89  C   UNL A   1      44.507  35.071  28.733  1.00  0.00     0.148 A 
ATOM     90  C   UNL A   1      45.717  35.584  31.215  1.00  0.00     0.002 A 
ATOM     91  C   UNL A   1      45.057  36.321  29.001  1.00  0.00     0.091 A 
ATOM     92  F   UNL A   1      43.901  34.804  27.567  1.00  0.00    -0.205 F 
ATOM     93  C   UNL A   1      45.654  36.581  30.245  1.00  0.00     0.022 A 
BRANCH  91  94
ATOM     94  S   UNL A   1      45.107  37.632  27.772  1.00  0.00     0.127 S 
ATOM     95  O   UNL A   1      45.928  37.027  26.725  1.00  0.00    -0.237 OA
ATOM     96  O   UNL A   1      43.694  37.789  27.424  1.00  0.00    -0.237 OA
ATOM     97  O   UNL A   1      45.693  38.785  28.442  1.00  0.00    -0.744 OA
ENDBRANCH  91  94
ENDBRANCH  64  87
ENDBRANCH  38  39
ENDBRANCH  31  33
ENDBRANCH  30  31
ENDBRANCH  29  30
ENDBRANCH   1  29
TORSDOF 20
ENDMDL
MODEL 2
REMARK VINA RESULT:     -11.8      4.958     10.522
REMARK SMILES C[C@H]1CC[C@@]2(CO)C(C(=O)OCCOC(=O)c3ccc(-c4c5nc(c(-c6cccc(S(=O)(=O)[O-])c6F)c6ccc([nH]6)c(-c6cccc(S(=O)(=O)[O-])c6F)c6nc(c(-c7cccc(S(=O)(=O)[O-])c7F)c7ccc4[nH]7)C=C6)C=C5)cc3)=C[C@@H](O)C[C@@H]2[C@@]1(C)CCc1ccoc1
REMARK SMILES IDX 12 1 11 2 9 3 10 4 8 5 1 6 2 7 3 8 85 9 4 10 84 11 86 12
REMARK SMILES IDX 5 13 83 14 81 15 80 16 87 17 88 18 89 19 90 20 93 21 91 22
REMARK SMILES IDX 92 23 6 24 7 25 82 27 13 29 14 30 15 31 16 32 17 33 18 34
REMARK SMILES IDX 79 35 19 36 78 37 20 38 21 39 22 40 72 41 23 42 77 43 71 44
REMARK SMILES IDX 73 45 24 46 76 47 70 48 69 49 25 51 57 52 37 53 56 54 38 55
REMARK SMILES IDX 41 56 55 57 74 58 39 59 40 60 54 62 75 63 42 64 26 65 27 66
REMARK SMILES IDX 35 67 28 68 30 69 36 70 29 71 31 72 32 73 33 74 34 75 58 76
REMARK SMILES IDX 59 77 67 78 60 79 62 80 68 81 61 82 63 83 64 84 65 85 66 86
REMARK SMILES IDX 43 87 44 88 52 89 45 90 47 91 53 92 46 93 48 94 49 95 50 96
REMARK SMILES IDX 51 97
REMARK H PARENT 7 26 82 28 73 50 41 61
REMARK Flexibility Score: inf
ROOT
ATOM      1  C   UNL A   1      32.237  31.130  26.892  1.00  0.00     0.275 C 
ENDROOT
BRANCH   1   2
ATOM      2  O   UNL A   1      31.340  30.625  25.882  1.00  0.00    -0.459 OA
BRANCH   2   3
ATOM      3  C   UNL A   1      31.824  29.546  25.198  1.00  0.00     0.334 C 
ATOM      4  O   UNL A   1      33.006  29.286  25.121  1.00  0.00    -0.247 OA
BRANCH   3   5
ATOM      5  C   UNL A   1      30.717  28.703  24.604  1.00  0.00     0.044 C 
ATOM      6  C   UNL A   1      34.131  26.173  25.864  1.00  0.00     0.008 C 
ATOM      7  C   UNL A   1      32.999  25.192  25.465  1.00  0.00    -0.008 C 
ATOM      8  C   UNL A   1      31.838  25.383  26.448  1.00  0.00     0.005 C 
ATOM      9  C   UNL A   1      32.524  25.277  23.952  1.00  0.00    -0.026 C 
ATOM     10  C   UNL A   1      31.082  26.697  26.272  1.00  0.00     0.015 C 
ATOM     11  C   UNL A   1      31.907  26.715  23.752  1.00  0.00     0.011 C 
ATOM     12  C   UNL A   1      31.516  24.144  23.631  1.00  0.00     0.012 C 
ATOM     13  C   UNL A   1      30.792  27.150  24.807  1.00  0.00     0.029 C 
ATOM     14  C   UNL A   1      31.434  27.107  22.317  1.00  0.00     0.041 C 
ATOM     15  C   UNL A   1      31.023  28.594  22.189  1.00  0.00     0.138 C 
ATOM     16  C   UNL A   1      30.288  29.144  23.396  1.00  0.00     0.016 C 
BRANCH   9  17
ATOM     17  C   UNL A   1      33.808  24.984  23.086  1.00  0.00     0.012 C 
BRANCH  17  18
ATOM     18  C   UNL A   1      34.133  23.544  22.656  1.00  0.00     0.039 C 
BRANCH  18  19
ATOM     19  C   UNL A   1      35.203  22.918  23.505  1.00  0.00    -0.010 A 
ATOM     20  C   UNL A   1      35.021  22.158  24.696  1.00  0.00     0.045 A 
ATOM     21  C   UNL A   1      36.574  22.966  23.320  1.00  0.00     0.198 A 
ATOM     22  C   UNL A   1      36.276  21.828  25.149  1.00  0.00     0.195 A 
ATOM     23  O   UNL A   1      37.226  22.317  24.315  1.00  0.00    -0.472 OA
ENDBRANCH  18  19
ENDBRANCH  17  18
ENDBRANCH   9  17
BRANCH  13  24
ATOM     24  C   UNL A   1      29.340  26.604  24.490  1.00  0.00     0.168 C 
BRANCH  24  25
ATOM     25  O   UNL A   1      28.887  25.603  25.389  1.00  0.00    -0.395 OA
ATOM     26  H   UNL A   1      29.238  24.741  25.116  1.00  0.00     0.210 HD
ENDBRANCH  24  25
ENDBRANCH  13  24
BRANCH  15  27
ATOM     27  O   UNL A   1      32.201  29.372  21.987  1.00  0.00    -0.389 OA
ATOM     28  H   UNL A   1      32.669  29.052  21.201  1.00  0.00     0.211 HD
ENDBRANCH  15  27
ENDBRANCH   3   5
ENDBRANCH   2   3
ENDBRANCH   1   2
BRANCH   1  29
ATOM     29  C   UNL A   1      32.169  32.658  26.994  1.00  0.00     0.275 C 
BRANCH  29  30
ATOM     30  O   UNL A   1      32.788  33.151  28.197  1.00  0.00    -0.458 OA
BRANCH  30  31
ATOM     31  C   UNL A   1      33.930  33.859  28.012  1.00  0.00     0.338 C 
ATOM     32  O   UNL A   1      34.008  35.031  27.672  1.00  0.00    -0.246 OA
BRANCH  31  33
ATOM     33  C   UNL A   1      35.107  33.076  28.450  1.00  0.00     0.060 A 
ATOM     34  C   UNL A   1      34.867  31.866  29.111  1.00  0.00     0.016 A 
ATOM     35  C   UNL A   1      36.419  33.513  28.251  1.00  0.00     0.016 A 
ATOM     36  C   UNL A   1      35.928  31.079  29.556  1.00  0.00     0.010 A 
ATOM     37  C   UNL A   1      37.485  32.743  28.733  1.00  0.00     0.010 A 
ATOM     38  C   UNL A   1      37.244  31.526  29.394  1.00  0.00    -0.014 A 
BRANCH  38  39
ATOM     39  C   UNL A   1      38.349  30.791  30.054  1.00  0.00     0.031 A 
ATOM     40  C   UNL A   1      38.753  31.198  31.442  1.00  0.00     0.074 A 
ATOM     41  C   UNL A   1      38.984  29.779  29.436  1.00  0.00     0.049 A 
ATOM     42  N   UNL A   1      39.717  30.734  32.192  1.00  0.00    -0.248 NA
ATOM     43  C   UNL A   1      37.954  32.262  32.074  1.00  0.00     0.031 C 
ATOM     44  C   UNL A   1      38.656  29.257  28.112  1.00  0.00     0.029 A 
ATOM     45  N   UNL A   1      40.059  29.026  29.841  1.00  0.00    -0.354 N 
ATOM     46  C   UNL A   1      39.649  31.451  33.379  1.00  0.00     0.074 A 
ATOM     47  C   UNL A   1      38.545  32.379  33.255  1.00  0.00     0.031 C 
ATOM     48  C   UNL A   1      39.546  28.300  27.790  1.00  0.00     0.029 A 
ATOM     49  C   UNL A   1      40.516  28.160  28.876  1.00  0.00     0.049 A 
ATOM     50  H   UNL A   1      40.464  29.100  30.735  1.00  0.00     0.167 HD
ATOM     51  C   UNL A   1      40.430  31.349  34.478  1.00  0.00     0.034 A 
ATOM     52  C   UNL A   1      41.609  27.370  28.861  1.00  0.00     0.034 A 
ATOM     53  C   UNL A   1      41.549  30.456  34.598  1.00  0.00     0.049 A 
ATOM     54  C   UNL A   1      42.513  27.329  30.069  1.00  0.00     0.074 A 
ATOM     55  C   UNL A   1      42.417  30.306  35.664  1.00  0.00     0.029 A 
ATOM     56  N   UNL A   1      41.967  29.578  33.611  1.00  0.00    -0.354 N 
ATOM     57  N   UNL A   1      42.387  27.950  31.217  1.00  0.00    -0.248 NA
ATOM     58  C   UNL A   1      43.696  26.458  29.990  1.00  0.00     0.031 C 
ATOM     59  C   UNL A   1      43.373  29.346  35.314  1.00  0.00     0.029 A 
ATOM     60  C   UNL A   1      43.085  28.884  34.040  1.00  0.00     0.049 A 
ATOM     61  H   UNL A   1      41.534  29.464  32.735  1.00  0.00     0.167 HD
ATOM     62  C   UNL A   1      43.454  27.524  32.004  1.00  0.00     0.074 A 
ATOM     63  C   UNL A   1      44.205  26.574  31.210  1.00  0.00     0.031 C 
ATOM     64  C   UNL A   1      43.790  27.898  33.264  1.00  0.00     0.034 A 
BRANCH  51  65
ATOM     65  C   UNL A   1      40.091  32.230  35.647  1.00  0.00     0.023 A 
ATOM     66  C   UNL A   1      40.811  33.424  35.843  1.00  0.00     0.012 A 
ATOM     67  C   UNL A   1      39.044  31.894  36.527  1.00  0.00     0.148 A 
ATOM     68  C   UNL A   1      40.509  34.264  36.913  1.00  0.00     0.002 A 
ATOM     69  C   UNL A   1      38.726  32.754  37.570  1.00  0.00     0.091 A 
ATOM     70  F   UNL A   1      38.392  30.739  36.334  1.00  0.00    -0.205 F 
ATOM     71  C   UNL A   1      39.462  33.934  37.769  1.00  0.00     0.022 A 
BRANCH  69  72
ATOM     72  S   UNL A   1      37.361  32.448  38.695  1.00  0.00     0.127 S 
ATOM     73  O   UNL A   1      37.709  33.313  39.822  1.00  0.00    -0.237 OA
ATOM     74  O   UNL A   1      36.210  32.899  37.912  1.00  0.00    -0.237 OA
ATOM     75  O   UNL A   1      37.384  31.019  38.976  1.00  0.00    -0.744 OA
ENDBRANCH  69  72
ENDBRANCH  51  65
BRANCH  52  76
ATOM     76  C   UNL A   1      41.917  26.542  27.660  1.00  0.00     0.023 A 
ATOM     77  C   UNL A   1      42.522  27.140  26.537  1.00  0.00     0.012 A 
ATOM     78  C   UNL A   1      41.612  25.167  27.623  1.00  0.00     0.148 A 
ATOM     79  C   UNL A   1      42.793  26.392  25.391  1.00  0.00     0.002 A 
ATOM     80  C   UNL A   1      41.930  24.415  26.498  1.00  0.00     0.091 A 
ATOM     81  F   UNL A   1      41.015  24.621  28.693  1.00  0.00    -0.205 F 
ATOM     82  C   UNL A   1      42.506  25.028  25.375  1.00  0.00     0.022 A 
BRANCH  80  83
ATOM     83  S   UNL A   1      41.699  22.635  26.428  1.00  0.00     0.127 S 
ATOM     84  O   UNL A   1      40.245  22.526  26.339  1.00  0.00    -0.237 OA
ATOM     85  O   UNL A   1      42.418  22.288  25.202  1.00  0.00    -0.237 OA
ATOM     86  O   UNL A   1      42.298  22.110  27.646  1.00  0.00    -0.744 OA
ENDBRANCH  80  83
ENDBRANCH  52  76
BRANCH  64  87
ATOM     87  C   UNL A   1      45.007  27.267  33.892  1.00  0.00     0.023 A 
ATOM     88  C   UNL A   1      46.251  27.925  33.818  1.00  0.00     0.012 A 
ATOM     89  C   UNL A   1      44.896  26.081  34.643  1.00  0.00     0.148 A 
ATOM     90  C   UNL A   1      47.368  27.401  34.466  1.00  0.00     0.002 A 
ATOM     91  C   UNL A   1      46.004  25.588  35.323  1.00  0.00     0.091 A 
ATOM     92  F   UNL A   1      43.708  25.459  34.687  1.00  0.00    -0.205 F 
ATOM     93  C   UNL A   1      47.244  26.242  35.228  1.00  0.00     0.022 A 
BRANCH  91  94
ATOM     94  S   UNL A   1      45.909  24.157  36.407  1.00  0.00     0.127 S 
ATOM     95  O   UNL A   1      47.005  24.416  37.339  1.00  0.00    -0.237 OA
ATOM     96  O   UNL A   1      44.572  24.292  36.987  1.00  0.00    -0.237 OA
ATOM     97  O   UNL A   1      46.077  22.993  35.548  1.00  0.00    -0.744 OA
ENDBRANCH  91  94
ENDBRANCH  64  87
ENDBRANCH  38  39
ENDBRANCH  31  33
ENDBRANCH  30  31
ENDBRANCH  29  30
ENDBRANCH   1  29
TORSDOF 20
ENDMDL
MODEL 3
REMARK VINA RESULT:     -11.7      5.338      8.803
REMARK SMILES C[C@H]1CC[C@@]2(CO)C(C(=O)OCCOC(=O)c3ccc(-c4c5nc(c(-c6cccc(S(=O)(=O)[O-])c6F)c6ccc([nH]6)c(-c6cccc(S(=O)(=O)[O-])c6F)c6nc(c(-c7cccc(S(=O)(=O)[O-])c7F)c7ccc4[nH]7)C=C6)C=C5)cc3)=C[C@@H](O)C[C@@H]2[C@@]1(C)CCc1ccoc1
REMARK SMILES IDX 12 1 11 2 9 3 10 4 8 5 1 6 2 7 3 8 85 9 4 10 84 11 86 12
REMARK SMILES IDX 5 13 83 14 81 15 80 16 87 17 88 18 89 19 90 20 93 21 91 22
REMARK SMILES IDX 92 23 6 24 7 25 82 27 13 29 14 30 15 31 16 32 17 33 18 34
REMARK SMILES IDX 79 35 19 36 78 37 20 38 21 39 22 40 72 41 23 42 77 43 71 44
REMARK SMILES IDX 73 45 24 46 76 47 70 48 69 49 25 51 57 52 37 53 56 54 38 55
REMARK SMILES IDX 41 56 55 57 74 58 39 59 40 60 54 62 75 63 42 64 26 65 27 66
REMARK SMILES IDX 35 67 28 68 30 69 36 70 29 71 31 72 32 73 33 74 34 75 58 76
REMARK SMILES IDX 59 77 67 78 60 79 62 80 68 81 61 82 63 83 64 84 65 85 66 86
REMARK SMILES IDX 43 87 44 88 52 89 45 90 47 91 53 92 46 93 48 94 49 95 50 96
REMARK SMILES IDX 51 97
REMARK H PARENT 7 26 82 28 73 50 41 61
REMARK Flexibility Score: inf
ROOT
ATOM      1  C   UNL A   1      32.470  30.973  26.879  1.00  0.00     0.275 C 
ENDROOT
BRANCH   1   2
ATOM      2  O   UNL A   1      31.424  30.167  26.301  1.00  0.00    -0.459 OA
BRANCH   2   3
ATOM      3  C   UNL A   1      31.834  29.391  25.254  1.00  0.00     0.334 C 
ATOM      4  O   UNL A   1      32.983  29.350  24.871  1.00  0.00    -0.247 OA
BRANCH   3   5
ATOM      5  C   UNL A   1      30.705  28.565  24.678  1.00  0.00     0.044 C 
ATOM      6  C   UNL A   1      34.183  26.009  25.681  1.00  0.00     0.008 C 
ATOM      7  C   UNL A   1      33.038  25.037  25.295  1.00  0.00    -0.008 C 
ATOM      8  C   UNL A   1      31.922  25.182  26.336  1.00  0.00     0.005 C 
ATOM      9  C   UNL A   1      32.494  25.179  23.810  1.00  0.00    -0.026 C 
ATOM     10  C   UNL A   1      31.154  26.498  26.246  1.00  0.00     0.015 C 
ATOM     11  C   UNL A   1      31.863  26.620  23.695  1.00  0.00     0.011 C 
ATOM     12  C   UNL A   1      31.477  24.053  23.490  1.00  0.00     0.012 C 
ATOM     13  C   UNL A   1      30.795  27.006  24.815  1.00  0.00     0.029 C 
ATOM     14  C   UNL A   1      31.323  27.066  22.299  1.00  0.00     0.041 C 
ATOM     15  C   UNL A   1      30.901  28.553  22.249  1.00  0.00     0.138 C 
ATOM     16  C   UNL A   1      30.219  29.051  23.509  1.00  0.00     0.016 C 
BRANCH   9  17
ATOM     17  C   UNL A   1      33.738  24.928  22.875  1.00  0.00     0.012 C 
BRANCH  17  18
ATOM     18  C   UNL A   1      34.094  23.498  22.435  1.00  0.00     0.039 C 
BRANCH  18  19
ATOM     19  C   UNL A   1      35.090  22.845  23.350  1.00  0.00    -0.010 A 
ATOM     20  C   UNL A   1      36.506  22.993  23.326  1.00  0.00     0.045 A 
ATOM     21  C   UNL A   1      34.843  21.957  24.382  1.00  0.00     0.198 A 
ATOM     22  C   UNL A   1      37.005  22.178  24.314  1.00  0.00     0.195 A 
ATOM     23  O   UNL A   1      35.997  21.545  24.961  1.00  0.00    -0.472 OA
ENDBRANCH  18  19
ENDBRANCH  17  18
ENDBRANCH   9  17
BRANCH  13  24
ATOM     24  C   UNL A   1      29.333  26.464  24.543  1.00  0.00     0.168 C 
BRANCH  24  25
ATOM     25  O   UNL A   1      28.845  25.584  25.543  1.00  0.00    -0.395 OA
ATOM     26  H   UNL A   1      29.475  25.550  26.280  1.00  0.00     0.210 HD
ENDBRANCH  24  25
ENDBRANCH  13  24
BRANCH  15  27
ATOM     27  O   UNL A   1      32.065  29.346  22.025  1.00  0.00    -0.389 OA
ATOM     28  H   UNL A   1      32.813  28.768  21.813  1.00  0.00     0.211 HD
ENDBRANCH  15  27
ENDBRANCH   3   5
ENDBRANCH   2   3
ENDBRANCH   1   2
BRANCH   1  29
ATOM     29  C   UNL A   1      31.965  32.372  27.251  1.00  0.00     0.275 C 
BRANCH  29  30
ATOM     30  O   UNL A   1      33.018  33.355  27.227  1.00  0.00    -0.458 OA
BRANCH  30  31
ATOM     31  C   UNL A   1      33.299  33.930  28.423  1.00  0.00     0.338 C 
ATOM     32  O   UNL A   1      32.578  34.695  29.046  1.00  0.00    -0.246 OA
BRANCH  31  33
ATOM     33  C   UNL A   1      34.549  33.373  28.988  1.00  0.00     0.060 A 
ATOM     34  C   UNL A   1      34.427  32.359  29.946  1.00  0.00     0.016 A 
ATOM     35  C   UNL A   1      35.814  33.838  28.621  1.00  0.00     0.016 A 
ATOM     36  C   UNL A   1      35.562  31.792  30.524  1.00  0.00     0.010 A 
ATOM     37  C   UNL A   1      36.953  33.296  29.232  1.00  0.00     0.010 A 
ATOM     38  C   UNL A   1      36.831  32.276  30.191  1.00  0.00    -0.014 A 
BRANCH  38  39
ATOM     39  C   UNL A   1      38.011  31.817  30.963  1.00  0.00     0.031 A 
ATOM     40  C   UNL A   1      38.846  30.703  30.401  1.00  0.00     0.074 A 
ATOM     41  C   UNL A   1      38.339  32.379  32.140  1.00  0.00     0.049 A 
ATOM     42  N   UNL A   1      39.889  30.108  30.919  1.00  0.00    -0.248 NA
ATOM     43  C   UNL A   1      38.463  30.200  29.071  1.00  0.00     0.031 C 
ATOM     44  C   UNL A   1      37.640  33.497  32.768  1.00  0.00     0.029 A 
ATOM     45  N   UNL A   1      39.336  32.060  33.029  1.00  0.00    -0.354 N 
ATOM     46  C   UNL A   1      40.282  29.157  29.987  1.00  0.00     0.074 A 
ATOM     47  C   UNL A   1      39.371  29.256  28.866  1.00  0.00     0.031 C 
ATOM     48  C   UNL A   1      38.200  33.740  33.968  1.00  0.00     0.029 A 
ATOM     49  C   UNL A   1      39.280  32.780  34.199  1.00  0.00     0.049 A 
ATOM     50  H   UNL A   1      40.025  31.381  32.846  1.00  0.00     0.167 HD
ATOM     51  C   UNL A   1      41.309  28.280  30.051  1.00  0.00     0.034 A 
ATOM     52  C   UNL A   1      39.997  32.656  35.334  1.00  0.00     0.034 A 
ATOM     53  C   UNL A   1      42.196  28.152  31.173  1.00  0.00     0.049 A 
ATOM     54  C   UNL A   1      41.089  31.618  35.413  1.00  0.00     0.074 A 
ATOM     55  C   UNL A   1      43.249  27.270  31.339  1.00  0.00     0.029 A 
ATOM     56  N   UNL A   1      42.124  28.913  32.328  1.00  0.00    -0.354 N 
ATOM     57  N   UNL A   1      41.505  30.783  34.492  1.00  0.00    -0.248 NA
ATOM     58  C   UNL A   1      41.829  31.521  36.681  1.00  0.00     0.031 C 
ATOM     59  C   UNL A   1      43.802  27.486  32.605  1.00  0.00     0.029 A 
ATOM     60  C   UNL A   1      43.110  28.519  33.216  1.00  0.00     0.049 A 
ATOM     61  H   UNL A   1      41.469  29.629  32.494  1.00  0.00     0.167 HD
ATOM     62  C   UNL A   1      42.569  30.085  35.056  1.00  0.00     0.074 A 
ATOM     63  C   UNL A   1      42.750  30.610  36.393  1.00  0.00     0.031 C 
ATOM     64  C   UNL A   1      43.318  29.089  34.522  1.00  0.00     0.034 A 
BRANCH  51  65
ATOM     65  C   UNL A   1      41.529  27.392  28.860  1.00  0.00     0.023 A 
ATOM     66  C   UNL A   1      40.805  26.188  28.754  1.00  0.00     0.012 A 
ATOM     67  C   UNL A   1      42.423  27.760  27.836  1.00  0.00     0.148 A 
ATOM     68  C   UNL A   1      40.983  25.351  27.654  1.00  0.00     0.002 A 
ATOM     69  C   UNL A   1      42.568  26.938  26.727  1.00  0.00     0.091 A 
ATOM     70  F   UNL A   1      43.120  28.897  27.975  1.00  0.00    -0.205 F 
ATOM     71  C   UNL A   1      41.856  25.730  26.638  1.00  0.00     0.022 A 
BRANCH  69  72
ATOM     72  S   UNL A   1      43.624  27.362  25.339  1.00  0.00     0.127 S 
ATOM     73  O   UNL A   1      44.200  26.061  24.999  1.00  0.00    -0.237 OA
ATOM     74  O   UNL A   1      42.662  27.877  24.365  1.00  0.00    -0.237 OA
ATOM     75  O   UNL A   1      44.570  28.350  25.841  1.00  0.00    -0.744 OA
ENDBRANCH  69  72
ENDBRANCH  51  65
BRANCH  52  76
ATOM     76  C   UNL A   1      39.711  33.543  36.498  1.00  0.00     0.023 A 
ATOM     77  C   UNL A   1      40.101  34.896  36.456  1.00  0.00     0.012 A 
ATOM     78  C   UNL A   1      39.056  33.053  37.646  1.00  0.00     0.148 A 
ATOM     79  C   UNL A   1      39.870  35.737  37.546  1.00  0.00     0.002 A 
ATOM     80  C   UNL A   1      38.784  33.908  38.707  1.00  0.00     0.091 A 
ATOM     81  F   UNL A   1      38.714  31.756  37.675  1.00  0.00    -0.205 F 
ATOM     82  C   UNL A   1      39.203  35.246  38.666  1.00  0.00     0.022 A 
BRANCH  80  83
ATOM     83  S   UNL A   1      37.835  33.393  40.143  1.00  0.00     0.127 S 
ATOM     84  O   UNL A   1      37.861  34.600  40.966  1.00  0.00    -0.237 OA
ATOM     85  O   UNL A   1      36.535  33.081  39.548  1.00  0.00    -0.237 OA
ATOM     86  O   UNL A   1      38.539  32.242  40.690  1.00  0.00    -0.744 OA
ENDBRANCH  80  83
ENDBRANCH  52  76
BRANCH  64  87
ATOM     87  C   UNL A   1      44.428  28.506  35.359  1.00  0.00     0.023 A 
ATOM     88  C   UNL A   1      45.717  29.074  35.301  1.00  0.00     0.012 A 
ATOM     89  C   UNL A   1      44.169  27.470  36.278  1.00  0.00     0.148 A 
ATOM     90  C   UNL A   1      46.734  28.605  36.132  1.00  0.00     0.002 A 
ATOM     91  C   UNL A   1      45.177  27.038  37.134  1.00  0.00     0.091 A 
ATOM     92  F   UNL A   1      42.942  26.930  36.306  1.00  0.00    -0.205 F 
ATOM     93  C   UNL A   1      46.463  27.599  37.056  1.00  0.00     0.022 A 
BRANCH  91  94
ATOM     94  S   UNL A   1      44.887  25.817  38.420  1.00  0.00     0.127 S 
ATOM     95  O   UNL A   1      44.490  24.648  37.636  1.00  0.00    -0.237 OA
ATOM     96  O   UNL A   1      46.204  25.708  39.051  1.00  0.00    -0.237 OA
ATOM     97  O   UNL A   1      43.853  26.378  39.278  1.00  0.00    -0.744 OA
ENDBRANCH  91  94
ENDBRANCH  64  87
ENDBRANCH  38  39
ENDBRANCH  31  33
ENDBRANCH  30  31
ENDBRANCH  29  30
ENDBRANCH   1  29
TORSDOF 20
ENDMDL
