MODEL 1
REMARK VINA RESULT:     -11.6      0.000      0.000
REMARK SMILES O=C(C[NH+]1CC[NH+](Cc2cc(Cl)ccc2[N+](=O)[O-])CC1)OCCOC(=O)c1ccc(-c2c3nc(c(-c4cccc(S(=O)(=O)[O-])c4F)c4ccc([nH]4)c(-c4cccc(S(=O)(=O)[O-])c4F)c4nc(c(-c5cccc(S(=O)(=O)[O-])c5F)c5ccc2[nH]5)C=C4)C=C3)cc1
REMARK SMILES IDX 22 1 21 2 2 3 1 4 3 5 4 6 5 7 20 8 6 10 19 11 7 12 8 14 9 15
REMARK SMILES IDX 10 16 15 17 11 18 14 19 12 20 13 21 16 22 17 23 18 24 23 25
REMARK SMILES IDX 24 26 25 27 26 28 27 29 28 30 89 31 29 32 88 33 30 34 31 35
REMARK SMILES IDX 32 36 82 37 33 38 87 39 81 40 83 41 34 42 86 43 80 44 79 45
REMARK SMILES IDX 35 47 67 48 47 49 66 50 48 51 51 52 65 53 84 54 49 55 50 56
REMARK SMILES IDX 64 58 85 59 52 60 36 61 37 62 45 63 38 64 40 65 46 66 39 67
REMARK SMILES IDX 41 68 42 69 43 70 44 71 68 72 69 73 77 74 70 75 72 76 78 77
REMARK SMILES IDX 71 78 73 79 74 80 75 81 76 82 53 83 54 84 62 85 55 86 57 87
REMARK SMILES IDX 63 88 56 89 58 90 59 91 60 92 61 93
REMARK H PARENT 4 9 7 13 83 46 51 57
REMARK Flexibility Score: inf
ROOT
ATOM      1  C   UNL A   1      35.744  21.003  25.291  1.00  0.00     0.274 C 
ENDROOT
BRANCH   1   2
ATOM      2  O   UNL A   1      34.694  20.158  24.800  1.00  0.00    -0.458 OA
BRANCH   2   3
ATOM      3  C   UNL A   1      33.471  20.438  25.338  1.00  0.00     0.361 C 
ATOM      4  O   UNL A   1      33.282  20.605  26.536  1.00  0.00    -0.245 OA
BRANCH   3   5
ATOM      5  C   UNL A   1      32.442  20.641  24.223  1.00  0.00     0.386 C 
BRANCH   5   6
ATOM      6  N   UNL A   1      32.202  22.066  23.918  1.00  0.00    -0.316 N 
ATOM      7  C   UNL A   1      31.763  22.870  25.060  1.00  0.00     0.325 C 
ATOM      8  C   UNL A   1      33.264  22.639  23.078  1.00  0.00     0.325 C 
ATOM      9  H   UNL A   1      31.371  22.101  23.327  1.00  0.00     0.348 HD
ATOM     10  C   UNL A   1      32.510  24.165  25.422  1.00  0.00     0.324 C 
ATOM     11  C   UNL A   1      33.955  23.948  23.535  1.00  0.00     0.324 C 
ATOM     12  N   UNL A   1      33.147  24.875  24.325  1.00  0.00    -0.322 N 
ATOM     13  H   UNL A   1      33.799  25.545  24.732  1.00  0.00     0.348 HD
BRANCH  12  14
ATOM     14  C   UNL A   1      32.321  25.847  23.601  1.00  0.00     0.306 C 
BRANCH  14  15
ATOM     15  C   UNL A   1      32.260  27.257  24.154  1.00  0.00     0.085 A 
ATOM     16  C   UNL A   1      33.353  27.670  24.952  1.00  0.00     0.037 A 
ATOM     17  C   UNL A   1      31.179  28.157  24.025  1.00  0.00     0.278 A 
ATOM     18  C   UNL A   1      33.311  28.841  25.709  1.00  0.00     0.042 A 
ATOM     19  C   UNL A   1      31.145  29.339  24.800  1.00  0.00     0.088 A 
ATOM     20  Cl  UNL A   1      34.631  29.241  26.735  1.00  0.00    -0.084 Cl
ATOM     21  C   UNL A   1      32.195  29.662  25.661  1.00  0.00     0.027 A 
BRANCH  17  22
ATOM     22  N   UNL A   1      30.053  27.959  23.083  1.00  0.00     0.063 N 
ATOM     23  O   UNL A   1      30.187  28.414  21.941  1.00  0.00    -0.258 OA
ATOM     24  O   UNL A   1      29.075  27.303  23.454  1.00  0.00    -0.258 OA
ENDBRANCH  17  22
ENDBRANCH  14  15
ENDBRANCH  12  14
ENDBRANCH   5   6
ENDBRANCH   3   5
ENDBRANCH   2   3
ENDBRANCH   1   2
BRANCH   1  25
ATOM     25  C   UNL A   1      37.125  20.378  25.001  1.00  0.00     0.275 C 
BRANCH  25  26
ATOM     26  O   UNL A   1      38.186  21.355  25.012  1.00  0.00    -0.458 OA
BRANCH  26  27
ATOM     27  C   UNL A   1      39.213  21.034  25.847  1.00  0.00     0.338 C 
ATOM     28  O   UNL A   1      39.806  19.974  25.877  1.00  0.00    -0.246 OA
BRANCH  27  29
ATOM     29  C   UNL A   1      39.656  22.228  26.609  1.00  0.00     0.060 A 
ATOM     30  C   UNL A   1      39.046  23.450  26.290  1.00  0.00     0.016 A 
ATOM     31  C   UNL A   1      40.633  22.176  27.608  1.00  0.00     0.016 A 
ATOM     32  C   UNL A   1      39.450  24.626  26.924  1.00  0.00     0.010 A 
ATOM     33  C   UNL A   1      41.045  23.361  28.237  1.00  0.00     0.010 A 
ATOM     34  C   UNL A   1      40.487  24.598  27.865  1.00  0.00    -0.014 A 
BRANCH  34  35
ATOM     35  C   UNL A   1      41.126  25.880  28.259  1.00  0.00     0.031 A 
ATOM     36  C   UNL A   1      42.550  26.126  27.830  1.00  0.00     0.074 A 
ATOM     37  C   UNL A   1      40.464  26.837  28.937  1.00  0.00     0.049 A 
ATOM     38  N   UNL A   1      43.265  27.217  27.914  1.00  0.00    -0.248 NA
ATOM     39  C   UNL A   1      43.258  24.986  27.223  1.00  0.00     0.031 C 
ATOM     40  C   UNL A   1      39.096  26.735  29.437  1.00  0.00     0.029 A 
ATOM     41  N   UNL A   1      40.871  28.091  29.323  1.00  0.00    -0.354 N 
ATOM     42  C   UNL A   1      44.505  26.896  27.374  1.00  0.00     0.074 A 
ATOM     43  C   UNL A   1      44.456  25.501  26.995  1.00  0.00     0.031 C 
ATOM     44  C   UNL A   1      38.778  27.879  30.074  1.00  0.00     0.029 A 
ATOM     45  C   UNL A   1      39.918  28.797  30.017  1.00  0.00     0.049 A 
ATOM     46  H   UNL A   1      41.766  28.451  29.122  1.00  0.00     0.167 HD
ATOM     47  C   UNL A   1      45.581  27.693  27.175  1.00  0.00     0.034 A 
ATOM     48  C   UNL A   1      39.952  30.045  30.528  1.00  0.00     0.034 A 
ATOM     49  C   UNL A   1      45.640  29.082  27.532  1.00  0.00     0.049 A 
ATOM     50  C   UNL A   1      41.171  30.911  30.308  1.00  0.00     0.074 A 
ATOM     51  C   UNL A   1      46.667  29.983  27.316  1.00  0.00     0.029 A 
ATOM     52  N   UNL A   1      44.638  29.767  28.198  1.00  0.00    -0.354 N 
ATOM     53  N   UNL A   1      42.260  30.652  29.625  1.00  0.00    -0.248 NA
ATOM     54  C   UNL A   1      41.140  32.262  30.891  1.00  0.00     0.031 C 
ATOM     55  C   UNL A   1      46.291  31.212  27.869  1.00  0.00     0.029 A 
ATOM     56  C   UNL A   1      45.025  31.078  28.414  1.00  0.00     0.049 A 
ATOM     57  H   UNL A   1      43.777  29.379  28.477  1.00  0.00     0.167 HD
ATOM     58  C   UNL A   1      43.016  31.821  29.651  1.00  0.00     0.074 A 
ATOM     59  C   UNL A   1      42.258  32.792  30.411  1.00  0.00     0.031 C 
ATOM     60  C   UNL A   1      44.232  32.064  29.102  1.00  0.00     0.034 A 
BRANCH  47  61
ATOM     61  C   UNL A   1      46.769  27.077  26.490  1.00  0.00     0.023 A 
ATOM     62  C   UNL A   1      46.827  27.075  25.081  1.00  0.00     0.012 A 
ATOM     63  C   UNL A   1      47.827  26.520  27.230  1.00  0.00     0.148 A 
ATOM     64  C   UNL A   1      47.907  26.496  24.418  1.00  0.00     0.002 A 
ATOM     65  C   UNL A   1      48.918  25.976  26.561  1.00  0.00     0.091 A 
ATOM     66  F   UNL A   1      47.736  26.501  28.567  1.00  0.00    -0.205 F 
ATOM     67  C   UNL A   1      48.956  25.955  25.157  1.00  0.00     0.022 A 
BRANCH  65  68
ATOM     68  S   UNL A   1      50.340  25.315  27.436  1.00  0.00     0.127 S 
ATOM     69  O   UNL A   1      50.674  26.420  28.333  1.00  0.00    -0.237 OA
ATOM     70  O   UNL A   1      49.779  24.139  28.102  1.00  0.00    -0.237 OA
ATOM     71  O   UNL A   1      51.327  25.012  26.409  1.00  0.00    -0.744 OA
ENDBRANCH  65  68
ENDBRANCH  47  61
BRANCH  48  72
ATOM     72  C   UNL A   1      38.759  30.606  31.223  1.00  0.00     0.023 A 
ATOM     73  C   UNL A   1      38.638  30.445  32.618  1.00  0.00     0.012 A 
ATOM     74  C   UNL A   1      37.741  31.273  30.516  1.00  0.00     0.148 A 
ATOM     75  C   UNL A   1      37.510  30.912  33.293  1.00  0.00     0.002 A 
ATOM     76  C   UNL A   1      36.639  31.772  31.201  1.00  0.00     0.091 A 
ATOM     77  F   UNL A   1      37.870  31.400  29.188  1.00  0.00    -0.205 F 
ATOM     78  C   UNL A   1      36.514  31.580  32.587  1.00  0.00     0.022 A 
BRANCH  76  79
ATOM     79  S   UNL A   1      35.346  32.725  30.397  1.00  0.00     0.127 S 
ATOM     80  O   UNL A   1      34.865  31.783  29.390  1.00  0.00    -0.237 OA
ATOM     81  O   UNL A   1      34.422  32.966  31.505  1.00  0.00    -0.237 OA
ATOM     82  O   UNL A   1      36.001  33.918  29.881  1.00  0.00    -0.744 OA
ENDBRANCH  76  79
ENDBRANCH  48  72
BRANCH  60  83
ATOM     83  C   UNL A   1      44.817  33.446  29.246  1.00  0.00     0.023 A 
ATOM     84  C   UNL A   1      45.556  33.778  30.397  1.00  0.00     0.012 A 
ATOM     85  C   UNL A   1      44.715  34.384  28.198  1.00  0.00     0.148 A 
ATOM     86  C   UNL A   1      46.164  35.029  30.515  1.00  0.00     0.002 A 
ATOM     87  C   UNL A   1      45.360  35.611  28.302  1.00  0.00     0.091 A 
ATOM     88  F   UNL A   1      43.989  34.062  27.116  1.00  0.00    -0.205 F 
ATOM     89  C   UNL A   1      46.077  35.940  29.464  1.00  0.00     0.022 A 
BRANCH  87  90
ATOM     90  S   UNL A   1      45.379  36.793  26.949  1.00  0.00     0.127 S 
ATOM     91  O   UNL A   1      45.866  35.975  25.841  1.00  0.00    -0.237 OA
ATOM     92  O   UNL A   1      43.971  37.182  26.846  1.00  0.00    -0.237 OA
ATOM     93  O   UNL A   1      46.264  37.868  27.379  1.00  0.00    -0.744 OA
ENDBRANCH  87  90
ENDBRANCH  60  83
ENDBRANCH  34  35
ENDBRANCH  27  29
ENDBRANCH  26  27
ENDBRANCH  25  26
ENDBRANCH   1  25
TORSDOF 18
ENDMDL
MODEL 2
REMARK VINA RESULT:     -11.5      4.779     10.113
REMARK SMILES O=C(C[NH+]1CC[NH+](Cc2cc(Cl)ccc2[N+](=O)[O-])CC1)OCCOC(=O)c1ccc(-c2c3nc(c(-c4cccc(S(=O)(=O)[O-])c4F)c4ccc([nH]4)c(-c4cccc(S(=O)(=O)[O-])c4F)c4nc(c(-c5cccc(S(=O)(=O)[O-])c5F)c5ccc2[nH]5)C=C4)C=C3)cc1
REMARK SMILES IDX 22 1 21 2 2 3 1 4 3 5 4 6 5 7 20 8 6 10 19 11 7 12 8 14 9 15
REMARK SMILES IDX 10 16 15 17 11 18 14 19 12 20 13 21 16 22 17 23 18 24 23 25
REMARK SMILES IDX 24 26 25 27 26 28 27 29 28 30 89 31 29 32 88 33 30 34 31 35
REMARK SMILES IDX 32 36 82 37 33 38 87 39 81 40 83 41 34 42 86 43 80 44 79 45
REMARK SMILES IDX 35 47 67 48 47 49 66 50 48 51 51 52 65 53 84 54 49 55 50 56
REMARK SMILES IDX 64 58 85 59 52 60 36 61 37 62 45 63 38 64 40 65 46 66 39 67
REMARK SMILES IDX 41 68 42 69 43 70 44 71 68 72 69 73 77 74 70 75 72 76 78 77
REMARK SMILES IDX 71 78 73 79 74 80 75 81 76 82 53 83 54 84 62 85 55 86 57 87
REMARK SMILES IDX 63 88 56 89 58 90 59 91 60 92 61 93
REMARK H PARENT 4 9 7 13 83 46 51 57
REMARK Flexibility Score: inf
ROOT
ATOM      1  C   UNL A   1      31.374  30.734  25.565  1.00  0.00     0.274 C 
ENDROOT
BRANCH   1   2
ATOM      2  O   UNL A   1      32.646  30.107  25.347  1.00  0.00    -0.458 OA
BRANCH   2   3
ATOM      3  C   UNL A   1      32.780  28.908  25.987  1.00  0.00     0.361 C 
ATOM      4  O   UNL A   1      33.801  28.561  26.565  1.00  0.00    -0.245 OA
BRANCH   3   5
ATOM      5  C   UNL A   1      31.444  28.160  25.983  1.00  0.00     0.386 C 
BRANCH   5   6
ATOM      6  N   UNL A   1      31.429  27.019  25.047  1.00  0.00    -0.316 N 
ATOM      7  C   UNL A   1      31.854  25.745  25.631  1.00  0.00     0.325 C 
ATOM      8  C   UNL A   1      30.211  26.993  24.224  1.00  0.00     0.325 C 
ATOM      9  H   UNL A   1      32.180  27.182  24.376  1.00  0.00     0.348 HD
ATOM     10  C   UNL A   1      30.957  24.501  25.501  1.00  0.00     0.324 C 
ATOM     11  C   UNL A   1      29.377  25.689  24.163  1.00  0.00     0.324 C 
ATOM     12  N   UNL A   1      30.109  24.433  24.323  1.00  0.00    -0.322 N 
ATOM     13  H   UNL A   1      29.407  23.714  24.493  1.00  0.00     0.348 HD
BRANCH  12  14
ATOM     14  C   UNL A   1      30.697  23.830  23.122  1.00  0.00     0.306 C 
BRANCH  14  15
ATOM     15  C   UNL A   1      32.127  23.337  23.219  1.00  0.00     0.085 A 
ATOM     16  C   UNL A   1      32.317  22.068  23.814  1.00  0.00     0.037 A 
ATOM     17  C   UNL A   1      33.285  24.061  22.859  1.00  0.00     0.278 A 
ATOM     18  C   UNL A   1      33.583  21.608  24.179  1.00  0.00     0.042 A 
ATOM     19  C   UNL A   1      34.563  23.587  23.236  1.00  0.00     0.088 A 
ATOM     20  Cl  UNL A   1      33.742  20.098  24.987  1.00  0.00    -0.084 Cl
ATOM     21  C   UNL A   1      34.705  22.379  23.921  1.00  0.00     0.027 A 
BRANCH  17  22
ATOM     22  N   UNL A   1      33.258  25.309  22.063  1.00  0.00     0.063 N 
ATOM     23  O   UNL A   1      33.313  26.376  22.687  1.00  0.00    -0.258 OA
ATOM     24  O   UNL A   1      33.248  25.230  20.831  1.00  0.00    -0.258 OA
ENDBRANCH  17  22
ENDBRANCH  14  15
ENDBRANCH  12  14
ENDBRANCH   5   6
ENDBRANCH   3   5
ENDBRANCH   2   3
ENDBRANCH   1   2
BRANCH   1  25
ATOM     25  C   UNL A   1      31.511  31.911  26.555  1.00  0.00     0.275 C 
BRANCH  25  26
ATOM     26  O   UNL A   1      32.506  31.667  27.569  1.00  0.00    -0.458 OA
BRANCH  26  27
ATOM     27  C   UNL A   1      33.358  32.713  27.760  1.00  0.00     0.338 C 
ATOM     28  O   UNL A   1      33.043  33.883  27.846  1.00  0.00    -0.246 OA
BRANCH  27  29
ATOM     29  C   UNL A   1      34.729  32.222  28.043  1.00  0.00     0.060 A 
ATOM     30  C   UNL A   1      34.866  30.864  28.364  1.00  0.00     0.016 A 
ATOM     31  C   UNL A   1      35.858  33.045  27.999  1.00  0.00     0.016 A 
ATOM     32  C   UNL A   1      36.117  30.341  28.698  1.00  0.00     0.010 A 
ATOM     33  C   UNL A   1      37.113  32.520  28.344  1.00  0.00     0.010 A 
ATOM     34  C   UNL A   1      37.240  31.177  28.739  1.00  0.00    -0.014 A 
BRANCH  34  35
ATOM     35  C   UNL A   1      38.466  30.688  29.422  1.00  0.00     0.031 A 
ATOM     36  C   UNL A   1      38.744  31.179  30.820  1.00  0.00     0.074 A 
ATOM     37  C   UNL A   1      39.299  29.794  28.856  1.00  0.00     0.049 A 
ATOM     38  N   UNL A   1      39.652  30.783  31.673  1.00  0.00    -0.248 NA
ATOM     39  C   UNL A   1      37.878  32.261  31.320  1.00  0.00     0.031 C 
ATOM     40  C   UNL A   1      39.174  29.247  27.508  1.00  0.00     0.029 A 
ATOM     41  N   UNL A   1      40.427  29.193  29.360  1.00  0.00    -0.354 N 
ATOM     42  C   UNL A   1      39.469  31.565  32.808  1.00  0.00     0.074 A 
ATOM     43  C   UNL A   1      38.386  32.481  32.523  1.00  0.00     0.031 C 
ATOM     44  C   UNL A   1      40.193  28.395  27.287  1.00  0.00     0.029 A 
ATOM     45  C   UNL A   1      41.036  28.328  28.482  1.00  0.00     0.049 A 
ATOM     46  H   UNL A   1      40.769  29.365  30.267  1.00  0.00     0.167 HD
ATOM     47  C   UNL A   1      40.115  31.510  33.995  1.00  0.00     0.034 A 
ATOM     48  C   UNL A   1      42.133  27.557  28.632  1.00  0.00     0.034 A 
ATOM     49  C   UNL A   1      41.182  30.599  34.298  1.00  0.00     0.049 A 
ATOM     50  C   UNL A   1      42.849  27.525  29.962  1.00  0.00     0.074 A 
ATOM     51  C   UNL A   1      41.858  30.431  35.493  1.00  0.00     0.029 A 
ATOM     52  N   UNL A   1      41.743  29.714  33.392  1.00  0.00    -0.354 N 
ATOM     53  N   UNL A   1      42.542  28.130  31.084  1.00  0.00    -0.248 NA
ATOM     54  C   UNL A   1      44.038  26.661  30.057  1.00  0.00     0.031 C 
ATOM     55  C   UNL A   1      42.842  29.454  35.304  1.00  0.00     0.029 A 
ATOM     56  C   UNL A   1      42.766  29.004  33.996  1.00  0.00     0.049 A 
ATOM     57  H   UNL A   1      41.456  29.605  32.457  1.00  0.00     0.167 HD
ATOM     58  C   UNL A   1      43.463  27.680  32.027  1.00  0.00     0.074 A 
ATOM     59  C   UNL A   1      44.335  26.745  31.347  1.00  0.00     0.031 C 
ATOM     60  C   UNL A   1      43.580  28.017  33.335  1.00  0.00     0.034 A 
BRANCH  47  61
ATOM     61  C   UNL A   1      39.641  32.442  35.075  1.00  0.00     0.023 A 
ATOM     62  C   UNL A   1      38.634  32.011  35.964  1.00  0.00     0.012 A 
ATOM     63  C   UNL A   1      40.193  33.727  35.222  1.00  0.00     0.148 A 
ATOM     64  C   UNL A   1      38.161  32.859  36.963  1.00  0.00     0.002 A 
ATOM     65  C   UNL A   1      39.741  34.554  36.244  1.00  0.00     0.091 A 
ATOM     66  F   UNL A   1      41.124  34.130  34.346  1.00  0.00    -0.205 F 
ATOM     67  C   UNL A   1      38.721  34.126  37.109  1.00  0.00     0.022 A 
BRANCH  65  68
ATOM     68  S   UNL A   1      40.450  36.177  36.541  1.00  0.00     0.127 S 
ATOM     69  O   UNL A   1      40.044  36.901  35.338  1.00  0.00    -0.237 OA
ATOM     70  O   UNL A   1      39.768  36.598  37.765  1.00  0.00    -0.237 OA
ATOM     71  O   UNL A   1      41.882  35.957  36.696  1.00  0.00    -0.744 OA
ENDBRANCH  65  68
ENDBRANCH  47  61
BRANCH  48  72
ATOM     72  C   UNL A   1      42.584  26.667  27.525  1.00  0.00     0.023 A 
ATOM     73  C   UNL A   1      43.418  27.192  26.518  1.00  0.00     0.012 A 
ATOM     74  C   UNL A   1      42.178  25.322  27.450  1.00  0.00     0.148 A 
ATOM     75  C   UNL A   1      43.817  26.402  25.440  1.00  0.00     0.002 A 
ATOM     76  C   UNL A   1      42.613  24.528  26.395  1.00  0.00     0.091 A 
ATOM     77  F   UNL A   1      41.371  24.849  28.410  1.00  0.00    -0.205 F 
ATOM     78  C   UNL A   1      43.419  25.069  25.381  1.00  0.00     0.022 A 
BRANCH  76  79
ATOM     79  S   UNL A   1      42.228  22.777  26.275  1.00  0.00     0.127 S 
ATOM     80  O   UNL A   1      40.769  22.788  26.328  1.00  0.00    -0.237 OA
ATOM     81  O   UNL A   1      42.795  22.437  24.969  1.00  0.00    -0.237 OA
ATOM     82  O   UNL A   1      42.895  22.151  27.408  1.00  0.00    -0.744 OA
ENDBRANCH  76  79
ENDBRANCH  48  72
BRANCH  60  83
ATOM     83  C   UNL A   1      44.653  27.344  34.153  1.00  0.00     0.023 A 
ATOM     84  C   UNL A   1      45.945  27.901  34.210  1.00  0.00     0.012 A 
ATOM     85  C   UNL A   1      44.355  26.213  34.941  1.00  0.00     0.148 A 
ATOM     86  C   UNL A   1      46.929  27.331  35.018  1.00  0.00     0.002 A 
ATOM     87  C   UNL A   1      45.328  25.677  35.778  1.00  0.00     0.091 A 
ATOM     88  F   UNL A   1      43.127  25.679  34.860  1.00  0.00    -0.205 F 
ATOM     89  C   UNL A   1      46.618  26.227  35.810  1.00  0.00     0.022 A 
BRANCH  87  90
ATOM     90  S   UNL A   1      44.972  24.321  36.903  1.00  0.00     0.127 S 
ATOM     91  O   UNL A   1      44.559  23.266  35.982  1.00  0.00    -0.237 OA
ATOM     92  O   UNL A   1      46.267  24.094  37.548  1.00  0.00    -0.237 OA
ATOM     93  O   UNL A   1      43.937  24.819  37.801  1.00  0.00    -0.744 OA
ENDBRANCH  87  90
ENDBRANCH  60  83
ENDBRANCH  34  35
ENDBRANCH  27  29
ENDBRANCH  26  27
ENDBRANCH  25  26
ENDBRANCH   1  25
TORSDOF 18
ENDMDL
MODEL 3
REMARK VINA RESULT:     -11.4      5.018     10.254
REMARK SMILES O=C(C[NH+]1CC[NH+](Cc2cc(Cl)ccc2[N+](=O)[O-])CC1)OCCOC(=O)c1ccc(-c2c3nc(c(-c4cccc(S(=O)(=O)[O-])c4F)c4ccc([nH]4)c(-c4cccc(S(=O)(=O)[O-])c4F)c4nc(c(-c5cccc(S(=O)(=O)[O-])c5F)c5ccc2[nH]5)C=C4)C=C3)cc1
REMARK SMILES IDX 22 1 21 2 2 3 1 4 3 5 4 6 5 7 20 8 6 10 19 11 7 12 8 14 9 15
REMARK SMILES IDX 10 16 15 17 11 18 14 19 12 20 13 21 16 22 17 23 18 24 23 25
REMARK SMILES IDX 24 26 25 27 26 28 27 29 28 30 89 31 29 32 88 33 30 34 31 35
REMARK SMILES IDX 32 36 82 37 33 38 87 39 81 40 83 41 34 42 86 43 80 44 79 45
REMARK SMILES IDX 35 47 67 48 47 49 66 50 48 51 51 52 65 53 84 54 49 55 50 56
REMARK SMILES IDX 64 58 85 59 52 60 36 61 37 62 45 63 38 64 40 65 46 66 39 67
REMARK SMILES IDX 41 68 42 69 43 70 44 71 68 72 69 73 77 74 70 75 72 76 78 77
REMARK SMILES IDX 71 78 73 79 74 80 75 81 76 82 53 83 54 84 62 85 55 86 57 87
REMARK SMILES IDX 63 88 56 89 58 90 59 91 60 92 61 93
REMARK H PARENT 4 9 7 13 83 46 51 57
REMARK Flexibility Score: inf
ROOT
ATOM      1  C   UNL A   1      31.625  30.211  25.824  1.00  0.00     0.274 C 
ENDROOT
BRANCH   1   2
ATOM      2  O   UNL A   1      32.782  29.446  25.459  1.00  0.00    -0.458 OA
BRANCH   2   3
ATOM      3  C   UNL A   1      32.832  28.216  26.051  1.00  0.00     0.361 C 
ATOM      4  O   UNL A   1      33.671  27.901  26.884  1.00  0.00    -0.245 OA
BRANCH   3   5
ATOM      5  C   UNL A   1      31.624  27.379  25.622  1.00  0.00     0.386 C 
BRANCH   5   6
ATOM      6  N   UNL A   1      32.000  26.204  24.811  1.00  0.00    -0.316 N 
ATOM      7  C   UNL A   1      32.223  24.978  25.579  1.00  0.00     0.325 C 
ATOM      8  C   UNL A   1      31.178  26.082  23.599  1.00  0.00     0.325 C 
ATOM      9  H   UNL A   1      32.940  26.383  24.458  1.00  0.00     0.348 HD
ATOM     10  C   UNL A   1      31.485  23.684  25.194  1.00  0.00     0.324 C 
ATOM     11  C   UNL A   1      30.474  24.734  23.304  1.00  0.00     0.324 C 
ATOM     12  N   UNL A   1      31.139  23.527  23.792  1.00  0.00    -0.322 N 
ATOM     13  H   UNL A   1      30.451  22.777  23.728  1.00  0.00     0.348 HD
BRANCH  12  14
ATOM     14  C   UNL A   1      32.153  22.912  22.928  1.00  0.00     0.306 C 
BRANCH  14  15
ATOM     15  C   UNL A   1      33.037  21.845  23.543  1.00  0.00     0.085 A 
ATOM     16  C   UNL A   1      32.454  20.569  23.723  1.00  0.00     0.037 A 
ATOM     17  C   UNL A   1      34.348  22.031  24.036  1.00  0.00     0.278 A 
ATOM     18  C   UNL A   1      33.072  19.579  24.487  1.00  0.00     0.042 A 
ATOM     19  C   UNL A   1      34.962  21.022  24.813  1.00  0.00     0.088 A 
ATOM     20  Cl  UNL A   1      32.270  18.080  24.750  1.00  0.00    -0.084 Cl
ATOM     21  C   UNL A   1      34.311  19.813  25.061  1.00  0.00     0.027 A 
BRANCH  17  22
ATOM     22  N   UNL A   1      35.164  23.237  23.765  1.00  0.00     0.063 N 
ATOM     23  O   UNL A   1      35.549  23.407  22.602  1.00  0.00    -0.258 OA
ATOM     24  O   UNL A   1      35.364  24.039  24.683  1.00  0.00    -0.258 OA
ENDBRANCH  17  22
ENDBRANCH  14  15
ENDBRANCH  12  14
ENDBRANCH   5   6
ENDBRANCH   3   5
ENDBRANCH   2   3
ENDBRANCH   1   2
BRANCH   1  25
ATOM     25  C   UNL A   1      32.022  31.397  26.729  1.00  0.00     0.275 C 
BRANCH  25  26
ATOM     26  O   UNL A   1      33.123  31.079  27.603  1.00  0.00    -0.458 OA
BRANCH  26  27
ATOM     27  C   UNL A   1      33.924  32.146  27.881  1.00  0.00     0.338 C 
ATOM     28  O   UNL A   1      33.555  33.292  28.045  1.00  0.00    -0.246 OA
BRANCH  27  29
ATOM     29  C   UNL A   1      35.313  31.698  28.147  1.00  0.00     0.060 A 
ATOM     30  C   UNL A   1      35.544  30.315  28.169  1.00  0.00     0.016 A 
ATOM     31  C   UNL A   1      36.371  32.585  28.369  1.00  0.00     0.016 A 
ATOM     32  C   UNL A   1      36.813  29.817  28.470  1.00  0.00     0.010 A 
ATOM     33  C   UNL A   1      37.644  32.082  28.680  1.00  0.00     0.010 A 
ATOM     34  C   UNL A   1      37.859  30.696  28.777  1.00  0.00    -0.014 A 
BRANCH  34  35
ATOM     35  C   UNL A   1      39.081  30.150  29.422  1.00  0.00     0.031 A 
ATOM     36  C   UNL A   1      39.444  30.653  30.796  1.00  0.00     0.074 A 
ATOM     37  C   UNL A   1      39.836  29.197  28.845  1.00  0.00     0.049 A 
ATOM     38  N   UNL A   1      40.360  30.221  31.622  1.00  0.00    -0.248 NA
ATOM     39  C   UNL A   1      38.663  31.794  31.304  1.00  0.00     0.031 C 
ATOM     40  C   UNL A   1      39.626  28.630  27.516  1.00  0.00     0.029 A 
ATOM     41  N   UNL A   1      40.947  28.540  29.318  1.00  0.00    -0.354 N 
ATOM     42  C   UNL A   1      40.269  31.036  32.744  1.00  0.00     0.074 A 
ATOM     43  C   UNL A   1      39.231  32.009  32.481  1.00  0.00     0.031 C 
ATOM     44  C   UNL A   1      40.583  27.714  27.275  1.00  0.00     0.029 A 
ATOM     45  C   UNL A   1      41.469  27.622  28.438  1.00  0.00     0.049 A 
ATOM     46  H   UNL A   1      41.335  28.711  30.207  1.00  0.00     0.167 HD
ATOM     47  C   UNL A   1      40.959  30.968  33.907  1.00  0.00     0.034 A 
ATOM     48  C   UNL A   1      42.524  26.792  28.562  1.00  0.00     0.034 A 
ATOM     49  C   UNL A   1      41.982  30.002  34.189  1.00  0.00     0.049 A 
ATOM     50  C   UNL A   1      43.290  26.745  29.864  1.00  0.00     0.074 A 
ATOM     51  C   UNL A   1      42.695  29.820  35.360  1.00  0.00     0.029 A 
ATOM     52  N   UNL A   1      42.453  29.067  33.283  1.00  0.00    -0.354 N 
ATOM     53  N   UNL A   1      43.065  27.390  30.983  1.00  0.00    -0.248 NA
ATOM     54  C   UNL A   1      44.430  25.814  29.932  1.00  0.00     0.031 C 
ATOM     55  C   UNL A   1      43.612  28.782  35.155  1.00  0.00     0.029 A 
ATOM     56  C   UNL A   1      43.457  28.311  33.862  1.00  0.00     0.049 A 
ATOM     57  H   UNL A   1      42.123  28.956  32.362  1.00  0.00     0.167 HD
ATOM     58  C   UNL A   1      43.996  26.906  31.899  1.00  0.00     0.074 A 
ATOM     59  C   UNL A   1      44.783  25.908  31.207  1.00  0.00     0.031 C 
ATOM     60  C   UNL A   1      44.185  27.263  33.193  1.00  0.00     0.034 A 
BRANCH  47  61
ATOM     61  C   UNL A   1      40.584  31.950  34.982  1.00  0.00     0.023 A 
ATOM     62  C   UNL A   1      41.407  33.072  35.208  1.00  0.00     0.012 A 
ATOM     63  C   UNL A   1      39.421  31.775  35.752  1.00  0.00     0.148 A 
ATOM     64  C   UNL A   1      41.095  33.990  36.208  1.00  0.00     0.002 A 
ATOM     65  C   UNL A   1      39.096  32.715  36.725  1.00  0.00     0.091 A 
ATOM     66  F   UNL A   1      38.670  30.685  35.545  1.00  0.00    -0.205 F 
ATOM     67  C   UNL A   1      39.936  33.816  36.960  1.00  0.00     0.022 A 
BRANCH  65  68
ATOM     68  S   UNL A   1      37.590  32.601  37.696  1.00  0.00     0.127 S 
ATOM     69  O   UNL A   1      36.593  33.107  36.753  1.00  0.00    -0.237 OA
ATOM     70  O   UNL A   1      37.499  31.166  37.967  1.00  0.00    -0.237 OA
ATOM     71  O   UNL A   1      37.820  33.424  38.876  1.00  0.00    -0.744 OA
ENDBRANCH  65  68
ENDBRANCH  47  61
BRANCH  48  72
ATOM     72  C   UNL A   1      42.877  25.854  27.459  1.00  0.00     0.023 A 
ATOM     73  C   UNL A   1      43.757  26.284  26.446  1.00  0.00     0.012 A 
ATOM     74  C   UNL A   1      42.335  24.557  27.394  1.00  0.00     0.148 A 
ATOM     75  C   UNL A   1      44.068  25.450  25.372  1.00  0.00     0.002 A 
ATOM     76  C   UNL A   1      42.682  23.716  26.343  1.00  0.00     0.091 A 
ATOM     77  F   UNL A   1      41.488  24.174  28.360  1.00  0.00    -0.205 F 
ATOM     78  C   UNL A   1      43.536  24.166  25.323  1.00  0.00     0.022 A 
BRANCH  76  79
ATOM     79  S   UNL A   1      42.120  22.013  26.236  1.00  0.00     0.127 S 
ATOM     80  O   UNL A   1      42.907  21.510  25.113  1.00  0.00    -0.237 OA
ATOM     81  O   UNL A   1      42.510  21.489  27.545  1.00  0.00    -0.237 OA
ATOM     82  O   UNL A   1      40.683  22.087  26.014  1.00  0.00    -0.744 OA
ENDBRANCH  76  79
ENDBRANCH  48  72
BRANCH  60  83
ATOM     83  C   UNL A   1      45.249  26.545  33.984  1.00  0.00     0.023 A 
ATOM     84  C   UNL A   1      46.574  27.020  33.969  1.00  0.00     0.012 A 
ATOM     85  C   UNL A   1      44.916  25.456  34.816  1.00  0.00     0.148 A 
ATOM     86  C   UNL A   1      47.556  26.410  34.751  1.00  0.00     0.002 A 
ATOM     87  C   UNL A   1      45.889  24.882  35.626  1.00  0.00     0.091 A 
ATOM     88  F   UNL A   1      43.654  25.000  34.803  1.00  0.00    -0.205 F 
ATOM     89  C   UNL A   1      47.212  25.350  35.587  1.00  0.00     0.022 A 
BRANCH  87  90
ATOM     90  S   UNL A   1      45.500  23.582  36.804  1.00  0.00     0.127 S 
ATOM     91  O   UNL A   1      46.813  23.282  37.367  1.00  0.00    -0.237 OA
ATOM     92  O   UNL A   1      44.581  24.253  37.726  1.00  0.00    -0.237 OA
ATOM     93  O   UNL A   1      44.887  22.515  36.023  1.00  0.00    -0.744 OA
ENDBRANCH  87  90
ENDBRANCH  60  83
ENDBRANCH  34  35
ENDBRANCH  27  29
ENDBRANCH  26  27
ENDBRANCH  25  26
ENDBRANCH   1  25
TORSDOF 18
ENDMDL
