MODEL 1
REMARK VINA RESULT:     -10.1      0.000      0.000
REMARK SMILES CC(C)[C@@H]1SC[C@@H](C(=O)OCCOC(=O)c2ccc(-c3c4nc(c(-c5cccc(S(=O)(=O)[O-])c5F)c5ccc([nH]5)c(-c5cccc(S(=O)(=O)[O-])c5F)c5nc(c(-c6cccc(S(=O)(=O)[O-])c6F)c6ccc3[nH]6)C=C5)C=C4)cc2)N1C(=O)COCC[NH3+]
REMARK SMILES IDX 10 1 8 2 9 3 7 4 4 5 5 6 79 7 6 8 2 9 1 10 3 11 80 12 81 13
REMARK SMILES IDX 82 14 83 15 84 16 85 17 86 18 11 22 12 23 13 24 14 25 15 26
REMARK SMILES IDX 16 27 17 28 78 29 18 30 77 31 19 32 20 33 21 34 71 35 22 36
REMARK SMILES IDX 76 37 70 38 72 39 23 40 75 41 69 42 68 43 24 45 56 46 36 47
REMARK SMILES IDX 55 48 37 49 40 50 54 51 73 52 38 53 39 54 53 56 74 57 41 58
REMARK SMILES IDX 25 59 26 60 34 61 27 62 29 63 35 64 28 65 30 66 31 67 32 68
REMARK SMILES IDX 33 69 57 70 58 71 66 72 59 73 61 74 67 75 60 76 62 77 63 78
REMARK SMILES IDX 64 79 65 80 42 81 43 82 51 83 44 84 46 85 52 86 45 87 47 88
REMARK SMILES IDX 48 89 49 90 50 91
REMARK H PARENT 86 19 86 20 86 21 72 44 40 55
REMARK Flexibility Score: inf
ROOT
ATOM      1  O   UNL A   1      31.777  29.141  26.446  1.00  0.00    -0.461 OA
ENDROOT
BRANCH   1   2
ATOM      2  C   UNL A   1      32.425  28.205  25.694  1.00  0.00     0.329 C 
ATOM      3  O   UNL A   1      33.578  28.317  25.289  1.00  0.00    -0.250 OA
BRANCH   2   4
ATOM      4  C   UNL A   1      31.512  27.045  25.251  1.00  0.00     0.206 C 
ATOM      5  C   UNL A   1      32.741  25.236  24.078  1.00  0.00     0.146 C 
ATOM      6  S   UNL A   1      33.016  25.029  25.904  1.00  0.00    -0.134 SA
ATOM      7  N   UNL A   1      31.849  26.394  23.966  1.00  0.00    -0.314 N 
ATOM      8  C   UNL A   1      31.557  25.998  26.348  1.00  0.00     0.109 C 
BRANCH   5   9
ATOM      9  C   UNL A   1      32.229  23.851  23.576  1.00  0.00     0.016 C 
ATOM     10  C   UNL A   1      30.709  23.729  23.451  1.00  0.00     0.010 C 
ATOM     11  C   UNL A   1      32.917  23.366  22.297  1.00  0.00     0.010 C 
ENDBRANCH   5   9
BRANCH   7  12
ATOM     12  C   UNL A   1      31.408  27.037  22.824  1.00  0.00     0.250 C 
ATOM     13  O   UNL A   1      31.875  26.725  21.724  1.00  0.00    -0.272 OA
BRANCH  12  14
ATOM     14  C   UNL A   1      30.416  28.202  22.889  1.00  0.00     0.260 C 
BRANCH  14  15
ATOM     15  O   UNL A   1      29.883  28.744  21.697  1.00  0.00    -0.366 OA
BRANCH  15  16
ATOM     16  C   UNL A   1      29.565  30.134  21.785  1.00  0.00     0.222 C 
BRANCH  16  17
ATOM     17  C   UNL A   1      28.931  30.542  23.129  1.00  0.00     0.287 C 
BRANCH  17  18
ATOM     18  N   UNL A   1      29.110  31.944  23.491  1.00  0.00    -0.356 N 
ATOM     19  H   UNL A   1      29.288  32.493  22.650  1.00  0.00     0.344 HD
ATOM     20  H   UNL A   1      29.903  32.033  24.128  1.00  0.00     0.344 HD
ATOM     21  H   UNL A   1      28.266  32.288  23.950  1.00  0.00     0.344 HD
ENDBRANCH  17  18
ENDBRANCH  16  17
ENDBRANCH  15  16
ENDBRANCH  14  15
ENDBRANCH  12  14
ENDBRANCH   7  12
ENDBRANCH   2   4
ENDBRANCH   1   2
BRANCH   1  22
ATOM     22  C   UNL A   1      31.393  30.342  25.747  1.00  0.00     0.274 C 
BRANCH  22  23
ATOM     23  C   UNL A   1      31.792  31.584  26.533  1.00  0.00     0.275 C 
BRANCH  23  24
ATOM     24  O   UNL A   1      32.876  31.265  27.416  1.00  0.00    -0.458 OA
BRANCH  24  25
ATOM     25  C   UNL A   1      33.734  32.286  27.640  1.00  0.00     0.338 C 
ATOM     26  O   UNL A   1      33.519  33.474  27.477  1.00  0.00    -0.246 OA
BRANCH  25  27
ATOM     27  C   UNL A   1      35.028  31.760  28.084  1.00  0.00     0.060 A 
ATOM     28  C   UNL A   1      35.162  30.411  28.413  1.00  0.00     0.016 A 
ATOM     29  C   UNL A   1      36.072  32.657  28.300  1.00  0.00     0.016 A 
ATOM     30  C   UNL A   1      36.321  29.969  29.045  1.00  0.00     0.010 A 
ATOM     31  C   UNL A   1      37.260  32.196  28.863  1.00  0.00     0.010 A 
ATOM     32  C   UNL A   1      37.379  30.858  29.276  1.00  0.00    -0.014 A 
BRANCH  32  33
ATOM     33  C   UNL A   1      38.610  30.407  29.966  1.00  0.00     0.031 A 
ATOM     34  C   UNL A   1      39.529  29.422  29.300  1.00  0.00     0.074 A 
ATOM     35  C   UNL A   1      38.871  30.853  31.208  1.00  0.00     0.049 A 
ATOM     36  N   UNL A   1      40.573  28.806  29.790  1.00  0.00    -0.248 NA
ATOM     37  C   UNL A   1      39.225  29.070  27.903  1.00  0.00     0.031 C 
ATOM     38  C   UNL A   1      38.051  31.813  31.948  1.00  0.00     0.029 A 
ATOM     39  N   UNL A   1      39.886  30.541  32.075  1.00  0.00    -0.354 N 
ATOM     40  C   UNL A   1      41.015  27.951  28.788  1.00  0.00     0.074 A 
ATOM     41  C   UNL A   1      40.130  28.132  27.657  1.00  0.00     0.031 C 
ATOM     42  C   UNL A   1      38.599  32.019  33.156  1.00  0.00     0.029 A 
ATOM     43  C   UNL A   1      39.774  31.166  33.295  1.00  0.00     0.049 A 
ATOM     44  H   UNL A   1      40.624  29.930  31.847  1.00  0.00     0.167 HD
ATOM     45  C   UNL A   1      42.071  27.104  28.806  1.00  0.00     0.034 A 
ATOM     46  C   UNL A   1      40.521  31.046  34.408  1.00  0.00     0.034 A 
ATOM     47  C   UNL A   1      42.984  26.982  29.911  1.00  0.00     0.049 A 
ATOM     48  C   UNL A   1      41.693  30.106  34.397  1.00  0.00     0.074 A 
ATOM     49  C   UNL A   1      44.124  26.204  30.007  1.00  0.00     0.029 A 
ATOM     50  N   UNL A   1      42.863  27.663  31.114  1.00  0.00    -0.354 N 
ATOM     51  N   UNL A   1      42.149  29.367  33.414  1.00  0.00    -0.248 NA
ATOM     52  C   UNL A   1      42.462  29.991  35.644  1.00  0.00     0.031 C 
ATOM     53  C   UNL A   1      44.689  26.410  31.271  1.00  0.00     0.029 A 
ATOM     54  C   UNL A   1      43.904  27.320  31.961  1.00  0.00     0.049 A 
ATOM     55  H   UNL A   1      42.144  28.298  31.334  1.00  0.00     0.167 HD
ATOM     56  C   UNL A   1      43.270  28.719  33.914  1.00  0.00     0.074 A 
ATOM     57  C   UNL A   1      43.437  29.168  35.281  1.00  0.00     0.031 C 
ATOM     58  C   UNL A   1      44.079  27.817  33.302  1.00  0.00     0.034 A 
BRANCH  45  59
ATOM     59  C   UNL A   1      42.316  26.268  27.579  1.00  0.00     0.023 A 
ATOM     60  C   UNL A   1      42.973  26.837  26.470  1.00  0.00     0.012 A 
ATOM     61  C   UNL A   1      41.933  24.914  27.534  1.00  0.00     0.148 A 
ATOM     62  C   UNL A   1      43.218  26.078  25.325  1.00  0.00     0.002 A 
ATOM     63  C   UNL A   1      42.210  24.155  26.401  1.00  0.00     0.091 A 
ATOM     64  F   UNL A   1      41.281  24.394  28.585  1.00  0.00    -0.205 F 
ATOM     65  C   UNL A   1      42.846  24.737  25.294  1.00  0.00     0.022 A 
BRANCH  63  66
ATOM     66  S   UNL A   1      41.819  22.403  26.315  1.00  0.00     0.127 S 
ATOM     67  O   UNL A   1      42.539  21.996  25.111  1.00  0.00    -0.237 OA
ATOM     68  O   UNL A   1      42.383  21.888  27.565  1.00  0.00    -0.237 OA
ATOM     69  O   UNL A   1      40.365  22.334  26.244  1.00  0.00    -0.744 OA
ENDBRANCH  63  66
ENDBRANCH  45  59
BRANCH  46  70
ATOM     70  C   UNL A   1      40.208  31.888  35.595  1.00  0.00     0.023 A 
ATOM     71  C   UNL A   1      40.969  33.050  35.825  1.00  0.00     0.012 A 
ATOM     72  C   UNL A   1      39.124  31.594  36.446  1.00  0.00     0.148 A 
ATOM     73  C   UNL A   1      40.662  33.901  36.887  1.00  0.00     0.002 A 
ATOM     74  C   UNL A   1      38.791  32.475  37.469  1.00  0.00     0.091 A 
ATOM     75  F   UNL A   1      38.425  30.473  36.221  1.00  0.00    -0.205 F 
ATOM     76  C   UNL A   1      39.565  33.622  37.699  1.00  0.00     0.022 A 
BRANCH  74  77
ATOM     77  S   UNL A   1      37.317  32.264  38.475  1.00  0.00     0.127 S 
ATOM     78  O   UNL A   1      36.327  33.024  37.717  1.00  0.00    -0.237 OA
ATOM     79  O   UNL A   1      37.133  30.812  38.447  1.00  0.00    -0.237 OA
ATOM     80  O   UNL A   1      37.659  32.798  39.787  1.00  0.00    -0.744 OA
ENDBRANCH  74  77
ENDBRANCH  46  70
BRANCH  58  81
ATOM     81  C   UNL A   1      45.226  27.266  34.104  1.00  0.00     0.023 A 
ATOM     82  C   UNL A   1      46.466  27.933  34.083  1.00  0.00     0.012 A 
ATOM     83  C   UNL A   1      45.059  26.135  34.927  1.00  0.00     0.148 A 
ATOM     84  C   UNL A   1      47.532  27.468  34.852  1.00  0.00     0.002 A 
ATOM     85  C   UNL A   1      46.114  25.702  35.720  1.00  0.00     0.091 A 
ATOM     86  F   UNL A   1      43.878  25.500  34.913  1.00  0.00    -0.205 F 
ATOM     87  C   UNL A   1      47.353  26.362  35.679  1.00  0.00     0.022 A 
BRANCH  85  88
ATOM     88  S   UNL A   1      45.936  24.336  36.874  1.00  0.00     0.127 S 
ATOM     89  O   UNL A   1      44.869  24.819  37.748  1.00  0.00    -0.237 OA
ATOM     90  O   UNL A   1      45.552  23.228  35.999  1.00  0.00    -0.237 OA
ATOM     91  O   UNL A   1      47.244  24.177  37.499  1.00  0.00    -0.744 OA
ENDBRANCH  85  88
ENDBRANCH  58  81
ENDBRANCH  32  33
ENDBRANCH  25  27
ENDBRANCH  24  25
ENDBRANCH  23  24
ENDBRANCH  22  23
ENDBRANCH   1  22
TORSDOF 21
ENDMDL
MODEL 2
REMARK VINA RESULT:     -10.1      1.996      3.341
REMARK SMILES CC(C)[C@@H]1SC[C@@H](C(=O)OCCOC(=O)c2ccc(-c3c4nc(c(-c5cccc(S(=O)(=O)[O-])c5F)c5ccc([nH]5)c(-c5cccc(S(=O)(=O)[O-])c5F)c5nc(c(-c6cccc(S(=O)(=O)[O-])c6F)c6ccc3[nH]6)C=C5)C=C4)cc2)N1C(=O)COCC[NH3+]
REMARK SMILES IDX 10 1 8 2 9 3 7 4 4 5 5 6 79 7 6 8 2 9 1 10 3 11 80 12 81 13
REMARK SMILES IDX 82 14 83 15 84 16 85 17 86 18 11 22 12 23 13 24 14 25 15 26
REMARK SMILES IDX 16 27 17 28 78 29 18 30 77 31 19 32 20 33 21 34 71 35 22 36
REMARK SMILES IDX 76 37 70 38 72 39 23 40 75 41 69 42 68 43 24 45 56 46 36 47
REMARK SMILES IDX 55 48 37 49 40 50 54 51 73 52 38 53 39 54 53 56 74 57 41 58
REMARK SMILES IDX 25 59 26 60 34 61 27 62 29 63 35 64 28 65 30 66 31 67 32 68
REMARK SMILES IDX 33 69 57 70 58 71 66 72 59 73 61 74 67 75 60 76 62 77 63 78
REMARK SMILES IDX 64 79 65 80 42 81 43 82 51 83 44 84 46 85 52 86 45 87 47 88
REMARK SMILES IDX 48 89 49 90 50 91
REMARK H PARENT 86 19 86 20 86 21 72 44 40 55
REMARK Flexibility Score: inf
ROOT
ATOM      1  O   UNL A   1      32.882  27.997  24.189  1.00  0.00    -0.461 OA
ENDROOT
BRANCH   1   2
ATOM      2  C   UNL A   1      33.568  27.565  23.091  1.00  0.00     0.329 C 
ATOM      3  O   UNL A   1      34.008  28.303  22.214  1.00  0.00    -0.250 OA
BRANCH   2   4
ATOM      4  C   UNL A   1      33.600  26.030  22.960  1.00  0.00     0.206 C 
ATOM      5  C   UNL A   1      31.674  24.921  24.066  1.00  0.00     0.146 C 
ATOM      6  S   UNL A   1      31.096  25.583  22.428  1.00  0.00    -0.134 SA
ATOM      7  N   UNL A   1      33.100  25.259  24.120  1.00  0.00    -0.314 N 
ATOM      8  C   UNL A   1      32.766  25.668  21.746  1.00  0.00     0.109 C 
BRANCH   5   9
ATOM      9  C   UNL A   1      31.265  23.416  24.073  1.00  0.00     0.016 C 
ATOM     10  C   UNL A   1      32.190  22.490  23.281  1.00  0.00     0.010 C 
ATOM     11  C   UNL A   1      31.009  22.855  25.475  1.00  0.00     0.010 C 
ENDBRANCH   5   9
BRANCH   7  12
ATOM     12  C   UNL A   1      33.990  25.083  25.163  1.00  0.00     0.250 C 
ATOM     13  O   UNL A   1      33.881  25.766  26.186  1.00  0.00    -0.272 OA
BRANCH  12  14
ATOM     14  C   UNL A   1      35.180  24.124  25.052  1.00  0.00     0.260 C 
BRANCH  14  15
ATOM     15  O   UNL A   1      35.414  23.168  26.066  1.00  0.00    -0.366 OA
BRANCH  15  16
ATOM     16  C   UNL A   1      34.804  21.900  25.818  1.00  0.00     0.222 C 
BRANCH  16  17
ATOM     17  C   UNL A   1      35.689  20.935  25.006  1.00  0.00     0.287 C 
BRANCH  17  18
ATOM     18  N   UNL A   1      35.234  19.548  24.996  1.00  0.00    -0.356 N 
ATOM     19  H   UNL A   1      35.481  19.115  24.106  1.00  0.00     0.344 HD
ATOM     20  H   UNL A   1      34.221  19.520  25.118  1.00  0.00     0.344 HD
ATOM     21  H   UNL A   1      35.682  19.037  25.758  1.00  0.00     0.344 HD
ENDBRANCH  17  18
ENDBRANCH  16  17
ENDBRANCH  15  16
ENDBRANCH  14  15
ENDBRANCH  12  14
ENDBRANCH   7  12
ENDBRANCH   2   4
ENDBRANCH   1   2
BRANCH   1  22
ATOM     22  C   UNL A   1      33.179  29.341  24.618  1.00  0.00     0.274 C 
BRANCH  22  23
ATOM     23  C   UNL A   1      32.012  29.937  25.393  1.00  0.00     0.275 C 
BRANCH  23  24
ATOM     24  O   UNL A   1      32.354  30.025  26.783  1.00  0.00    -0.458 OA
BRANCH  24  25
ATOM     25  C   UNL A   1      32.990  31.167  27.132  1.00  0.00     0.338 C 
ATOM     26  O   UNL A   1      32.571  32.304  27.016  1.00  0.00    -0.246 OA
BRANCH  25  27
ATOM     27  C   UNL A   1      34.324  30.854  27.652  1.00  0.00     0.060 A 
ATOM     28  C   UNL A   1      34.670  29.536  27.952  1.00  0.00     0.016 A 
ATOM     29  C   UNL A   1      35.180  31.908  27.966  1.00  0.00     0.016 A 
ATOM     30  C   UNL A   1      35.845  29.276  28.652  1.00  0.00     0.010 A 
ATOM     31  C   UNL A   1      36.392  31.637  28.598  1.00  0.00     0.010 A 
ATOM     32  C   UNL A   1      36.715  30.324  28.982  1.00  0.00    -0.014 A 
BRANCH  32  33
ATOM     33  C   UNL A   1      37.958  30.065  29.745  1.00  0.00     0.031 A 
ATOM     34  C   UNL A   1      39.016  29.161  29.176  1.00  0.00     0.074 A 
ATOM     35  C   UNL A   1      38.108  30.609  30.966  1.00  0.00     0.049 A 
ATOM     36  N   UNL A   1      40.102  28.705  29.743  1.00  0.00    -0.248 NA
ATOM     37  C   UNL A   1      38.819  28.696  27.793  1.00  0.00     0.031 C 
ATOM     38  C   UNL A   1      37.148  31.504  31.614  1.00  0.00     0.029 A 
ATOM     39  N   UNL A   1      39.113  30.472  31.888  1.00  0.00    -0.354 N 
ATOM     40  C   UNL A   1      40.687  27.854  28.813  1.00  0.00     0.074 A 
ATOM     41  C   UNL A   1      39.838  27.862  27.641  1.00  0.00     0.031 C 
ATOM     42  C   UNL A   1      37.613  31.842  32.826  1.00  0.00     0.029 A 
ATOM     43  C   UNL A   1      38.873  31.147  33.062  1.00  0.00     0.049 A 
ATOM     44  H   UNL A   1      39.928  29.943  31.726  1.00  0.00     0.167 HD
ATOM     45  C   UNL A   1      41.834  27.143  28.924  1.00  0.00     0.034 A 
ATOM     46  C   UNL A   1      39.579  31.182  34.208  1.00  0.00     0.034 A 
ATOM     47  C   UNL A   1      42.704  27.195  30.068  1.00  0.00     0.049 A 
ATOM     48  C   UNL A   1      40.852  30.390  34.300  1.00  0.00     0.074 A 
ATOM     49  C   UNL A   1      43.922  26.566  30.255  1.00  0.00     0.029 A 
ATOM     50  N   UNL A   1      42.449  27.924  31.221  1.00  0.00    -0.354 N 
ATOM     51  N   UNL A   1      41.436  29.658  33.382  1.00  0.00    -0.248 NA
ATOM     52  C   UNL A   1      41.573  30.441  35.580  1.00  0.00     0.031 C 
ATOM     53  C   UNL A   1      44.402  26.911  31.524  1.00  0.00     0.029 A 
ATOM     54  C   UNL A   1      43.484  27.757  32.126  1.00  0.00     0.049 A 
ATOM     55  H   UNL A   1      41.651  28.479  31.373  1.00  0.00     0.167 HD
ATOM     56  C   UNL A   1      42.602  29.179  33.963  1.00  0.00     0.074 A 
ATOM     57  C   UNL A   1      42.653  29.722  35.306  1.00  0.00     0.031 C 
ATOM     58  C   UNL A   1      43.539  28.348  33.440  1.00  0.00     0.034 A 
BRANCH  45  59
ATOM     59  C   UNL A   1      42.230  26.273  27.761  1.00  0.00     0.023 A 
ATOM     60  C   UNL A   1      43.011  26.817  26.721  1.00  0.00     0.012 A 
ATOM     61  C   UNL A   1      41.866  24.914  27.712  1.00  0.00     0.148 A 
ATOM     62  C   UNL A   1      43.398  26.028  25.638  1.00  0.00     0.002 A 
ATOM     63  C   UNL A   1      42.283  24.126  26.645  1.00  0.00     0.091 A 
ATOM     64  F   UNL A   1      41.097  24.418  28.693  1.00  0.00    -0.205 F 
ATOM     65  C   UNL A   1      43.043  24.682  25.604  1.00  0.00     0.022 A 
BRANCH  63  66
ATOM     66  S   UNL A   1      41.919  22.367  26.566  1.00  0.00     0.127 S 
ATOM     67  O   UNL A   1      42.497  21.887  27.818  1.00  0.00    -0.237 OA
ATOM     68  O   UNL A   1      40.455  22.346  26.525  1.00  0.00    -0.237 OA
ATOM     69  O   UNL A   1      42.557  21.894  25.345  1.00  0.00    -0.744 OA
ENDBRANCH  63  66
ENDBRANCH  45  59
BRANCH  46  70
ATOM     70  C   UNL A   1      39.115  32.047  35.328  1.00  0.00     0.023 A 
ATOM     71  C   UNL A   1      38.204  31.520  36.263  1.00  0.00     0.012 A 
ATOM     72  C   UNL A   1      39.624  33.347  35.518  1.00  0.00     0.148 A 
ATOM     73  C   UNL A   1      37.800  32.275  37.363  1.00  0.00     0.002 A 
ATOM     74  C   UNL A   1      39.258  34.073  36.645  1.00  0.00     0.091 A 
ATOM     75  F   UNL A   1      40.476  33.837  34.606  1.00  0.00    -0.205 F 
ATOM     76  C   UNL A   1      38.338  33.545  37.563  1.00  0.00     0.022 A 
BRANCH  74  77
ATOM     77  S   UNL A   1      40.004  35.657  37.051  1.00  0.00     0.127 S 
ATOM     78  O   UNL A   1      41.417  35.304  37.159  1.00  0.00    -0.237 OA
ATOM     79  O   UNL A   1      39.659  36.466  35.881  1.00  0.00    -0.237 OA
ATOM     80  O   UNL A   1      39.362  36.087  38.286  1.00  0.00    -0.744 OA
ENDBRANCH  74  77
ENDBRANCH  46  70
BRANCH  58  81
ATOM     81  C   UNL A   1      44.705  27.985  34.317  1.00  0.00     0.023 A 
ATOM     82  C   UNL A   1      45.834  28.828  34.348  1.00  0.00     0.012 A 
ATOM     83  C   UNL A   1      44.659  26.856  35.157  1.00  0.00     0.148 A 
ATOM     84  C   UNL A   1      46.909  28.539  35.186  1.00  0.00     0.002 A 
ATOM     85  C   UNL A   1      45.718  26.597  36.018  1.00  0.00     0.091 A 
ATOM     86  F   UNL A   1      43.587  26.053  35.093  1.00  0.00    -0.205 F 
ATOM     87  C   UNL A   1      46.847  27.432  36.028  1.00  0.00     0.022 A 
BRANCH  85  88
ATOM     88  S   UNL A   1      45.676  25.239  37.194  1.00  0.00     0.127 S 
ATOM     89  O   UNL A   1      45.626  24.077  36.308  1.00  0.00    -0.237 OA
ATOM     90  O   UNL A   1      46.940  25.402  37.914  1.00  0.00    -0.237 OA
ATOM     91  O   UNL A   1      44.490  25.463  38.010  1.00  0.00    -0.744 OA
ENDBRANCH  85  88
ENDBRANCH  58  81
ENDBRANCH  32  33
ENDBRANCH  25  27
ENDBRANCH  24  25
ENDBRANCH  23  24
ENDBRANCH  22  23
ENDBRANCH   1  22
TORSDOF 21
ENDMDL
MODEL 3
REMARK VINA RESULT:      -9.6      1.957      8.242
REMARK SMILES CC(C)[C@@H]1SC[C@@H](C(=O)OCCOC(=O)c2ccc(-c3c4nc(c(-c5cccc(S(=O)(=O)[O-])c5F)c5ccc([nH]5)c(-c5cccc(S(=O)(=O)[O-])c5F)c5nc(c(-c6cccc(S(=O)(=O)[O-])c6F)c6ccc3[nH]6)C=C5)C=C4)cc2)N1C(=O)COCC[NH3+]
REMARK SMILES IDX 10 1 8 2 9 3 7 4 4 5 5 6 79 7 6 8 2 9 1 10 3 11 80 12 81 13
REMARK SMILES IDX 82 14 83 15 84 16 85 17 86 18 11 22 12 23 13 24 14 25 15 26
REMARK SMILES IDX 16 27 17 28 78 29 18 30 77 31 19 32 20 33 21 34 71 35 22 36
REMARK SMILES IDX 76 37 70 38 72 39 23 40 75 41 69 42 68 43 24 45 56 46 36 47
REMARK SMILES IDX 55 48 37 49 40 50 54 51 73 52 38 53 39 54 53 56 74 57 41 58
REMARK SMILES IDX 25 59 26 60 34 61 27 62 29 63 35 64 28 65 30 66 31 67 32 68
REMARK SMILES IDX 33 69 57 70 58 71 66 72 59 73 61 74 67 75 60 76 62 77 63 78
REMARK SMILES IDX 64 79 65 80 42 81 43 82 51 83 44 84 46 85 52 86 45 87 47 88
REMARK SMILES IDX 48 89 49 90 50 91
REMARK H PARENT 86 19 86 20 86 21 72 44 40 55
REMARK Flexibility Score: inf
ROOT
ATOM      1  O   UNL A   1      31.440  28.348  25.619  1.00  0.00    -0.461 OA
ENDROOT
BRANCH   1   2
ATOM      2  C   UNL A   1      32.473  27.536  25.248  1.00  0.00     0.329 C 
ATOM      3  O   UNL A   1      33.660  27.803  25.416  1.00  0.00    -0.250 OA
BRANCH   2   4
ATOM      4  C   UNL A   1      32.018  26.306  24.440  1.00  0.00     0.206 C 
ATOM      5  C   UNL A   1      32.302  24.172  25.678  1.00  0.00     0.146 C 
ATOM      6  S   UNL A   1      30.759  25.000  26.302  1.00  0.00    -0.134 SA
ATOM      7  N   UNL A   1      32.803  25.066  24.628  1.00  0.00    -0.314 N 
ATOM      8  C   UNL A   1      30.577  26.026  24.827  1.00  0.00     0.109 C 
BRANCH   5   9
ATOM      9  C   UNL A   1      31.866  22.729  25.281  1.00  0.00     0.016 C 
ATOM     10  C   UNL A   1      30.601  22.220  25.975  1.00  0.00     0.010 C 
ATOM     11  C   UNL A   1      31.779  22.506  23.768  1.00  0.00     0.010 C 
ENDBRANCH   5   9
BRANCH   7  12
ATOM     12  C   UNL A   1      33.977  24.974  23.904  1.00  0.00     0.250 C 
ATOM     13  O   UNL A   1      34.031  25.436  22.760  1.00  0.00    -0.272 OA
BRANCH  12  14
ATOM     14  C   UNL A   1      35.199  24.224  24.444  1.00  0.00     0.260 C 
BRANCH  14  15
ATOM     15  O   UNL A   1      35.416  22.875  24.084  1.00  0.00    -0.366 OA
BRANCH  15  16
ATOM     16  C   UNL A   1      35.637  22.008  25.198  1.00  0.00     0.222 C 
BRANCH  16  17
ATOM     17  C   UNL A   1      36.780  20.997  24.981  1.00  0.00     0.287 C 
BRANCH  17  18
ATOM     18  N   UNL A   1      38.111  21.496  25.312  1.00  0.00    -0.356 N 
ATOM     19  H   UNL A   1      38.093  21.924  26.237  1.00  0.00     0.344 HD
ATOM     20  H   UNL A   1      38.395  22.192  24.621  1.00  0.00     0.344 HD
ATOM     21  H   UNL A   1      38.776  20.723  25.307  1.00  0.00     0.344 HD
ENDBRANCH  17  18
ENDBRANCH  16  17
ENDBRANCH  15  16
ENDBRANCH  14  15
ENDBRANCH  12  14
ENDBRANCH   7  12
ENDBRANCH   2   4
ENDBRANCH   1   2
BRANCH   1  22
ATOM     22  C   UNL A   1      31.674  29.154  26.792  1.00  0.00     0.274 C 
BRANCH  22  23
ATOM     23  C   UNL A   1      31.616  30.638  26.455  1.00  0.00     0.275 C 
BRANCH  23  24
ATOM     24  O   UNL A   1      32.940  31.124  26.202  1.00  0.00    -0.458 OA
BRANCH  24  25
ATOM     25  C   UNL A   1      33.444  31.911  27.180  1.00  0.00     0.338 C 
ATOM     26  O   UNL A   1      32.989  32.967  27.580  1.00  0.00    -0.246 OA
BRANCH  25  27
ATOM     27  C   UNL A   1      34.687  31.328  27.696  1.00  0.00     0.060 A 
ATOM     28  C   UNL A   1      34.752  29.968  28.001  1.00  0.00     0.016 A 
ATOM     29  C   UNL A   1      35.746  32.182  28.001  1.00  0.00     0.016 A 
ATOM     30  C   UNL A   1      35.850  29.471  28.697  1.00  0.00     0.010 A 
ATOM     31  C   UNL A   1      36.877  31.665  28.628  1.00  0.00     0.010 A 
ATOM     32  C   UNL A   1      36.921  30.316  29.017  1.00  0.00    -0.014 A 
BRANCH  32  33
ATOM     33  C   UNL A   1      38.086  29.806  29.776  1.00  0.00     0.031 A 
ATOM     34  C   UNL A   1      38.340  30.284  31.178  1.00  0.00     0.074 A 
ATOM     35  C   UNL A   1      38.936  28.947  29.183  1.00  0.00     0.049 A 
ATOM     36  N   UNL A   1      39.372  30.063  31.950  1.00  0.00    -0.248 NA
ATOM     37  C   UNL A   1      37.305  31.136  31.787  1.00  0.00     0.031 C 
ATOM     38  C   UNL A   1      38.785  28.414  27.828  1.00  0.00     0.029 A 
ATOM     39  N   UNL A   1      40.105  28.391  29.633  1.00  0.00    -0.354 N 
ATOM     40  C   UNL A   1      39.141  30.794  33.110  1.00  0.00     0.074 A 
ATOM     41  C   UNL A   1      37.868  31.461  32.943  1.00  0.00     0.031 C 
ATOM     42  C   UNL A   1      39.818  27.601  27.559  1.00  0.00     0.029 A 
ATOM     43  C   UNL A   1      40.730  27.600  28.698  1.00  0.00     0.049 A 
ATOM     44  H   UNL A   1      40.463  28.543  30.538  1.00  0.00     0.167 HD
ATOM     45  C   UNL A   1      39.917  30.889  34.216  1.00  0.00     0.034 A 
ATOM     46  C   UNL A   1      41.915  26.965  28.746  1.00  0.00     0.034 A 
ATOM     47  C   UNL A   1      41.148  30.168  34.398  1.00  0.00     0.049 A 
ATOM     48  C   UNL A   1      42.750  27.079  29.989  1.00  0.00     0.074 A 
ATOM     49  C   UNL A   1      41.976  30.140  35.506  1.00  0.00     0.029 A 
ATOM     50  N   UNL A   1      41.727  29.342  33.446  1.00  0.00    -0.354 N 
ATOM     51  N   UNL A   1      42.481  27.705  31.109  1.00  0.00    -0.248 NA
ATOM     52  C   UNL A   1      44.047  26.388  29.982  1.00  0.00     0.031 C 
ATOM     53  C   UNL A   1      43.060  29.301  35.221  1.00  0.00     0.029 A 
ATOM     54  C   UNL A   1      42.905  28.804  33.937  1.00  0.00     0.049 A 
ATOM     55  H   UNL A   1      41.356  29.164  32.552  1.00  0.00     0.167 HD
ATOM     56  C   UNL A   1      43.560  27.466  31.949  1.00  0.00     0.074 A 
ATOM     57  C   UNL A   1      44.479  26.619  31.215  1.00  0.00     0.031 C 
ATOM     58  C   UNL A   1      43.781  27.922  33.207  1.00  0.00     0.034 A 
BRANCH  45  59
ATOM     59  C   UNL A   1      39.435  31.778  35.330  1.00  0.00     0.023 A 
ATOM     60  C   UNL A   1      38.484  31.290  36.248  1.00  0.00     0.012 A 
ATOM     61  C   UNL A   1      39.947  33.079  35.495  1.00  0.00     0.148 A 
ATOM     62  C   UNL A   1      38.030  32.092  37.295  1.00  0.00     0.002 A 
ATOM     63  C   UNL A   1      39.514  33.862  36.561  1.00  0.00     0.091 A 
ATOM     64  F   UNL A   1      40.829  33.542  34.596  1.00  0.00    -0.205 F 
ATOM     65  C   UNL A   1      38.551  33.373  37.457  1.00  0.00     0.022 A 
BRANCH  63  66
ATOM     66  S   UNL A   1      40.190  35.499  36.870  1.00  0.00     0.127 S 
ATOM     67  O   UNL A   1      41.626  35.252  36.771  1.00  0.00    -0.237 OA
ATOM     68  O   UNL A   1      39.631  36.288  35.770  1.00  0.00    -0.237 OA
ATOM     69  O   UNL A   1      39.696  35.878  38.187  1.00  0.00    -0.744 OA
ENDBRANCH  63  66
ENDBRANCH  45  59
BRANCH  46  70
ATOM     70  C   UNL A   1      42.341  26.119  27.596  1.00  0.00     0.023 A 
ATOM     71  C   UNL A   1      43.198  26.671  26.626  1.00  0.00     0.012 A 
ATOM     72  C   UNL A   1      41.970  24.763  27.498  1.00  0.00     0.148 A 
ATOM     73  C   UNL A   1      43.672  25.890  25.572  1.00  0.00     0.002 A 
ATOM     74  C   UNL A   1      42.490  23.978  26.475  1.00  0.00     0.091 A 
ATOM     75  F   UNL A   1      41.137  24.263  28.422  1.00  0.00    -0.205 F 
ATOM     76  C   UNL A   1      43.331  24.541  25.505  1.00  0.00     0.022 A 
BRANCH  74  77
ATOM     77  S   UNL A   1      42.212  22.205  26.391  1.00  0.00     0.127 S 
ATOM     78  O   UNL A   1      42.976  21.838  25.201  1.00  0.00    -0.237 OA
ATOM     79  O   UNL A   1      42.786  21.745  27.656  1.00  0.00    -0.237 OA
ATOM     80  O   UNL A   1      40.768  22.038  26.294  1.00  0.00    -0.744 OA
ENDBRANCH  74  77
ENDBRANCH  46  70
BRANCH  58  81
ATOM     81  C   UNL A   1      45.061  27.503  33.877  1.00  0.00     0.023 A 
ATOM     82  C   UNL A   1      46.199  28.326  33.765  1.00  0.00     0.012 A 
ATOM     83  C   UNL A   1      45.120  26.341  34.669  1.00  0.00     0.148 A 
ATOM     84  C   UNL A   1      47.385  27.984  34.413  1.00  0.00     0.002 A 
ATOM     85  C   UNL A   1      46.294  26.028  35.344  1.00  0.00     0.091 A 
ATOM     86  F   UNL A   1      44.033  25.558  34.742  1.00  0.00    -0.205 F 
ATOM     87  C   UNL A   1      47.429  26.844  35.211  1.00  0.00     0.022 A 
BRANCH  85  88
ATOM     88  S   UNL A   1      46.403  24.623  36.458  1.00  0.00     0.127 S 
ATOM     89  O   UNL A   1      45.347  24.921  37.423  1.00  0.00    -0.237 OA
ATOM     90  O   UNL A   1      46.118  23.493  35.573  1.00  0.00    -0.237 OA
ATOM     91  O   UNL A   1      47.763  24.643  36.982  1.00  0.00    -0.744 OA
ENDBRANCH  85  88
ENDBRANCH  58  81
ENDBRANCH  32  33
ENDBRANCH  25  27
ENDBRANCH  24  25
ENDBRANCH  23  24
ENDBRANCH  22  23
ENDBRANCH   1  22
TORSDOF 21
ENDMDL
