MODEL 1
REMARK VINA RESULT:     -11.6      0.000      0.000
REMARK SMILES CC(C)[C@@H](NC(=O)[C@H]1CC[C@@H](C(C)C)CC1)C(=O)OCCOC(=O)c1ccc(-c2c3nc(c(-c4cccc(S(=O)(=O)[O-])c4F)c4ccc([nH]4)c(-c4cccc(S(=O)(=O)[O-])c4F)c4nc(c(-c5cccc(S(=O)(=O)[O-])c5F)c5ccc2[nH]5)C=C4)C=C3)cc1
REMARK SMILES IDX 20 1 19 2 17 3 18 4 4 5 5 6 6 7 7 8 8 10 11 11 15 12 10 13
REMARK SMILES IDX 16 14 9 15 12 16 13 17 14 18 2 19 1 20 3 21 21 22 22 23
REMARK SMILES IDX 23 24 24 25 25 26 26 27 87 28 27 29 86 30 28 31 29 32 30 33
REMARK SMILES IDX 80 34 31 35 85 36 79 37 81 38 32 39 84 40 78 41 77 42 33 44
REMARK SMILES IDX 65 45 45 46 64 47 46 48 49 49 63 50 82 51 47 52 48 53 62 55
REMARK SMILES IDX 83 56 50 57 34 58 35 59 43 60 36 61 38 62 44 63 37 64 39 65
REMARK SMILES IDX 40 66 41 67 42 68 66 69 67 70 75 71 68 72 70 73 76 74 69 75
REMARK SMILES IDX 71 76 72 77 73 78 74 79 51 80 52 81 60 82 53 83 55 84 61 85
REMARK SMILES IDX 54 86 56 87 57 88 58 89 59 90
REMARK H PARENT 5 9 81 43 49 54
REMARK Flexibility Score: inf
ROOT
ATOM      1  C   UNL A   1      35.220  21.692  24.500  1.00  0.00     0.274 C 
ENDROOT
BRANCH   1   2
ATOM      2  O   UNL A   1      34.318  22.435  25.350  1.00  0.00    -0.461 OA
BRANCH   2   3
ATOM      3  C   UNL A   1      34.383  23.792  25.225  1.00  0.00     0.329 C 
ATOM      4  O   UNL A   1      35.280  24.474  25.706  1.00  0.00    -0.250 OA
BRANCH   3   5
ATOM      5  C   UNL A   1      33.164  24.405  24.486  1.00  0.00     0.194 C 
BRANCH   5   6
ATOM      6  N   UNL A   1      32.204  25.001  25.404  1.00  0.00    -0.342 N 
ATOM      7  C   UNL A   1      31.669  26.242  25.444  1.00  0.00     0.223 C 
ATOM      8  O   UNL A   1      30.889  26.467  26.379  1.00  0.00    -0.275 OA
ATOM      9  H   UNL A   1      31.893  24.399  26.119  1.00  0.00     0.164 HD
BRANCH   7  10
ATOM     10  C   UNL A   1      32.017  27.386  24.471  1.00  0.00     0.078 C 
ATOM     11  C   UNL A   1      30.078  29.381  23.222  1.00  0.00    -0.009 C 
ATOM     12  C   UNL A   1      30.829  29.741  24.524  1.00  0.00     0.004 C 
ATOM     13  C   UNL A   1      30.046  27.874  22.927  1.00  0.00     0.004 C 
ATOM     14  C   UNL A   1      32.000  28.841  24.947  1.00  0.00     0.014 C 
ATOM     15  C   UNL A   1      31.388  27.188  23.100  1.00  0.00     0.014 C 
BRANCH  11  16
ATOM     16  C   UNL A   1      28.671  30.085  23.083  1.00  0.00    -0.014 C 
ATOM     17  C   UNL A   1      28.598  31.474  23.735  1.00  0.00     0.007 C 
ATOM     18  C   UNL A   1      28.118  30.201  21.657  1.00  0.00     0.007 C 
ENDBRANCH  11  16
ENDBRANCH   7  10
ENDBRANCH   5   6
BRANCH   5  19
ATOM     19  C   UNL A   1      32.476  23.445  23.480  1.00  0.00     0.017 C 
ATOM     20  C   UNL A   1      30.945  23.565  23.470  1.00  0.00     0.010 C 
ATOM     21  C   UNL A   1      32.956  23.695  22.042  1.00  0.00     0.010 C 
ENDBRANCH   5  19
ENDBRANCH   3   5
ENDBRANCH   2   3
ENDBRANCH   1   2
BRANCH   1  22
ATOM     22  C   UNL A   1      36.338  21.011  25.286  1.00  0.00     0.275 C 
BRANCH  22  23
ATOM     23  O   UNL A   1      37.590  21.651  24.997  1.00  0.00    -0.458 OA
BRANCH  23  24
ATOM     24  C   UNL A   1      38.664  21.204  25.683  1.00  0.00     0.338 C 
ATOM     25  O   UNL A   1      39.144  20.080  25.667  1.00  0.00    -0.246 OA
BRANCH  24  26
ATOM     26  C   UNL A   1      39.277  22.341  26.383  1.00  0.00     0.060 A 
ATOM     27  C   UNL A   1      38.840  23.616  26.036  1.00  0.00     0.016 A 
ATOM     28  C   UNL A   1      40.341  22.184  27.266  1.00  0.00     0.016 A 
ATOM     29  C   UNL A   1      39.469  24.747  26.527  1.00  0.00     0.010 A 
ATOM     30  C   UNL A   1      40.962  23.325  27.792  1.00  0.00     0.010 A 
ATOM     31  C   UNL A   1      40.546  24.611  27.399  1.00  0.00    -0.014 A 
BRANCH  31  32
ATOM     32  C   UNL A   1      41.319  25.824  27.738  1.00  0.00     0.031 A 
ATOM     33  C   UNL A   1      40.659  26.881  28.572  1.00  0.00     0.074 A 
ATOM     34  C   UNL A   1      42.623  25.926  27.418  1.00  0.00     0.049 A 
ATOM     35  N   UNL A   1      41.087  28.075  28.881  1.00  0.00    -0.248 NA
ATOM     36  C   UNL A   1      39.347  26.539  29.148  1.00  0.00     0.031 C 
ATOM     37  C   UNL A   1      43.410  24.897  26.739  1.00  0.00     0.029 A 
ATOM     38  N   UNL A   1      43.515  26.946  27.630  1.00  0.00    -0.354 N 
ATOM     39  C   UNL A   1      40.066  28.655  29.622  1.00  0.00     0.074 A 
ATOM     40  C   UNL A   1      39.015  27.670  29.752  1.00  0.00     0.031 C 
ATOM     41  C   UNL A   1      44.670  25.338  26.590  1.00  0.00     0.029 A 
ATOM     42  C   UNL A   1      44.757  26.706  27.091  1.00  0.00     0.049 A 
ATOM     43  H   UNL A   1      43.288  27.770  28.121  1.00  0.00     0.167 HD
ATOM     44  C   UNL A   1      40.011  29.902  30.138  1.00  0.00     0.034 A 
ATOM     45  C   UNL A   1      45.824  27.521  26.973  1.00  0.00     0.034 A 
ATOM     46  C   UNL A   1      41.081  30.854  30.042  1.00  0.00     0.049 A 
ATOM     47  C   UNL A   1      45.717  28.929  27.498  1.00  0.00     0.074 A 
ATOM     48  C   UNL A   1      41.115  32.163  30.485  1.00  0.00     0.029 A 
ATOM     49  N   UNL A   1      42.315  30.589  29.468  1.00  0.00    -0.354 N 
ATOM     50  N   UNL A   1      44.735  29.489  28.163  1.00  0.00    -0.248 NA
ATOM     51  C   UNL A   1      46.860  29.819  27.251  1.00  0.00     0.031 C 
ATOM     52  C   UNL A   1      42.373  32.692  30.173  1.00  0.00     0.029 A 
ATOM     53  C   UNL A   1      43.122  31.709  29.543  1.00  0.00     0.049 A 
ATOM     54  H   UNL A   1      42.578  29.730  29.066  1.00  0.00     0.167 HD
ATOM     55  C   UNL A   1      45.141  30.793  28.420  1.00  0.00     0.074 A 
ATOM     56  C   UNL A   1      46.475  30.928  27.869  1.00  0.00     0.031 C 
ATOM     57  C   UNL A   1      44.465  31.796  29.031  1.00  0.00     0.034 A 
BRANCH  44  58
ATOM     58  C   UNL A   1      38.737  30.302  30.824  1.00  0.00     0.023 A 
ATOM     59  C   UNL A   1      38.525  29.962  32.174  1.00  0.00     0.012 A 
ATOM     60  C   UNL A   1      37.742  31.009  30.121  1.00  0.00     0.148 A 
ATOM     61  C   UNL A   1      37.331  30.301  32.808  1.00  0.00     0.002 A 
ATOM     62  C   UNL A   1      36.567  31.371  30.769  1.00  0.00     0.091 A 
ATOM     63  F   UNL A   1      37.946  31.286  28.825  1.00  0.00    -0.205 F 
ATOM     64  C   UNL A   1      36.357  31.012  32.110  1.00  0.00     0.022 A 
BRANCH  62  65
ATOM     65  S   UNL A   1      35.287  32.328  29.952  1.00  0.00     0.127 S 
ATOM     66  O   UNL A   1      34.331  32.534  31.039  1.00  0.00    -0.237 OA
ATOM     67  O   UNL A   1      36.009  33.532  29.540  1.00  0.00    -0.237 OA
ATOM     68  O   UNL A   1      34.822  31.500  28.847  1.00  0.00    -0.744 OA
ENDBRANCH  62  65
ENDBRANCH  44  58
BRANCH  45  69
ATOM     69  C   UNL A   1      47.069  27.031  26.314  1.00  0.00     0.023 A 
ATOM     70  C   UNL A   1      47.279  27.284  24.946  1.00  0.00     0.012 A 
ATOM     71  C   UNL A   1      48.065  26.348  27.043  1.00  0.00     0.148 A 
ATOM     72  C   UNL A   1      48.451  26.857  24.315  1.00  0.00     0.002 A 
ATOM     73  C   UNL A   1      49.254  25.982  26.424  1.00  0.00     0.091 A 
ATOM     74  F   UNL A   1      47.835  26.079  28.337  1.00  0.00    -0.205 F 
ATOM     75  C   UNL A   1      49.444  26.222  25.056  1.00  0.00     0.022 A 
BRANCH  73  76
ATOM     76  S   UNL A   1      50.633  25.295  27.349  1.00  0.00     0.127 S 
ATOM     77  O   UNL A   1      50.026  24.119  27.965  1.00  0.00    -0.237 OA
ATOM     78  O   UNL A   1      51.601  25.005  26.289  1.00  0.00    -0.237 OA
ATOM     79  O   UNL A   1      51.050  26.352  28.260  1.00  0.00    -0.744 OA
ENDBRANCH  73  76
ENDBRANCH  45  69
BRANCH  57  80
ATOM     80  C   UNL A   1      45.153  33.129  29.141  1.00  0.00     0.023 A 
ATOM     81  C   UNL A   1      46.058  33.353  30.196  1.00  0.00     0.012 A 
ATOM     82  C   UNL A   1      44.977  34.117  28.153  1.00  0.00     0.148 A 
ATOM     83  C   UNL A   1      46.767  34.549  30.276  1.00  0.00     0.002 A 
ATOM     84  C   UNL A   1      45.718  35.291  28.218  1.00  0.00     0.091 A 
ATOM     85  F   UNL A   1      44.092  33.892  27.171  1.00  0.00    -0.205 F 
ATOM     86  C   UNL A   1      46.607  35.512  29.282  1.00  0.00     0.022 A 
BRANCH  84  87
ATOM     87  S   UNL A   1      45.634  36.539  26.929  1.00  0.00     0.127 S 
ATOM     88  O   UNL A   1      46.077  35.788  25.756  1.00  0.00    -0.237 OA
ATOM     89  O   UNL A   1      44.213  36.893  26.923  1.00  0.00    -0.237 OA
ATOM     90  O   UNL A   1      46.516  37.613  27.364  1.00  0.00    -0.744 OA
ENDBRANCH  84  87
ENDBRANCH  57  80
ENDBRANCH  31  32
ENDBRANCH  24  26
ENDBRANCH  23  24
ENDBRANCH  22  23
ENDBRANCH   1  22
TORSDOF 18
ENDMDL
MODEL 2
REMARK VINA RESULT:     -11.4      1.968      2.421
REMARK SMILES CC(C)[C@@H](NC(=O)[C@H]1CC[C@@H](C(C)C)CC1)C(=O)OCCOC(=O)c1ccc(-c2c3nc(c(-c4cccc(S(=O)(=O)[O-])c4F)c4ccc([nH]4)c(-c4cccc(S(=O)(=O)[O-])c4F)c4nc(c(-c5cccc(S(=O)(=O)[O-])c5F)c5ccc2[nH]5)C=C4)C=C3)cc1
REMARK SMILES IDX 20 1 19 2 17 3 18 4 4 5 5 6 6 7 7 8 8 10 11 11 15 12 10 13
REMARK SMILES IDX 16 14 9 15 12 16 13 17 14 18 2 19 1 20 3 21 21 22 22 23
REMARK SMILES IDX 23 24 24 25 25 26 26 27 87 28 27 29 86 30 28 31 29 32 30 33
REMARK SMILES IDX 80 34 31 35 85 36 79 37 81 38 32 39 84 40 78 41 77 42 33 44
REMARK SMILES IDX 65 45 45 46 64 47 46 48 49 49 63 50 82 51 47 52 48 53 62 55
REMARK SMILES IDX 83 56 50 57 34 58 35 59 43 60 36 61 38 62 44 63 37 64 39 65
REMARK SMILES IDX 40 66 41 67 42 68 66 69 67 70 75 71 68 72 70 73 76 74 69 75
REMARK SMILES IDX 71 76 72 77 73 78 74 79 51 80 52 81 60 82 53 83 55 84 61 85
REMARK SMILES IDX 54 86 56 87 57 88 58 89 59 90
REMARK H PARENT 5 9 81 43 49 54
REMARK Flexibility Score: inf
ROOT
ATOM      1  C   UNL A   1      36.055  20.988  25.302  1.00  0.00     0.274 C 
ENDROOT
BRANCH   1   2
ATOM      2  O   UNL A   1      35.556  22.341  25.204  1.00  0.00    -0.461 OA
BRANCH   2   3
ATOM      3  C   UNL A   1      34.908  22.641  24.041  1.00  0.00     0.329 C 
ATOM      4  O   UNL A   1      35.465  23.123  23.061  1.00  0.00    -0.250 OA
BRANCH   3   5
ATOM      5  C   UNL A   1      33.378  22.391  24.101  1.00  0.00     0.194 C 
BRANCH   5   6
ATOM      6  N   UNL A   1      32.826  22.668  25.420  1.00  0.00    -0.342 N 
ATOM      7  C   UNL A   1      32.177  23.754  25.899  1.00  0.00     0.223 C 
ATOM      8  O   UNL A   1      31.849  23.707  27.091  1.00  0.00    -0.275 OA
ATOM      9  H   UNL A   1      32.946  21.942  26.074  1.00  0.00     0.164 HD
BRANCH   7  10
ATOM     10  C   UNL A   1      31.897  25.040  25.097  1.00  0.00     0.078 C 
ATOM     11  C   UNL A   1      32.293  27.911  26.045  1.00  0.00    -0.009 C 
ATOM     12  C   UNL A   1      33.409  27.196  25.250  1.00  0.00     0.004 C 
ATOM     13  C   UNL A   1      31.269  26.950  26.666  1.00  0.00     0.004 C 
ATOM     14  C   UNL A   1      33.054  25.877  24.546  1.00  0.00     0.014 C 
ATOM     15  C   UNL A   1      30.783  25.873  25.714  1.00  0.00     0.014 C 
BRANCH  11  16
ATOM     16  C   UNL A   1      32.828  29.005  27.050  1.00  0.00    -0.014 C 
ATOM     17  C   UNL A   1      34.360  29.050  27.172  1.00  0.00     0.007 C 
ATOM     18  C   UNL A   1      32.330  30.436  26.813  1.00  0.00     0.007 C 
ENDBRANCH  11  16
ENDBRANCH   7  10
ENDBRANCH   5   6
BRANCH   5  19
ATOM     19  C   UNL A   1      32.935  21.002  23.573  1.00  0.00     0.017 C 
ATOM     20  C   UNL A   1      32.254  20.131  24.639  1.00  0.00     0.010 C 
ATOM     21  C   UNL A   1      31.947  21.131  22.402  1.00  0.00     0.010 C 
ENDBRANCH   5  19
ENDBRANCH   3   5
ENDBRANCH   2   3
ENDBRANCH   1   2
BRANCH   1  22
ATOM     22  C   UNL A   1      37.521  20.874  24.887  1.00  0.00     0.275 C 
BRANCH  22  23
ATOM     23  O   UNL A   1      38.267  21.961  25.455  1.00  0.00    -0.458 OA
BRANCH  23  24
ATOM     24  C   UNL A   1      39.376  21.628  26.151  1.00  0.00     0.338 C 
ATOM     25  O   UNL A   1      39.965  20.557  26.149  1.00  0.00    -0.246 OA
BRANCH  24  26
ATOM     26  C   UNL A   1      39.867  22.825  26.847  1.00  0.00     0.060 A 
ATOM     27  C   UNL A   1      39.345  24.053  26.451  1.00  0.00     0.016 A 
ATOM     28  C   UNL A   1      40.903  22.774  27.773  1.00  0.00     0.016 A 
ATOM     29  C   UNL A   1      39.862  25.241  26.938  1.00  0.00     0.010 A 
ATOM     30  C   UNL A   1      41.410  23.972  28.295  1.00  0.00     0.010 A 
ATOM     31  C   UNL A   1      40.909  25.211  27.854  1.00  0.00    -0.014 A 
BRANCH  31  32
ATOM     32  C   UNL A   1      41.569  26.490  28.193  1.00  0.00     0.031 A 
ATOM     33  C   UNL A   1      40.785  27.520  28.949  1.00  0.00     0.074 A 
ATOM     34  C   UNL A   1      42.879  26.680  27.944  1.00  0.00     0.049 A 
ATOM     35  N   UNL A   1      41.103  28.752  29.237  1.00  0.00    -0.248 NA
ATOM     36  C   UNL A   1      39.468  27.098  29.460  1.00  0.00     0.031 C 
ATOM     37  C   UNL A   1      43.779  25.692  27.350  1.00  0.00     0.029 A 
ATOM     38  N   UNL A   1      43.679  27.770  28.171  1.00  0.00    -0.354 N 
ATOM     39  C   UNL A   1      40.000  29.277  29.897  1.00  0.00     0.074 A 
ATOM     40  C   UNL A   1      39.019  28.219  30.003  1.00  0.00     0.031 C 
ATOM     41  C   UNL A   1      45.009  26.223  27.257  1.00  0.00     0.029 A 
ATOM     42  C   UNL A   1      44.966  27.609  27.713  1.00  0.00     0.049 A 
ATOM     43  H   UNL A   1      43.363  28.590  28.617  1.00  0.00     0.167 HD
ATOM     44  C   UNL A   1      39.822  30.532  30.364  1.00  0.00     0.034 A 
ATOM     45  C   UNL A   1      45.975  28.497  27.627  1.00  0.00     0.034 A 
ATOM     46  C   UNL A   1      40.823  31.558  30.295  1.00  0.00     0.049 A 
ATOM     47  C   UNL A   1      45.733  29.909  28.093  1.00  0.00     0.074 A 
ATOM     48  C   UNL A   1      40.734  32.879  30.691  1.00  0.00     0.029 A 
ATOM     49  N   UNL A   1      42.106  31.369  29.803  1.00  0.00    -0.354 N 
ATOM     50  N   UNL A   1      44.674  30.415  28.679  1.00  0.00    -0.248 NA
ATOM     51  C   UNL A   1      46.820  30.876  27.880  1.00  0.00     0.031 C 
ATOM     52  C   UNL A   1      41.966  33.492  30.433  1.00  0.00     0.029 A 
ATOM     53  C   UNL A   1      42.822  32.549  29.883  1.00  0.00     0.049 A 
ATOM     54  H   UNL A   1      42.455  30.520  29.448  1.00  0.00     0.167 HD
ATOM     55  C   UNL A   1      44.967  31.753  28.912  1.00  0.00     0.074 A 
ATOM     56  C   UNL A   1      46.318  31.971  28.434  1.00  0.00     0.031 C 
ATOM     57  C   UNL A   1      44.183  32.721  29.446  1.00  0.00     0.034 A 
BRANCH  44  58
ATOM     58  C   UNL A   1      38.483  30.856  30.960  1.00  0.00     0.023 A 
ATOM     59  C   UNL A   1      38.171  30.431  32.266  1.00  0.00     0.012 A 
ATOM     60  C   UNL A   1      37.529  31.576  30.216  1.00  0.00     0.148 A 
ATOM     61  C   UNL A   1      36.918  30.700  32.814  1.00  0.00     0.002 A 
ATOM     62  C   UNL A   1      36.293  31.867  30.782  1.00  0.00     0.091 A 
ATOM     63  F   UNL A   1      37.831  31.934  28.960  1.00  0.00    -0.205 F 
ATOM     64  C   UNL A   1      35.983  31.424  32.077  1.00  0.00     0.022 A 
BRANCH  62  65
ATOM     65  S   UNL A   1      35.055  32.835  29.913  1.00  0.00     0.127 S 
ATOM     66  O   UNL A   1      34.568  31.875  28.925  1.00  0.00    -0.237 OA
ATOM     67  O   UNL A   1      34.101  33.151  30.977  1.00  0.00    -0.237 OA
ATOM     68  O   UNL A   1      35.763  33.990  29.380  1.00  0.00    -0.744 OA
ENDBRANCH  62  65
ENDBRANCH  44  58
BRANCH  45  69
ATOM     69  C   UNL A   1      47.290  28.083  27.059  1.00  0.00     0.023 A 
ATOM     70  C   UNL A   1      48.380  27.852  27.919  1.00  0.00     0.012 A 
ATOM     71  C   UNL A   1      47.459  27.879  25.674  1.00  0.00     0.148 A 
ATOM     72  C   UNL A   1      49.613  27.437  27.410  1.00  0.00     0.002 A 
ATOM     73  C   UNL A   1      48.670  27.407  25.181  1.00  0.00     0.091 A 
ATOM     74  F   UNL A   1      46.424  28.141  24.861  1.00  0.00    -0.205 F 
ATOM     75  C   UNL A   1      49.754  27.199  26.046  1.00  0.00     0.022 A 
BRANCH  73  76
ATOM     76  S   UNL A   1      48.876  26.939  23.459  1.00  0.00     0.127 S 
ATOM     77  O   UNL A   1      47.910  25.852  23.325  1.00  0.00    -0.237 OA
ATOM     78  O   UNL A   1      48.516  28.173  22.758  1.00  0.00    -0.237 OA
ATOM     79  O   UNL A   1      50.279  26.568  23.326  1.00  0.00    -0.744 OA
ENDBRANCH  73  76
ENDBRANCH  45  69
BRANCH  57  80
ATOM     80  C   UNL A   1      44.763  34.105  29.546  1.00  0.00     0.023 A 
ATOM     81  C   UNL A   1      45.440  34.485  30.721  1.00  0.00     0.012 A 
ATOM     82  C   UNL A   1      44.721  34.988  28.450  1.00  0.00     0.148 A 
ATOM     83  C   UNL A   1      46.054  35.732  30.811  1.00  0.00     0.002 A 
ATOM     84  C   UNL A   1      45.370  36.214  28.533  1.00  0.00     0.091 A 
ATOM     85  F   UNL A   1      44.051  34.615  27.351  1.00  0.00    -0.205 F 
ATOM     86  C   UNL A   1      46.031  36.591  29.713  1.00  0.00     0.022 A 
BRANCH  84  87
ATOM     87  S   UNL A   1      45.461  37.336  27.132  1.00  0.00     0.127 S 
ATOM     88  O   UNL A   1      44.053  37.664  26.920  1.00  0.00    -0.237 OA
ATOM     89  O   UNL A   1      46.271  38.436  27.660  1.00  0.00    -0.237 OA
ATOM     90  O   UNL A   1      46.103  36.580  26.065  1.00  0.00    -0.744 OA
ENDBRANCH  84  87
ENDBRANCH  57  80
ENDBRANCH  31  32
ENDBRANCH  24  26
ENDBRANCH  23  24
ENDBRANCH  22  23
ENDBRANCH   1  22
TORSDOF 18
ENDMDL
MODEL 3
REMARK VINA RESULT:     -11.2      2.090      3.002
REMARK SMILES CC(C)[C@@H](NC(=O)[C@H]1CC[C@@H](C(C)C)CC1)C(=O)OCCOC(=O)c1ccc(-c2c3nc(c(-c4cccc(S(=O)(=O)[O-])c4F)c4ccc([nH]4)c(-c4cccc(S(=O)(=O)[O-])c4F)c4nc(c(-c5cccc(S(=O)(=O)[O-])c5F)c5ccc2[nH]5)C=C4)C=C3)cc1
REMARK SMILES IDX 20 1 19 2 17 3 18 4 4 5 5 6 6 7 7 8 8 10 11 11 15 12 10 13
REMARK SMILES IDX 16 14 9 15 12 16 13 17 14 18 2 19 1 20 3 21 21 22 22 23
REMARK SMILES IDX 23 24 24 25 25 26 26 27 87 28 27 29 86 30 28 31 29 32 30 33
REMARK SMILES IDX 80 34 31 35 85 36 79 37 81 38 32 39 84 40 78 41 77 42 33 44
REMARK SMILES IDX 65 45 45 46 64 47 46 48 49 49 63 50 82 51 47 52 48 53 62 55
REMARK SMILES IDX 83 56 50 57 34 58 35 59 43 60 36 61 38 62 44 63 37 64 39 65
REMARK SMILES IDX 40 66 41 67 42 68 66 69 67 70 75 71 68 72 70 73 76 74 69 75
REMARK SMILES IDX 71 76 72 77 73 78 74 79 51 80 52 81 60 82 53 83 55 84 61 85
REMARK SMILES IDX 54 86 56 87 57 88 58 89 59 90
REMARK H PARENT 5 9 81 43 49 54
REMARK Flexibility Score: inf
ROOT
ATOM      1  C   UNL A   1      35.327  21.689  24.598  1.00  0.00     0.274 C 
ENDROOT
BRANCH   1   2
ATOM      2  O   UNL A   1      35.277  23.078  24.202  1.00  0.00    -0.461 OA
BRANCH   2   3
ATOM      3  C   UNL A   1      34.967  23.959  25.197  1.00  0.00     0.329 C 
ATOM      4  O   UNL A   1      35.411  23.876  26.336  1.00  0.00    -0.250 OA
BRANCH   3   5
ATOM      5  C   UNL A   1      33.930  25.033  24.773  1.00  0.00     0.194 C 
BRANCH   5   6
ATOM      6  N   UNL A   1      34.035  25.373  23.361  1.00  0.00    -0.342 N 
ATOM      7  C   UNL A   1      33.152  25.229  22.347  1.00  0.00     0.223 C 
ATOM      8  O   UNL A   1      33.544  25.590  21.231  1.00  0.00    -0.275 OA
ATOM      9  H   UNL A   1      34.895  25.776  23.100  1.00  0.00     0.164 HD
BRANCH   7  10
ATOM     10  C   UNL A   1      31.754  24.591  22.477  1.00  0.00     0.078 C 
ATOM     11  C   UNL A   1      30.661  23.051  24.870  1.00  0.00    -0.009 C 
ATOM     12  C   UNL A   1      30.383  24.564  24.730  1.00  0.00     0.004 C 
ATOM     13  C   UNL A   1      31.841  22.561  24.018  1.00  0.00     0.004 C 
ATOM     14  C   UNL A   1      30.694  25.227  23.380  1.00  0.00     0.014 C 
ATOM     15  C   UNL A   1      31.820  23.076  22.590  1.00  0.00     0.014 C 
BRANCH  11  16
ATOM     16  C   UNL A   1      30.708  22.547  26.367  1.00  0.00    -0.014 C 
ATOM     17  C   UNL A   1      31.997  22.925  27.115  1.00  0.00     0.007 C 
ATOM     18  C   UNL A   1      29.516  22.944  27.246  1.00  0.00     0.007 C 
ENDBRANCH  11  16
ENDBRANCH   7  10
ENDBRANCH   5   6
BRANCH   5  19
ATOM     19  C   UNL A   1      33.918  26.298  25.670  1.00  0.00     0.017 C 
ATOM     20  C   UNL A   1      34.032  27.610  24.878  1.00  0.00     0.010 C 
ATOM     21  C   UNL A   1      32.629  26.388  26.503  1.00  0.00     0.010 C 
ENDBRANCH   5  19
ENDBRANCH   3   5
ENDBRANCH   2   3
ENDBRANCH   1   2
BRANCH   1  22
ATOM     22  C   UNL A   1      36.740  21.114  24.537  1.00  0.00     0.275 C 
BRANCH  22  23
ATOM     23  O   UNL A   1      37.677  22.085  25.028  1.00  0.00    -0.458 OA
BRANCH  23  24
ATOM     24  C   UNL A   1      38.684  21.613  25.794  1.00  0.00     0.338 C 
ATOM     25  O   UNL A   1      39.114  20.469  25.840  1.00  0.00    -0.246 OA
BRANCH  24  26
ATOM     26  C   UNL A   1      39.301  22.742  26.503  1.00  0.00     0.060 A 
ATOM     27  C   UNL A   1      38.846  24.019  26.188  1.00  0.00     0.016 A 
ATOM     28  C   UNL A   1      40.384  22.579  27.361  1.00  0.00     0.016 A 
ATOM     29  C   UNL A   1      39.474  25.146  26.687  1.00  0.00     0.010 A 
ATOM     30  C   UNL A   1      41.005  23.717  27.895  1.00  0.00     0.010 A 
ATOM     31  C   UNL A   1      40.569  25.005  27.534  1.00  0.00    -0.014 A 
BRANCH  31  32
ATOM     32  C   UNL A   1      41.339  26.219  27.880  1.00  0.00     0.031 A 
ATOM     33  C   UNL A   1      40.687  27.254  28.748  1.00  0.00     0.074 A 
ATOM     34  C   UNL A   1      42.634  26.340  27.534  1.00  0.00     0.049 A 
ATOM     35  N   UNL A   1      41.110  28.446  29.069  1.00  0.00    -0.248 NA
ATOM     36  C   UNL A   1      39.390  26.889  29.345  1.00  0.00     0.031 C 
ATOM     37  C   UNL A   1      43.416  25.332  26.819  1.00  0.00     0.029 A 
ATOM     38  N   UNL A   1      43.521  27.364  27.747  1.00  0.00    -0.354 N 
ATOM     39  C   UNL A   1      40.100  29.002  29.843  1.00  0.00     0.074 A 
ATOM     40  C   UNL A   1      39.061  28.004  29.977  1.00  0.00     0.031 C 
ATOM     41  C   UNL A   1      44.668  25.788  26.651  1.00  0.00     0.029 A 
ATOM     42  C   UNL A   1      44.754  27.147  27.177  1.00  0.00     0.049 A 
ATOM     43  H   UNL A   1      43.297  28.176  28.257  1.00  0.00     0.167 HD
ATOM     44  C   UNL A   1      40.044  30.238  30.384  1.00  0.00     0.034 A 
ATOM     45  C   UNL A   1      45.810  27.974  27.052  1.00  0.00     0.034 A 
ATOM     46  C   UNL A   1      41.103  31.202  30.283  1.00  0.00     0.049 A 
ATOM     47  C   UNL A   1      45.702  29.370  27.605  1.00  0.00     0.074 A 
ATOM     48  C   UNL A   1      41.134  32.503  30.750  1.00  0.00     0.029 A 
ATOM     49  N   UNL A   1      42.327  30.960  29.678  1.00  0.00    -0.354 N 
ATOM     50  N   UNL A   1      44.728  29.909  28.301  1.00  0.00    -0.248 NA
ATOM     51  C   UNL A   1      46.831  30.277  27.351  1.00  0.00     0.031 C 
ATOM     52  C   UNL A   1      42.380  33.050  30.422  1.00  0.00     0.029 A 
ATOM     53  C   UNL A   1      43.125  32.086  29.757  1.00  0.00     0.049 A 
ATOM     54  H   UNL A   1      42.589  30.111  29.255  1.00  0.00     0.167 HD
ATOM     55  C   UNL A   1      45.128  31.211  28.575  1.00  0.00     0.074 A 
ATOM     56  C   UNL A   1      46.448  31.370  27.998  1.00  0.00     0.031 C 
ATOM     57  C   UNL A   1      44.455  32.197  29.218  1.00  0.00     0.034 A 
BRANCH  44  58
ATOM     58  C   UNL A   1      38.781  30.613  31.104  1.00  0.00     0.023 A 
ATOM     59  C   UNL A   1      38.625  30.295  32.466  1.00  0.00     0.012 A 
ATOM     60  C   UNL A   1      37.742  31.275  30.421  1.00  0.00     0.148 A 
ATOM     61  C   UNL A   1      37.442  30.610  33.134  1.00  0.00     0.002 A 
ATOM     62  C   UNL A   1      36.579  31.613  31.101  1.00  0.00     0.091 A 
ATOM     63  F   UNL A   1      37.895  31.531  29.114  1.00  0.00    -0.205 F 
ATOM     64  C   UNL A   1      36.423  31.276  32.455  1.00  0.00     0.022 A 
BRANCH  62  65
ATOM     65  S   UNL A   1      35.242  32.514  30.308  1.00  0.00     0.127 S 
ATOM     66  O   UNL A   1      34.846  31.585  29.251  1.00  0.00    -0.237 OA
ATOM     67  O   UNL A   1      34.270  32.653  31.393  1.00  0.00    -0.237 OA
ATOM     68  O   UNL A   1      35.826  33.771  29.862  1.00  0.00    -0.744 OA
ENDBRANCH  62  65
ENDBRANCH  44  58
BRANCH  45  69
ATOM     69  C   UNL A   1      47.045  27.509  26.357  1.00  0.00     0.023 A 
ATOM     70  C   UNL A   1      47.982  26.722  27.053  1.00  0.00     0.012 A 
ATOM     71  C   UNL A   1      47.281  27.810  25.000  1.00  0.00     0.148 A 
ATOM     72  C   UNL A   1      49.133  26.253  26.414  1.00  0.00     0.002 A 
ATOM     73  C   UNL A   1      48.396  27.290  24.353  1.00  0.00     0.091 A 
ATOM     74  F   UNL A   1      46.401  28.595  24.360  1.00  0.00    -0.205 F 
ATOM     75  C   UNL A   1      49.332  26.523  25.062  1.00  0.00     0.022 A 
BRANCH  73  76
ATOM     76  S   UNL A   1      48.638  27.473  22.583  1.00  0.00     0.127 S 
ATOM     77  O   UNL A   1      48.703  26.082  22.143  1.00  0.00    -0.237 OA
ATOM     78  O   UNL A   1      47.428  28.192  22.179  1.00  0.00    -0.237 OA
ATOM     79  O   UNL A   1      49.864  28.247  22.440  1.00  0.00    -0.744 OA
ENDBRANCH  73  76
ENDBRANCH  45  69
BRANCH  57  80
ATOM     80  C   UNL A   1      45.133  33.534  29.339  1.00  0.00     0.023 A 
ATOM     81  C   UNL A   1      46.008  33.768  30.417  1.00  0.00     0.012 A 
ATOM     82  C   UNL A   1      44.979  34.515  28.341  1.00  0.00     0.148 A 
ATOM     83  C   UNL A   1      46.708  34.969  30.510  1.00  0.00     0.002 A 
ATOM     84  C   UNL A   1      45.712  35.693  28.419  1.00  0.00     0.091 A 
ATOM     85  F   UNL A   1      44.123  34.279  27.336  1.00  0.00    -0.205 F 
ATOM     86  C   UNL A   1      46.571  35.926  29.506  1.00  0.00     0.022 A 
BRANCH  84  87
ATOM     87  S   UNL A   1      45.657  36.933  27.120  1.00  0.00     0.127 S 
ATOM     88  O   UNL A   1      46.526  37.975  27.663  1.00  0.00    -0.237 OA
ATOM     89  O   UNL A   1      46.213  36.213  25.972  1.00  0.00    -0.237 OA
ATOM     90  O   UNL A   1      44.252  37.290  26.977  1.00  0.00    -0.744 OA
ENDBRANCH  84  87
ENDBRANCH  57  80
ENDBRANCH  31  32
ENDBRANCH  24  26
ENDBRANCH  23  24
ENDBRANCH  22  23
ENDBRANCH   1  22
TORSDOF 18
ENDMDL
