MODEL 1
REMARK VINA RESULT:     -11.3      0.000      0.000
REMARK SMILES CC[C@@H](C)CNc1cc(C)ccc1C(=O)OCCOC(=O)c1ccc(-c2c3nc(c(-c4cccc(S(=O)(=O)[O-])c4F)c4ccc([nH]4)c(-c4cccc(S(=O)(=O)[O-])c4F)c4nc(c(-c5cccc(S(=O)(=O)[O-])c5F)c5ccc2[nH]5)C=C4)C=C3)cc1
REMARK SMILES IDX 17 1 16 2 14 3 15 4 13 5 7 6 8 7 9 8 12 9 10 10 11 11 6 12
REMARK SMILES IDX 5 14 3 15 4 16 2 17 1 18 18 19 19 20 20 21 21 22 22 23 23 24
REMARK SMILES IDX 84 25 24 26 83 27 25 28 26 29 27 30 77 31 28 32 82 33 76 34
REMARK SMILES IDX 78 35 29 36 81 37 75 38 74 39 30 41 62 42 42 43 61 44 43 45
REMARK SMILES IDX 46 46 60 47 79 48 44 49 45 50 59 52 80 53 47 54 31 55 32 56
REMARK SMILES IDX 40 57 33 58 35 59 41 60 34 61 36 62 37 63 38 64 39 65 63 66
REMARK SMILES IDX 64 67 72 68 65 69 67 70 73 71 66 72 68 73 69 74 70 75 71 76
REMARK SMILES IDX 48 77 49 78 57 79 50 80 52 81 58 82 51 83 53 84 54 85 55 86
REMARK SMILES IDX 56 87
REMARK H PARENT 6 13 78 40 46 51
REMARK Flexibility Score: inf
ROOT
ATOM      1  C   UNL A   1      33.105  29.023  27.060  1.00  0.00     0.275 C 
ENDROOT
BRANCH   1   2
ATOM      2  O   UNL A   1      31.933  28.821  26.272  1.00  0.00    -0.458 OA
BRANCH   2   3
ATOM      3  C   UNL A   1      31.538  27.552  26.040  1.00  0.00     0.340 C 
ATOM      4  O   UNL A   1      31.052  26.800  26.869  1.00  0.00    -0.246 OA
BRANCH   3   5
ATOM      5  C   UNL A   1      31.806  27.176  24.630  1.00  0.00     0.083 A 
ATOM      6  C   UNL A   1      30.959  27.534  23.563  1.00  0.00     0.049 A 
ATOM      7  C   UNL A   1      31.207  26.968  22.301  1.00  0.00     0.030 A 
ATOM      8  C   UNL A   1      32.315  26.136  22.077  1.00  0.00    -0.049 A 
ATOM      9  C   UNL A   1      32.935  26.380  24.403  1.00  0.00     0.018 A 
ATOM     10  C   UNL A   1      32.594  25.582  20.712  1.00  0.00     0.044 C 
ATOM     11  C   UNL A   1      33.205  25.893  23.126  1.00  0.00     0.004 A 
BRANCH   6  12
ATOM     12  N   UNL A   1      29.879  28.402  23.707  1.00  0.00    -0.384 N 
ATOM     13  H   UNL A   1      29.114  28.149  24.272  1.00  0.00     0.160 HD
BRANCH  12  14
ATOM     14  C   UNL A   1      29.885  29.682  23.017  1.00  0.00     0.116 C 
BRANCH  14  15
ATOM     15  C   UNL A   1      28.433  30.128  22.730  1.00  0.00     0.005 C 
ATOM     16  C   UNL A   1      28.245  30.403  21.240  1.00  0.00     0.009 C 
BRANCH  15  17
ATOM     17  C   UNL A   1      28.044  31.341  23.604  1.00  0.00     0.002 C 
ATOM     18  C   UNL A   1      28.512  32.682  23.054  1.00  0.00     0.004 C 
ENDBRANCH  15  17
ENDBRANCH  14  15
ENDBRANCH  12  14
ENDBRANCH   6  12
ENDBRANCH   3   5
ENDBRANCH   2   3
ENDBRANCH   1   2
BRANCH   1  19
ATOM     19  C   UNL A   1      33.861  30.368  27.020  1.00  0.00     0.275 C 
BRANCH  19  20
ATOM     20  O   UNL A   1      34.666  30.935  28.093  1.00  0.00    -0.458 OA
BRANCH  20  21
ATOM     21  C   UNL A   1      35.929  31.426  28.163  1.00  0.00     0.338 C 
ATOM     22  O   UNL A   1      36.182  32.597  28.024  1.00  0.00    -0.246 OA
BRANCH  21  23
ATOM     23  C   UNL A   1      36.986  30.431  28.354  1.00  0.00     0.060 A 
ATOM     24  C   UNL A   1      37.024  29.652  29.522  1.00  0.00     0.016 A 
ATOM     25  C   UNL A   1      37.871  30.232  27.304  1.00  0.00     0.016 A 
ATOM     26  C   UNL A   1      37.935  28.606  29.614  1.00  0.00     0.010 A 
ATOM     27  C   UNL A   1      38.636  29.099  27.316  1.00  0.00     0.010 A 
ATOM     28  C   UNL A   1      38.743  28.355  28.507  1.00  0.00    -0.014 A 
BRANCH  28  29
ATOM     29  C   UNL A   1      40.050  27.729  28.613  1.00  0.00     0.031 A 
ATOM     30  C   UNL A   1      40.274  26.289  28.485  1.00  0.00     0.074 A 
ATOM     31  C   UNL A   1      41.013  28.680  28.542  1.00  0.00     0.049 A 
ATOM     32  N   UNL A   1      41.379  25.733  28.831  1.00  0.00    -0.248 NA
ATOM     33  C   UNL A   1      39.284  25.340  27.985  1.00  0.00     0.031 C 
ATOM     34  C   UNL A   1      42.375  28.632  28.061  1.00  0.00     0.029 A 
ATOM     35  N   UNL A   1      40.855  30.013  28.958  1.00  0.00    -0.354 N 
ATOM     36  C   UNL A   1      41.370  24.451  28.322  1.00  0.00     0.074 A 
ATOM     37  C   UNL A   1      40.006  24.210  27.915  1.00  0.00     0.031 C 
ATOM     38  C   UNL A   1      42.998  29.769  28.436  1.00  0.00     0.029 A 
ATOM     39  C   UNL A   1      42.102  30.487  29.339  1.00  0.00     0.049 A 
ATOM     40  H   UNL A   1      40.012  30.520  28.975  1.00  0.00     0.167 HD
ATOM     41  C   UNL A   1      42.563  23.828  28.119  1.00  0.00     0.034 A 
ATOM     42  C   UNL A   1      42.331  30.830  30.644  1.00  0.00     0.034 A 
ATOM     43  C   UNL A   1      43.659  24.734  28.492  1.00  0.00     0.049 A 
ATOM     44  C   UNL A   1      43.334  29.868  31.252  1.00  0.00     0.074 A 
ATOM     45  C   UNL A   1      44.381  25.653  27.746  1.00  0.00     0.029 A 
ATOM     46  N   UNL A   1      43.867  25.060  29.826  1.00  0.00    -0.354 N 
ATOM     47  N   UNL A   1      43.674  28.736  30.704  1.00  0.00    -0.248 NA
ATOM     48  C   UNL A   1      44.019  30.098  32.518  1.00  0.00     0.031 C 
ATOM     49  C   UNL A   1      44.954  26.592  28.643  1.00  0.00     0.029 A 
ATOM     50  C   UNL A   1      44.599  26.236  29.933  1.00  0.00     0.049 A 
ATOM     51  H   UNL A   1      43.540  24.531  30.588  1.00  0.00     0.167 HD
ATOM     52  C   UNL A   1      44.523  28.054  31.522  1.00  0.00     0.074 A 
ATOM     53  C   UNL A   1      44.752  28.975  32.625  1.00  0.00     0.031 C 
ATOM     54  C   UNL A   1      44.923  26.775  31.249  1.00  0.00     0.034 A 
BRANCH  41  55
ATOM     55  C   UNL A   1      42.780  22.595  27.260  1.00  0.00     0.023 A 
ATOM     56  C   UNL A   1      42.097  21.420  27.659  1.00  0.00     0.012 A 
ATOM     57  C   UNL A   1      43.595  22.484  26.110  1.00  0.00     0.148 A 
ATOM     58  C   UNL A   1      42.253  20.193  27.014  1.00  0.00     0.002 A 
ATOM     59  C   UNL A   1      43.771  21.244  25.473  1.00  0.00     0.091 A 
ATOM     60  F   UNL A   1      44.169  23.582  25.602  1.00  0.00    -0.205 F 
ATOM     61  C   UNL A   1      43.104  20.099  25.928  1.00  0.00     0.022 A 
BRANCH  59  62
ATOM     62  S   UNL A   1      44.881  20.988  24.075  1.00  0.00     0.127 S 
ATOM     63  O   UNL A   1      46.199  21.157  24.694  1.00  0.00    -0.237 OA
ATOM     64  O   UNL A   1      44.576  19.616  23.674  1.00  0.00    -0.237 OA
ATOM     65  O   UNL A   1      44.548  22.017  23.099  1.00  0.00    -0.744 OA
ENDBRANCH  59  62
ENDBRANCH  41  55
BRANCH  42  66
ATOM     66  C   UNL A   1      41.110  31.368  31.359  1.00  0.00     0.023 A 
ATOM     67  C   UNL A   1      40.511  32.548  30.842  1.00  0.00     0.012 A 
ATOM     68  C   UNL A   1      40.343  30.565  32.223  1.00  0.00     0.148 A 
ATOM     69  C   UNL A   1      39.159  32.838  31.065  1.00  0.00     0.002 A 
ATOM     70  C   UNL A   1      38.991  30.858  32.434  1.00  0.00     0.091 A 
ATOM     71  F   UNL A   1      40.907  29.487  32.780  1.00  0.00    -0.205 F 
ATOM     72  C   UNL A   1      38.391  31.976  31.837  1.00  0.00     0.022 A 
BRANCH  70  73
ATOM     73  S   UNL A   1      37.945  29.693  33.324  1.00  0.00     0.127 S 
ATOM     74  O   UNL A   1      36.602  30.010  32.839  1.00  0.00    -0.237 OA
ATOM     75  O   UNL A   1      38.435  28.391  32.891  1.00  0.00    -0.237 OA
ATOM     76  O   UNL A   1      38.197  30.062  34.713  1.00  0.00    -0.744 OA
ENDBRANCH  70  73
ENDBRANCH  42  66
BRANCH  54  77
ATOM     77  C   UNL A   1      45.660  25.886  32.216  1.00  0.00     0.023 A 
ATOM     78  C   UNL A   1      47.063  25.870  32.291  1.00  0.00     0.012 A 
ATOM     79  C   UNL A   1      44.946  25.183  33.218  1.00  0.00     0.148 A 
ATOM     80  C   UNL A   1      47.731  25.139  33.276  1.00  0.00     0.002 A 
ATOM     81  C   UNL A   1      45.614  24.577  34.272  1.00  0.00     0.091 A 
ATOM     82  F   UNL A   1      43.609  25.089  33.151  1.00  0.00    -0.205 F 
ATOM     83  C   UNL A   1      47.007  24.518  34.285  1.00  0.00     0.022 A 
BRANCH  81  84
ATOM     84  S   UNL A   1      44.707  24.040  35.729  1.00  0.00     0.127 S 
ATOM     85  O   UNL A   1      45.778  23.539  36.587  1.00  0.00    -0.237 OA
ATOM     86  O   UNL A   1      44.087  25.284  36.191  1.00  0.00    -0.237 OA
ATOM     87  O   UNL A   1      43.760  23.051  35.233  1.00  0.00    -0.744 OA
ENDBRANCH  81  84
ENDBRANCH  54  77
ENDBRANCH  28  29
ENDBRANCH  21  23
ENDBRANCH  20  21
ENDBRANCH  19  20
ENDBRANCH   1  19
TORSDOF 18
ENDMDL
MODEL 2
REMARK VINA RESULT:     -11.2      4.547     10.242
REMARK SMILES CC[C@@H](C)CNc1cc(C)ccc1C(=O)OCCOC(=O)c1ccc(-c2c3nc(c(-c4cccc(S(=O)(=O)[O-])c4F)c4ccc([nH]4)c(-c4cccc(S(=O)(=O)[O-])c4F)c4nc(c(-c5cccc(S(=O)(=O)[O-])c5F)c5ccc2[nH]5)C=C4)C=C3)cc1
REMARK SMILES IDX 17 1 16 2 14 3 15 4 13 5 7 6 8 7 9 8 12 9 10 10 11 11 6 12
REMARK SMILES IDX 5 14 3 15 4 16 2 17 1 18 18 19 19 20 20 21 21 22 22 23 23 24
REMARK SMILES IDX 84 25 24 26 83 27 25 28 26 29 27 30 77 31 28 32 82 33 76 34
REMARK SMILES IDX 78 35 29 36 81 37 75 38 74 39 30 41 62 42 42 43 61 44 43 45
REMARK SMILES IDX 46 46 60 47 79 48 44 49 45 50 59 52 80 53 47 54 31 55 32 56
REMARK SMILES IDX 40 57 33 58 35 59 41 60 34 61 36 62 37 63 38 64 39 65 63 66
REMARK SMILES IDX 64 67 72 68 65 69 67 70 73 71 66 72 68 73 69 74 70 75 71 76
REMARK SMILES IDX 48 77 49 78 57 79 50 80 52 81 58 82 51 83 53 84 54 85 55 86
REMARK SMILES IDX 56 87
REMARK H PARENT 6 13 78 40 46 51
REMARK Flexibility Score: inf
ROOT
ATOM      1  C   UNL A   1      37.338  20.958  25.184  1.00  0.00     0.275 C 
ENDROOT
BRANCH   1   2
ATOM      2  O   UNL A   1      36.279  21.914  25.182  1.00  0.00    -0.458 OA
BRANCH   2   3
ATOM      3  C   UNL A   1      35.961  22.503  24.010  1.00  0.00     0.340 C 
ATOM      4  O   UNL A   1      36.719  22.652  23.066  1.00  0.00    -0.246 OA
BRANCH   3   5
ATOM      5  C   UNL A   1      34.557  22.981  24.036  1.00  0.00     0.083 A 
ATOM      6  C   UNL A   1      33.449  22.113  24.069  1.00  0.00     0.049 A 
ATOM      7  C   UNL A   1      32.168  22.666  23.901  1.00  0.00     0.030 A 
ATOM      8  C   UNL A   1      31.979  24.052  23.788  1.00  0.00    -0.049 A 
ATOM      9  C   UNL A   1      34.371  24.367  23.965  1.00  0.00     0.018 A 
ATOM     10  C   UNL A   1      30.601  24.630  23.661  1.00  0.00     0.044 C 
ATOM     11  C   UNL A   1      33.087  24.899  23.877  1.00  0.00     0.004 A 
BRANCH   6  12
ATOM     12  N   UNL A   1      33.565  20.736  24.240  1.00  0.00    -0.384 N 
ATOM     13  H   UNL A   1      34.172  20.373  24.924  1.00  0.00     0.160 HD
BRANCH  12  14
ATOM     14  C   UNL A   1      32.789  19.835  23.402  1.00  0.00     0.116 C 
BRANCH  14  15
ATOM     15  C   UNL A   1      32.348  18.605  24.226  1.00  0.00     0.005 C 
ATOM     16  C   UNL A   1      32.848  18.718  25.664  1.00  0.00     0.009 C 
BRANCH  15  17
ATOM     17  C   UNL A   1      32.803  17.293  23.547  1.00  0.00     0.002 C 
ATOM     18  C   UNL A   1      34.296  17.016  23.665  1.00  0.00     0.004 C 
ENDBRANCH  15  17
ENDBRANCH  14  15
ENDBRANCH  12  14
ENDBRANCH   6  12
ENDBRANCH   3   5
ENDBRANCH   2   3
ENDBRANCH   1   2
BRANCH   1  19
ATOM     19  C   UNL A   1      38.739  21.333  25.712  1.00  0.00     0.275 C 
BRANCH  19  20
ATOM     20  O   UNL A   1      39.136  22.624  26.256  1.00  0.00    -0.458 OA
BRANCH  20  21
ATOM     21  C   UNL A   1      40.334  23.223  26.480  1.00  0.00     0.338 C 
ATOM     22  O   UNL A   1      41.385  22.644  26.355  1.00  0.00    -0.246 OA
BRANCH  21  23
ATOM     23  C   UNL A   1      40.271  24.607  26.951  1.00  0.00     0.060 A 
ATOM     24  C   UNL A   1      40.850  25.640  26.197  1.00  0.00     0.016 A 
ATOM     25  C   UNL A   1      39.542  24.855  28.106  1.00  0.00     0.016 A 
ATOM     26  C   UNL A   1      40.641  26.962  26.577  1.00  0.00     0.010 A 
ATOM     27  C   UNL A   1      39.185  26.147  28.375  1.00  0.00     0.010 A 
ATOM     28  C   UNL A   1      39.819  27.194  27.677  1.00  0.00    -0.014 A 
BRANCH  28  29
ATOM     29  C   UNL A   1      39.938  28.377  28.512  1.00  0.00     0.031 A 
ATOM     30  C   UNL A   1      38.966  29.470  28.516  1.00  0.00     0.074 A 
ATOM     31  C   UNL A   1      40.883  28.167  29.461  1.00  0.00     0.049 A 
ATOM     32  N   UNL A   1      39.214  30.607  29.060  1.00  0.00    -0.248 NA
ATOM     33  C   UNL A   1      37.645  29.404  27.897  1.00  0.00     0.031 C 
ATOM     34  C   UNL A   1      41.034  28.695  30.798  1.00  0.00     0.029 A 
ATOM     35  N   UNL A   1      41.993  27.316  29.313  1.00  0.00    -0.354 N 
ATOM     36  C   UNL A   1      38.018  31.289  29.145  1.00  0.00     0.074 A 
ATOM     37  C   UNL A   1      37.100  30.561  28.302  1.00  0.00     0.031 C 
ATOM     38  C   UNL A   1      42.268  28.376  31.244  1.00  0.00     0.029 A 
ATOM     39  C   UNL A   1      43.008  27.804  30.122  1.00  0.00     0.049 A 
ATOM     40  H   UNL A   1      42.040  26.518  28.740  1.00  0.00     0.167 HD
ATOM     41  C   UNL A   1      37.899  32.270  30.083  1.00  0.00     0.034 A 
ATOM     42  C   UNL A   1      44.162  28.275  29.557  1.00  0.00     0.034 A 
ATOM     43  C   UNL A   1      39.147  32.364  30.854  1.00  0.00     0.049 A 
ATOM     44  C   UNL A   1      44.268  29.770  29.792  1.00  0.00     0.074 A 
ATOM     45  C   UNL A   1      39.548  31.741  32.026  1.00  0.00     0.029 A 
ATOM     46  N   UNL A   1      40.301  32.849  30.252  1.00  0.00    -0.354 N 
ATOM     47  N   UNL A   1      43.275  30.511  30.196  1.00  0.00    -0.248 NA
ATOM     48  C   UNL A   1      45.486  30.543  29.583  1.00  0.00     0.031 C 
ATOM     49  C   UNL A   1      40.966  31.778  32.079  1.00  0.00     0.029 A 
ATOM     50  C   UNL A   1      41.428  32.438  30.953  1.00  0.00     0.049 A 
ATOM     51  H   UNL A   1      40.317  33.407  29.442  1.00  0.00     0.167 HD
ATOM     52  C   UNL A   1      43.649  31.819  30.231  1.00  0.00     0.074 A 
ATOM     53  C   UNL A   1      45.063  31.783  29.889  1.00  0.00     0.031 C 
ATOM     54  C   UNL A   1      42.755  32.823  30.488  1.00  0.00     0.034 A 
BRANCH  41  55
ATOM     55  C   UNL A   1      36.593  32.876  30.566  1.00  0.00     0.023 A 
ATOM     56  C   UNL A   1      36.204  32.562  31.891  1.00  0.00     0.012 A 
ATOM     57  C   UNL A   1      35.717  33.713  29.838  1.00  0.00     0.148 A 
ATOM     58  C   UNL A   1      34.998  32.986  32.450  1.00  0.00     0.002 A 
ATOM     59  C   UNL A   1      34.491  34.120  30.391  1.00  0.00     0.091 A 
ATOM     60  F   UNL A   1      36.081  34.153  28.627  1.00  0.00    -0.205 F 
ATOM     61  C   UNL A   1      34.131  33.752  31.694  1.00  0.00     0.022 A 
BRANCH  59  62
ATOM     62  S   UNL A   1      33.263  35.088  29.493  1.00  0.00     0.127 S 
ATOM     63  O   UNL A   1      32.804  34.135  28.478  1.00  0.00    -0.237 OA
ATOM     64  O   UNL A   1      32.275  35.387  30.528  1.00  0.00    -0.237 OA
ATOM     65  O   UNL A   1      33.972  36.239  28.949  1.00  0.00    -0.744 OA
ENDBRANCH  59  62
ENDBRANCH  41  55
BRANCH  42  66
ATOM     66  C   UNL A   1      44.543  27.577  28.269  1.00  0.00     0.023 A 
ATOM     67  C   UNL A   1      44.160  28.194  27.048  1.00  0.00     0.012 A 
ATOM     68  C   UNL A   1      45.560  26.605  28.225  1.00  0.00     0.148 A 
ATOM     69  C   UNL A   1      44.860  27.954  25.859  1.00  0.00     0.002 A 
ATOM     70  C   UNL A   1      46.259  26.378  27.034  1.00  0.00     0.091 A 
ATOM     71  F   UNL A   1      45.889  25.958  29.349  1.00  0.00    -0.205 F 
ATOM     72  C   UNL A   1      45.929  27.068  25.858  1.00  0.00     0.022 A 
BRANCH  70  73
ATOM     73  S   UNL A   1      47.724  25.332  27.036  1.00  0.00     0.127 S 
ATOM     74  O   UNL A   1      48.538  25.896  28.114  1.00  0.00    -0.237 OA
ATOM     75  O   UNL A   1      47.201  24.005  27.328  1.00  0.00    -0.237 OA
ATOM     76  O   UNL A   1      48.253  25.550  25.693  1.00  0.00    -0.744 OA
ENDBRANCH  70  73
ENDBRANCH  42  66
BRANCH  54  77
ATOM     77  C   UNL A   1      43.045  34.290  30.310  1.00  0.00     0.023 A 
ATOM     78  C   UNL A   1      43.428  35.109  31.386  1.00  0.00     0.012 A 
ATOM     79  C   UNL A   1      43.130  34.843  29.009  1.00  0.00     0.148 A 
ATOM     80  C   UNL A   1      43.816  36.436  31.189  1.00  0.00     0.002 A 
ATOM     81  C   UNL A   1      43.651  36.114  28.810  1.00  0.00     0.091 A 
ATOM     82  F   UNL A   1      42.698  34.142  27.949  1.00  0.00    -0.205 F 
ATOM     83  C   UNL A   1      43.959  36.929  29.899  1.00  0.00     0.022 A 
BRANCH  81  84
ATOM     84  S   UNL A   1      44.124  36.650  27.160  1.00  0.00     0.127 S 
ATOM     85  O   UNL A   1      44.913  35.517  26.685  1.00  0.00    -0.237 OA
ATOM     86  O   UNL A   1      42.827  36.812  26.498  1.00  0.00    -0.237 OA
ATOM     87  O   UNL A   1      44.846  37.899  27.368  1.00  0.00    -0.744 OA
ENDBRANCH  81  84
ENDBRANCH  54  77
ENDBRANCH  28  29
ENDBRANCH  21  23
ENDBRANCH  20  21
ENDBRANCH  19  20
ENDBRANCH   1  19
TORSDOF 18
ENDMDL
MODEL 3
REMARK VINA RESULT:     -11.2      4.169      9.730
REMARK SMILES CC[C@@H](C)CNc1cc(C)ccc1C(=O)OCCOC(=O)c1ccc(-c2c3nc(c(-c4cccc(S(=O)(=O)[O-])c4F)c4ccc([nH]4)c(-c4cccc(S(=O)(=O)[O-])c4F)c4nc(c(-c5cccc(S(=O)(=O)[O-])c5F)c5ccc2[nH]5)C=C4)C=C3)cc1
REMARK SMILES IDX 17 1 16 2 14 3 15 4 13 5 7 6 8 7 9 8 12 9 10 10 11 11 6 12
REMARK SMILES IDX 5 14 3 15 4 16 2 17 1 18 18 19 19 20 20 21 21 22 22 23 23 24
REMARK SMILES IDX 84 25 24 26 83 27 25 28 26 29 27 30 77 31 28 32 82 33 76 34
REMARK SMILES IDX 78 35 29 36 81 37 75 38 74 39 30 41 62 42 42 43 61 44 43 45
REMARK SMILES IDX 46 46 60 47 79 48 44 49 45 50 59 52 80 53 47 54 31 55 32 56
REMARK SMILES IDX 40 57 33 58 35 59 41 60 34 61 36 62 37 63 38 64 39 65 63 66
REMARK SMILES IDX 64 67 72 68 65 69 67 70 73 71 66 72 68 73 69 74 70 75 71 76
REMARK SMILES IDX 48 77 49 78 57 79 50 80 52 81 58 82 51 83 53 84 54 85 55 86
REMARK SMILES IDX 56 87
REMARK H PARENT 6 13 78 40 46 51
REMARK Flexibility Score: inf
ROOT
ATOM      1  C   UNL A   1      37.179  23.646  25.463  1.00  0.00     0.275 C 
ENDROOT
BRANCH   1   2
ATOM      2  O   UNL A   1      35.790  23.616  25.787  1.00  0.00    -0.458 OA
BRANCH   2   3
ATOM      3  C   UNL A   1      34.912  23.397  24.787  1.00  0.00     0.340 C 
ATOM      4  O   UNL A   1      35.201  23.266  23.609  1.00  0.00    -0.246 OA
BRANCH   3   5
ATOM      5  C   UNL A   1      33.525  23.369  25.313  1.00  0.00     0.083 A 
ATOM      6  C   UNL A   1      32.949  24.440  26.024  1.00  0.00     0.049 A 
ATOM      7  C   UNL A   1      31.702  24.234  26.637  1.00  0.00     0.030 A 
ATOM      8  C   UNL A   1      31.000  23.029  26.481  1.00  0.00    -0.049 A 
ATOM      9  C   UNL A   1      32.811  22.180  25.120  1.00  0.00     0.018 A 
ATOM     10  C   UNL A   1      29.646  22.845  27.099  1.00  0.00     0.044 C 
ATOM     11  C   UNL A   1      31.542  22.026  25.672  1.00  0.00     0.004 A 
BRANCH   6  12
ATOM     12  N   UNL A   1      33.567  25.680  26.163  1.00  0.00    -0.384 N 
ATOM     13  H   UNL A   1      34.047  25.902  26.994  1.00  0.00     0.160 HD
BRANCH  12  14
ATOM     14  C   UNL A   1      33.499  26.648  25.080  1.00  0.00     0.116 C 
BRANCH  14  15
ATOM     15  C   UNL A   1      33.204  28.053  25.651  1.00  0.00     0.005 C 
ATOM     16  C   UNL A   1      31.957  28.020  26.532  1.00  0.00     0.009 C 
BRANCH  15  17
ATOM     17  C   UNL A   1      33.095  29.099  24.519  1.00  0.00     0.002 C 
ATOM     18  C   UNL A   1      33.800  28.697  23.230  1.00  0.00     0.004 C 
ENDBRANCH  15  17
ENDBRANCH  14  15
ENDBRANCH  12  14
ENDBRANCH   6  12
ENDBRANCH   3   5
ENDBRANCH   2   3
ENDBRANCH   1   2
BRANCH   1  19
ATOM     19  C   UNL A   1      38.095  22.451  25.801  1.00  0.00     0.275 C 
BRANCH  19  20
ATOM     20  O   UNL A   1      39.314  22.500  26.596  1.00  0.00    -0.458 OA
BRANCH  20  21
ATOM     21  C   UNL A   1      40.467  23.210  26.509  1.00  0.00     0.338 C 
ATOM     22  O   UNL A   1      41.503  22.727  26.124  1.00  0.00    -0.246 OA
BRANCH  21  23
ATOM     23  C   UNL A   1      40.394  24.595  26.977  1.00  0.00     0.060 A 
ATOM     24  C   UNL A   1      40.970  25.631  26.222  1.00  0.00     0.016 A 
ATOM     25  C   UNL A   1      39.660  24.841  28.128  1.00  0.00     0.016 A 
ATOM     26  C   UNL A   1      40.751  26.951  26.598  1.00  0.00     0.010 A 
ATOM     27  C   UNL A   1      39.294  26.132  28.393  1.00  0.00     0.010 A 
ATOM     28  C   UNL A   1      39.924  27.181  27.695  1.00  0.00    -0.014 A 
BRANCH  28  29
ATOM     29  C   UNL A   1      40.032  28.366  28.528  1.00  0.00     0.031 A 
ATOM     30  C   UNL A   1      39.049  29.450  28.532  1.00  0.00     0.074 A 
ATOM     31  C   UNL A   1      40.980  28.167  29.476  1.00  0.00     0.049 A 
ATOM     32  N   UNL A   1      39.286  30.590  29.074  1.00  0.00    -0.248 NA
ATOM     33  C   UNL A   1      37.728  29.369  27.915  1.00  0.00     0.031 C 
ATOM     34  C   UNL A   1      41.128  28.700  30.811  1.00  0.00     0.029 A 
ATOM     35  N   UNL A   1      42.098  27.328  29.328  1.00  0.00    -0.354 N 
ATOM     36  C   UNL A   1      38.084  31.261  29.159  1.00  0.00     0.074 A 
ATOM     37  C   UNL A   1      37.172  30.522  28.319  1.00  0.00     0.031 C 
ATOM     38  C   UNL A   1      42.366  28.394  31.255  1.00  0.00     0.029 A 
ATOM     39  C   UNL A   1      43.111  27.827  30.133  1.00  0.00     0.049 A 
ATOM     40  H   UNL A   1      42.152  26.530  28.756  1.00  0.00     0.167 HD
ATOM     41  C   UNL A   1      37.957  32.241  30.096  1.00  0.00     0.034 A 
ATOM     42  C   UNL A   1      44.259  28.308  29.565  1.00  0.00     0.034 A 
ATOM     43  C   UNL A   1      39.205  32.350  30.865  1.00  0.00     0.049 A 
ATOM     44  C   UNL A   1      44.350  29.805  29.798  1.00  0.00     0.074 A 
ATOM     45  C   UNL A   1      39.614  31.733  32.036  1.00  0.00     0.029 A 
ATOM     46  N   UNL A   1      40.353  32.845  30.259  1.00  0.00    -0.354 N 
ATOM     47  N   UNL A   1      43.350  30.536  30.202  1.00  0.00    -0.248 NA
ATOM     48  C   UNL A   1      45.560  30.590  29.585  1.00  0.00     0.031 C 
ATOM     49  C   UNL A   1      41.032  31.784  32.087  1.00  0.00     0.029 A 
ATOM     50  C   UNL A   1      41.485  32.446  30.959  1.00  0.00     0.049 A 
ATOM     51  H   UNL A   1      40.362  33.402  29.448  1.00  0.00     0.167 HD
ATOM     52  C   UNL A   1      43.711  31.849  30.234  1.00  0.00     0.074 A 
ATOM     53  C   UNL A   1      45.124  31.826  29.890  1.00  0.00     0.031 C 
ATOM     54  C   UNL A   1      42.808  32.844  30.491  1.00  0.00     0.034 A 
BRANCH  41  55
ATOM     55  C   UNL A   1      36.646  32.836  30.579  1.00  0.00     0.023 A 
ATOM     56  C   UNL A   1      36.260  32.516  31.904  1.00  0.00     0.012 A 
ATOM     57  C   UNL A   1      35.762  33.667  29.853  1.00  0.00     0.148 A 
ATOM     58  C   UNL A   1      35.050  32.928  32.464  1.00  0.00     0.002 A 
ATOM     59  C   UNL A   1      34.533  34.062  30.407  1.00  0.00     0.091 A 
ATOM     60  F   UNL A   1      36.123  34.112  28.643  1.00  0.00    -0.205 F 
ATOM     61  C   UNL A   1      34.176  33.688  31.710  1.00  0.00     0.022 A 
BRANCH  59  62
ATOM     62  S   UNL A   1      33.297  35.021  29.511  1.00  0.00     0.127 S 
ATOM     63  O   UNL A   1      34.078  36.169  29.043  1.00  0.00    -0.237 OA
ATOM     64  O   UNL A   1      32.887  34.100  28.452  1.00  0.00    -0.237 OA
ATOM     65  O   UNL A   1      32.265  35.361  30.481  1.00  0.00    -0.744 OA
ENDBRANCH  59  62
ENDBRANCH  41  55
BRANCH  42  66
ATOM     66  C   UNL A   1      44.644  27.612  28.279  1.00  0.00     0.023 A 
ATOM     67  C   UNL A   1      44.280  28.239  27.056  1.00  0.00     0.012 A 
ATOM     68  C   UNL A   1      45.651  26.630  28.239  1.00  0.00     0.148 A 
ATOM     69  C   UNL A   1      44.988  27.996  25.873  1.00  0.00     0.002 A 
ATOM     70  C   UNL A   1      46.359  26.400  27.054  1.00  0.00     0.091 A 
ATOM     71  F   UNL A   1      45.963  25.974  29.363  1.00  0.00    -0.205 F 
ATOM     72  C   UNL A   1      46.048  27.098  25.879  1.00  0.00     0.022 A 
BRANCH  70  73
ATOM     73  S   UNL A   1      47.813  25.338  27.065  1.00  0.00     0.127 S 
ATOM     74  O   UNL A   1      47.258  24.011  27.335  1.00  0.00    -0.237 OA
ATOM     75  O   UNL A   1      48.358  25.486  25.723  1.00  0.00    -0.237 OA
ATOM     76  O   UNL A   1      48.594  25.908  28.158  1.00  0.00    -0.744 OA
ENDBRANCH  70  73
ENDBRANCH  42  66
BRANCH  54  77
ATOM     77  C   UNL A   1      43.083  34.314  30.310  1.00  0.00     0.023 A 
ATOM     78  C   UNL A   1      43.474  35.135  31.381  1.00  0.00     0.012 A 
ATOM     79  C   UNL A   1      43.145  34.868  29.008  1.00  0.00     0.148 A 
ATOM     80  C   UNL A   1      43.848  36.465  31.179  1.00  0.00     0.002 A 
ATOM     81  C   UNL A   1      43.652  36.143  28.802  1.00  0.00     0.091 A 
ATOM     82  F   UNL A   1      42.704  34.163  27.954  1.00  0.00    -0.205 F 
ATOM     83  C   UNL A   1      43.969  36.960  29.887  1.00  0.00     0.022 A 
BRANCH  81  84
ATOM     84  S   UNL A   1      44.097  36.685  27.147  1.00  0.00     0.127 S 
ATOM     85  O   UNL A   1      42.837  36.526  26.425  1.00  0.00    -0.237 OA
ATOM     86  O   UNL A   1      44.502  38.075  27.369  1.00  0.00    -0.237 OA
ATOM     87  O   UNL A   1      45.186  35.804  26.747  1.00  0.00    -0.744 OA
ENDBRANCH  81  84
ENDBRANCH  54  77
ENDBRANCH  28  29
ENDBRANCH  21  23
ENDBRANCH  20  21
ENDBRANCH  19  20
ENDBRANCH   1  19
TORSDOF 18
ENDMDL
