MODEL 1
REMARK VINA RESULT:     -10.2      0.000      0.000
REMARK SMILES [NH3+][C@H](CC[S@@](=O)[O-])C(=O)OCCOC(=O)c1ccc(-c2c3nc(c(-c4cccc(S(=O)(=O)[O-])c4F)c4ccc([nH]4)c(-c4cccc(S(=O)(=O)[O-])c4F)c4nc(c(-c5cccc(S(=O)(=O)[O-])c5F)c5ccc2[nH]5)C=C4)C=C3)cc1
REMARK SMILES IDX 11 1 10 2 8 3 9 4 2 5 1 6 3 10 4 11 5 12 6 13 7 14 12 15
REMARK SMILES IDX 13 16 14 17 15 18 16 19 17 20 78 21 18 22 77 23 19 24 20 25
REMARK SMILES IDX 21 26 71 27 22 28 76 29 70 30 72 31 23 32 75 33 69 34 68 35
REMARK SMILES IDX 24 37 56 38 36 39 55 40 37 41 40 42 54 43 73 44 38 45 39 46
REMARK SMILES IDX 53 48 74 49 41 50 25 51 26 52 34 53 27 54 29 55 35 56 28 57
REMARK SMILES IDX 30 58 31 59 32 60 33 61 57 62 58 63 66 64 59 65 61 66 67 67
REMARK SMILES IDX 60 68 62 69 63 70 64 71 65 72 42 73 43 74 51 75 44 76 46 77
REMARK SMILES IDX 52 78 45 79 47 80 48 81 49 82 50 83
REMARK H PARENT 1 7 1 8 1 9 72 36 40 47
REMARK Flexibility Score: inf
ROOT
ATOM      1  C   UNL A   1      36.173  21.484  25.591  1.00  0.00     0.274 C 
ENDROOT
BRANCH   1   2
ATOM      2  O   UNL A   1      34.987  21.217  24.818  1.00  0.00    -0.458 OA
BRANCH   2   3
ATOM      3  C   UNL A   1      33.853  20.995  25.546  1.00  0.00     0.364 C 
ATOM      4  O   UNL A   1      33.831  20.808  26.757  1.00  0.00    -0.245 OA
BRANCH   3   5
ATOM      5  C   UNL A   1      32.591  20.953  24.661  1.00  0.00     0.292 C 
BRANCH   5   6
ATOM      6  N   UNL A   1      31.395  21.238  25.485  1.00  0.00    -0.346 N 
ATOM      7  H   UNL A   1      31.084  22.195  25.314  1.00  0.00     0.345 HD
ATOM      8  H   UNL A   1      31.627  21.126  26.471  1.00  0.00     0.345 HD
ATOM      9  H   UNL A   1      30.648  20.589  25.235  1.00  0.00     0.345 HD
ENDBRANCH   5   6
BRANCH   5  10
ATOM     10  C   UNL A   1      32.450  19.625  23.898  1.00  0.00     0.090 C 
BRANCH  10  11
ATOM     11  C   UNL A   1      32.889  18.397  24.693  1.00  0.00     0.096 C 
BRANCH  11  12
ATOM     12  S   UNL A   1      33.786  17.177  23.671  1.00  0.00    -0.055 S 
ATOM     13  O   UNL A   1      33.406  15.813  24.157  1.00  0.00    -0.275 OA
ATOM     14  O   UNL A   1      32.879  17.413  22.370  1.00  0.00    -0.772 OA
ENDBRANCH  11  12
ENDBRANCH  10  11
ENDBRANCH   5  10
ENDBRANCH   3   5
ENDBRANCH   2   3
ENDBRANCH   1   2
BRANCH   1  15
ATOM     15  C   UNL A   1      37.289  20.470  25.321  1.00  0.00     0.275 C 
BRANCH  15  16
ATOM     16  O   UNL A   1      38.545  21.111  25.036  1.00  0.00    -0.458 OA
BRANCH  16  17
ATOM     17  C   UNL A   1      39.505  20.908  25.966  1.00  0.00     0.338 C 
ATOM     18  O   UNL A   1      40.120  19.871  26.170  1.00  0.00    -0.246 OA
BRANCH  17  19
ATOM     19  C   UNL A   1      39.831  22.156  26.668  1.00  0.00     0.060 A 
ATOM     20  C   UNL A   1      39.297  23.339  26.159  1.00  0.00     0.016 A 
ATOM     21  C   UNL A   1      40.787  22.192  27.684  1.00  0.00     0.016 A 
ATOM     22  C   UNL A   1      39.777  24.569  26.599  1.00  0.00     0.010 A 
ATOM     23  C   UNL A   1      41.242  23.432  28.152  1.00  0.00     0.010 A 
ATOM     24  C   UNL A   1      40.778  24.628  27.577  1.00  0.00    -0.014 A 
BRANCH  24  25
ATOM     25  C   UNL A   1      41.392  25.943  27.901  1.00  0.00     0.031 A 
ATOM     26  C   UNL A   1      42.760  26.286  27.367  1.00  0.00     0.074 A 
ATOM     27  C   UNL A   1      40.706  26.857  28.614  1.00  0.00     0.049 A 
ATOM     28  N   UNL A   1      43.455  27.384  27.525  1.00  0.00    -0.248 NA
ATOM     29  C   UNL A   1      43.434  25.263  26.551  1.00  0.00     0.031 C 
ATOM     30  C   UNL A   1      39.372  26.658  29.178  1.00  0.00     0.029 A 
ATOM     31  N   UNL A   1      41.035  28.141  28.976  1.00  0.00    -0.354 N 
ATOM     32  C   UNL A   1      44.663  27.166  26.876  1.00  0.00     0.074 A 
ATOM     33  C   UNL A   1      44.608  25.832  26.317  1.00  0.00     0.031 C 
ATOM     34  C   UNL A   1      38.986  27.785  29.800  1.00  0.00     0.029 A 
ATOM     35  C   UNL A   1      40.055  28.777  29.700  1.00  0.00     0.049 A 
ATOM     36  H   UNL A   1      41.892  28.564  28.739  1.00  0.00     0.167 HD
ATOM     37  C   UNL A   1      45.718  28.003  26.736  1.00  0.00     0.034 A 
ATOM     38  C   UNL A   1      40.019  30.020  30.223  1.00  0.00     0.034 A 
ATOM     39  C   UNL A   1      45.753  29.357  27.220  1.00  0.00     0.049 A 
ATOM     40  C   UNL A   1      41.186  30.945  30.011  1.00  0.00     0.074 A 
ATOM     41  C   UNL A   1      46.771  30.287  27.101  1.00  0.00     0.029 A 
ATOM     42  N   UNL A   1      44.719  29.980  27.898  1.00  0.00    -0.354 N 
ATOM     43  N   UNL A   1      42.285  30.745  29.326  1.00  0.00    -0.248 NA
ATOM     44  C   UNL A   1      41.097  32.280  30.624  1.00  0.00     0.031 C 
ATOM     45  C   UNL A   1      46.346  31.480  27.697  1.00  0.00     0.029 A 
ATOM     46  C   UNL A   1      45.067  31.286  28.195  1.00  0.00     0.049 A 
ATOM     47  H   UNL A   1      43.862  29.557  28.134  1.00  0.00     0.167 HD
ATOM     48  C   UNL A   1      43.006  31.931  29.405  1.00  0.00     0.074 A 
ATOM     49  C   UNL A   1      42.207  32.856  30.183  1.00  0.00     0.031 C 
ATOM     50  C   UNL A   1      44.233  32.218  28.906  1.00  0.00     0.034 A 
BRANCH  37  51
ATOM     51  C   UNL A   1      46.914  27.494  25.981  1.00  0.00     0.023 A 
ATOM     52  C   UNL A   1      47.825  26.636  26.628  1.00  0.00     0.012 A 
ATOM     53  C   UNL A   1      47.109  27.818  24.626  1.00  0.00     0.148 A 
ATOM     54  C   UNL A   1      48.924  26.122  25.941  1.00  0.00     0.002 A 
ATOM     55  C   UNL A   1      48.192  27.279  23.939  1.00  0.00     0.091 A 
ATOM     56  F   UNL A   1      46.252  28.663  24.035  1.00  0.00    -0.205 F 
ATOM     57  C   UNL A   1      49.102  26.435  24.595  1.00  0.00     0.022 A 
BRANCH  55  58
ATOM     58  S   UNL A   1      48.450  27.591  22.188  1.00  0.00     0.127 S 
ATOM     59  O   UNL A   1      49.619  28.467  22.211  1.00  0.00    -0.237 OA
ATOM     60  O   UNL A   1      48.705  26.251  21.658  1.00  0.00    -0.237 OA
ATOM     61  O   UNL A   1      47.209  28.193  21.717  1.00  0.00    -0.744 OA
ENDBRANCH  55  58
ENDBRANCH  37  51
BRANCH  38  62
ATOM     62  C   UNL A   1      38.797  30.486  30.934  1.00  0.00     0.023 A 
ATOM     63  C   UNL A   1      38.689  30.279  32.322  1.00  0.00     0.012 A 
ATOM     64  C   UNL A   1      37.763  31.162  30.259  1.00  0.00     0.148 A 
ATOM     65  C   UNL A   1      37.567  30.722  33.023  1.00  0.00     0.002 A 
ATOM     66  C   UNL A   1      36.671  31.647  30.972  1.00  0.00     0.091 A 
ATOM     67  F   UNL A   1      37.864  31.326  28.932  1.00  0.00    -0.205 F 
ATOM     68  C   UNL A   1      36.565  31.417  32.352  1.00  0.00     0.022 A 
BRANCH  66  69
ATOM     69  S   UNL A   1      35.420  32.665  30.183  1.00  0.00     0.127 S 
ATOM     70  O   UNL A   1      35.174  31.935  28.943  1.00  0.00    -0.237 OA
ATOM     71  O   UNL A   1      34.321  32.623  31.149  1.00  0.00    -0.237 OA
ATOM     72  O   UNL A   1      36.038  33.978  30.048  1.00  0.00    -0.744 OA
ENDBRANCH  66  69
ENDBRANCH  38  62
BRANCH  50  73
ATOM     73  C   UNL A   1      44.789  33.591  29.168  1.00  0.00     0.023 A 
ATOM     74  C   UNL A   1      45.508  33.826  30.355  1.00  0.00     0.012 A 
ATOM     75  C   UNL A   1      44.670  34.621  28.215  1.00  0.00     0.148 A 
ATOM     76  C   UNL A   1      46.084  35.072  30.602  1.00  0.00     0.002 A 
ATOM     77  C   UNL A   1      45.277  35.852  28.453  1.00  0.00     0.091 A 
ATOM     78  F   UNL A   1      43.963  34.392  27.099  1.00  0.00    -0.205 F 
ATOM     79  C   UNL A   1      45.978  36.081  29.646  1.00  0.00     0.022 A 
BRANCH  77  80
ATOM     80  S   UNL A   1      45.235  37.160  27.222  1.00  0.00     0.127 S 
ATOM     81  O   UNL A   1      46.055  36.597  26.152  1.00  0.00    -0.237 OA
ATOM     82  O   UNL A   1      43.809  37.263  26.904  1.00  0.00    -0.237 OA
ATOM     83  O   UNL A   1      45.777  38.332  27.898  1.00  0.00    -0.744 OA
ENDBRANCH  77  80
ENDBRANCH  50  73
ENDBRANCH  24  25
ENDBRANCH  17  19
ENDBRANCH  16  17
ENDBRANCH  15  16
ENDBRANCH   1  15
TORSDOF 18
ENDMDL
MODEL 2
REMARK VINA RESULT:     -10.1      5.721     10.864
REMARK SMILES [NH3+][C@H](CC[S@@](=O)[O-])C(=O)OCCOC(=O)c1ccc(-c2c3nc(c(-c4cccc(S(=O)(=O)[O-])c4F)c4ccc([nH]4)c(-c4cccc(S(=O)(=O)[O-])c4F)c4nc(c(-c5cccc(S(=O)(=O)[O-])c5F)c5ccc2[nH]5)C=C4)C=C3)cc1
REMARK SMILES IDX 11 1 10 2 8 3 9 4 2 5 1 6 3 10 4 11 5 12 6 13 7 14 12 15
REMARK SMILES IDX 13 16 14 17 15 18 16 19 17 20 78 21 18 22 77 23 19 24 20 25
REMARK SMILES IDX 21 26 71 27 22 28 76 29 70 30 72 31 23 32 75 33 69 34 68 35
REMARK SMILES IDX 24 37 56 38 36 39 55 40 37 41 40 42 54 43 73 44 38 45 39 46
REMARK SMILES IDX 53 48 74 49 41 50 25 51 26 52 34 53 27 54 29 55 35 56 28 57
REMARK SMILES IDX 30 58 31 59 32 60 33 61 57 62 58 63 66 64 59 65 61 66 67 67
REMARK SMILES IDX 60 68 62 69 63 70 64 71 65 72 42 73 43 74 51 75 44 76 46 77
REMARK SMILES IDX 52 78 45 79 47 80 48 81 49 82 50 83
REMARK H PARENT 1 7 1 8 1 9 72 36 40 47
REMARK Flexibility Score: inf
ROOT
ATOM      1  C   UNL A   1      31.226  30.457  25.029  1.00  0.00     0.274 C 
ENDROOT
BRANCH   1   2
ATOM      2  O   UNL A   1      31.048  29.115  25.524  1.00  0.00    -0.458 OA
BRANCH   2   3
ATOM      3  C   UNL A   1      32.049  28.240  25.214  1.00  0.00     0.364 C 
ATOM      4  O   UNL A   1      32.970  28.483  24.441  1.00  0.00    -0.245 OA
BRANCH   3   5
ATOM      5  C   UNL A   1      31.868  26.876  25.909  1.00  0.00     0.292 C 
BRANCH   5   6
ATOM      6  N   UNL A   1      31.241  27.071  27.235  1.00  0.00    -0.346 N 
ATOM      7  H   UNL A   1      31.029  26.162  27.647  1.00  0.00     0.345 HD
ATOM      8  H   UNL A   1      30.379  27.605  27.127  1.00  0.00     0.345 HD
ATOM      9  H   UNL A   1      31.883  27.579  27.843  1.00  0.00     0.345 HD
ENDBRANCH   5   6
BRANCH   5  10
ATOM     10  C   UNL A   1      33.186  26.089  26.016  1.00  0.00     0.090 C 
BRANCH  10  11
ATOM     11  C   UNL A   1      33.063  24.610  25.654  1.00  0.00     0.096 C 
BRANCH  11  12
ATOM     12  S   UNL A   1      31.336  24.017  25.684  1.00  0.00    -0.055 S 
ATOM     13  O   UNL A   1      31.336  22.601  25.200  1.00  0.00    -0.275 OA
ATOM     14  O   UNL A   1      31.271  23.903  27.281  1.00  0.00    -0.772 OA
ENDBRANCH  11  12
ENDBRANCH  10  11
ENDBRANCH   5  10
ENDBRANCH   3   5
ENDBRANCH   2   3
ENDBRANCH   1   2
BRANCH   1  15
ATOM     15  C   UNL A   1      31.400  31.480  26.154  1.00  0.00     0.275 C 
BRANCH  15  16
ATOM     16  O   UNL A   1      32.486  31.138  27.034  1.00  0.00    -0.458 OA
BRANCH  16  17
ATOM     17  C   UNL A   1      33.246  32.186  27.423  1.00  0.00     0.338 C 
ATOM     18  O   UNL A   1      32.870  33.335  27.610  1.00  0.00    -0.246 OA
BRANCH  17  19
ATOM     19  C   UNL A   1      34.618  31.758  27.726  1.00  0.00     0.060 A 
ATOM     20  C   UNL A   1      34.844  30.392  27.894  1.00  0.00     0.016 A 
ATOM     21  C   UNL A   1      35.620  32.682  28.024  1.00  0.00     0.016 A 
ATOM     22  C   UNL A   1      36.041  29.945  28.445  1.00  0.00     0.010 A 
ATOM     23  C   UNL A   1      36.839  32.226  28.544  1.00  0.00     0.010 A 
ATOM     24  C   UNL A   1      37.039  30.859  28.805  1.00  0.00    -0.014 A 
BRANCH  24  25
ATOM     25  C   UNL A   1      38.230  30.370  29.548  1.00  0.00     0.031 A 
ATOM     26  C   UNL A   1      38.429  30.759  30.991  1.00  0.00     0.074 A 
ATOM     27  C   UNL A   1      39.100  29.526  28.959  1.00  0.00     0.049 A 
ATOM     28  N   UNL A   1      39.393  30.421  31.810  1.00  0.00    -0.248 NA
ATOM     29  C   UNL A   1      37.415  31.642  31.590  1.00  0.00     0.031 C 
ATOM     30  C   UNL A   1      39.017  29.061  27.575  1.00  0.00     0.029 A 
ATOM     31  N   UNL A   1      40.218  28.902  29.457  1.00  0.00    -0.354 N 
ATOM     32  C   UNL A   1      39.130  31.089  33.001  1.00  0.00     0.074 A 
ATOM     33  C   UNL A   1      37.915  31.848  32.801  1.00  0.00     0.031 C 
ATOM     34  C   UNL A   1      40.030  28.210  27.338  1.00  0.00     0.029 A 
ATOM     35  C   UNL A   1      40.846  28.089  28.543  1.00  0.00     0.049 A 
ATOM     36  H   UNL A   1      40.538  29.025  30.380  1.00  0.00     0.167 HD
ATOM     37  C   UNL A   1      39.823  31.059  34.163  1.00  0.00     0.034 A 
ATOM     38  C   UNL A   1      41.955  27.330  28.663  1.00  0.00     0.034 A 
ATOM     39  C   UNL A   1      40.988  30.249  34.398  1.00  0.00     0.049 A 
ATOM     40  C   UNL A   1      42.677  27.279  29.982  1.00  0.00     0.074 A 
ATOM     41  C   UNL A   1      41.739  30.136  35.555  1.00  0.00     0.029 A 
ATOM     42  N   UNL A   1      41.558  29.398  33.465  1.00  0.00    -0.354 N 
ATOM     43  N   UNL A   1      42.366  27.856  31.117  1.00  0.00    -0.248 NA
ATOM     44  C   UNL A   1      43.891  26.450  30.044  1.00  0.00     0.031 C 
ATOM     45  C   UNL A   1      42.759  29.206  35.325  1.00  0.00     0.029 A 
ATOM     46  C   UNL A   1      42.646  28.748  34.022  1.00  0.00     0.049 A 
ATOM     47  H   UNL A   1      41.238  29.274  32.542  1.00  0.00     0.167 HD
ATOM     48  C   UNL A   1      43.329  27.444  32.031  1.00  0.00     0.074 A 
ATOM     49  C   UNL A   1      44.220  26.546  31.326  1.00  0.00     0.031 C 
ATOM     50  C   UNL A   1      43.480  27.801  33.330  1.00  0.00     0.034 A 
BRANCH  37  51
ATOM     51  C   UNL A   1      39.308  31.898  35.300  1.00  0.00     0.023 A 
ATOM     52  C   UNL A   1      38.387  31.338  36.208  1.00  0.00     0.012 A 
ATOM     53  C   UNL A   1      39.769  33.212  35.501  1.00  0.00     0.148 A 
ATOM     54  C   UNL A   1      37.918  32.083  37.289  1.00  0.00     0.002 A 
ATOM     55  C   UNL A   1      39.319  33.938  36.599  1.00  0.00     0.091 A 
ATOM     56  F   UNL A   1      40.619  33.740  34.609  1.00  0.00    -0.205 F 
ATOM     57  C   UNL A   1      38.391  33.377  37.491  1.00  0.00     0.022 A 
BRANCH  55  58
ATOM     58  S   UNL A   1      39.931  35.589  36.953  1.00  0.00     0.127 S 
ATOM     59  O   UNL A   1      39.198  35.924  38.172  1.00  0.00    -0.237 OA
ATOM     60  O   UNL A   1      41.365  35.365  37.148  1.00  0.00    -0.237 OA
ATOM     61  O   UNL A   1      39.607  36.382  35.774  1.00  0.00    -0.744 OA
ENDBRANCH  55  58
ENDBRANCH  37  51
BRANCH  38  62
ATOM     62  C   UNL A   1      42.404  26.493  27.517  1.00  0.00     0.023 A 
ATOM     63  C   UNL A   1      43.276  27.049  26.561  1.00  0.00     0.012 A 
ATOM     64  C   UNL A   1      42.008  25.149  27.385  1.00  0.00     0.148 A 
ATOM     65  C   UNL A   1      43.732  26.287  25.485  1.00  0.00     0.002 A 
ATOM     66  C   UNL A   1      42.508  24.379  26.338  1.00  0.00     0.091 A 
ATOM     67  F   UNL A   1      41.154  24.641  28.285  1.00  0.00    -0.205 F 
ATOM     68  C   UNL A   1      43.360  24.949  25.382  1.00  0.00     0.022 A 
BRANCH  66  69
ATOM     69  S   UNL A   1      42.171  22.618  26.233  1.00  0.00     0.127 S 
ATOM     70  O   UNL A   1      42.714  22.284  24.920  1.00  0.00    -0.237 OA
ATOM     71  O   UNL A   1      42.927  22.082  27.366  1.00  0.00    -0.237 OA
ATOM     72  O   UNL A   1      40.725  22.506  26.382  1.00  0.00    -0.744 OA
ENDBRANCH  66  69
ENDBRANCH  38  62
BRANCH  50  73
ATOM     73  C   UNL A   1      44.641  27.214  34.085  1.00  0.00     0.023 A 
ATOM     74  C   UNL A   1      45.888  27.865  34.041  1.00  0.00     0.012 A 
ATOM     75  C   UNL A   1      44.484  26.073  34.894  1.00  0.00     0.148 A 
ATOM     76  C   UNL A   1      46.970  27.378  34.774  1.00  0.00     0.002 A 
ATOM     77  C   UNL A   1      45.558  25.612  35.650  1.00  0.00     0.091 A 
ATOM     78  F   UNL A   1      43.297  25.449  34.909  1.00  0.00    -0.205 F 
ATOM     79  C   UNL A   1      46.803  26.258  35.587  1.00  0.00     0.022 A 
BRANCH  77  80
ATOM     80  S   UNL A   1      45.375  24.220  36.772  1.00  0.00     0.127 S 
ATOM     81  O   UNL A   1      46.709  24.123  37.357  1.00  0.00    -0.237 OA
ATOM     82  O   UNL A   1      44.337  24.683  37.697  1.00  0.00    -0.237 OA
ATOM     83  O   UNL A   1      44.961  23.106  35.927  1.00  0.00    -0.744 OA
ENDBRANCH  77  80
ENDBRANCH  50  73
ENDBRANCH  24  25
ENDBRANCH  17  19
ENDBRANCH  16  17
ENDBRANCH  15  16
ENDBRANCH   1  15
TORSDOF 18
ENDMDL
MODEL 3
REMARK VINA RESULT:     -10.1      6.054     11.087
REMARK SMILES [NH3+][C@H](CC[S@@](=O)[O-])C(=O)OCCOC(=O)c1ccc(-c2c3nc(c(-c4cccc(S(=O)(=O)[O-])c4F)c4ccc([nH]4)c(-c4cccc(S(=O)(=O)[O-])c4F)c4nc(c(-c5cccc(S(=O)(=O)[O-])c5F)c5ccc2[nH]5)C=C4)C=C3)cc1
REMARK SMILES IDX 11 1 10 2 8 3 9 4 2 5 1 6 3 10 4 11 5 12 6 13 7 14 12 15
REMARK SMILES IDX 13 16 14 17 15 18 16 19 17 20 78 21 18 22 77 23 19 24 20 25
REMARK SMILES IDX 21 26 71 27 22 28 76 29 70 30 72 31 23 32 75 33 69 34 68 35
REMARK SMILES IDX 24 37 56 38 36 39 55 40 37 41 40 42 54 43 73 44 38 45 39 46
REMARK SMILES IDX 53 48 74 49 41 50 25 51 26 52 34 53 27 54 29 55 35 56 28 57
REMARK SMILES IDX 30 58 31 59 32 60 33 61 57 62 58 63 66 64 59 65 61 66 67 67
REMARK SMILES IDX 60 68 62 69 63 70 64 71 65 72 42 73 43 74 51 75 44 76 46 77
REMARK SMILES IDX 52 78 45 79 47 80 48 81 49 82 50 83
REMARK H PARENT 1 7 1 8 1 9 72 36 40 47
REMARK Flexibility Score: inf
ROOT
ATOM      1  C   UNL A   1      31.685  29.155  25.742  1.00  0.00     0.274 C 
ENDROOT
BRANCH   1   2
ATOM      2  O   UNL A   1      30.630  29.282  24.768  1.00  0.00    -0.458 OA
BRANCH   2   3
ATOM      3  C   UNL A   1      30.706  28.422  23.710  1.00  0.00     0.364 C 
ATOM      4  O   UNL A   1      31.112  27.268  23.781  1.00  0.00    -0.245 OA
BRANCH   3   5
ATOM      5  C   UNL A   1      30.267  29.084  22.389  1.00  0.00     0.292 C 
BRANCH   5   6
ATOM      6  N   UNL A   1      31.419  29.780  21.773  1.00  0.00    -0.346 N 
ATOM      7  H   UNL A   1      31.645  30.612  22.318  1.00  0.00     0.345 HD
ATOM      8  H   UNL A   1      31.181  30.051  20.819  1.00  0.00     0.345 HD
ATOM      9  H   UNL A   1      32.225  29.154  21.757  1.00  0.00     0.345 HD
ENDBRANCH   5   6
BRANCH   5  10
ATOM     10  C   UNL A   1      29.067  30.029  22.572  1.00  0.00     0.090 C 
BRANCH  10  11
ATOM     11  C   UNL A   1      29.211  31.370  21.856  1.00  0.00     0.096 C 
BRANCH  11  12
ATOM     12  S   UNL A   1      28.253  32.705  22.655  1.00  0.00    -0.055 S 
ATOM     13  O   UNL A   1      29.224  33.745  23.116  1.00  0.00    -0.275 OA
ATOM     14  O   UNL A   1      27.664  33.277  21.278  1.00  0.00    -0.772 OA
ENDBRANCH  11  12
ENDBRANCH  10  11
ENDBRANCH   5  10
ENDBRANCH   3   5
ENDBRANCH   2   3
ENDBRANCH   1   2
BRANCH   1  15
ATOM     15  C   UNL A   1      32.359  30.493  26.056  1.00  0.00     0.275 C 
BRANCH  15  16
ATOM     16  O   UNL A   1      32.953  30.506  27.366  1.00  0.00    -0.458 OA
BRANCH  16  17
ATOM     17  C   UNL A   1      33.710  31.595  27.629  1.00  0.00     0.338 C 
ATOM     18  O   UNL A   1      33.319  32.745  27.767  1.00  0.00    -0.246 OA
BRANCH  17  19
ATOM     19  C   UNL A   1      35.112  31.218  27.859  1.00  0.00     0.060 A 
ATOM     20  C   UNL A   1      35.408  29.858  27.940  1.00  0.00     0.016 A 
ATOM     21  C   UNL A   1      36.079  32.172  28.176  1.00  0.00     0.016 A 
ATOM     22  C   UNL A   1      36.644  29.440  28.423  1.00  0.00     0.010 A 
ATOM     23  C   UNL A   1      37.337  31.748  28.627  1.00  0.00     0.010 A 
ATOM     24  C   UNL A   1      37.611  30.380  28.801  1.00  0.00    -0.014 A 
BRANCH  24  25
ATOM     25  C   UNL A   1      38.850  29.909  29.474  1.00  0.00     0.031 A 
ATOM     26  C   UNL A   1      39.187  30.398  30.859  1.00  0.00     0.074 A 
ATOM     27  C   UNL A   1      39.641  28.995  28.877  1.00  0.00     0.049 A 
ATOM     28  N   UNL A   1      40.211  30.091  31.615  1.00  0.00    -0.248 NA
ATOM     29  C   UNL A   1      38.254  31.355  31.475  1.00  0.00     0.031 C 
ATOM     30  C   UNL A   1      39.424  28.432  27.546  1.00  0.00     0.029 A 
ATOM     31  N   UNL A   1      40.783  28.374  29.323  1.00  0.00    -0.354 N 
ATOM     32  C   UNL A   1      40.074  30.854  32.768  1.00  0.00     0.074 A 
ATOM     33  C   UNL A   1      38.865  31.635  32.617  1.00  0.00     0.031 C 
ATOM     34  C   UNL A   1      40.389  27.533  27.288  1.00  0.00     0.029 A 
ATOM     35  C   UNL A   1      41.306  27.476  28.423  1.00  0.00     0.049 A 
ATOM     36  H   UNL A   1      41.187  28.555  30.202  1.00  0.00     0.167 HD
ATOM     37  C   UNL A   1      40.867  30.888  33.865  1.00  0.00     0.034 A 
ATOM     38  C   UNL A   1      42.401  26.691  28.505  1.00  0.00     0.034 A 
ATOM     39  C   UNL A   1      42.026  30.060  34.059  1.00  0.00     0.049 A 
ATOM     40  C   UNL A   1      43.237  26.716  29.756  1.00  0.00     0.074 A 
ATOM     41  C   UNL A   1      42.874  30.009  35.152  1.00  0.00     0.029 A 
ATOM     42  N   UNL A   1      42.489  29.124  33.149  1.00  0.00    -0.354 N 
ATOM     43  N   UNL A   1      43.043  27.385  30.866  1.00  0.00    -0.248 NA
ATOM     44  C   UNL A   1      44.430  25.855  29.776  1.00  0.00     0.031 C 
ATOM     45  C   UNL A   1      43.845  29.031  34.907  1.00  0.00     0.029 A 
ATOM     46  C   UNL A   1      43.604  28.482  33.658  1.00  0.00     0.049 A 
ATOM     47  H   UNL A   1      42.084  28.942  32.270  1.00  0.00     0.167 HD
ATOM     48  C   UNL A   1      44.073  27.011  31.722  1.00  0.00     0.074 A 
ATOM     49  C   UNL A   1      44.874  26.035  31.013  1.00  0.00     0.031 C 
ATOM     50  C   UNL A   1      44.348  27.459  32.971  1.00  0.00     0.034 A 
BRANCH  37  51
ATOM     51  C   UNL A   1      40.476  31.825  34.975  1.00  0.00     0.023 A 
ATOM     52  C   UNL A   1      41.094  33.088  35.060  1.00  0.00     0.012 A 
ATOM     53  C   UNL A   1      39.470  31.481  35.896  1.00  0.00     0.148 A 
ATOM     54  C   UNL A   1      40.727  33.989  36.059  1.00  0.00     0.002 A 
ATOM     55  C   UNL A   1      39.089  32.396  36.872  1.00  0.00     0.091 A 
ATOM     56  F   UNL A   1      38.917  30.262  35.821  1.00  0.00    -0.205 F 
ATOM     57  C   UNL A   1      39.718  33.648  36.958  1.00  0.00     0.022 A 
BRANCH  55  58
ATOM     58  S   UNL A   1      37.756  32.046  38.025  1.00  0.00     0.127 S 
ATOM     59  O   UNL A   1      38.388  32.340  39.309  1.00  0.00    -0.237 OA
ATOM     60  O   UNL A   1      36.724  33.004  37.622  1.00  0.00    -0.237 OA
ATOM     61  O   UNL A   1      37.400  30.653  37.792  1.00  0.00    -0.744 OA
ENDBRANCH  55  58
ENDBRANCH  37  51
BRANCH  38  62
ATOM     62  C   UNL A   1      42.724  25.757  27.392  1.00  0.00     0.023 A 
ATOM     63  C   UNL A   1      43.602  26.179  26.375  1.00  0.00     0.012 A 
ATOM     64  C   UNL A   1      42.203  24.451  27.350  1.00  0.00     0.148 A 
ATOM     65  C   UNL A   1      43.942  25.322  25.327  1.00  0.00     0.002 A 
ATOM     66  C   UNL A   1      42.587  23.583  26.331  1.00  0.00     0.091 A 
ATOM     67  F   UNL A   1      41.345  24.072  28.308  1.00  0.00    -0.205 F 
ATOM     68  C   UNL A   1      43.446  24.021  25.313  1.00  0.00     0.022 A 
BRANCH  66  69
ATOM     69  S   UNL A   1      42.088  21.858  26.338  1.00  0.00     0.127 S 
ATOM     70  O   UNL A   1      40.660  21.956  26.051  1.00  0.00    -0.237 OA
ATOM     71  O   UNL A   1      42.895  21.290  25.257  1.00  0.00    -0.237 OA
ATOM     72  O   UNL A   1      42.449  21.371  27.663  1.00  0.00    -0.744 OA
ENDBRANCH  66  69
ENDBRANCH  38  62
BRANCH  50  73
ATOM     73  C   UNL A   1      45.556  26.893  33.665  1.00  0.00     0.023 A 
ATOM     74  C   UNL A   1      45.428  25.701  34.403  1.00  0.00     0.012 A 
ATOM     75  C   UNL A   1      46.824  27.488  33.527  1.00  0.00     0.148 A 
ATOM     76  C   UNL A   1      46.540  25.120  35.012  1.00  0.00     0.002 A 
ATOM     77  C   UNL A   1      47.936  26.885  34.109  1.00  0.00     0.091 A 
ATOM     78  F   UNL A   1      46.928  28.636  32.842  1.00  0.00    -0.205 F 
ATOM     79  C   UNL A   1      47.796  25.705  34.856  1.00  0.00     0.022 A 
BRANCH  77  80
ATOM     80  S   UNL A   1      49.586  27.556  33.874  1.00  0.00     0.127 S 
ATOM     81  O   UNL A   1      49.732  27.502  32.422  1.00  0.00    -0.237 OA
ATOM     82  O   UNL A   1      49.468  28.909  34.422  1.00  0.00    -0.237 OA
ATOM     83  O   UNL A   1      50.463  26.680  34.641  1.00  0.00    -0.744 OA
ENDBRANCH  77  80
ENDBRANCH  50  73
ENDBRANCH  24  25
ENDBRANCH  17  19
ENDBRANCH  16  17
ENDBRANCH  15  16
ENDBRANCH   1  15
TORSDOF 18
ENDMDL
