MODEL 1
REMARK VINA RESULT:     -11.9      0.000      0.000
REMARK SMILES O=C(OCCOC(=O)c1ccc(Cn2ccc3ccc(Br)cc32)nc1)c1ccc(-c2c3nc(c(-c4cccc(S(=O)(=O)[O-])c4F)c4ccc([nH]4)c(-c4cccc(S(=O)(=O)[O-])c4F)c4nc(c(-c5cccc(S(=O)(=O)[O-])c5F)c5ccc2[nH]5)C=C4)C=C3)cc1
REMARK SMILES IDX 4 1 3 2 2 3 1 4 26 5 27 6 88 7 28 8 87 9 29 10 30 11 31 12
REMARK SMILES IDX 81 13 32 14 86 15 80 16 82 17 33 18 85 19 79 20 78 21 34 23
REMARK SMILES IDX 66 24 46 25 65 26 47 27 50 28 64 29 83 30 48 31 49 32 63 34
REMARK SMILES IDX 84 35 51 36 35 37 36 38 44 39 37 40 39 41 45 42 38 43 40 44
REMARK SMILES IDX 41 45 42 46 43 47 67 48 68 49 76 50 69 51 71 52 77 53 70 54
REMARK SMILES IDX 72 55 73 56 74 57 75 58 52 59 53 60 61 61 54 62 56 63 62 64
REMARK SMILES IDX 55 65 57 66 58 67 59 68 60 69 5 70 6 71 7 72 8 73 9 74 10 75
REMARK SMILES IDX 25 76 11 77 24 78 12 79 13 80 14 81 15 82 23 83 16 84 17 85
REMARK SMILES IDX 22 86 18 87 20 88 19 89 21 90
REMARK H PARENT 82 22 50 33
REMARK Flexibility Score: inf
ROOT
ATOM      1  C   UNL A   1      34.758  32.536  28.052  1.00  0.00     0.275 C 
ENDROOT
BRANCH   1   2
ATOM      2  O   UNL A   1      35.859  32.417  29.000  1.00  0.00    -0.458 OA
BRANCH   2   3
ATOM      3  C   UNL A   1      35.805  31.941  30.279  1.00  0.00     0.338 C 
ATOM      4  O   UNL A   1      34.989  32.358  31.092  1.00  0.00    -0.246 OA
BRANCH   3   5
ATOM      5  C   UNL A   1      36.886  31.033  30.698  1.00  0.00     0.060 A 
ATOM      6  C   UNL A   1      38.092  31.632  31.042  1.00  0.00     0.016 A 
ATOM      7  C   UNL A   1      36.804  29.658  30.473  1.00  0.00     0.016 A 
ATOM      8  C   UNL A   1      39.251  30.917  30.812  1.00  0.00     0.010 A 
ATOM      9  C   UNL A   1      37.970  28.940  30.247  1.00  0.00     0.010 A 
ATOM     10  C   UNL A   1      39.193  29.603  30.311  1.00  0.00    -0.014 A 
BRANCH  10  11
ATOM     11  C   UNL A   1      40.472  28.902  30.163  1.00  0.00     0.031 A 
ATOM     12  C   UNL A   1      41.068  28.655  31.503  1.00  0.00     0.074 A 
ATOM     13  C   UNL A   1      41.023  28.459  29.011  1.00  0.00     0.049 A 
ATOM     14  N   UNL A   1      42.176  29.125  31.978  1.00  0.00    -0.248 NA
ATOM     15  C   UNL A   1      40.182  28.043  32.516  1.00  0.00     0.031 C 
ATOM     16  C   UNL A   1      40.433  28.489  27.672  1.00  0.00     0.029 A 
ATOM     17  N   UNL A   1      42.186  27.760  28.810  1.00  0.00    -0.354 N 
ATOM     18  C   UNL A   1      42.222  28.641  33.280  1.00  0.00     0.074 A 
ATOM     19  C   UNL A   1      40.895  28.209  33.627  1.00  0.00     0.031 C 
ATOM     20  C   UNL A   1      41.097  27.626  26.870  1.00  0.00     0.029 A 
ATOM     21  C   UNL A   1      42.210  27.052  27.603  1.00  0.00     0.049 A 
ATOM     22  H   UNL A   1      42.932  27.758  29.453  1.00  0.00     0.167 HD
ATOM     23  C   UNL A   1      43.393  28.279  33.860  1.00  0.00     0.034 A 
ATOM     24  C   UNL A   1      43.018  26.006  27.285  1.00  0.00     0.034 A 
ATOM     25  C   UNL A   1      44.530  28.869  33.225  1.00  0.00     0.049 A 
ATOM     26  C   UNL A   1      44.175  26.067  28.204  1.00  0.00     0.074 A 
ATOM     27  C   UNL A   1      45.019  30.146  33.071  1.00  0.00     0.029 A 
ATOM     28  N   UNL A   1      45.134  28.079  32.283  1.00  0.00    -0.354 N 
ATOM     29  N   UNL A   1      45.097  26.984  28.154  1.00  0.00    -0.248 NA
ATOM     30  C   UNL A   1      44.156  25.251  29.410  1.00  0.00     0.031 C 
ATOM     31  C   UNL A   1      45.705  30.145  31.824  1.00  0.00     0.029 A 
ATOM     32  C   UNL A   1      45.639  28.860  31.283  1.00  0.00     0.049 A 
ATOM     33  H   UNL A   1      45.195  27.097  32.322  1.00  0.00     0.167 HD
ATOM     34  C   UNL A   1      45.466  27.152  29.477  1.00  0.00     0.074 A 
ATOM     35  C   UNL A   1      44.991  25.963  30.168  1.00  0.00     0.031 C 
ATOM     36  C   UNL A   1      45.839  28.379  29.934  1.00  0.00     0.034 A 
BRANCH  23  37
ATOM     37  C   UNL A   1      43.483  27.020  34.676  1.00  0.00     0.023 A 
ATOM     38  C   UNL A   1      42.909  25.839  34.182  1.00  0.00     0.012 A 
ATOM     39  C   UNL A   1      43.916  27.019  36.025  1.00  0.00     0.148 A 
ATOM     40  C   UNL A   1      42.827  24.693  34.983  1.00  0.00     0.002 A 
ATOM     41  C   UNL A   1      43.936  25.857  36.776  1.00  0.00     0.091 A 
ATOM     42  F   UNL A   1      44.179  28.181  36.637  1.00  0.00    -0.205 F 
ATOM     43  C   UNL A   1      43.373  24.689  36.266  1.00  0.00     0.022 A 
BRANCH  41  44
ATOM     44  S   UNL A   1      44.710  25.818  38.394  1.00  0.00     0.127 S 
ATOM     45  O   UNL A   1      44.763  24.384  38.660  1.00  0.00    -0.237 OA
ATOM     46  O   UNL A   1      46.001  26.451  38.124  1.00  0.00    -0.237 OA
ATOM     47  O   UNL A   1      43.833  26.604  39.255  1.00  0.00    -0.744 OA
ENDBRANCH  41  44
ENDBRANCH  23  37
BRANCH  24  48
ATOM     48  C   UNL A   1      42.804  24.797  26.434  1.00  0.00     0.023 A 
ATOM     49  C   UNL A   1      43.777  24.474  25.457  1.00  0.00     0.012 A 
ATOM     50  C   UNL A   1      41.862  23.802  26.764  1.00  0.00     0.148 A 
ATOM     51  C   UNL A   1      43.867  23.189  24.906  1.00  0.00     0.002 A 
ATOM     52  C   UNL A   1      41.947  22.527  26.202  1.00  0.00     0.091 A 
ATOM     53  F   UNL A   1      40.939  24.058  27.698  1.00  0.00    -0.205 F 
ATOM     54  C   UNL A   1      42.961  22.209  25.293  1.00  0.00     0.022 A 
BRANCH  52  55
ATOM     55  S   UNL A   1      40.808  21.214  26.668  1.00  0.00     0.127 S 
ATOM     56  O   UNL A   1      39.551  21.666  26.069  1.00  0.00    -0.237 OA
ATOM     57  O   UNL A   1      41.410  20.051  26.023  1.00  0.00    -0.237 OA
ATOM     58  O   UNL A   1      40.802  21.201  28.125  1.00  0.00    -0.744 OA
ENDBRANCH  52  55
ENDBRANCH  24  48
BRANCH  36  59
ATOM     59  C   UNL A   1      46.306  29.388  28.926  1.00  0.00     0.023 A 
ATOM     60  C   UNL A   1      47.616  29.410  28.407  1.00  0.00     0.012 A 
ATOM     61  C   UNL A   1      45.326  30.224  28.368  1.00  0.00     0.148 A 
ATOM     62  C   UNL A   1      47.935  30.253  27.339  1.00  0.00     0.002 A 
ATOM     63  C   UNL A   1      45.634  31.022  27.278  1.00  0.00     0.091 A 
ATOM     64  F   UNL A   1      44.091  30.182  28.891  1.00  0.00    -0.205 F 
ATOM     65  C   UNL A   1      46.939  31.044  26.761  1.00  0.00     0.022 A 
BRANCH  63  66
ATOM     66  S   UNL A   1      44.373  31.962  26.418  1.00  0.00     0.127 S 
ATOM     67  O   UNL A   1      43.396  30.927  26.083  1.00  0.00    -0.237 OA
ATOM     68  O   UNL A   1      43.938  32.907  27.448  1.00  0.00    -0.237 OA
ATOM     69  O   UNL A   1      45.033  32.583  25.276  1.00  0.00    -0.744 OA
ENDBRANCH  63  66
ENDBRANCH  36  59
ENDBRANCH  10  11
ENDBRANCH   3   5
ENDBRANCH   2   3
ENDBRANCH   1   2
BRANCH   1  70
ATOM     70  C   UNL A   1      34.308  31.248  27.340  1.00  0.00     0.275 C 
BRANCH  70  71
ATOM     71  O   UNL A   1      32.992  30.881  27.746  1.00  0.00    -0.458 OA
BRANCH  71  72
ATOM     72  C   UNL A   1      31.984  30.966  26.858  1.00  0.00     0.339 C 
ATOM     73  O   UNL A   1      31.371  31.961  26.512  1.00  0.00    -0.246 OA
BRANCH  72  74
ATOM     74  C   UNL A   1      31.746  29.596  26.388  1.00  0.00     0.078 A 
ATOM     75  C   UNL A   1      31.746  28.502  27.252  1.00  0.00     0.019 A 
ATOM     76  C   UNL A   1      31.657  29.361  25.027  1.00  0.00     0.127 A 
ATOM     77  C   UNL A   1      31.645  27.213  26.716  1.00  0.00     0.026 A 
ATOM     78  N   UNL A   1      31.584  28.124  24.487  1.00  0.00    -0.258 NA
ATOM     79  C   UNL A   1      31.548  27.060  25.332  1.00  0.00     0.060 A 
BRANCH  79  80
ATOM     80  C   UNL A   1      31.317  25.705  24.701  1.00  0.00     0.178 C 
BRANCH  80  81
ATOM     81  N   UNL A   1      31.445  24.655  25.710  1.00  0.00    -0.341 N 
ATOM     82  C   UNL A   1      30.387  24.038  26.330  1.00  0.00     0.087 A 
ATOM     83  C   UNL A   1      32.631  24.047  26.090  1.00  0.00     0.049 A 
ATOM     84  C   UNL A   1      30.873  22.935  26.995  1.00  0.00     0.028 A 
ATOM     85  C   UNL A   1      32.284  22.906  26.817  1.00  0.00    -0.000 A 
ATOM     86  C   UNL A   1      33.969  24.359  25.790  1.00  0.00     0.042 A 
ATOM     87  C   UNL A   1      33.300  22.006  27.198  1.00  0.00     0.011 A 
ATOM     88  C   UNL A   1      34.952  23.446  26.170  1.00  0.00     0.020 A 
ATOM     89  C   UNL A   1      34.629  22.277  26.851  1.00  0.00     0.016 A 
ATOM     90  Br  UNL A   1      36.757  23.789  25.709  1.00  0.00    -0.051 Br
ENDBRANCH  80  81
ENDBRANCH  79  80
ENDBRANCH  72  74
ENDBRANCH  71  72
ENDBRANCH  70  71
ENDBRANCH   1  70
TORSDOF 16
ENDMDL
MODEL 2
REMARK VINA RESULT:     -11.9      4.300      6.747
REMARK SMILES O=C(OCCOC(=O)c1ccc(Cn2ccc3ccc(Br)cc32)nc1)c1ccc(-c2c3nc(c(-c4cccc(S(=O)(=O)[O-])c4F)c4ccc([nH]4)c(-c4cccc(S(=O)(=O)[O-])c4F)c4nc(c(-c5cccc(S(=O)(=O)[O-])c5F)c5ccc2[nH]5)C=C4)C=C3)cc1
REMARK SMILES IDX 4 1 3 2 2 3 1 4 26 5 27 6 88 7 28 8 87 9 29 10 30 11 31 12
REMARK SMILES IDX 81 13 32 14 86 15 80 16 82 17 33 18 85 19 79 20 78 21 34 23
REMARK SMILES IDX 66 24 46 25 65 26 47 27 50 28 64 29 83 30 48 31 49 32 63 34
REMARK SMILES IDX 84 35 51 36 35 37 36 38 44 39 37 40 39 41 45 42 38 43 40 44
REMARK SMILES IDX 41 45 42 46 43 47 67 48 68 49 76 50 69 51 71 52 77 53 70 54
REMARK SMILES IDX 72 55 73 56 74 57 75 58 52 59 53 60 61 61 54 62 56 63 62 64
REMARK SMILES IDX 55 65 57 66 58 67 59 68 60 69 5 70 6 71 7 72 8 73 9 74 10 75
REMARK SMILES IDX 25 76 11 77 24 78 12 79 13 80 14 81 15 82 23 83 16 84 17 85
REMARK SMILES IDX 22 86 18 87 20 88 19 89 21 90
REMARK H PARENT 82 22 50 33
REMARK Flexibility Score: inf
ROOT
ATOM      1  C   UNL A   1      33.250  34.242  28.239  1.00  0.00     0.275 C 
ENDROOT
BRANCH   1   2
ATOM      2  O   UNL A   1      33.838  33.081  28.898  1.00  0.00    -0.458 OA
BRANCH   2   3
ATOM      3  C   UNL A   1      34.475  32.028  28.308  1.00  0.00     0.338 C 
ATOM      4  O   UNL A   1      34.045  31.495  27.292  1.00  0.00    -0.246 OA
BRANCH   3   5
ATOM      5  C   UNL A   1      35.606  31.437  29.044  1.00  0.00     0.060 A 
ATOM      6  C   UNL A   1      36.666  32.290  29.328  1.00  0.00     0.016 A 
ATOM      7  C   UNL A   1      35.738  30.054  29.178  1.00  0.00     0.016 A 
ATOM      8  C   UNL A   1      37.930  31.737  29.396  1.00  0.00     0.010 A 
ATOM      9  C   UNL A   1      37.010  29.502  29.252  1.00  0.00     0.010 A 
ATOM     10  C   UNL A   1      38.114  30.350  29.251  1.00  0.00    -0.014 A 
BRANCH  10  11
ATOM     11  C   UNL A   1      39.484  29.851  29.406  1.00  0.00     0.031 A 
ATOM     12  C   UNL A   1      39.988  30.183  30.765  1.00  0.00     0.074 A 
ATOM     13  C   UNL A   1      40.187  29.127  28.508  1.00  0.00     0.049 A 
ATOM     14  N   UNL A   1      40.978  30.957  31.078  1.00  0.00    -0.248 NA
ATOM     15  C   UNL A   1      39.109  29.831  31.900  1.00  0.00     0.031 C 
ATOM     16  C   UNL A   1      39.718  28.596  27.227  1.00  0.00     0.029 A 
ATOM     17  N   UNL A   1      41.448  28.594  28.609  1.00  0.00    -0.354 N 
ATOM     18  C   UNL A   1      40.975  30.970  32.468  1.00  0.00     0.074 A 
ATOM     19  C   UNL A   1      39.693  30.483  32.901  1.00  0.00     0.031 C 
ATOM     20  C   UNL A   1      40.559  27.623  26.809  1.00  0.00     0.029 A 
ATOM     21  C   UNL A   1      41.671  27.523  27.736  1.00  0.00     0.049 A 
ATOM     22  H   UNL A   1      42.128  28.933  29.234  1.00  0.00     0.167 HD
ATOM     23  C   UNL A   1      42.130  31.021  33.177  1.00  0.00     0.034 A 
ATOM     24  C   UNL A   1      42.637  26.572  27.840  1.00  0.00     0.034 A 
ATOM     25  C   UNL A   1      43.228  31.523  32.411  1.00  0.00     0.049 A 
ATOM     26  C   UNL A   1      43.691  27.130  28.714  1.00  0.00     0.074 A 
ATOM     27  C   UNL A   1      43.551  32.727  31.827  1.00  0.00     0.029 A 
ATOM     28  N   UNL A   1      44.012  30.560  31.835  1.00  0.00    -0.354 N 
ATOM     29  N   UNL A   1      44.482  28.105  28.371  1.00  0.00    -0.248 NA
ATOM     30  C   UNL A   1      43.678  26.792  30.130  1.00  0.00     0.031 C 
ATOM     31  C   UNL A   1      44.337  32.399  30.687  1.00  0.00     0.029 A 
ATOM     32  C   UNL A   1      44.493  31.013  30.640  1.00  0.00     0.049 A 
ATOM     33  H   UNL A   1      44.201  29.676  32.224  1.00  0.00     0.167 HD
ATOM     34  C   UNL A   1      44.709  28.779  29.558  1.00  0.00     0.074 A 
ATOM     35  C   UNL A   1      44.340  27.846  30.612  1.00  0.00     0.031 C 
ATOM     36  C   UNL A   1      44.872  30.131  29.558  1.00  0.00     0.034 A 
BRANCH  23  37
ATOM     37  C   UNL A   1      42.317  30.155  34.391  1.00  0.00     0.023 A 
ATOM     38  C   UNL A   1      42.775  30.733  35.584  1.00  0.00     0.012 A 
ATOM     39  C   UNL A   1      42.276  28.740  34.328  1.00  0.00     0.148 A 
ATOM     40  C   UNL A   1      43.120  29.935  36.682  1.00  0.00     0.002 A 
ATOM     41  C   UNL A   1      42.509  27.960  35.447  1.00  0.00     0.091 A 
ATOM     42  F   UNL A   1      42.150  28.133  33.140  1.00  0.00    -0.205 F 
ATOM     43  C   UNL A   1      42.952  28.553  36.627  1.00  0.00     0.022 A 
BRANCH  41  44
ATOM     44  S   UNL A   1      42.216  26.190  35.414  1.00  0.00     0.127 S 
ATOM     45  O   UNL A   1      42.591  25.805  36.771  1.00  0.00    -0.237 OA
ATOM     46  O   UNL A   1      40.784  26.128  35.121  1.00  0.00    -0.237 OA
ATOM     47  O   UNL A   1      43.064  25.684  34.341  1.00  0.00    -0.744 OA
ENDBRANCH  41  44
ENDBRANCH  23  37
BRANCH  24  48
ATOM     48  C   UNL A   1      42.663  25.126  27.470  1.00  0.00     0.023 A 
ATOM     49  C   UNL A   1      41.471  24.371  27.590  1.00  0.00     0.012 A 
ATOM     50  C   UNL A   1      43.714  24.560  26.719  1.00  0.00     0.148 A 
ATOM     51  C   UNL A   1      41.297  23.157  26.913  1.00  0.00     0.002 A 
ATOM     52  C   UNL A   1      43.542  23.343  26.057  1.00  0.00     0.091 A 
ATOM     53  F   UNL A   1      44.850  25.248  26.563  1.00  0.00    -0.205 F 
ATOM     54  C   UNL A   1      42.328  22.651  26.131  1.00  0.00     0.022 A 
BRANCH  52  55
ATOM     55  S   UNL A   1      44.836  22.640  25.024  1.00  0.00     0.127 S 
ATOM     56  O   UNL A   1      45.879  22.327  26.003  1.00  0.00    -0.237 OA
ATOM     57  O   UNL A   1      44.166  21.477  24.451  1.00  0.00    -0.237 OA
ATOM     58  O   UNL A   1      45.200  23.693  24.084  1.00  0.00    -0.744 OA
ENDBRANCH  52  55
ENDBRANCH  24  48
BRANCH  36  59
ATOM     59  C   UNL A   1      45.284  30.785  28.273  1.00  0.00     0.023 A 
ATOM     60  C   UNL A   1      44.364  31.315  27.347  1.00  0.00     0.012 A 
ATOM     61  C   UNL A   1      46.657  31.020  28.095  1.00  0.00     0.148 A 
ATOM     62  C   UNL A   1      44.814  32.075  26.264  1.00  0.00     0.002 A 
ATOM     63  C   UNL A   1      47.095  31.814  27.047  1.00  0.00     0.091 A 
ATOM     64  F   UNL A   1      47.506  30.496  28.992  1.00  0.00    -0.205 F 
ATOM     65  C   UNL A   1      46.177  32.341  26.126  1.00  0.00     0.022 A 
BRANCH  63  66
ATOM     66  S   UNL A   1      48.816  32.293  26.891  1.00  0.00     0.127 S 
ATOM     67  O   UNL A   1      48.773  33.223  25.763  1.00  0.00    -0.237 OA
ATOM     68  O   UNL A   1      49.082  32.913  28.189  1.00  0.00    -0.237 OA
ATOM     69  O   UNL A   1      49.561  31.063  26.651  1.00  0.00    -0.744 OA
ENDBRANCH  63  66
ENDBRANCH  36  59
ENDBRANCH  10  11
ENDBRANCH   3   5
ENDBRANCH   2   3
ENDBRANCH   1   2
BRANCH   1  70
ATOM     70  C   UNL A   1      33.109  35.523  29.079  1.00  0.00     0.275 C 
BRANCH  70  71
ATOM     71  O   UNL A   1      32.533  35.233  30.351  1.00  0.00    -0.458 OA
BRANCH  71  72
ATOM     72  C   UNL A   1      32.871  35.989  31.412  1.00  0.00     0.339 C 
ATOM     73  O   UNL A   1      32.434  37.083  31.723  1.00  0.00    -0.246 OA
BRANCH  72  74
ATOM     74  C   UNL A   1      33.905  35.234  32.130  1.00  0.00     0.078 A 
ATOM     75  C   UNL A   1      33.888  33.843  32.212  1.00  0.00     0.019 A 
ATOM     76  C   UNL A   1      34.848  35.928  32.867  1.00  0.00     0.127 A 
ATOM     77  C   UNL A   1      34.830  33.199  33.024  1.00  0.00     0.026 A 
ATOM     78  N   UNL A   1      35.751  35.328  33.676  1.00  0.00    -0.258 NA
ATOM     79  C   UNL A   1      35.758  33.969  33.728  1.00  0.00     0.060 A 
BRANCH  79  80
ATOM     80  C   UNL A   1      36.872  33.331  34.525  1.00  0.00     0.178 C 
BRANCH  80  81
ATOM     81  N   UNL A   1      38.159  33.588  33.881  1.00  0.00    -0.341 N 
ATOM     82  C   UNL A   1      38.322  33.844  32.542  1.00  0.00     0.087 A 
ATOM     83  C   UNL A   1      39.371  33.736  34.538  1.00  0.00     0.049 A 
ATOM     84  C   UNL A   1      39.607  34.304  32.355  1.00  0.00     0.028 A 
ATOM     85  C   UNL A   1      40.266  34.279  33.614  1.00  0.00    -0.000 A 
ATOM     86  C   UNL A   1      39.730  33.512  35.879  1.00  0.00     0.042 A 
ATOM     87  C   UNL A   1      41.542  34.681  34.059  1.00  0.00     0.011 A 
ATOM     88  C   UNL A   1      40.995  33.929  36.294  1.00  0.00     0.020 A 
ATOM     89  C   UNL A   1      41.888  34.519  35.407  1.00  0.00     0.016 A 
ATOM     90  Br  UNL A   1      41.484  33.723  38.112  1.00  0.00    -0.051 Br
ENDBRANCH  80  81
ENDBRANCH  79  80
ENDBRANCH  72  74
ENDBRANCH  71  72
ENDBRANCH  70  71
ENDBRANCH   1  70
TORSDOF 16
ENDMDL
MODEL 3
REMARK VINA RESULT:     -11.9      2.992      7.821
REMARK SMILES O=C(OCCOC(=O)c1ccc(Cn2ccc3ccc(Br)cc32)nc1)c1ccc(-c2c3nc(c(-c4cccc(S(=O)(=O)[O-])c4F)c4ccc([nH]4)c(-c4cccc(S(=O)(=O)[O-])c4F)c4nc(c(-c5cccc(S(=O)(=O)[O-])c5F)c5ccc2[nH]5)C=C4)C=C3)cc1
REMARK SMILES IDX 4 1 3 2 2 3 1 4 26 5 27 6 88 7 28 8 87 9 29 10 30 11 31 12
REMARK SMILES IDX 81 13 32 14 86 15 80 16 82 17 33 18 85 19 79 20 78 21 34 23
REMARK SMILES IDX 66 24 46 25 65 26 47 27 50 28 64 29 83 30 48 31 49 32 63 34
REMARK SMILES IDX 84 35 51 36 35 37 36 38 44 39 37 40 39 41 45 42 38 43 40 44
REMARK SMILES IDX 41 45 42 46 43 47 67 48 68 49 76 50 69 51 71 52 77 53 70 54
REMARK SMILES IDX 72 55 73 56 74 57 75 58 52 59 53 60 61 61 54 62 56 63 62 64
REMARK SMILES IDX 55 65 57 66 58 67 59 68 60 69 5 70 6 71 7 72 8 73 9 74 10 75
REMARK SMILES IDX 25 76 11 77 24 78 12 79 13 80 14 81 15 82 23 83 16 84 17 85
REMARK SMILES IDX 22 86 18 87 20 88 19 89 21 90
REMARK H PARENT 82 22 50 33
REMARK Flexibility Score: inf
ROOT
ATOM      1  C   UNL A   1      37.649  19.811  24.869  1.00  0.00     0.275 C 
ENDROOT
BRANCH   1   2
ATOM      2  O   UNL A   1      38.803  20.467  25.474  1.00  0.00    -0.458 OA
BRANCH   2   3
ATOM      3  C   UNL A   1      40.004  19.903  25.794  1.00  0.00     0.338 C 
ATOM      4  O   UNL A   1      40.217  18.705  25.652  1.00  0.00    -0.246 OA
BRANCH   3   5
ATOM      5  C   UNL A   1      40.978  20.761  26.490  1.00  0.00     0.060 A 
ATOM      6  C   UNL A   1      40.802  20.902  27.862  1.00  0.00     0.016 A 
ATOM      7  C   UNL A   1      41.829  21.612  25.782  1.00  0.00     0.016 A 
ATOM      8  C   UNL A   1      41.194  22.094  28.438  1.00  0.00     0.010 A 
ATOM      9  C   UNL A   1      42.226  22.807  26.366  1.00  0.00     0.010 A 
ATOM     10  C   UNL A   1      41.812  23.094  27.664  1.00  0.00    -0.014 A 
BRANCH  10  11
ATOM     11  C   UNL A   1      42.252  24.296  28.378  1.00  0.00     0.031 A 
ATOM     12  C   UNL A   1      41.280  25.399  28.151  1.00  0.00     0.074 A 
ATOM     13  C   UNL A   1      43.323  24.405  29.194  1.00  0.00     0.049 A 
ATOM     14  N   UNL A   1      41.487  26.528  27.550  1.00  0.00    -0.248 NA
ATOM     15  C   UNL A   1      39.854  25.079  28.371  1.00  0.00     0.031 C 
ATOM     16  C   UNL A   1      44.228  23.338  29.625  1.00  0.00     0.029 A 
ATOM     17  N   UNL A   1      43.761  25.482  29.924  1.00  0.00    -0.354 N 
ATOM     18  C   UNL A   1      40.244  27.149  27.556  1.00  0.00     0.074 A 
ATOM     19  C   UNL A   1      39.258  26.141  27.836  1.00  0.00     0.031 C 
ATOM     20  C   UNL A   1      44.917  23.747  30.715  1.00  0.00     0.029 A 
ATOM     21  C   UNL A   1      44.576  25.127  31.006  1.00  0.00     0.049 A 
ATOM     22  H   UNL A   1      43.524  26.412  29.708  1.00  0.00     0.167 HD
ATOM     23  C   UNL A   1      40.125  28.492  27.701  1.00  0.00     0.034 A 
ATOM     24  C   UNL A   1      44.854  25.883  32.101  1.00  0.00     0.034 A 
ATOM     25  C   UNL A   1      41.327  29.193  27.372  1.00  0.00     0.049 A 
ATOM     26  C   UNL A   1      44.575  27.286  31.732  1.00  0.00     0.074 A 
ATOM     27  C   UNL A   1      42.065  29.397  26.229  1.00  0.00     0.029 A 
ATOM     28  N   UNL A   1      42.133  29.481  28.441  1.00  0.00    -0.354 N 
ATOM     29  N   UNL A   1      45.291  27.976  30.893  1.00  0.00    -0.248 NA
ATOM     30  C   UNL A   1      43.282  27.858  32.082  1.00  0.00     0.031 C 
ATOM     31  C   UNL A   1      43.413  29.530  26.663  1.00  0.00     0.029 A 
ATOM     32  C   UNL A   1      43.442  29.438  28.055  1.00  0.00     0.049 A 
ATOM     33  H   UNL A   1      41.816  29.690  29.350  1.00  0.00     0.167 HD
ATOM     34  C   UNL A   1      44.371  28.809  30.280  1.00  0.00     0.074 A 
ATOM     35  C   UNL A   1      43.208  28.816  31.156  1.00  0.00     0.031 C 
ATOM     36  C   UNL A   1      44.524  29.155  28.972  1.00  0.00     0.034 A 
BRANCH  23  37
ATOM     37  C   UNL A   1      39.071  29.072  28.603  1.00  0.00     0.023 A 
ATOM     38  C   UNL A   1      38.177  30.024  28.092  1.00  0.00     0.012 A 
ATOM     39  C   UNL A   1      39.081  28.875  30.006  1.00  0.00     0.148 A 
ATOM     40  C   UNL A   1      37.294  30.705  28.938  1.00  0.00     0.002 A 
ATOM     41  C   UNL A   1      38.133  29.466  30.824  1.00  0.00     0.091 A 
ATOM     42  F   UNL A   1      40.103  28.225  30.577  1.00  0.00    -0.205 F 
ATOM     43  C   UNL A   1      37.245  30.400  30.297  1.00  0.00     0.022 A 
BRANCH  41  44
ATOM     44  S   UNL A   1      38.006  29.020  32.557  1.00  0.00     0.127 S 
ATOM     45  O   UNL A   1      36.690  29.547  32.901  1.00  0.00    -0.237 OA
ATOM     46  O   UNL A   1      38.099  27.561  32.500  1.00  0.00    -0.237 OA
ATOM     47  O   UNL A   1      39.148  29.661  33.200  1.00  0.00    -0.744 OA
ENDBRANCH  41  44
ENDBRANCH  23  37
BRANCH  24  48
ATOM     48  C   UNL A   1      45.110  25.523  33.528  1.00  0.00     0.023 A 
ATOM     49  C   UNL A   1      46.450  25.412  33.972  1.00  0.00     0.012 A 
ATOM     50  C   UNL A   1      44.106  25.601  34.515  1.00  0.00     0.148 A 
ATOM     51  C   UNL A   1      46.783  25.474  35.331  1.00  0.00     0.002 A 
ATOM     52  C   UNL A   1      44.440  25.649  35.869  1.00  0.00     0.091 A 
ATOM     53  F   UNL A   1      42.829  25.729  34.139  1.00  0.00    -0.205 F 
ATOM     54  C   UNL A   1      45.777  25.611  36.280  1.00  0.00     0.022 A 
BRANCH  52  55
ATOM     55  S   UNL A   1      43.185  25.832  37.144  1.00  0.00     0.127 S 
ATOM     56  O   UNL A   1      42.787  27.232  36.990  1.00  0.00    -0.237 OA
ATOM     57  O   UNL A   1      42.181  24.860  36.721  1.00  0.00    -0.237 OA
ATOM     58  O   UNL A   1      43.861  25.541  38.402  1.00  0.00    -0.744 OA
ENDBRANCH  52  55
ENDBRANCH  24  48
BRANCH  36  59
ATOM     59  C   UNL A   1      45.896  29.042  28.375  1.00  0.00     0.023 A 
ATOM     60  C   UNL A   1      46.887  30.032  28.526  1.00  0.00     0.012 A 
ATOM     61  C   UNL A   1      46.232  27.809  27.794  1.00  0.00     0.148 A 
ATOM     62  C   UNL A   1      48.197  29.785  28.107  1.00  0.00     0.002 A 
ATOM     63  C   UNL A   1      47.543  27.551  27.424  1.00  0.00     0.091 A 
ATOM     64  F   UNL A   1      45.262  26.891  27.660  1.00  0.00    -0.205 F 
ATOM     65  C   UNL A   1      48.529  28.538  27.575  1.00  0.00     0.022 A 
BRANCH  63  66
ATOM     66  S   UNL A   1      48.053  25.930  26.853  1.00  0.00     0.127 S 
ATOM     67  O   UNL A   1      47.184  25.726  25.695  1.00  0.00    -0.237 OA
ATOM     68  O   UNL A   1      49.463  26.147  26.532  1.00  0.00    -0.237 OA
ATOM     69  O   UNL A   1      47.826  25.015  27.966  1.00  0.00    -0.744 OA
ENDBRANCH  63  66
ENDBRANCH  36  59
ENDBRANCH  10  11
ENDBRANCH   3   5
ENDBRANCH   2   3
ENDBRANCH   1   2
BRANCH   1  70
ATOM     70  C   UNL A   1      36.297  20.537  24.977  1.00  0.00     0.275 C 
BRANCH  70  71
ATOM     71  O   UNL A   1      36.478  21.951  24.913  1.00  0.00    -0.458 OA
BRANCH  71  72
ATOM     72  C   UNL A   1      36.102  22.610  23.801  1.00  0.00     0.339 C 
ATOM     73  O   UNL A   1      36.740  22.774  22.776  1.00  0.00    -0.246 OA
BRANCH  72  74
ATOM     74  C   UNL A   1      34.753  23.120  24.073  1.00  0.00     0.078 A 
ATOM     75  C   UNL A   1      33.855  23.427  23.052  1.00  0.00     0.019 A 
ATOM     76  C   UNL A   1      34.409  23.441  25.374  1.00  0.00     0.127 A 
ATOM     77  C   UNL A   1      32.637  24.035  23.380  1.00  0.00     0.026 A 
ATOM     78  N   UNL A   1      33.250  24.050  25.711  1.00  0.00    -0.258 NA
ATOM     79  C   UNL A   1      32.358  24.316  24.720  1.00  0.00     0.060 A 
BRANCH  79  80
ATOM     80  C   UNL A   1      31.015  24.861  25.150  1.00  0.00     0.178 C 
BRANCH  80  81
ATOM     81  N   UNL A   1      30.788  26.171  24.542  1.00  0.00    -0.341 N 
ATOM     82  C   UNL A   1      29.811  26.441  23.616  1.00  0.00     0.087 A 
ATOM     83  C   UNL A   1      31.432  27.345  24.900  1.00  0.00     0.049 A 
ATOM     84  C   UNL A   1      29.722  27.809  23.486  1.00  0.00     0.028 A 
ATOM     85  C   UNL A   1      30.712  28.392  24.322  1.00  0.00    -0.000 A 
ATOM     86  C   UNL A   1      32.534  27.576  25.743  1.00  0.00     0.042 A 
ATOM     87  C   UNL A   1      31.057  29.719  24.653  1.00  0.00     0.011 A 
ATOM     88  C   UNL A   1      32.845  28.898  26.061  1.00  0.00     0.020 A 
ATOM     89  C   UNL A   1      32.114  29.958  25.539  1.00  0.00     0.016 A 
ATOM     90  Br  UNL A   1      34.269  29.247  27.261  1.00  0.00    -0.051 Br
ENDBRANCH  80  81
ENDBRANCH  79  80
ENDBRANCH  72  74
ENDBRANCH  71  72
ENDBRANCH  70  71
ENDBRANCH   1  70
TORSDOF 16
ENDMDL
