MODEL 1
REMARK VINA RESULT:     -12.5      0.000      0.000
REMARK SMILES CC(C)(C)c1cc2c(cc1Cl)C=C(C(=O)OCCOC(=O)c1ccc(-c3c4nc(c(-c5cccc(S(=O)(=O)[O-])c5F)c5ccc([nH]5)c(-c5cccc(S(=O)(=O)[O-])c5F)c5nc(c(-c6cccc(S(=O)(=O)[O-])c6F)c6ccc3[nH]6)C=C5)C=C4)cc1)[C@@H](C(F)(F)F)O2
REMARK SMILES IDX 18 1 17 2 16 3 14 4 15 5 13 6 5 7 6 8 10 9 7 10 9 11 11 12
REMARK SMILES IDX 8 13 90 14 12 15 85 16 2 17 1 18 3 19 4 20 86 21 87 22 88 23
REMARK SMILES IDX 89 24 19 25 20 26 21 27 22 28 23 29 84 30 24 31 83 32 25 33
REMARK SMILES IDX 26 34 27 35 77 36 28 37 82 38 76 39 78 40 29 41 81 42 75 43
REMARK SMILES IDX 74 44 30 46 62 47 42 48 61 49 43 50 46 51 60 52 79 53 44 54
REMARK SMILES IDX 45 55 59 57 80 58 47 59 31 60 32 61 40 62 33 63 35 64 41 65
REMARK SMILES IDX 34 66 36 67 37 68 38 69 39 70 63 71 64 72 72 73 65 74 67 75
REMARK SMILES IDX 73 76 66 77 68 78 69 79 70 80 71 81 48 82 49 83 57 84 50 85
REMARK SMILES IDX 52 86 58 87 51 88 53 89 54 90 55 91 56 92
REMARK H PARENT 78 45 46 56
REMARK Flexibility Score: inf
ROOT
ATOM      1  C   UNL A   1      37.534  20.489  24.863  1.00  0.00     0.275 C 
ENDROOT
BRANCH   1   2
ATOM      2  C   UNL A   1      36.023  20.311  25.028  1.00  0.00     0.275 C 
BRANCH   2   3
ATOM      3  O   UNL A   1      35.290  21.315  24.293  1.00  0.00    -0.459 OA
BRANCH   3   4
ATOM      4  C   UNL A   1      33.944  21.266  24.439  1.00  0.00     0.338 C 
ATOM      5  O   UNL A   1      33.232  20.295  24.259  1.00  0.00    -0.246 OA
BRANCH   4   6
ATOM      6  C   UNL A   1      33.423  22.568  24.898  1.00  0.00     0.087 C 
ATOM      7  C   UNL A   1      32.708  27.535  25.618  1.00  0.00    -0.020 A 
ATOM      8  C   UNL A   1      32.337  26.346  26.304  1.00  0.00     0.053 A 
ATOM      9  C   UNL A   1      33.400  27.360  24.397  1.00  0.00     0.045 A 
ATOM     10  C   UNL A   1      32.658  25.070  25.831  1.00  0.00     0.128 A 
ATOM     11  C   UNL A   1      33.723  26.082  23.928  1.00  0.00     0.032 A 
ATOM     12  Cl  UNL A   1      33.910  28.644  23.358  1.00  0.00    -0.084 Cl
ATOM     13  C   UNL A   1      33.364  24.945  24.648  1.00  0.00     0.019 A 
ATOM     14  O   UNL A   1      32.240  24.001  26.575  1.00  0.00    -0.475 OA
ATOM     15  C   UNL A   1      33.753  23.640  24.173  1.00  0.00     0.027 C 
ATOM     16  C   UNL A   1      32.669  22.658  26.192  1.00  0.00     0.316 C 
BRANCH   7  17
ATOM     17  C   UNL A   1      32.338  28.920  26.204  1.00  0.00    -0.012 C 
ATOM     18  C   UNL A   1      31.465  29.742  25.229  1.00  0.00     0.016 C 
ATOM     19  C   UNL A   1      33.575  29.815  26.491  1.00  0.00     0.016 C 
ATOM     20  C   UNL A   1      31.617  28.744  27.558  1.00  0.00     0.016 C 
ENDBRANCH   7  17
BRANCH  16  21
ATOM     21  C   UNL A   1      33.469  22.050  27.354  1.00  0.00     0.430 C 
ATOM     22  F   UNL A   1      33.490  20.696  27.281  1.00  0.00    -0.167 F 
ATOM     23  F   UNL A   1      34.764  22.452  27.335  1.00  0.00    -0.167 F 
ATOM     24  F   UNL A   1      32.959  22.382  28.561  1.00  0.00    -0.167 F 
ENDBRANCH  16  21
ENDBRANCH   4   6
ENDBRANCH   3   4
ENDBRANCH   2   3
ENDBRANCH   1   2
BRANCH   1  25
ATOM     25  O   UNL A   1      38.024  21.509  25.751  1.00  0.00    -0.458 OA
BRANCH  25  26
ATOM     26  C   UNL A   1      39.262  21.299  26.251  1.00  0.00     0.338 C 
ATOM     27  O   UNL A   1      39.898  20.257  26.244  1.00  0.00    -0.246 OA
BRANCH  26  28
ATOM     28  C   UNL A   1      39.792  22.564  26.778  1.00  0.00     0.060 A 
ATOM     29  C   UNL A   1      40.856  22.582  27.673  1.00  0.00     0.016 A 
ATOM     30  C   UNL A   1      39.280  23.756  26.279  1.00  0.00     0.016 A 
ATOM     31  C   UNL A   1      41.382  23.816  28.080  1.00  0.00     0.010 A 
ATOM     32  C   UNL A   1      39.906  24.964  26.557  1.00  0.00     0.010 A 
ATOM     33  C   UNL A   1      40.931  25.024  27.507  1.00  0.00    -0.014 A 
BRANCH  33  34
ATOM     34  C   UNL A   1      41.481  26.347  27.918  1.00  0.00     0.031 A 
ATOM     35  C   UNL A   1      42.897  26.739  27.547  1.00  0.00     0.074 A 
ATOM     36  C   UNL A   1      40.738  27.184  28.671  1.00  0.00     0.049 A 
ATOM     37  N   UNL A   1      43.558  27.825  27.857  1.00  0.00    -0.248 NA
ATOM     38  C   UNL A   1      43.690  25.773  26.765  1.00  0.00     0.031 C 
ATOM     39  C   UNL A   1      39.401  26.894  29.194  1.00  0.00     0.029 A 
ATOM     40  N   UNL A   1      41.002  28.452  29.126  1.00  0.00    -0.354 N 
ATOM     41  C   UNL A   1      44.847  27.643  27.367  1.00  0.00     0.074 A 
ATOM     42  C   UNL A   1      44.893  26.326  26.775  1.00  0.00     0.031 C 
ATOM     43  C   UNL A   1      38.939  27.974  29.847  1.00  0.00     0.029 A 
ATOM     44  C   UNL A   1      39.957  29.019  29.819  1.00  0.00     0.049 A 
ATOM     45  H   UNL A   1      41.857  28.914  28.972  1.00  0.00     0.167 HD
ATOM     46  C   UNL A   1      45.889  28.507  27.358  1.00  0.00     0.034 A 
ATOM     47  C   UNL A   1      39.822  30.247  30.358  1.00  0.00     0.034 A 
ATOM     48  C   UNL A   1      45.811  29.861  27.827  1.00  0.00     0.049 A 
ATOM     49  C   UNL A   1      40.949  31.233  30.232  1.00  0.00     0.074 A 
ATOM     50  C   UNL A   1      46.769  30.854  27.742  1.00  0.00     0.029 A 
ATOM     51  N   UNL A   1      44.704  30.418  28.443  1.00  0.00    -0.354 N 
ATOM     52  N   UNL A   1      42.112  31.078  29.648  1.00  0.00    -0.248 NA
ATOM     53  C   UNL A   1      40.740  32.566  30.814  1.00  0.00     0.031 C 
ATOM     54  C   UNL A   1      46.236  32.020  28.301  1.00  0.00     0.029 A 
ATOM     55  C   UNL A   1      44.949  31.746  28.736  1.00  0.00     0.049 A 
ATOM     56  H   UNL A   1      43.866  29.940  28.642  1.00  0.00     0.167 HD
ATOM     57  C   UNL A   1      42.772  32.293  29.786  1.00  0.00     0.074 A 
ATOM     58  C   UNL A   1      41.868  33.184  30.484  1.00  0.00     0.031 C 
ATOM     59  C   UNL A   1      44.022  32.631  29.390  1.00  0.00     0.034 A 
BRANCH  46  60
ATOM     60  C   UNL A   1      47.176  28.057  26.719  1.00  0.00     0.023 A 
ATOM     61  C   UNL A   1      48.229  27.608  27.541  1.00  0.00     0.012 A 
ATOM     62  C   UNL A   1      47.317  28.000  25.318  1.00  0.00     0.148 A 
ATOM     63  C   UNL A   1      49.411  27.128  26.982  1.00  0.00     0.002 A 
ATOM     64  C   UNL A   1      48.486  27.486  24.768  1.00  0.00     0.091 A 
ATOM     65  F   UNL A   1      46.307  28.440  24.555  1.00  0.00    -0.205 F 
ATOM     66  C   UNL A   1      49.536  27.058  25.598  1.00  0.00     0.022 A 
BRANCH  64  67
ATOM     67  S   UNL A   1      48.734  27.292  22.999  1.00  0.00     0.127 S 
ATOM     68  O   UNL A   1      50.185  27.432  22.887  1.00  0.00    -0.237 OA
ATOM     69  O   UNL A   1      48.233  25.939  22.767  1.00  0.00    -0.237 OA
ATOM     70  O   UNL A   1      47.962  28.351  22.363  1.00  0.00    -0.744 OA
ENDBRANCH  64  67
ENDBRANCH  46  60
BRANCH  47  71
ATOM     71  C   UNL A   1      38.522  30.635  30.972  1.00  0.00     0.023 A 
ATOM     72  C   UNL A   1      38.315  30.382  32.342  1.00  0.00     0.012 A 
ATOM     73  C   UNL A   1      37.532  31.317  30.238  1.00  0.00     0.148 A 
ATOM     74  C   UNL A   1      37.143  30.799  32.973  1.00  0.00     0.002 A 
ATOM     75  C   UNL A   1      36.383  31.763  30.881  1.00  0.00     0.091 A 
ATOM     76  F   UNL A   1      37.753  31.541  28.935  1.00  0.00    -0.205 F 
ATOM     77  C   UNL A   1      36.183  31.498  32.245  1.00  0.00     0.022 A 
BRANCH  75  78
ATOM     78  S   UNL A   1      35.138  32.764  30.061  1.00  0.00     0.127 S 
ATOM     79  O   UNL A   1      34.203  33.030  31.152  1.00  0.00    -0.237 OA
ATOM     80  O   UNL A   1      35.923  33.921  29.627  1.00  0.00    -0.237 OA
ATOM     81  O   UNL A   1      34.618  31.943  28.977  1.00  0.00    -0.744 OA
ENDBRANCH  75  78
ENDBRANCH  47  71
BRANCH  59  82
ATOM     82  C   UNL A   1      44.509  34.017  29.700  1.00  0.00     0.023 A 
ATOM     83  C   UNL A   1      45.203  34.243  30.905  1.00  0.00     0.012 A 
ATOM     84  C   UNL A   1      44.398  35.052  28.753  1.00  0.00     0.148 A 
ATOM     85  C   UNL A   1      45.775  35.486  31.166  1.00  0.00     0.002 A 
ATOM     86  C   UNL A   1      44.998  36.280  29.007  1.00  0.00     0.091 A 
ATOM     87  F   UNL A   1      43.725  34.811  27.618  1.00  0.00    -0.205 F 
ATOM     88  C   UNL A   1      45.683  36.499  30.213  1.00  0.00     0.022 A 
BRANCH  86  89
ATOM     89  S   UNL A   1      45.002  37.620  27.810  1.00  0.00     0.127 S 
ATOM     90  O   UNL A   1      45.698  37.007  26.680  1.00  0.00    -0.237 OA
ATOM     91  O   UNL A   1      43.572  37.848  27.596  1.00  0.00    -0.237 OA
ATOM     92  O   UNL A   1      45.703  38.727  28.446  1.00  0.00    -0.744 OA
ENDBRANCH  86  89
ENDBRANCH  59  82
ENDBRANCH  33  34
ENDBRANCH  26  28
ENDBRANCH  25  26
ENDBRANCH   1  25
TORSDOF 16
ENDMDL
MODEL 2
REMARK VINA RESULT:     -12.3      5.284     10.421
REMARK SMILES CC(C)(C)c1cc2c(cc1Cl)C=C(C(=O)OCCOC(=O)c1ccc(-c3c4nc(c(-c5cccc(S(=O)(=O)[O-])c5F)c5ccc([nH]5)c(-c5cccc(S(=O)(=O)[O-])c5F)c5nc(c(-c6cccc(S(=O)(=O)[O-])c6F)c6ccc3[nH]6)C=C5)C=C4)cc1)[C@@H](C(F)(F)F)O2
REMARK SMILES IDX 18 1 17 2 16 3 14 4 15 5 13 6 5 7 6 8 10 9 7 10 9 11 11 12
REMARK SMILES IDX 8 13 90 14 12 15 85 16 2 17 1 18 3 19 4 20 86 21 87 22 88 23
REMARK SMILES IDX 89 24 19 25 20 26 21 27 22 28 23 29 84 30 24 31 83 32 25 33
REMARK SMILES IDX 26 34 27 35 77 36 28 37 82 38 76 39 78 40 29 41 81 42 75 43
REMARK SMILES IDX 74 44 30 46 62 47 42 48 61 49 43 50 46 51 60 52 79 53 44 54
REMARK SMILES IDX 45 55 59 57 80 58 47 59 31 60 32 61 40 62 33 63 35 64 41 65
REMARK SMILES IDX 34 66 36 67 37 68 38 69 39 70 63 71 64 72 72 73 65 74 67 75
REMARK SMILES IDX 73 76 66 77 68 78 69 79 70 80 71 81 48 82 49 83 57 84 50 85
REMARK SMILES IDX 52 86 58 87 51 88 53 89 54 90 55 91 56 92
REMARK H PARENT 78 45 46 56
REMARK Flexibility Score: inf
ROOT
ATOM      1  C   UNL A   1      31.512  31.545  26.642  1.00  0.00     0.275 C 
ENDROOT
BRANCH   1   2
ATOM      2  C   UNL A   1      31.070  30.782  25.392  1.00  0.00     0.275 C 
BRANCH   2   3
ATOM      3  O   UNL A   1      31.404  29.380  25.482  1.00  0.00    -0.459 OA
BRANCH   3   4
ATOM      4  C   UNL A   1      30.938  28.612  24.469  1.00  0.00     0.338 C 
ATOM      5  O   UNL A   1      29.942  28.821  23.800  1.00  0.00    -0.246 OA
BRANCH   4   6
ATOM      6  C   UNL A   1      31.835  27.464  24.233  1.00  0.00     0.087 C 
ATOM      7  C   UNL A   1      34.980  23.541  24.880  1.00  0.00    -0.020 A 
ATOM      8  C   UNL A   1      34.650  24.410  23.804  1.00  0.00     0.053 A 
ATOM      9  C   UNL A   1      34.249  23.724  26.076  1.00  0.00     0.045 A 
ATOM     10  C   UNL A   1      33.683  25.415  23.915  1.00  0.00     0.128 A 
ATOM     11  C   UNL A   1      33.285  24.732  26.185  1.00  0.00     0.032 A 
ATOM     12  Cl  UNL A   1      34.430  22.762  27.502  1.00  0.00    -0.084 Cl
ATOM     13  C   UNL A   1      33.014  25.580  25.114  1.00  0.00     0.019 A 
ATOM     14  O   UNL A   1      33.447  26.183  22.808  1.00  0.00    -0.475 OA
ATOM     15  C   UNL A   1      32.054  26.647  25.265  1.00  0.00     0.027 C 
ATOM     16  C   UNL A   1      32.547  27.329  22.919  1.00  0.00     0.316 C 
BRANCH   7  17
ATOM     17  C   UNL A   1      36.073  22.459  24.699  1.00  0.00    -0.012 C 
ATOM     18  C   UNL A   1      35.507  21.032  24.887  1.00  0.00     0.016 C 
ATOM     19  C   UNL A   1      37.228  22.575  25.731  1.00  0.00     0.016 C 
ATOM     20  C   UNL A   1      36.730  22.600  23.309  1.00  0.00     0.016 C 
ENDBRANCH   7  17
BRANCH  16  21
ATOM     21  C   UNL A   1      33.332  28.603  22.569  1.00  0.00     0.430 C 
ATOM     22  F   UNL A   1      34.269  28.357  21.621  1.00  0.00    -0.167 F 
ATOM     23  F   UNL A   1      32.524  29.566  22.064  1.00  0.00    -0.167 F 
ATOM     24  F   UNL A   1      33.968  29.127  23.640  1.00  0.00    -0.167 F 
ENDBRANCH  16  21
ENDBRANCH   4   6
ENDBRANCH   3   4
ENDBRANCH   2   3
ENDBRANCH   1   2
BRANCH   1  25
ATOM     25  O   UNL A   1      32.906  31.315  26.911  1.00  0.00    -0.458 OA
BRANCH  25  26
ATOM     26  C   UNL A   1      33.569  32.351  27.472  1.00  0.00     0.338 C 
ATOM     27  O   UNL A   1      33.186  33.504  27.581  1.00  0.00    -0.246 OA
BRANCH  26  28
ATOM     28  C   UNL A   1      34.848  31.871  28.011  1.00  0.00     0.060 A 
ATOM     29  C   UNL A   1      35.883  32.752  28.303  1.00  0.00     0.016 A 
ATOM     30  C   UNL A   1      34.969  30.523  28.330  1.00  0.00     0.016 A 
ATOM     31  C   UNL A   1      37.052  32.256  28.896  1.00  0.00     0.010 A 
ATOM     32  C   UNL A   1      36.058  30.066  29.062  1.00  0.00     0.010 A 
ATOM     33  C   UNL A   1      37.145  30.911  29.308  1.00  0.00    -0.014 A 
BRANCH  33  34
ATOM     34  C   UNL A   1      38.375  30.364  29.949  1.00  0.00     0.031 A 
ATOM     35  C   UNL A   1      38.741  30.752  31.367  1.00  0.00     0.074 A 
ATOM     36  C   UNL A   1      39.202  29.559  29.249  1.00  0.00     0.049 A 
ATOM     37  N   UNL A   1      39.793  30.413  32.068  1.00  0.00    -0.248 NA
ATOM     38  C   UNL A   1      37.835  31.673  32.077  1.00  0.00     0.031 C 
ATOM     39  C   UNL A   1      39.034  29.188  27.842  1.00  0.00     0.029 A 
ATOM     40  N   UNL A   1      40.348  28.904  29.627  1.00  0.00    -0.354 N 
ATOM     41  C   UNL A   1      39.703  31.123  33.261  1.00  0.00     0.074 A 
ATOM     42  C   UNL A   1      38.519  31.945  33.178  1.00  0.00     0.031 C 
ATOM     43  C   UNL A   1      40.005  28.328  27.493  1.00  0.00     0.029 A 
ATOM     44  C   UNL A   1      40.883  28.112  28.639  1.00  0.00     0.049 A 
ATOM     45  H   UNL A   1      40.749  28.993  30.522  1.00  0.00     0.167 HD
ATOM     46  C   UNL A   1      40.500  31.062  34.354  1.00  0.00     0.034 A 
ATOM     47  C   UNL A   1      41.950  27.288  28.654  1.00  0.00     0.034 A 
ATOM     48  C   UNL A   1      41.602  30.153  34.492  1.00  0.00     0.049 A 
ATOM     49  C   UNL A   1      42.752  27.146  29.917  1.00  0.00     0.074 A 
ATOM     50  C   UNL A   1      42.388  29.923  35.607  1.00  0.00     0.029 A 
ATOM     51  N   UNL A   1      42.055  29.306  33.495  1.00  0.00    -0.354 N 
ATOM     52  N   UNL A   1      42.568  27.732  31.074  1.00  0.00    -0.248 NA
ATOM     53  C   UNL A   1      43.889  26.216  29.886  1.00  0.00     0.031 C 
ATOM     54  C   UNL A   1      43.316  28.927  35.284  1.00  0.00     0.029 A 
ATOM     55  C   UNL A   1      43.105  28.543  33.970  1.00  0.00     0.049 A 
ATOM     56  H   UNL A   1      41.684  29.256  32.584  1.00  0.00     0.167 HD
ATOM     57  C   UNL A   1      43.561  27.238  31.912  1.00  0.00     0.074 A 
ATOM     58  C   UNL A   1      44.327  26.283  31.138  1.00  0.00     0.031 C 
ATOM     59  C   UNL A   1      43.826  27.565  33.199  1.00  0.00     0.034 A 
BRANCH  46  60
ATOM     60  C   UNL A   1      40.145  31.923  35.537  1.00  0.00     0.023 A 
ATOM     61  C   UNL A   1      40.830  33.140  35.730  1.00  0.00     0.012 A 
ATOM     62  C   UNL A   1      39.090  31.576  36.405  1.00  0.00     0.148 A 
ATOM     63  C   UNL A   1      40.487  33.990  36.778  1.00  0.00     0.002 A 
ATOM     64  C   UNL A   1      38.731  32.446  37.428  1.00  0.00     0.091 A 
ATOM     65  F   UNL A   1      38.459  30.410  36.209  1.00  0.00    -0.205 F 
ATOM     66  C   UNL A   1      39.433  33.648  37.621  1.00  0.00     0.022 A 
BRANCH  64  67
ATOM     67  S   UNL A   1      37.350  32.138  38.536  1.00  0.00     0.127 S 
ATOM     68  O   UNL A   1      37.863  32.665  39.800  1.00  0.00    -0.237 OA
ATOM     69  O   UNL A   1      36.288  32.938  37.929  1.00  0.00    -0.237 OA
ATOM     70  O   UNL A   1      37.126  30.700  38.513  1.00  0.00    -0.744 OA
ENDBRANCH  64  67
ENDBRANCH  46  60
BRANCH  47  71
ATOM     71  C   UNL A   1      42.247  26.459  27.453  1.00  0.00     0.023 A 
ATOM     72  C   UNL A   1      42.949  27.042  26.381  1.00  0.00     0.012 A 
ATOM     73  C   UNL A   1      41.915  25.091  27.399  1.00  0.00     0.148 A 
ATOM     74  C   UNL A   1      43.315  26.279  25.272  1.00  0.00     0.002 A 
ATOM     75  C   UNL A   1      42.315  24.328  26.308  1.00  0.00     0.091 A 
ATOM     76  F   UNL A   1      41.243  24.563  28.431  1.00  0.00    -0.205 F 
ATOM     77  C   UNL A   1      43.007  24.921  25.241  1.00  0.00     0.022 A 
BRANCH  75  78
ATOM     78  S   UNL A   1      42.063  22.552  26.220  1.00  0.00     0.127 S 
ATOM     79  O   UNL A   1      42.711  22.221  24.953  1.00  0.00    -0.237 OA
ATOM     80  O   UNL A   1      42.773  22.090  27.414  1.00  0.00    -0.237 OA
ATOM     81  O   UNL A   1      40.622  22.353  26.257  1.00  0.00    -0.744 OA
ENDBRANCH  75  78
ENDBRANCH  47  71
BRANCH  59  82
ATOM     82  C   UNL A   1      44.996  26.901  33.868  1.00  0.00     0.023 A 
ATOM     83  C   UNL A   1      46.264  27.508  33.785  1.00  0.00     0.012 A 
ATOM     84  C   UNL A   1      44.816  25.764  34.678  1.00  0.00     0.148 A 
ATOM     85  C   UNL A   1      47.342  26.986  34.496  1.00  0.00     0.002 A 
ATOM     86  C   UNL A   1      45.889  25.268  35.409  1.00  0.00     0.091 A 
ATOM     87  F   UNL A   1      43.599  25.203  34.731  1.00  0.00    -0.205 F 
ATOM     88  C   UNL A   1      47.152  25.875  35.316  1.00  0.00     0.022 A 
BRANCH  86  89
ATOM     89  S   UNL A   1      45.727  23.891  36.551  1.00  0.00     0.127 S 
ATOM     90  O   UNL A   1      44.779  24.425  37.528  1.00  0.00    -0.237 OA
ATOM     91  O   UNL A   1      45.188  22.837  35.691  1.00  0.00    -0.237 OA
ATOM     92  O   UNL A   1      47.066  23.630  37.062  1.00  0.00    -0.744 OA
ENDBRANCH  86  89
ENDBRANCH  59  82
ENDBRANCH  33  34
ENDBRANCH  26  28
ENDBRANCH  25  26
ENDBRANCH   1  25
TORSDOF 16
ENDMDL
MODEL 3
REMARK VINA RESULT:     -12.3      5.561     11.950
REMARK SMILES CC(C)(C)c1cc2c(cc1Cl)C=C(C(=O)OCCOC(=O)c1ccc(-c3c4nc(c(-c5cccc(S(=O)(=O)[O-])c5F)c5ccc([nH]5)c(-c5cccc(S(=O)(=O)[O-])c5F)c5nc(c(-c6cccc(S(=O)(=O)[O-])c6F)c6ccc3[nH]6)C=C5)C=C4)cc1)[C@@H](C(F)(F)F)O2
REMARK SMILES IDX 18 1 17 2 16 3 14 4 15 5 13 6 5 7 6 8 10 9 7 10 9 11 11 12
REMARK SMILES IDX 8 13 90 14 12 15 85 16 2 17 1 18 3 19 4 20 86 21 87 22 88 23
REMARK SMILES IDX 89 24 19 25 20 26 21 27 22 28 23 29 84 30 24 31 83 32 25 33
REMARK SMILES IDX 26 34 27 35 77 36 28 37 82 38 76 39 78 40 29 41 81 42 75 43
REMARK SMILES IDX 74 44 30 46 62 47 42 48 61 49 43 50 46 51 60 52 79 53 44 54
REMARK SMILES IDX 45 55 59 57 80 58 47 59 31 60 32 61 40 62 33 63 35 64 41 65
REMARK SMILES IDX 34 66 36 67 37 68 38 69 39 70 63 71 64 72 72 73 65 74 67 75
REMARK SMILES IDX 73 76 66 77 68 78 69 79 70 80 71 81 48 82 49 83 57 84 50 85
REMARK SMILES IDX 52 86 58 87 51 88 53 89 54 90 55 91 56 92
REMARK H PARENT 78 45 46 56
REMARK Flexibility Score: inf
ROOT
ATOM      1  C   UNL A   1      33.305  33.857  28.274  1.00  0.00     0.275 C 
ENDROOT
BRANCH   1   2
ATOM      2  C   UNL A   1      34.168  34.893  28.998  1.00  0.00     0.275 C 
BRANCH   2   3
ATOM      3  O   UNL A   1      34.017  34.798  30.431  1.00  0.00    -0.459 OA
BRANCH   3   4
ATOM      4  C   UNL A   1      34.641  33.742  31.006  1.00  0.00     0.338 C 
ATOM      5  O   UNL A   1      34.229  32.597  31.057  1.00  0.00    -0.246 OA
BRANCH   4   6
ATOM      6  C   UNL A   1      35.949  34.148  31.554  1.00  0.00     0.087 C 
ATOM      7  C   UNL A   1      40.925  34.665  32.374  1.00  0.00    -0.020 A 
ATOM      8  C   UNL A   1      39.743  34.894  33.130  1.00  0.00     0.053 A 
ATOM      9  C   UNL A   1      40.738  34.241  31.038  1.00  0.00     0.045 A 
ATOM     10  C   UNL A   1      38.462  34.686  32.609  1.00  0.00     0.128 A 
ATOM     11  C   UNL A   1      39.456  34.031  30.520  1.00  0.00     0.032 A 
ATOM     12  Cl  UNL A   1      42.013  33.949  29.907  1.00  0.00    -0.084 Cl
ATOM     13  C   UNL A   1      38.326  34.241  31.306  1.00  0.00     0.019 A 
ATOM     14  O   UNL A   1      37.400  34.949  33.430  1.00  0.00    -0.475 OA
ATOM     15  C   UNL A   1      37.015  33.968  30.770  1.00  0.00     0.027 C 
ATOM     16  C   UNL A   1      36.052  34.617  32.976  1.00  0.00     0.316 C 
BRANCH   7  17
ATOM     17  C   UNL A   1      42.316  34.896  33.015  1.00  0.00    -0.012 C 
ATOM     18  C   UNL A   1      43.221  35.776  32.122  1.00  0.00     0.016 C 
ATOM     19  C   UNL A   1      43.117  33.584  33.232  1.00  0.00     0.016 C 
ATOM     20  C   UNL A   1      42.154  35.533  34.412  1.00  0.00     0.016 C 
ENDBRANCH   7  17
BRANCH  16  21
ATOM     21  C   UNL A   1      35.444  33.598  33.951  1.00  0.00     0.430 C 
ATOM     22  F   UNL A   1      35.833  32.335  33.649  1.00  0.00    -0.167 F 
ATOM     23  F   UNL A   1      35.845  33.824  35.226  1.00  0.00    -0.167 F 
ATOM     24  F   UNL A   1      34.092  33.618  33.942  1.00  0.00    -0.167 F 
ENDBRANCH  16  21
ENDBRANCH   4   6
ENDBRANCH   3   4
ENDBRANCH   2   3
ENDBRANCH   1   2
BRANCH   1  25
ATOM     25  O   UNL A   1      34.109  33.055  27.392  1.00  0.00    -0.458 OA
BRANCH  25  26
ATOM     26  C   UNL A   1      34.007  31.718  27.567  1.00  0.00     0.338 C 
ATOM     27  O   UNL A   1      33.053  31.006  27.298  1.00  0.00    -0.246 OA
BRANCH  26  28
ATOM     28  C   UNL A   1      35.277  31.202  28.093  1.00  0.00     0.060 A 
ATOM     29  C   UNL A   1      36.438  31.967  28.056  1.00  0.00     0.016 A 
ATOM     30  C   UNL A   1      35.276  29.969  28.736  1.00  0.00     0.016 A 
ATOM     31  C   UNL A   1      37.604  31.464  28.649  1.00  0.00     0.010 A 
ATOM     32  C   UNL A   1      36.384  29.549  29.461  1.00  0.00     0.010 A 
ATOM     33  C   UNL A   1      37.586  30.260  29.383  1.00  0.00    -0.014 A 
BRANCH  33  34
ATOM     34  C   UNL A   1      38.813  29.712  30.029  1.00  0.00     0.031 A 
ATOM     35  C   UNL A   1      39.174  30.102  31.448  1.00  0.00     0.074 A 
ATOM     36  C   UNL A   1      39.639  28.902  29.335  1.00  0.00     0.049 A 
ATOM     37  N   UNL A   1      40.222  29.762  32.154  1.00  0.00    -0.248 NA
ATOM     38  C   UNL A   1      38.268  31.028  32.153  1.00  0.00     0.031 C 
ATOM     39  C   UNL A   1      39.476  28.529  27.928  1.00  0.00     0.029 A 
ATOM     40  N   UNL A   1      40.782  28.246  29.719  1.00  0.00    -0.354 N 
ATOM     41  C   UNL A   1      40.130  30.475  33.345  1.00  0.00     0.074 A 
ATOM     42  C   UNL A   1      38.949  31.300  33.255  1.00  0.00     0.031 C 
ATOM     43  C   UNL A   1      40.446  27.665  27.585  1.00  0.00     0.029 A 
ATOM     44  C   UNL A   1      41.319  27.449  28.734  1.00  0.00     0.049 A 
ATOM     45  H   UNL A   1      41.180  28.335  30.615  1.00  0.00     0.167 HD
ATOM     46  C   UNL A   1      40.923  30.415  34.440  1.00  0.00     0.034 A 
ATOM     47  C   UNL A   1      42.383  26.622  28.756  1.00  0.00     0.034 A 
ATOM     48  C   UNL A   1      42.022  29.503  34.586  1.00  0.00     0.049 A 
ATOM     49  C   UNL A   1      43.180  26.481  30.022  1.00  0.00     0.074 A 
ATOM     50  C   UNL A   1      42.803  29.274  35.703  1.00  0.00     0.029 A 
ATOM     51  N   UNL A   1      42.476  28.653  33.592  1.00  0.00    -0.354 N 
ATOM     52  N   UNL A   1      42.993  27.070  31.177  1.00  0.00    -0.248 NA
ATOM     53  C   UNL A   1      44.315  25.547  29.998  1.00  0.00     0.031 C 
ATOM     54  C   UNL A   1      43.729  28.274  35.387  1.00  0.00     0.029 A 
ATOM     55  C   UNL A   1      43.522  27.887  34.073  1.00  0.00     0.049 A 
ATOM     56  H   UNL A   1      42.108  28.600  32.680  1.00  0.00     0.167 HD
ATOM     57  C   UNL A   1      43.981  26.576  32.020  1.00  0.00     0.074 A 
ATOM     58  C   UNL A   1      44.747  25.617  31.251  1.00  0.00     0.031 C 
ATOM     59  C   UNL A   1      44.243  26.906  33.308  1.00  0.00     0.034 A 
BRANCH  46  60
ATOM     60  C   UNL A   1      40.566  31.279  35.621  1.00  0.00     0.023 A 
ATOM     61  C   UNL A   1      41.377  32.391  35.926  1.00  0.00     0.012 A 
ATOM     62  C   UNL A   1      39.397  31.047  36.372  1.00  0.00     0.148 A 
ATOM     63  C   UNL A   1      41.043  33.248  36.972  1.00  0.00     0.002 A 
ATOM     64  C   UNL A   1      39.052  31.926  37.392  1.00  0.00     0.091 A 
ATOM     65  F   UNL A   1      38.646  29.979  36.070  1.00  0.00    -0.205 F 
ATOM     66  C   UNL A   1      39.878  33.021  37.698  1.00  0.00     0.022 A 
BRANCH  64  67
ATOM     67  S   UNL A   1      37.543  31.768  38.354  1.00  0.00     0.127 S 
ATOM     68  O   UNL A   1      38.027  32.031  39.708  1.00  0.00    -0.237 OA
ATOM     69  O   UNL A   1      36.708  32.827  37.789  1.00  0.00    -0.237 OA
ATOM     70  O   UNL A   1      37.057  30.415  38.124  1.00  0.00    -0.744 OA
ENDBRANCH  64  67
ENDBRANCH  46  60
BRANCH  47  71
ATOM     71  C   UNL A   1      42.682  25.789  27.558  1.00  0.00     0.023 A 
ATOM     72  C   UNL A   1      43.533  26.309  26.564  1.00  0.00     0.012 A 
ATOM     73  C   UNL A   1      42.202  24.471  27.437  1.00  0.00     0.148 A 
ATOM     74  C   UNL A   1      43.900  25.532  25.465  1.00  0.00     0.002 A 
ATOM     75  C   UNL A   1      42.601  23.688  26.359  1.00  0.00     0.091 A 
ATOM     76  F   UNL A   1      41.390  24.003  28.396  1.00  0.00    -0.205 F 
ATOM     77  C   UNL A   1      43.443  24.219  25.368  1.00  0.00     0.022 A 
BRANCH  75  78
ATOM     78  S   UNL A   1      42.157  21.956  26.198  1.00  0.00     0.127 S 
ATOM     79  O   UNL A   1      42.992  21.537  25.074  1.00  0.00    -0.237 OA
ATOM     80  O   UNL A   1      42.562  21.422  27.499  1.00  0.00    -0.237 OA
ATOM     81  O   UNL A   1      40.722  21.935  25.954  1.00  0.00    -0.744 OA
ENDBRANCH  75  78
ENDBRANCH  47  71
BRANCH  59  82
ATOM     82  C   UNL A   1      45.408  26.240  33.983  1.00  0.00     0.023 A 
ATOM     83  C   UNL A   1      46.674  26.853  33.920  1.00  0.00     0.012 A 
ATOM     84  C   UNL A   1      45.225  25.094  34.779  1.00  0.00     0.148 A 
ATOM     85  C   UNL A   1      47.747  26.329  34.637  1.00  0.00     0.002 A 
ATOM     86  C   UNL A   1      46.292  24.594  35.516  1.00  0.00     0.091 A 
ATOM     87  F   UNL A   1      44.009  24.526  34.812  1.00  0.00    -0.205 F 
ATOM     88  C   UNL A   1      47.553  25.208  35.443  1.00  0.00     0.022 A 
BRANCH  86  89
ATOM     89  S   UNL A   1      46.123  23.204  36.641  1.00  0.00     0.127 S 
ATOM     90  O   UNL A   1      47.506  23.001  37.071  1.00  0.00    -0.237 OA
ATOM     91  O   UNL A   1      45.237  23.746  37.672  1.00  0.00    -0.237 OA
ATOM     92  O   UNL A   1      45.550  22.118  35.858  1.00  0.00    -0.744 OA
ENDBRANCH  86  89
ENDBRANCH  59  82
ENDBRANCH  33  34
ENDBRANCH  26  28
ENDBRANCH  25  26
ENDBRANCH   1  25
TORSDOF 16
ENDMDL
