MODEL 1
REMARK VINA RESULT:     -12.0      0.000      0.000
REMARK SMILES N#Cc1ccc(/C=C/C(=O)N[C@H]2C=C[C@H](C(=O)OCCOC(=O)c3ccc(-c4c5nc(c(-c6cccc(S(=O)(=O)[O-])c6F)c6ccc([nH]6)c(-c6cccc(S(=O)(=O)[O-])c6F)c6nc(c(-c7cccc(S(=O)(=O)[O-])c7F)c7ccc4[nH]7)C=C6)C=C5)cc3)C2)cc1
REMARK SMILES IDX 19 1 18 2 16 3 17 4 15 5 12 6 13 7 87 8 14 9 11 10 9 11
REMARK SMILES IDX 10 12 8 14 7 15 6 16 3 17 4 18 89 19 5 20 88 21 2 22 1 23
REMARK SMILES IDX 20 24 21 25 22 26 23 27 24 28 25 29 86 30 26 31 85 32 27 33
REMARK SMILES IDX 28 34 29 35 79 36 30 37 84 38 78 39 80 40 31 41 83 42 77 43
REMARK SMILES IDX 76 44 32 46 64 47 44 48 63 49 45 50 48 51 62 52 81 53 46 54
REMARK SMILES IDX 47 55 61 57 82 58 49 59 33 60 34 61 42 62 35 63 37 64 43 65
REMARK SMILES IDX 36 66 38 67 39 68 40 69 41 70 65 71 66 72 74 73 67 74 69 75
REMARK SMILES IDX 75 76 68 77 70 78 71 79 72 80 73 81 50 82 51 83 59 84 52 85
REMARK SMILES IDX 54 86 60 87 53 88 55 89 56 90 57 91 58 92
REMARK H PARENT 11 13 80 45 48 56
REMARK Flexibility Score: inf
ROOT
ATOM      1  C   UNL A   1      34.431  22.340  27.213  1.00  0.00     0.274 C 
ENDROOT
BRANCH   1   2
ATOM      2  O   UNL A   1      33.748  23.440  26.560  1.00  0.00    -0.462 OA
BRANCH   2   3
ATOM      3  C   UNL A   1      32.494  23.668  27.029  1.00  0.00     0.312 C 
ATOM      4  O   UNL A   1      31.960  22.921  27.843  1.00  0.00    -0.252 OA
BRANCH   3   5
ATOM      5  C   UNL A   1      31.807  24.918  26.415  1.00  0.00     0.124 C 
ATOM      6  C   UNL A   1      32.651  24.611  24.230  1.00  0.00     0.106 C 
ATOM      7  C   UNL A   1      33.314  25.807  24.833  1.00  0.00    -0.006 C 
ATOM      8  C   UNL A   1      31.317  24.683  24.972  1.00  0.00     0.048 C 
ATOM      9  C   UNL A   1      32.860  25.964  26.091  1.00  0.00    -0.014 C 
BRANCH   6  10
ATOM     10  N   UNL A   1      32.701  24.597  22.814  1.00  0.00    -0.346 N 
ATOM     11  C   UNL A   1      33.124  23.533  22.054  1.00  0.00     0.244 C 
ATOM     12  O   UNL A   1      33.243  23.678  20.839  1.00  0.00    -0.270 OA
ATOM     13  H   UNL A   1      32.410  25.408  22.339  1.00  0.00     0.164 HD
BRANCH  11  14
ATOM     14  C   UNL A   1      33.173  22.150  22.651  1.00  0.00     0.072 C 
ATOM     15  C   UNL A   1      32.268  21.187  22.918  1.00  0.00     0.014 C 
BRANCH  15  16
ATOM     16  C   UNL A   1      32.456  19.754  23.365  1.00  0.00    -0.025 A 
ATOM     17  C   UNL A   1      32.887  17.121  24.456  1.00  0.00     0.052 A 
ATOM     18  C   UNL A   1      32.759  17.302  23.094  1.00  0.00     0.020 A 
ATOM     19  C   UNL A   1      32.775  18.239  25.283  1.00  0.00     0.020 A 
ATOM     20  C   UNL A   1      32.515  18.588  22.584  1.00  0.00     0.009 A 
ATOM     21  C   UNL A   1      32.582  19.529  24.742  1.00  0.00     0.009 A 
BRANCH  17  22
ATOM     22  C   UNL A   1      33.094  15.811  24.990  1.00  0.00     0.099 C 
ATOM     23  N   UNL A   1      33.289  14.751  25.434  1.00  0.00    -0.192 NA
ENDBRANCH  17  22
ENDBRANCH  15  16
ENDBRANCH  11  14
ENDBRANCH   6  10
ENDBRANCH   3   5
ENDBRANCH   2   3
ENDBRANCH   1   2
BRANCH   1  24
ATOM     24  C   UNL A   1      35.249  21.484  26.236  1.00  0.00     0.275 C 
BRANCH  24  25
ATOM     25  O   UNL A   1      36.297  22.214  25.554  1.00  0.00    -0.458 OA
BRANCH  25  26
ATOM     26  C   UNL A   1      37.537  21.679  25.672  1.00  0.00     0.338 C 
ATOM     27  O   UNL A   1      37.886  20.593  25.227  1.00  0.00    -0.246 OA
BRANCH  26  28
ATOM     28  C   UNL A   1      38.525  22.637  26.228  1.00  0.00     0.060 A 
ATOM     29  C   UNL A   1      38.237  23.975  25.996  1.00  0.00     0.016 A 
ATOM     30  C   UNL A   1      39.743  22.330  26.827  1.00  0.00     0.016 A 
ATOM     31  C   UNL A   1      39.107  25.006  26.337  1.00  0.00     0.010 A 
ATOM     32  C   UNL A   1      40.594  23.383  27.266  1.00  0.00     0.010 A 
ATOM     33  C   UNL A   1      40.251  24.742  27.079  1.00  0.00    -0.014 A 
BRANCH  33  34
ATOM     34  C   UNL A   1      41.110  25.905  27.476  1.00  0.00     0.031 A 
ATOM     35  C   UNL A   1      40.466  26.927  28.363  1.00  0.00     0.074 A 
ATOM     36  C   UNL A   1      42.437  26.031  27.208  1.00  0.00     0.049 A 
ATOM     37  N   UNL A   1      40.958  28.045  28.817  1.00  0.00    -0.248 NA
ATOM     38  C   UNL A   1      39.089  26.642  28.806  1.00  0.00     0.031 C 
ATOM     39  C   UNL A   1      43.280  25.082  26.510  1.00  0.00     0.029 A 
ATOM     40  N   UNL A   1      43.350  27.025  27.512  1.00  0.00    -0.354 N 
ATOM     41  C   UNL A   1      39.937  28.629  29.546  1.00  0.00     0.074 A 
ATOM     42  C   UNL A   1      38.804  27.731  29.500  1.00  0.00     0.031 C 
ATOM     43  C   UNL A   1      44.546  25.484  26.434  1.00  0.00     0.029 A 
ATOM     44  C   UNL A   1      44.619  26.798  27.000  1.00  0.00     0.049 A 
ATOM     45  H   UNL A   1      43.120  27.821  28.043  1.00  0.00     0.167 HD
ATOM     46  C   UNL A   1      39.945  29.824  30.178  1.00  0.00     0.034 A 
ATOM     47  C   UNL A   1      45.737  27.539  26.924  1.00  0.00     0.034 A 
ATOM     48  C   UNL A   1      41.077  30.707  30.205  1.00  0.00     0.049 A 
ATOM     49  C   UNL A   1      45.686  28.887  27.543  1.00  0.00     0.074 A 
ATOM     50  C   UNL A   1      41.175  31.954  30.794  1.00  0.00     0.029 A 
ATOM     51  N   UNL A   1      42.302  30.453  29.600  1.00  0.00    -0.354 N 
ATOM     52  N   UNL A   1      44.698  29.433  28.204  1.00  0.00    -0.248 NA
ATOM     53  C   UNL A   1      46.889  29.714  27.431  1.00  0.00     0.031 C 
ATOM     54  C   UNL A   1      42.435  32.479  30.495  1.00  0.00     0.029 A 
ATOM     55  C   UNL A   1      43.151  31.533  29.780  1.00  0.00     0.049 A 
ATOM     56  H   UNL A   1      42.533  29.628  29.116  1.00  0.00     0.167 HD
ATOM     57  C   UNL A   1      45.165  30.664  28.615  1.00  0.00     0.074 A 
ATOM     58  C   UNL A   1      46.536  30.770  28.148  1.00  0.00     0.031 C 
ATOM     59  C   UNL A   1      44.510  31.619  29.313  1.00  0.00     0.034 A 
BRANCH  46  60
ATOM     60  C   UNL A   1      38.656  30.266  30.807  1.00  0.00     0.023 A 
ATOM     61  C   UNL A   1      38.370  29.967  32.155  1.00  0.00     0.012 A 
ATOM     62  C   UNL A   1      37.714  30.977  30.040  1.00  0.00     0.148 A 
ATOM     63  C   UNL A   1      37.148  30.337  32.715  1.00  0.00     0.002 A 
ATOM     64  C   UNL A   1      36.526  31.392  30.620  1.00  0.00     0.091 A 
ATOM     65  F   UNL A   1      37.992  31.215  28.750  1.00  0.00    -0.205 F 
ATOM     66  C   UNL A   1      36.232  31.059  31.953  1.00  0.00     0.022 A 
BRANCH  64  67
ATOM     67  S   UNL A   1      35.323  32.393  29.741  1.00  0.00     0.127 S 
ATOM     68  O   UNL A   1      34.888  31.474  28.690  1.00  0.00    -0.237 OA
ATOM     69  O   UNL A   1      34.326  32.648  30.781  1.00  0.00    -0.237 OA
ATOM     70  O   UNL A   1      36.038  33.573  29.278  1.00  0.00    -0.744 OA
ENDBRANCH  64  67
ENDBRANCH  46  60
BRANCH  47  71
ATOM     71  C   UNL A   1      46.957  27.028  26.221  1.00  0.00     0.023 A 
ATOM     72  C   UNL A   1      47.108  27.225  24.836  1.00  0.00     0.012 A 
ATOM     73  C   UNL A   1      47.994  26.385  26.933  1.00  0.00     0.148 A 
ATOM     74  C   UNL A   1      48.248  26.766  24.170  1.00  0.00     0.002 A 
ATOM     75  C   UNL A   1      49.153  25.988  26.275  1.00  0.00     0.091 A 
ATOM     76  F   UNL A   1      47.838  26.196  28.251  1.00  0.00    -0.205 F 
ATOM     77  C   UNL A   1      49.275  26.159  24.890  1.00  0.00     0.022 A 
BRANCH  75  78
ATOM     78  S   UNL A   1      50.582  25.329  27.147  1.00  0.00     0.127 S 
ATOM     79  O   UNL A   1      50.965  26.458  27.990  1.00  0.00    -0.237 OA
ATOM     80  O   UNL A   1      50.004  24.193  27.865  1.00  0.00    -0.237 OA
ATOM     81  O   UNL A   1      51.539  24.959  26.112  1.00  0.00    -0.744 OA
ENDBRANCH  75  78
ENDBRANCH  47  71
BRANCH  59  82
ATOM     82  C   UNL A   1      45.296  32.849  29.648  1.00  0.00     0.023 A 
ATOM     83  C   UNL A   1      45.997  32.934  30.865  1.00  0.00     0.012 A 
ATOM     84  C   UNL A   1      45.352  33.910  28.729  1.00  0.00     0.148 A 
ATOM     85  C   UNL A   1      46.711  34.086  31.183  1.00  0.00     0.002 A 
ATOM     86  C   UNL A   1      46.117  35.026  29.023  1.00  0.00     0.091 A 
ATOM     87  F   UNL A   1      44.650  33.810  27.590  1.00  0.00    -0.205 F 
ATOM     88  C   UNL A   1      46.782  35.125  30.256  1.00  0.00     0.022 A 
BRANCH  86  89
ATOM     89  S   UNL A   1      46.349  36.361  27.849  1.00  0.00     0.127 S 
ATOM     90  O   UNL A   1      47.299  37.217  28.558  1.00  0.00    -0.237 OA
ATOM     91  O   UNL A   1      46.904  35.656  26.694  1.00  0.00    -0.237 OA
ATOM     92  O   UNL A   1      45.033  36.944  27.631  1.00  0.00    -0.744 OA
ENDBRANCH  86  89
ENDBRANCH  59  82
ENDBRANCH  33  34
ENDBRANCH  26  28
ENDBRANCH  25  26
ENDBRANCH  24  25
ENDBRANCH   1  24
TORSDOF 18
ENDMDL
MODEL 2
REMARK VINA RESULT:     -12.0      1.312      7.996
REMARK SMILES N#Cc1ccc(/C=C/C(=O)N[C@H]2C=C[C@H](C(=O)OCCOC(=O)c3ccc(-c4c5nc(c(-c6cccc(S(=O)(=O)[O-])c6F)c6ccc([nH]6)c(-c6cccc(S(=O)(=O)[O-])c6F)c6nc(c(-c7cccc(S(=O)(=O)[O-])c7F)c7ccc4[nH]7)C=C6)C=C5)cc3)C2)cc1
REMARK SMILES IDX 19 1 18 2 16 3 17 4 15 5 12 6 13 7 87 8 14 9 11 10 9 11
REMARK SMILES IDX 10 12 8 14 7 15 6 16 3 17 4 18 89 19 5 20 88 21 2 22 1 23
REMARK SMILES IDX 20 24 21 25 22 26 23 27 24 28 25 29 86 30 26 31 85 32 27 33
REMARK SMILES IDX 28 34 29 35 79 36 30 37 84 38 78 39 80 40 31 41 83 42 77 43
REMARK SMILES IDX 76 44 32 46 64 47 44 48 63 49 45 50 48 51 62 52 81 53 46 54
REMARK SMILES IDX 47 55 61 57 82 58 49 59 33 60 34 61 42 62 35 63 37 64 43 65
REMARK SMILES IDX 36 66 38 67 39 68 40 69 41 70 65 71 66 72 74 73 67 74 69 75
REMARK SMILES IDX 75 76 68 77 70 78 71 79 72 80 73 81 50 82 51 83 59 84 52 85
REMARK SMILES IDX 54 86 60 87 53 88 55 89 56 90 57 91 58 92
REMARK H PARENT 11 13 80 45 48 56
REMARK Flexibility Score: inf
ROOT
ATOM      1  C   UNL A   1      37.468  19.576  24.651  1.00  0.00     0.274 C 
ENDROOT
BRANCH   1   2
ATOM      2  O   UNL A   1      36.408  20.378  25.232  1.00  0.00    -0.462 OA
BRANCH   2   3
ATOM      3  C   UNL A   1      36.539  21.711  25.007  1.00  0.00     0.312 C 
ATOM      4  O   UNL A   1      37.127  22.149  24.024  1.00  0.00    -0.252 OA
BRANCH   3   5
ATOM      5  C   UNL A   1      35.916  22.602  26.116  1.00  0.00     0.124 C 
ATOM      6  C   UNL A   1      34.136  23.423  24.798  1.00  0.00     0.106 C 
ATOM      7  C   UNL A   1      35.098  24.539  25.046  1.00  0.00    -0.006 C 
ATOM      8  C   UNL A   1      34.375  22.618  26.074  1.00  0.00     0.048 C 
ATOM      9  C   UNL A   1      36.131  24.065  25.769  1.00  0.00    -0.014 C 
BRANCH   6  10
ATOM     10  N   UNL A   1      32.837  23.870  24.447  1.00  0.00    -0.346 N 
ATOM     11  C   UNL A   1      31.849  23.074  23.919  1.00  0.00     0.244 C 
ATOM     12  O   UNL A   1      30.804  23.595  23.537  1.00  0.00    -0.270 OA
ATOM     13  H   UNL A   1      32.627  24.820  24.592  1.00  0.00     0.164 HD
BRANCH  11  14
ATOM     14  C   UNL A   1      31.930  21.576  24.061  1.00  0.00     0.072 C 
ATOM     15  C   UNL A   1      32.711  20.603  23.548  1.00  0.00     0.014 C 
BRANCH  15  16
ATOM     16  C   UNL A   1      32.815  19.135  23.897  1.00  0.00    -0.025 A 
ATOM     17  C   UNL A   1      33.036  16.413  24.818  1.00  0.00     0.052 A 
ATOM     18  C   UNL A   1      33.184  16.713  23.479  1.00  0.00     0.020 A 
ATOM     19  C   UNL A   1      32.752  17.456  25.700  1.00  0.00     0.020 A 
ATOM     20  C   UNL A   1      33.039  18.041  23.045  1.00  0.00     0.009 A 
ATOM     21  C   UNL A   1      32.663  18.790  25.246  1.00  0.00     0.009 A 
BRANCH  17  22
ATOM     22  C   UNL A   1      33.141  15.059  25.266  1.00  0.00     0.099 C 
ATOM     23  N   UNL A   1      33.202  13.959  25.647  1.00  0.00    -0.192 NA
ENDBRANCH  17  22
ENDBRANCH  15  16
ENDBRANCH  11  14
ENDBRANCH   6  10
ENDBRANCH   3   5
ENDBRANCH   2   3
ENDBRANCH   1   2
BRANCH   1  24
ATOM     24  C   UNL A   1      38.458  19.051  25.700  1.00  0.00     0.275 C 
BRANCH  24  25
ATOM     25  O   UNL A   1      39.771  19.659  25.624  1.00  0.00    -0.458 OA
BRANCH  25  26
ATOM     26  C   UNL A   1      40.300  20.029  26.816  1.00  0.00     0.338 C 
ATOM     27  O   UNL A   1      40.702  19.263  27.682  1.00  0.00    -0.246 OA
BRANCH  26  28
ATOM     28  C   UNL A   1      40.546  21.490  26.906  1.00  0.00     0.060 A 
ATOM     29  C   UNL A   1      41.598  21.856  27.734  1.00  0.00     0.016 A 
ATOM     30  C   UNL A   1      39.764  22.505  26.363  1.00  0.00     0.016 A 
ATOM     31  C   UNL A   1      41.898  23.181  28.034  1.00  0.00     0.010 A 
ATOM     32  C   UNL A   1      40.124  23.864  26.587  1.00  0.00     0.010 A 
ATOM     33  C   UNL A   1      41.240  24.215  27.380  1.00  0.00    -0.014 A 
BRANCH  33  34
ATOM     34  C   UNL A   1      41.660  25.620  27.696  1.00  0.00     0.031 A 
ATOM     35  C   UNL A   1      43.006  26.035  27.185  1.00  0.00     0.074 A 
ATOM     36  C   UNL A   1      40.874  26.564  28.279  1.00  0.00     0.049 A 
ATOM     37  N   UNL A   1      43.632  27.167  27.351  1.00  0.00    -0.248 NA
ATOM     38  C   UNL A   1      43.736  25.048  26.371  1.00  0.00     0.031 C 
ATOM     39  C   UNL A   1      39.494  26.414  28.696  1.00  0.00     0.029 A 
ATOM     40  N   UNL A   1      41.114  27.882  28.620  1.00  0.00    -0.354 N 
ATOM     41  C   UNL A   1      44.852  27.010  26.717  1.00  0.00     0.074 A 
ATOM     42  C   UNL A   1      44.872  25.685  26.139  1.00  0.00     0.031 C 
ATOM     43  C   UNL A   1      38.993  27.534  29.209  1.00  0.00     0.029 A 
ATOM     44  C   UNL A   1      40.050  28.499  29.262  1.00  0.00     0.049 A 
ATOM     45  H   UNL A   1      41.962  28.342  28.425  1.00  0.00     0.167 HD
ATOM     46  C   UNL A   1      45.873  27.893  26.649  1.00  0.00     0.034 A 
ATOM     47  C   UNL A   1      39.897  29.681  29.882  1.00  0.00     0.034 A 
ATOM     48  C   UNL A   1      45.838  29.203  27.238  1.00  0.00     0.049 A 
ATOM     49  C   UNL A   1      41.067  30.594  29.874  1.00  0.00     0.074 A 
ATOM     50  C   UNL A   1      46.833  30.162  27.249  1.00  0.00     0.029 A 
ATOM     51  N   UNL A   1      44.764  29.734  27.942  1.00  0.00    -0.354 N 
ATOM     52  N   UNL A   1      42.225  30.413  29.293  1.00  0.00    -0.248 NA
ATOM     53  C   UNL A   1      40.919  31.868  30.579  1.00  0.00     0.031 C 
ATOM     54  C   UNL A   1      46.386  31.247  28.008  1.00  0.00     0.029 A 
ATOM     55  C   UNL A   1      45.085  30.996  28.413  1.00  0.00     0.049 A 
ATOM     56  H   UNL A   1      43.902  29.280  28.084  1.00  0.00     0.167 HD
ATOM     57  C   UNL A   1      42.944  31.565  29.536  1.00  0.00     0.074 A 
ATOM     58  C   UNL A   1      42.077  32.447  30.297  1.00  0.00     0.031 C 
ATOM     59  C   UNL A   1      44.210  31.858  29.164  1.00  0.00     0.034 A 
BRANCH  46  60
ATOM     60  C   UNL A   1      47.134  27.421  25.986  1.00  0.00     0.023 A 
ATOM     61  C   UNL A   1      47.356  27.646  24.612  1.00  0.00     0.012 A 
ATOM     62  C   UNL A   1      48.103  26.736  26.743  1.00  0.00     0.148 A 
ATOM     63  C   UNL A   1      48.507  27.157  23.995  1.00  0.00     0.002 A 
ATOM     64  C   UNL A   1      49.272  26.304  26.135  1.00  0.00     0.091 A 
ATOM     65  F   UNL A   1      47.852  26.501  28.038  1.00  0.00    -0.205 F 
ATOM     66  C   UNL A   1      49.469  26.498  24.758  1.00  0.00     0.022 A 
BRANCH  64  67
ATOM     67  S   UNL A   1      50.600  25.518  27.050  1.00  0.00     0.127 S 
ATOM     68  O   UNL A   1      49.926  24.340  27.595  1.00  0.00    -0.237 OA
ATOM     69  O   UNL A   1      51.569  25.233  25.991  1.00  0.00    -0.237 OA
ATOM     70  O   UNL A   1      51.043  26.491  28.038  1.00  0.00    -0.744 OA
ENDBRANCH  64  67
ENDBRANCH  46  60
BRANCH  47  71
ATOM     71  C   UNL A   1      38.612  30.035  30.565  1.00  0.00     0.023 A 
ATOM     72  C   UNL A   1      38.366  29.591  31.878  1.00  0.00     0.012 A 
ATOM     73  C   UNL A   1      37.650  30.854  29.934  1.00  0.00     0.148 A 
ATOM     74  C   UNL A   1      37.177  29.926  32.533  1.00  0.00     0.002 A 
ATOM     75  C   UNL A   1      36.499  31.236  30.615  1.00  0.00     0.091 A 
ATOM     76  F   UNL A   1      37.891  31.267  28.681  1.00  0.00    -0.205 F 
ATOM     77  C   UNL A   1      36.250  30.757  31.908  1.00  0.00     0.022 A 
BRANCH  75  78
ATOM     78  S   UNL A   1      35.323  32.417  29.939  1.00  0.00     0.127 S 
ATOM     79  O   UNL A   1      34.805  31.694  28.781  1.00  0.00    -0.237 OA
ATOM     80  O   UNL A   1      34.376  32.570  31.043  1.00  0.00    -0.237 OA
ATOM     81  O   UNL A   1      36.095  33.617  29.642  1.00  0.00    -0.744 OA
ENDBRANCH  75  78
ENDBRANCH  47  71
BRANCH  59  82
ATOM     82  C   UNL A   1      44.713  33.216  29.545  1.00  0.00     0.023 A 
ATOM     83  C   UNL A   1      45.561  33.374  30.658  1.00  0.00     0.012 A 
ATOM     84  C   UNL A   1      44.355  34.333  28.772  1.00  0.00     0.148 A 
ATOM     85  C   UNL A   1      46.011  34.640  31.022  1.00  0.00     0.002 A 
ATOM     86  C   UNL A   1      44.859  35.580  29.101  1.00  0.00     0.091 A 
ATOM     87  F   UNL A   1      43.523  34.154  27.735  1.00  0.00    -0.205 F 
ATOM     88  C   UNL A   1      45.672  35.739  30.236  1.00  0.00     0.022 A 
BRANCH  86  89
ATOM     89  S   UNL A   1      44.561  37.029  28.088  1.00  0.00     0.127 S 
ATOM     90  O   UNL A   1      43.100  37.093  28.086  1.00  0.00    -0.237 OA
ATOM     91  O   UNL A   1      45.219  38.081  28.863  1.00  0.00    -0.237 OA
ATOM     92  O   UNL A   1      45.172  36.753  26.795  1.00  0.00    -0.744 OA
ENDBRANCH  86  89
ENDBRANCH  59  82
ENDBRANCH  33  34
ENDBRANCH  26  28
ENDBRANCH  25  26
ENDBRANCH  24  25
ENDBRANCH   1  24
TORSDOF 18
ENDMDL
MODEL 3
REMARK VINA RESULT:     -11.8      2.230      8.849
REMARK SMILES N#Cc1ccc(/C=C/C(=O)N[C@H]2C=C[C@H](C(=O)OCCOC(=O)c3ccc(-c4c5nc(c(-c6cccc(S(=O)(=O)[O-])c6F)c6ccc([nH]6)c(-c6cccc(S(=O)(=O)[O-])c6F)c6nc(c(-c7cccc(S(=O)(=O)[O-])c7F)c7ccc4[nH]7)C=C6)C=C5)cc3)C2)cc1
REMARK SMILES IDX 19 1 18 2 16 3 17 4 15 5 12 6 13 7 87 8 14 9 11 10 9 11
REMARK SMILES IDX 10 12 8 14 7 15 6 16 3 17 4 18 89 19 5 20 88 21 2 22 1 23
REMARK SMILES IDX 20 24 21 25 22 26 23 27 24 28 25 29 86 30 26 31 85 32 27 33
REMARK SMILES IDX 28 34 29 35 79 36 30 37 84 38 78 39 80 40 31 41 83 42 77 43
REMARK SMILES IDX 76 44 32 46 64 47 44 48 63 49 45 50 48 51 62 52 81 53 46 54
REMARK SMILES IDX 47 55 61 57 82 58 49 59 33 60 34 61 42 62 35 63 37 64 43 65
REMARK SMILES IDX 36 66 38 67 39 68 40 69 41 70 65 71 66 72 74 73 67 74 69 75
REMARK SMILES IDX 75 76 68 77 70 78 71 79 72 80 73 81 50 82 51 83 59 84 52 85
REMARK SMILES IDX 54 86 60 87 53 88 55 89 56 90 57 91 58 92
REMARK H PARENT 11 13 80 45 48 56
REMARK Flexibility Score: inf
ROOT
ATOM      1  C   UNL A   1      36.662  22.622  23.456  1.00  0.00     0.274 C 
ENDROOT
BRANCH   1   2
ATOM      2  O   UNL A   1      35.239  22.830  23.265  1.00  0.00    -0.462 OA
BRANCH   2   3
ATOM      3  C   UNL A   1      34.814  24.076  23.601  1.00  0.00     0.312 C 
ATOM      4  O   UNL A   1      34.423  24.877  22.758  1.00  0.00    -0.252 OA
BRANCH   3   5
ATOM      5  C   UNL A   1      34.908  24.388  25.119  1.00  0.00     0.124 C 
ATOM      6  C   UNL A   1      32.634  23.963  25.597  1.00  0.00     0.106 C 
ATOM      7  C   UNL A   1      32.880  25.432  25.722  1.00  0.00    -0.006 C 
ATOM      8  C   UNL A   1      34.025  23.458  25.976  1.00  0.00     0.048 C 
ATOM      9  C   UNL A   1      34.168  25.681  25.416  1.00  0.00    -0.014 C 
BRANCH   6  10
ATOM     10  N   UNL A   1      31.481  23.526  26.297  1.00  0.00    -0.346 N 
ATOM     11  C   UNL A   1      30.364  24.293  26.525  1.00  0.00     0.244 C 
ATOM     12  O   UNL A   1      29.477  23.852  27.252  1.00  0.00    -0.270 OA
ATOM     13  H   UNL A   1      31.481  22.606  26.646  1.00  0.00     0.164 HD
BRANCH  11  14
ATOM     14  C   UNL A   1      30.107  25.520  25.688  1.00  0.00     0.072 C 
ATOM     15  C   UNL A   1      29.901  25.761  24.377  1.00  0.00     0.014 C 
BRANCH  15  16
ATOM     16  C   UNL A   1      29.477  27.025  23.663  1.00  0.00    -0.025 A 
ATOM     17  C   UNL A   1      28.926  29.504  22.299  1.00  0.00     0.052 A 
ATOM     18  C   UNL A   1      27.902  28.778  22.873  1.00  0.00     0.020 A 
ATOM     19  C   UNL A   1      30.221  28.991  22.376  1.00  0.00     0.020 A 
ATOM     20  C   UNL A   1      28.186  27.555  23.504  1.00  0.00     0.009 A 
ATOM     21  C   UNL A   1      30.487  27.785  23.060  1.00  0.00     0.009 A 
BRANCH  17  22
ATOM     22  C   UNL A   1      28.643  30.730  21.619  1.00  0.00     0.099 C 
ATOM     23  N   UNL A   1      28.401  31.739  21.089  1.00  0.00    -0.192 NA
ENDBRANCH  17  22
ENDBRANCH  15  16
ENDBRANCH  11  14
ENDBRANCH   6  10
ENDBRANCH   3   5
ENDBRANCH   2   3
ENDBRANCH   1   2
BRANCH   1  24
ATOM     24  C   UNL A   1      36.972  21.370  24.288  1.00  0.00     0.275 C 
BRANCH  24  25
ATOM     25  O   UNL A   1      37.303  21.652  25.670  1.00  0.00    -0.458 OA
BRANCH  25  26
ATOM     26  C   UNL A   1      38.592  21.406  26.011  1.00  0.00     0.338 C 
ATOM     27  O   UNL A   1      39.214  20.385  25.746  1.00  0.00    -0.246 OA
BRANCH  26  28
ATOM     28  C   UNL A   1      39.272  22.598  26.576  1.00  0.00     0.060 A 
ATOM     29  C   UNL A   1      38.818  23.816  26.091  1.00  0.00     0.016 A 
ATOM     30  C   UNL A   1      40.379  22.608  27.421  1.00  0.00     0.016 A 
ATOM     31  C   UNL A   1      39.417  25.030  26.414  1.00  0.00     0.010 A 
ATOM     32  C   UNL A   1      40.935  23.852  27.833  1.00  0.00     0.010 A 
ATOM     33  C   UNL A   1      40.415  25.085  27.378  1.00  0.00    -0.014 A 
BRANCH  33  34
ATOM     34  C   UNL A   1      40.970  26.432  27.733  1.00  0.00     0.031 A 
ATOM     35  C   UNL A   1      42.335  26.744  27.200  1.00  0.00     0.074 A 
ATOM     36  C   UNL A   1      40.289  27.419  28.374  1.00  0.00     0.049 A 
ATOM     37  N   UNL A   1      43.066  27.806  27.389  1.00  0.00    -0.248 NA
ATOM     38  C   UNL A   1      42.951  25.727  26.328  1.00  0.00     0.031 C 
ATOM     39  C   UNL A   1      38.913  27.379  28.826  1.00  0.00     0.029 A 
ATOM     40  N   UNL A   1      40.658  28.696  28.757  1.00  0.00    -0.354 N 
ATOM     41  C   UNL A   1      44.250  27.565  26.715  1.00  0.00     0.074 A 
ATOM     42  C   UNL A   1      44.133  26.267  26.087  1.00  0.00     0.031 C 
ATOM     43  C   UNL A   1      38.530  28.518  29.394  1.00  0.00     0.029 A 
ATOM     44  C   UNL A   1      39.672  29.381  29.452  1.00  0.00     0.049 A 
ATOM     45  H   UNL A   1      41.539  29.084  28.554  1.00  0.00     0.167 HD
ATOM     46  C   UNL A   1      45.346  28.353  26.650  1.00  0.00     0.034 A 
ATOM     47  C   UNL A   1      39.645  30.547  30.120  1.00  0.00     0.034 A 
ATOM     48  C   UNL A   1      45.446  29.636  27.288  1.00  0.00     0.049 A 
ATOM     49  C   UNL A   1      40.893  31.349  30.111  1.00  0.00     0.074 A 
ATOM     50  C   UNL A   1      46.526  30.500  27.305  1.00  0.00     0.029 A 
ATOM     51  N   UNL A   1      44.444  30.234  28.042  1.00  0.00    -0.354 N 
ATOM     52  N   UNL A   1      42.014  31.087  29.491  1.00  0.00    -0.248 NA
ATOM     53  C   UNL A   1      40.880  32.602  30.867  1.00  0.00     0.031 C 
ATOM     54  C   UNL A   1      46.199  31.590  28.117  1.00  0.00     0.029 A 
ATOM     55  C   UNL A   1      44.892  31.442  28.550  1.00  0.00     0.049 A 
ATOM     56  H   UNL A   1      43.548  29.855  28.192  1.00  0.00     0.167 HD
ATOM     57  C   UNL A   1      42.841  32.158  29.756  1.00  0.00     0.074 A 
ATOM     58  C   UNL A   1      42.079  33.084  30.574  1.00  0.00     0.031 C 
ATOM     59  C   UNL A   1      44.119  32.350  29.358  1.00  0.00     0.034 A 
BRANCH  46  60
ATOM     60  C   UNL A   1      46.541  27.796  25.933  1.00  0.00     0.023 A 
ATOM     61  C   UNL A   1      46.716  28.003  24.550  1.00  0.00     0.012 A 
ATOM     62  C   UNL A   1      47.494  27.046  26.648  1.00  0.00     0.148 A 
ATOM     63  C   UNL A   1      47.803  27.437  23.884  1.00  0.00     0.002 A 
ATOM     64  C   UNL A   1      48.602  26.535  25.991  1.00  0.00     0.091 A 
ATOM     65  F   UNL A   1      47.285  26.830  27.955  1.00  0.00    -0.205 F 
ATOM     66  C   UNL A   1      48.750  26.714  24.605  1.00  0.00     0.022 A 
BRANCH  64  67
ATOM     67  S   UNL A   1      49.913  25.661  26.849  1.00  0.00     0.127 S 
ATOM     68  O   UNL A   1      50.253  26.608  27.911  1.00  0.00    -0.237 OA
ATOM     69  O   UNL A   1      49.222  24.454  27.306  1.00  0.00    -0.237 OA
ATOM     70  O   UNL A   1      50.959  25.430  25.865  1.00  0.00    -0.744 OA
ENDBRANCH  64  67
ENDBRANCH  46  60
BRANCH  47  71
ATOM     71  C   UNL A   1      38.415  30.988  30.853  1.00  0.00     0.023 A 
ATOM     72  C   UNL A   1      38.337  30.842  32.251  1.00  0.00     0.012 A 
ATOM     73  C   UNL A   1      37.338  31.599  30.173  1.00  0.00     0.148 A 
ATOM     74  C   UNL A   1      37.202  31.263  32.950  1.00  0.00     0.002 A 
ATOM     75  C   UNL A   1      36.240  32.073  30.882  1.00  0.00     0.091 A 
ATOM     76  F   UNL A   1      37.420  31.728  28.841  1.00  0.00    -0.205 F 
ATOM     77  C   UNL A   1      36.160  31.888  32.269  1.00  0.00     0.022 A 
BRANCH  75  78
ATOM     78  S   UNL A   1      34.921  33.016  30.104  1.00  0.00     0.127 S 
ATOM     79  O   UNL A   1      34.387  32.051  29.148  1.00  0.00    -0.237 OA
ATOM     80  O   UNL A   1      34.045  33.308  31.239  1.00  0.00    -0.237 OA
ATOM     81  O   UNL A   1      35.563  34.190  29.527  1.00  0.00    -0.744 OA
ENDBRANCH  75  78
ENDBRANCH  47  71
BRANCH  59  82
ATOM     82  C   UNL A   1      44.754  33.640  29.775  1.00  0.00     0.023 A 
ATOM     83  C   UNL A   1      45.482  33.719  30.977  1.00  0.00     0.012 A 
ATOM     84  C   UNL A   1      44.642  34.770  28.947  1.00  0.00     0.148 A 
ATOM     85  C   UNL A   1      46.055  34.925  31.372  1.00  0.00     0.002 A 
ATOM     86  C   UNL A   1      45.269  35.948  29.314  1.00  0.00     0.091 A 
ATOM     87  F   UNL A   1      43.918  34.671  27.822  1.00  0.00    -0.205 F 
ATOM     88  C   UNL A   1      45.960  36.034  30.534  1.00  0.00     0.022 A 
BRANCH  86  89
ATOM     89  S   UNL A   1      45.288  37.392  28.250  1.00  0.00     0.127 S 
ATOM     90  O   UNL A   1      43.861  37.676  28.110  1.00  0.00    -0.237 OA
ATOM     91  O   UNL A   1      46.028  38.358  29.063  1.00  0.00    -0.237 OA
ATOM     92  O   UNL A   1      45.964  36.985  27.026  1.00  0.00    -0.744 OA
ENDBRANCH  86  89
ENDBRANCH  59  82
ENDBRANCH  33  34
ENDBRANCH  26  28
ENDBRANCH  25  26
ENDBRANCH  24  25
ENDBRANCH   1  24
TORSDOF 18
ENDMDL
