MODEL 1
REMARK VINA RESULT:     -10.1      0.000      0.000
REMARK SMILES [NH3+][C@@H](Cc1ccc(F)cc1C(F)(F)F)C(=O)OCCOC(=O)c1ccc(-c2c3nc(c(-c4cccc(S(=O)(=O)[O-])c4F)c4ccc([nH]4)c(-c4cccc(S(=O)(=O)[O-])c4F)c4nc(c(-c5cccc(S(=O)(=O)[O-])c5F)c5ccc2[nH]5)C=C4)C=C3)cc1
REMARK SMILES IDX 18 1 17 2 15 3 16 4 2 5 1 6 3 10 4 11 5 12 10 13 6 14 9 15
REMARK SMILES IDX 7 16 8 17 11 18 12 19 13 20 14 21 19 22 20 23 21 24 22 25
REMARK SMILES IDX 23 26 24 27 85 28 25 29 84 30 26 31 27 32 28 33 78 34 29 35
REMARK SMILES IDX 83 36 77 37 79 38 30 39 82 40 76 41 75 42 31 44 63 45 43 46
REMARK SMILES IDX 62 47 44 48 47 49 61 50 80 51 45 52 46 53 60 55 81 56 48 57
REMARK SMILES IDX 32 58 33 59 41 60 34 61 36 62 42 63 35 64 37 65 38 66 39 67
REMARK SMILES IDX 40 68 64 69 65 70 73 71 66 72 68 73 74 74 67 75 69 76 70 77
REMARK SMILES IDX 71 78 72 79 49 80 50 81 58 82 51 83 53 84 59 85 52 86 54 87
REMARK SMILES IDX 55 88 56 89 57 90
REMARK H PARENT 1 7 1 8 1 9 79 43 47 54
REMARK Flexibility Score: inf
ROOT
ATOM      1  C   UNL A   1      33.760  34.730  28.973  1.00  0.00     0.274 C 
ENDROOT
BRANCH   1   2
ATOM      2  O   UNL A   1      32.983  34.625  30.182  1.00  0.00    -0.458 OA
BRANCH   2   3
ATOM      3  C   UNL A   1      33.027  35.702  31.019  1.00  0.00     0.365 C 
ATOM      4  O   UNL A   1      32.719  36.845  30.702  1.00  0.00    -0.245 OA
BRANCH   3   5
ATOM      5  C   UNL A   1      33.590  35.346  32.402  1.00  0.00     0.296 C 
BRANCH   5   6
ATOM      6  N   UNL A   1      32.859  34.266  33.095  1.00  0.00    -0.346 N 
ATOM      7  H   UNL A   1      31.982  34.632  33.466  1.00  0.00     0.345 HD
ATOM      8  H   UNL A   1      33.428  33.907  33.862  1.00  0.00     0.345 HD
ATOM      9  H   UNL A   1      32.660  33.512  32.436  1.00  0.00     0.345 HD
ENDBRANCH   5   6
BRANCH   5  10
ATOM     10  C   UNL A   1      35.120  35.179  32.332  1.00  0.00     0.113 C 
BRANCH  10  11
ATOM     11  C   UNL A   1      35.852  34.199  33.239  1.00  0.00    -0.029 A 
ATOM     12  C   UNL A   1      36.320  34.578  34.511  1.00  0.00     0.007 A 
ATOM     13  C   UNL A   1      36.115  32.873  32.798  1.00  0.00     0.062 A 
ATOM     14  C   UNL A   1      36.967  33.675  35.355  1.00  0.00     0.039 A 
ATOM     15  C   UNL A   1      36.756  31.971  33.674  1.00  0.00     0.052 A 
ATOM     16  C   UNL A   1      37.168  32.374  34.934  1.00  0.00     0.123 A 
ATOM     17  F   UNL A   1      37.776  31.500  35.745  1.00  0.00    -0.207 F 
BRANCH  13  18
ATOM     18  C   UNL A   1      35.746  32.321  31.430  1.00  0.00     0.416 C 
ATOM     19  F   UNL A   1      36.328  33.041  30.425  1.00  0.00    -0.166 F 
ATOM     20  F   UNL A   1      36.181  31.043  31.261  1.00  0.00    -0.166 F 
ATOM     21  F   UNL A   1      34.421  32.314  31.136  1.00  0.00    -0.166 F 
ENDBRANCH  13  18
ENDBRANCH  10  11
ENDBRANCH   5  10
ENDBRANCH   3   5
ENDBRANCH   2   3
ENDBRANCH   1   2
BRANCH   1  22
ATOM     22  C   UNL A   1      33.474  33.556  28.037  1.00  0.00     0.275 C 
BRANCH  22  23
ATOM     23  O   UNL A   1      34.689  32.878  27.673  1.00  0.00    -0.458 OA
BRANCH  23  24
ATOM     24  C   UNL A   1      34.590  31.525  27.646  1.00  0.00     0.338 C 
ATOM     25  O   UNL A   1      33.644  30.869  27.246  1.00  0.00    -0.246 OA
BRANCH  24  26
ATOM     26  C   UNL A   1      35.886  30.935  28.023  1.00  0.00     0.060 A 
ATOM     27  C   UNL A   1      35.885  29.613  28.469  1.00  0.00     0.016 A 
ATOM     28  C   UNL A   1      37.070  31.674  27.999  1.00  0.00     0.016 A 
ATOM     29  C   UNL A   1      37.063  29.017  28.897  1.00  0.00     0.010 A 
ATOM     30  C   UNL A   1      38.257  31.076  28.441  1.00  0.00     0.010 A 
ATOM     31  C   UNL A   1      38.254  29.750  28.907  1.00  0.00    -0.014 A 
BRANCH  31  32
ATOM     32  C   UNL A   1      39.466  29.124  29.483  1.00  0.00     0.031 A 
ATOM     33  C   UNL A   1      40.008  29.620  30.792  1.00  0.00     0.074 A 
ATOM     34  C   UNL A   1      40.037  28.074  28.863  1.00  0.00     0.049 A 
ATOM     35  N   UNL A   1      41.023  29.175  31.483  1.00  0.00    -0.248 NA
ATOM     36  C   UNL A   1      39.314  30.764  31.407  1.00  0.00     0.031 C 
ATOM     37  C   UNL A   1      39.580  27.499  27.599  1.00  0.00     0.029 A 
ATOM     38  N   UNL A   1      41.117  27.305  29.214  1.00  0.00    -0.354 N 
ATOM     39  C   UNL A   1      41.112  30.000  32.597  1.00  0.00     0.074 A 
ATOM     40  C   UNL A   1      40.051  30.978  32.487  1.00  0.00     0.031 C 
ATOM     41  C   UNL A   1      40.373  26.463  27.280  1.00  0.00     0.029 A 
ATOM     42  C   UNL A   1      41.409  26.319  28.302  1.00  0.00     0.049 A 
ATOM     43  H   UNL A   1      41.634  27.447  30.039  1.00  0.00     0.167 HD
ATOM     44  C   UNL A   1      41.987  29.933  33.627  1.00  0.00     0.034 A 
ATOM     45  C   UNL A   1      42.400  25.406  28.289  1.00  0.00     0.034 A 
ATOM     46  C   UNL A   1      43.010  28.932  33.748  1.00  0.00     0.049 A 
ATOM     47  C   UNL A   1      43.365  25.355  29.442  1.00  0.00     0.074 A 
ATOM     48  C   UNL A   1      43.917  28.755  34.778  1.00  0.00     0.029 A 
ATOM     49  N   UNL A   1      43.265  27.941  32.813  1.00  0.00    -0.354 N 
ATOM     50  N   UNL A   1      43.377  26.081  30.534  1.00  0.00    -0.248 NA
ATOM     51  C   UNL A   1      44.435  24.349  29.380  1.00  0.00     0.031 C 
ATOM     52  C   UNL A   1      44.735  27.669  34.455  1.00  0.00     0.029 A 
ATOM     53  C   UNL A   1      44.323  27.155  33.235  1.00  0.00     0.049 A 
ATOM     54  H   UNL A   1      42.768  27.814  31.973  1.00  0.00     0.167 HD
ATOM     55  C   UNL A   1      44.435  25.604  31.301  1.00  0.00     0.074 A 
ATOM     56  C   UNL A   1      45.033  24.518  30.553  1.00  0.00     0.031 C 
ATOM     57  C   UNL A   1      44.874  26.039  32.507  1.00  0.00     0.034 A 
BRANCH  44  58
ATOM     58  C   UNL A   1      41.860  30.952  34.725  1.00  0.00     0.023 A 
ATOM     59  C   UNL A   1      41.053  30.670  35.845  1.00  0.00     0.012 A 
ATOM     60  C   UNL A   1      42.597  32.151  34.687  1.00  0.00     0.148 A 
ATOM     61  C   UNL A   1      40.964  31.577  36.900  1.00  0.00     0.002 A 
ATOM     62  C   UNL A   1      42.534  33.033  35.760  1.00  0.00     0.091 A 
ATOM     63  F   UNL A   1      43.338  32.412  33.600  1.00  0.00    -0.205 F 
ATOM     64  C   UNL A   1      41.712  32.751  36.864  1.00  0.00     0.022 A 
BRANCH  62  65
ATOM     65  S   UNL A   1      43.522  34.531  35.834  1.00  0.00     0.127 S 
ATOM     66  O   UNL A   1      42.899  35.241  36.949  1.00  0.00    -0.237 OA
ATOM     67  O   UNL A   1      44.860  34.007  36.116  1.00  0.00    -0.237 OA
ATOM     68  O   UNL A   1      43.385  35.164  34.529  1.00  0.00    -0.744 OA
ENDBRANCH  62  65
ENDBRANCH  44  58
BRANCH  45  69
ATOM     69  C   UNL A   1      42.471  24.429  27.165  1.00  0.00     0.023 A 
ATOM     70  C   UNL A   1      43.231  24.743  26.022  1.00  0.00     0.012 A 
ATOM     71  C   UNL A   1      41.872  23.158  27.265  1.00  0.00     0.148 A 
ATOM     72  C   UNL A   1      43.391  23.809  24.997  1.00  0.00     0.002 A 
ATOM     73  C   UNL A   1      42.082  22.213  26.268  1.00  0.00     0.091 A 
ATOM     74  F   UNL A   1      41.137  22.888  28.353  1.00  0.00    -0.205 F 
ATOM     75  C   UNL A   1      42.831  22.540  25.128  1.00  0.00     0.022 A 
BRANCH  73  76
ATOM     76  S   UNL A   1      41.522  20.512  26.415  1.00  0.00     0.127 S 
ATOM     77  O   UNL A   1      41.904  20.188  27.787  1.00  0.00    -0.237 OA
ATOM     78  O   UNL A   1      40.083  20.648  26.191  1.00  0.00    -0.237 OA
ATOM     79  O   UNL A   1      42.225  19.772  25.375  1.00  0.00    -0.744 OA
ENDBRANCH  73  76
ENDBRANCH  45  69
BRANCH  57  80
ATOM     80  C   UNL A   1      46.055  25.346  33.131  1.00  0.00     0.023 A 
ATOM     81  C   UNL A   1      47.338  25.912  33.001  1.00  0.00     0.012 A 
ATOM     82  C   UNL A   1      45.870  24.234  33.977  1.00  0.00     0.148 A 
ATOM     83  C   UNL A   1      48.421  25.380  33.701  1.00  0.00     0.002 A 
ATOM     84  C   UNL A   1      46.943  23.737  34.706  1.00  0.00     0.091 A 
ATOM     85  F   UNL A   1      44.641  23.706  34.075  1.00  0.00    -0.205 F 
ATOM     86  C   UNL A   1      48.220  24.305  34.564  1.00  0.00     0.022 A 
BRANCH  84  87
ATOM     87  S   UNL A   1      46.765  22.423  35.919  1.00  0.00     0.127 S 
ATOM     88  O   UNL A   1      46.549  21.256  35.064  1.00  0.00    -0.237 OA
ATOM     89  O   UNL A   1      48.060  22.451  36.598  1.00  0.00    -0.237 OA
ATOM     90  O   UNL A   1      45.632  22.796  36.755  1.00  0.00    -0.744 OA
ENDBRANCH  84  87
ENDBRANCH  57  80
ENDBRANCH  31  32
ENDBRANCH  24  26
ENDBRANCH  23  24
ENDBRANCH  22  23
ENDBRANCH   1  22
TORSDOF 18
ENDMDL
MODEL 2
REMARK VINA RESULT:      -9.8      5.993     11.647
REMARK SMILES [NH3+][C@@H](Cc1ccc(F)cc1C(F)(F)F)C(=O)OCCOC(=O)c1ccc(-c2c3nc(c(-c4cccc(S(=O)(=O)[O-])c4F)c4ccc([nH]4)c(-c4cccc(S(=O)(=O)[O-])c4F)c4nc(c(-c5cccc(S(=O)(=O)[O-])c5F)c5ccc2[nH]5)C=C4)C=C3)cc1
REMARK SMILES IDX 18 1 17 2 15 3 16 4 2 5 1 6 3 10 4 11 5 12 10 13 6 14 9 15
REMARK SMILES IDX 7 16 8 17 11 18 12 19 13 20 14 21 19 22 20 23 21 24 22 25
REMARK SMILES IDX 23 26 24 27 85 28 25 29 84 30 26 31 27 32 28 33 78 34 29 35
REMARK SMILES IDX 83 36 77 37 79 38 30 39 82 40 76 41 75 42 31 44 63 45 43 46
REMARK SMILES IDX 62 47 44 48 47 49 61 50 80 51 45 52 46 53 60 55 81 56 48 57
REMARK SMILES IDX 32 58 33 59 41 60 34 61 36 62 42 63 35 64 37 65 38 66 39 67
REMARK SMILES IDX 40 68 64 69 65 70 73 71 66 72 68 73 74 74 67 75 69 76 70 77
REMARK SMILES IDX 71 78 72 79 49 80 50 81 58 82 51 83 53 84 59 85 52 86 54 87
REMARK SMILES IDX 55 88 56 89 57 90
REMARK H PARENT 1 7 1 8 1 9 79 43 47 54
REMARK Flexibility Score: inf
ROOT
ATOM      1  C   UNL A   1      35.971  19.953  24.965  1.00  0.00     0.274 C 
ENDROOT
BRANCH   1   2
ATOM      2  O   UNL A   1      35.349  21.163  25.438  1.00  0.00    -0.458 OA
BRANCH   2   3
ATOM      3  C   UNL A   1      34.232  21.003  26.205  1.00  0.00     0.365 C 
ATOM      4  O   UNL A   1      34.050  21.539  27.293  1.00  0.00    -0.245 OA
BRANCH   3   5
ATOM      5  C   UNL A   1      33.242  20.000  25.597  1.00  0.00     0.296 C 
BRANCH   5   6
ATOM      6  N   UNL A   1      32.864  18.897  26.504  1.00  0.00    -0.346 N 
ATOM      7  H   UNL A   1      32.977  19.198  27.472  1.00  0.00     0.345 HD
ATOM      8  H   UNL A   1      33.463  18.090  26.327  1.00  0.00     0.345 HD
ATOM      9  H   UNL A   1      31.890  18.640  26.340  1.00  0.00     0.345 HD
ENDBRANCH   5   6
BRANCH   5  10
ATOM     10  C   UNL A   1      32.071  20.741  24.924  1.00  0.00     0.113 C 
BRANCH  10  11
ATOM     11  C   UNL A   1      31.891  22.245  25.079  1.00  0.00    -0.029 A 
ATOM     12  C   UNL A   1      31.202  22.797  26.176  1.00  0.00     0.007 A 
ATOM     13  C   UNL A   1      32.388  23.133  24.086  1.00  0.00     0.062 A 
ATOM     14  C   UNL A   1      31.058  24.176  26.334  1.00  0.00     0.039 A 
ATOM     15  C   UNL A   1      32.247  24.525  24.275  1.00  0.00     0.052 A 
ATOM     16  C   UNL A   1      31.595  25.029  25.389  1.00  0.00     0.123 A 
ATOM     17  F   UNL A   1      31.472  26.353  25.542  1.00  0.00    -0.207 F 
BRANCH  13  18
ATOM     18  C   UNL A   1      33.089  22.704  22.807  1.00  0.00     0.416 C 
ATOM     19  F   UNL A   1      33.033  23.680  21.853  1.00  0.00    -0.166 F 
ATOM     20  F   UNL A   1      34.414  22.466  23.007  1.00  0.00    -0.166 F 
ATOM     21  F   UNL A   1      32.589  21.595  22.205  1.00  0.00    -0.166 F 
ENDBRANCH  13  18
ENDBRANCH  10  11
ENDBRANCH   5  10
ENDBRANCH   3   5
ENDBRANCH   2   3
ENDBRANCH   1   2
BRANCH   1  22
ATOM     22  C   UNL A   1      37.462  20.172  24.702  1.00  0.00     0.275 C 
BRANCH  22  23
ATOM     23  O   UNL A   1      37.975  21.249  25.504  1.00  0.00    -0.458 OA
BRANCH  23  24
ATOM     24  C   UNL A   1      39.169  20.990  26.093  1.00  0.00     0.338 C 
ATOM     25  O   UNL A   1      39.788  19.939  26.062  1.00  0.00    -0.246 OA
BRANCH  24  26
ATOM     26  C   UNL A   1      39.714  22.236  26.657  1.00  0.00     0.060 A 
ATOM     27  C   UNL A   1      39.216  23.440  26.157  1.00  0.00     0.016 A 
ATOM     28  C   UNL A   1      40.733  22.233  27.611  1.00  0.00     0.016 A 
ATOM     29  C   UNL A   1      39.730  24.650  26.602  1.00  0.00     0.010 A 
ATOM     30  C   UNL A   1      41.259  23.454  28.052  1.00  0.00     0.010 A 
ATOM     31  C   UNL A   1      40.770  24.666  27.537  1.00  0.00    -0.014 A 
BRANCH  31  32
ATOM     32  C   UNL A   1      41.378  25.968  27.898  1.00  0.00     0.031 A 
ATOM     33  C   UNL A   1      42.769  26.291  27.437  1.00  0.00     0.074 A 
ATOM     34  C   UNL A   1      40.657  26.876  28.581  1.00  0.00     0.049 A 
ATOM     35  N   UNL A   1      43.456  27.390  27.605  1.00  0.00    -0.248 NA
ATOM     36  C   UNL A   1      43.480  25.244  26.685  1.00  0.00     0.031 C 
ATOM     37  C   UNL A   1      39.290  26.674  29.058  1.00  0.00     0.029 A 
ATOM     38  N   UNL A   1      40.971  28.149  28.986  1.00  0.00    -0.354 N 
ATOM     39  C   UNL A   1      44.689  27.159  27.010  1.00  0.00     0.074 A 
ATOM     40  C   UNL A   1      44.660  25.812  26.480  1.00  0.00     0.031 C 
ATOM     41  C   UNL A   1      38.880  27.786  29.690  1.00  0.00     0.029 A 
ATOM     42  C   UNL A   1      39.963  28.767  29.686  1.00  0.00     0.049 A 
ATOM     43  H   UNL A   1      41.837  28.577  28.794  1.00  0.00     0.167 HD
ATOM     44  C   UNL A   1      45.741  28.002  26.897  1.00  0.00     0.034 A 
ATOM     45  C   UNL A   1      39.918  29.985  30.261  1.00  0.00     0.034 A 
ATOM     46  C   UNL A   1      45.746  29.352  27.389  1.00  0.00     0.049 A 
ATOM     47  C   UNL A   1      41.103  30.903  30.129  1.00  0.00     0.074 A 
ATOM     48  C   UNL A   1      46.750  30.298  27.283  1.00  0.00     0.029 A 
ATOM     49  N   UNL A   1      44.702  29.948  28.078  1.00  0.00    -0.354 N 
ATOM     50  N   UNL A   1      42.225  30.704  29.479  1.00  0.00    -0.248 NA
ATOM     51  C   UNL A   1      41.013  32.218  30.780  1.00  0.00     0.031 C 
ATOM     52  C   UNL A   1      46.320  31.461  27.928  1.00  0.00     0.029 A 
ATOM     53  C   UNL A   1      45.040  31.247  28.416  1.00  0.00     0.049 A 
ATOM     54  H   UNL A   1      43.845  29.513  28.296  1.00  0.00     0.167 HD
ATOM     55  C   UNL A   1      42.963  31.875  29.621  1.00  0.00     0.074 A 
ATOM     56  C   UNL A   1      42.154  32.784  30.407  1.00  0.00     0.031 C 
ATOM     57  C   UNL A   1      44.202  32.161  29.151  1.00  0.00     0.034 A 
BRANCH  44  58
ATOM     58  C   UNL A   1      46.970  27.503  26.188  1.00  0.00     0.023 A 
ATOM     59  C   UNL A   1      47.158  27.807  24.825  1.00  0.00     0.012 A 
ATOM     60  C   UNL A   1      47.972  26.802  26.886  1.00  0.00     0.148 A 
ATOM     61  C   UNL A   1      48.315  27.401  24.162  1.00  0.00     0.002 A 
ATOM     62  C   UNL A   1      49.141  26.435  26.229  1.00  0.00     0.091 A 
ATOM     63  F   UNL A   1      47.762  26.500  28.176  1.00  0.00    -0.205 F 
ATOM     64  C   UNL A   1      49.311  26.727  24.865  1.00  0.00     0.022 A 
BRANCH  62  65
ATOM     65  S   UNL A   1      50.509  25.633  27.072  1.00  0.00     0.127 S 
ATOM     66  O   UNL A   1      51.492  25.518  25.997  1.00  0.00    -0.237 OA
ATOM     67  O   UNL A   1      50.849  26.607  28.109  1.00  0.00    -0.237 OA
ATOM     68  O   UNL A   1      49.981  24.373  27.578  1.00  0.00    -0.744 OA
ENDBRANCH  62  65
ENDBRANCH  44  58
BRANCH  45  69
ATOM     69  C   UNL A   1      38.671  30.414  30.955  1.00  0.00     0.023 A 
ATOM     70  C   UNL A   1      38.570  30.270  32.352  1.00  0.00     0.012 A 
ATOM     71  C   UNL A   1      37.627  31.049  30.252  1.00  0.00     0.148 A 
ATOM     72  C   UNL A   1      37.453  30.749  33.037  1.00  0.00     0.002 A 
ATOM     73  C   UNL A   1      36.544  31.574  30.947  1.00  0.00     0.091 A 
ATOM     74  F   UNL A   1      37.734  31.158  28.920  1.00  0.00    -0.205 F 
ATOM     75  C   UNL A   1      36.449  31.415  32.337  1.00  0.00     0.022 A 
BRANCH  73  76
ATOM     76  S   UNL A   1      35.277  32.570  30.151  1.00  0.00     0.127 S 
ATOM     77  O   UNL A   1      34.332  32.783  31.245  1.00  0.00    -0.237 OA
ATOM     78  O   UNL A   1      36.034  33.756  29.751  1.00  0.00    -0.237 OA
ATOM     79  O   UNL A   1      34.783  31.768  29.040  1.00  0.00    -0.744 OA
ENDBRANCH  73  76
ENDBRANCH  45  69
BRANCH  57  80
ATOM     80  C   UNL A   1      44.784  33.517  29.447  1.00  0.00     0.023 A 
ATOM     81  C   UNL A   1      45.545  33.703  30.618  1.00  0.00     0.012 A 
ATOM     82  C   UNL A   1      44.715  34.552  28.493  1.00  0.00     0.148 A 
ATOM     83  C   UNL A   1      46.228  34.899  30.835  1.00  0.00     0.002 A 
ATOM     84  C   UNL A   1      45.434  35.724  28.695  1.00  0.00     0.091 A 
ATOM     85  F   UNL A   1      43.975  34.355  27.392  1.00  0.00    -0.205 F 
ATOM     86  C   UNL A   1      46.185  35.901  29.868  1.00  0.00     0.022 A 
BRANCH  84  87
ATOM     87  S   UNL A   1      45.525  37.028  27.463  1.00  0.00     0.127 S 
ATOM     88  O   UNL A   1      46.069  36.312  26.310  1.00  0.00    -0.237 OA
ATOM     89  O   UNL A   1      44.123  37.425  27.328  1.00  0.00    -0.237 OA
ATOM     90  O   UNL A   1      46.394  38.054  28.022  1.00  0.00    -0.744 OA
ENDBRANCH  84  87
ENDBRANCH  57  80
ENDBRANCH  31  32
ENDBRANCH  24  26
ENDBRANCH  23  24
ENDBRANCH  22  23
ENDBRANCH   1  22
TORSDOF 18
ENDMDL
MODEL 3
REMARK VINA RESULT:      -9.7      5.756     11.396
REMARK SMILES [NH3+][C@@H](Cc1ccc(F)cc1C(F)(F)F)C(=O)OCCOC(=O)c1ccc(-c2c3nc(c(-c4cccc(S(=O)(=O)[O-])c4F)c4ccc([nH]4)c(-c4cccc(S(=O)(=O)[O-])c4F)c4nc(c(-c5cccc(S(=O)(=O)[O-])c5F)c5ccc2[nH]5)C=C4)C=C3)cc1
REMARK SMILES IDX 18 1 17 2 15 3 16 4 2 5 1 6 3 10 4 11 5 12 10 13 6 14 9 15
REMARK SMILES IDX 7 16 8 17 11 18 12 19 13 20 14 21 19 22 20 23 21 24 22 25
REMARK SMILES IDX 23 26 24 27 85 28 25 29 84 30 26 31 27 32 28 33 78 34 29 35
REMARK SMILES IDX 83 36 77 37 79 38 30 39 82 40 76 41 75 42 31 44 63 45 43 46
REMARK SMILES IDX 62 47 44 48 47 49 61 50 80 51 45 52 46 53 60 55 81 56 48 57
REMARK SMILES IDX 32 58 33 59 41 60 34 61 36 62 42 63 35 64 37 65 38 66 39 67
REMARK SMILES IDX 40 68 64 69 65 70 73 71 66 72 68 73 74 74 67 75 69 76 70 77
REMARK SMILES IDX 71 78 72 79 49 80 50 81 58 82 51 83 53 84 59 85 52 86 54 87
REMARK SMILES IDX 55 88 56 89 57 90
REMARK H PARENT 1 7 1 8 1 9 79 43 47 54
REMARK Flexibility Score: inf
ROOT
ATOM      1  C   UNL A   1      35.319  20.276  24.998  1.00  0.00     0.274 C 
ENDROOT
BRANCH   1   2
ATOM      2  O   UNL A   1      34.935  21.414  25.793  1.00  0.00    -0.458 OA
BRANCH   2   3
ATOM      3  C   UNL A   1      33.689  21.917  25.557  1.00  0.00     0.365 C 
ATOM      4  O   UNL A   1      32.838  22.106  26.419  1.00  0.00    -0.245 OA
BRANCH   3   5
ATOM      5  C   UNL A   1      33.424  22.151  24.064  1.00  0.00     0.296 C 
BRANCH   5   6
ATOM      6  N   UNL A   1      31.995  22.127  23.691  1.00  0.00    -0.346 N 
ATOM      7  H   UNL A   1      31.892  22.418  22.718  1.00  0.00     0.345 HD
ATOM      8  H   UNL A   1      31.475  22.766  24.292  1.00  0.00     0.345 HD
ATOM      9  H   UNL A   1      31.629  21.181  23.802  1.00  0.00     0.345 HD
ENDBRANCH   5   6
BRANCH   5  10
ATOM     10  C   UNL A   1      34.225  23.366  23.559  1.00  0.00     0.113 C 
BRANCH  10  11
ATOM     11  C   UNL A   1      33.540  24.682  23.221  1.00  0.00    -0.029 A 
ATOM     12  C   UNL A   1      33.013  24.933  21.940  1.00  0.00     0.007 A 
ATOM     13  C   UNL A   1      33.450  25.715  24.195  1.00  0.00     0.062 A 
ATOM     14  C   UNL A   1      32.360  26.129  21.635  1.00  0.00     0.039 A 
ATOM     15  C   UNL A   1      32.770  26.909  23.871  1.00  0.00     0.052 A 
ATOM     16  C   UNL A   1      32.233  27.101  22.609  1.00  0.00     0.123 A 
ATOM     17  F   UNL A   1      31.596  28.244  22.326  1.00  0.00    -0.207 F 
BRANCH  13  18
ATOM     18  C   UNL A   1      34.028  25.639  25.599  1.00  0.00     0.416 C 
ATOM     19  F   UNL A   1      34.233  26.883  26.124  1.00  0.00    -0.166 F 
ATOM     20  F   UNL A   1      33.186  25.012  26.464  1.00  0.00    -0.166 F 
ATOM     21  F   UNL A   1      35.226  25.009  25.709  1.00  0.00    -0.166 F 
ENDBRANCH  13  18
ENDBRANCH  10  11
ENDBRANCH   5  10
ENDBRANCH   3   5
ENDBRANCH   2   3
ENDBRANCH   1   2
BRANCH   1  22
ATOM     22  C   UNL A   1      36.839  20.209  24.839  1.00  0.00     0.275 C 
BRANCH  22  23
ATOM     23  O   UNL A   1      37.479  21.298  25.524  1.00  0.00    -0.458 OA
BRANCH  23  24
ATOM     24  C   UNL A   1      38.746  21.038  25.932  1.00  0.00     0.338 C 
ATOM     25  O   UNL A   1      39.375  20.009  25.753  1.00  0.00    -0.246 OA
BRANCH  24  26
ATOM     26  C   UNL A   1      39.338  22.264  26.493  1.00  0.00     0.060 A 
ATOM     27  C   UNL A   1      38.811  23.485  26.069  1.00  0.00     0.016 A 
ATOM     28  C   UNL A   1      40.424  22.228  27.369  1.00  0.00     0.016 A 
ATOM     29  C   UNL A   1      39.363  24.679  26.513  1.00  0.00     0.010 A 
ATOM     30  C   UNL A   1      40.988  23.432  27.808  1.00  0.00     0.010 A 
ATOM     31  C   UNL A   1      40.469  24.662  27.369  1.00  0.00    -0.014 A 
BRANCH  31  32
ATOM     32  C   UNL A   1      41.109  25.949  27.725  1.00  0.00     0.031 A 
ATOM     33  C   UNL A   1      42.501  26.244  27.247  1.00  0.00     0.074 A 
ATOM     34  C   UNL A   1      40.417  26.871  28.420  1.00  0.00     0.049 A 
ATOM     35  N   UNL A   1      43.213  27.328  27.409  1.00  0.00    -0.248 NA
ATOM     36  C   UNL A   1      43.179  25.185  26.483  1.00  0.00     0.031 C 
ATOM     37  C   UNL A   1      39.052  26.696  28.915  1.00  0.00     0.029 A 
ATOM     38  N   UNL A   1      40.763  28.135  28.824  1.00  0.00    -0.354 N 
ATOM     39  C   UNL A   1      44.432  27.072  26.797  1.00  0.00     0.074 A 
ATOM     40  C   UNL A   1      44.368  25.728  26.264  1.00  0.00     0.031 C 
ATOM     41  C   UNL A   1      38.674  27.814  29.554  1.00  0.00     0.029 A 
ATOM     42  C   UNL A   1      39.777  28.773  29.538  1.00  0.00     0.049 A 
ATOM     43  H   UNL A   1      41.635  28.545  28.622  1.00  0.00     0.167 HD
ATOM     44  C   UNL A   1      45.501  27.893  26.673  1.00  0.00     0.034 A 
ATOM     45  C   UNL A   1      39.765  29.990  30.117  1.00  0.00     0.034 A 
ATOM     46  C   UNL A   1      45.540  29.242  27.168  1.00  0.00     0.049 A 
ATOM     47  C   UNL A   1      40.968  30.882  29.972  1.00  0.00     0.074 A 
ATOM     48  C   UNL A   1      46.562  30.166  27.051  1.00  0.00     0.029 A 
ATOM     49  N   UNL A   1      44.518  29.858  27.872  1.00  0.00    -0.354 N 
ATOM     50  N   UNL A   1      42.077  30.662  29.307  1.00  0.00    -0.248 NA
ATOM     51  C   UNL A   1      40.914  32.197  30.627  1.00  0.00     0.031 C 
ATOM     52  C   UNL A   1      46.166  31.336  27.704  1.00  0.00     0.029 A 
ATOM     53  C   UNL A   1      44.888  31.148  28.208  1.00  0.00     0.049 A 
ATOM     54  H   UNL A   1      43.656  29.440  28.100  1.00  0.00     0.167 HD
ATOM     55  C   UNL A   1      42.841  31.817  29.442  1.00  0.00     0.074 A 
ATOM     56  C   UNL A   1      42.062  32.740  30.241  1.00  0.00     0.031 C 
ATOM     57  C   UNL A   1      44.079  32.078  28.957  1.00  0.00     0.034 A 
BRANCH  44  58
ATOM     58  C   UNL A   1      46.709  27.371  25.946  1.00  0.00     0.023 A 
ATOM     59  C   UNL A   1      46.821  27.562  24.554  1.00  0.00     0.012 A 
ATOM     60  C   UNL A   1      47.767  26.761  26.648  1.00  0.00     0.148 A 
ATOM     61  C   UNL A   1      47.957  27.134  23.869  1.00  0.00     0.002 A 
ATOM     62  C   UNL A   1      48.914  26.372  25.965  1.00  0.00     0.091 A 
ATOM     63  F   UNL A   1      47.630  26.565  27.968  1.00  0.00    -0.205 F 
ATOM     64  C   UNL A   1      49.007  26.551  24.575  1.00  0.00     0.022 A 
BRANCH  62  65
ATOM     65  S   UNL A   1      50.346  25.685  26.802  1.00  0.00     0.127 S 
ATOM     66  O   UNL A   1      50.651  26.732  27.775  1.00  0.00    -0.237 OA
ATOM     67  O   UNL A   1      49.808  24.453  27.380  1.00  0.00    -0.237 OA
ATOM     68  O   UNL A   1      51.350  25.477  25.767  1.00  0.00    -0.744 OA
ENDBRANCH  62  65
ENDBRANCH  44  58
BRANCH  45  69
ATOM     69  C   UNL A   1      38.536  30.443  30.829  1.00  0.00     0.023 A 
ATOM     70  C   UNL A   1      38.436  30.262  32.222  1.00  0.00     0.012 A 
ATOM     71  C   UNL A   1      37.514  31.134  30.149  1.00  0.00     0.148 A 
ATOM     72  C   UNL A   1      37.339  30.761  32.925  1.00  0.00     0.002 A 
ATOM     73  C   UNL A   1      36.452  31.678  30.863  1.00  0.00     0.091 A 
ATOM     74  F   UNL A   1      37.620  31.277  28.820  1.00  0.00    -0.205 F 
ATOM     75  C   UNL A   1      36.356  31.483  32.249  1.00  0.00     0.022 A 
BRANCH  73  76
ATOM     76  S   UNL A   1      35.219  32.740  30.102  1.00  0.00     0.127 S 
ATOM     77  O   UNL A   1      36.039  33.838  29.598  1.00  0.00    -0.237 OA
ATOM     78  O   UNL A   1      34.662  31.864  29.072  1.00  0.00    -0.237 OA
ATOM     79  O   UNL A   1      34.286  33.088  31.165  1.00  0.00    -0.744 OA
ENDBRANCH  73  76
ENDBRANCH  45  69
BRANCH  57  80
ATOM     80  C   UNL A   1      44.694  33.421  29.249  1.00  0.00     0.023 A 
ATOM     81  C   UNL A   1      45.488  33.582  30.401  1.00  0.00     0.012 A 
ATOM     82  C   UNL A   1      44.620  34.464  28.304  1.00  0.00     0.148 A 
ATOM     83  C   UNL A   1      46.198  34.764  30.611  1.00  0.00     0.002 A 
ATOM     84  C   UNL A   1      45.365  35.621  28.498  1.00  0.00     0.091 A 
ATOM     85  F   UNL A   1      43.848  34.290  27.222  1.00  0.00    -0.205 F 
ATOM     86  C   UNL A   1      46.149  35.775  29.652  1.00  0.00     0.022 A 
BRANCH  84  87
ATOM     87  S   UNL A   1      45.449  36.934  27.274  1.00  0.00     0.127 S 
ATOM     88  O   UNL A   1      46.307  37.911  27.943  1.00  0.00    -0.237 OA
ATOM     89  O   UNL A   1      46.069  36.257  26.135  1.00  0.00    -0.237 OA
ATOM     90  O   UNL A   1      44.076  37.366  27.048  1.00  0.00    -0.744 OA
ENDBRANCH  84  87
ENDBRANCH  57  80
ENDBRANCH  31  32
ENDBRANCH  24  26
ENDBRANCH  23  24
ENDBRANCH  22  23
ENDBRANCH   1  22
TORSDOF 18
ENDMDL
