MODEL 1
REMARK VINA RESULT:     -12.2      0.000      0.000
REMARK SMILES CC[C@@H]1CCCN(S(=O)(=O)c2cc(C(=O)OCCOC(=O)c3ccc(-c4c5nc(c(-c6cccc(S(=O)(=O)[O-])c6F)c6ccc([nH]6)c(-c6cccc(S(=O)(=O)[O-])c6F)c6nc(c(-c7cccc(S(=O)(=O)[O-])c7F)c7ccc4[nH]7)C=C6)C=C5)cc3)ccc2F)C1
REMARK SMILES IDX 17 1 16 2 14 3 15 4 13 5 11 6 12 7 87 8 86 9 88 10 85 11
REMARK SMILES IDX 8 12 9 13 10 14 7 15 3 16 4 17 89 18 5 19 6 20 2 21 1 22
REMARK SMILES IDX 18 23 19 24 20 25 21 26 22 27 23 28 84 29 24 30 83 31 25 32
REMARK SMILES IDX 26 33 27 34 77 35 28 36 82 37 76 38 78 39 29 40 81 41 75 42
REMARK SMILES IDX 74 43 30 45 62 46 42 47 61 48 43 49 46 50 60 51 79 52 44 53
REMARK SMILES IDX 45 54 59 56 80 57 47 58 31 59 32 60 40 61 33 62 35 63 41 64
REMARK SMILES IDX 34 65 36 66 37 67 38 68 39 69 63 70 64 71 72 72 65 73 67 74
REMARK SMILES IDX 73 75 66 76 68 77 69 78 70 79 71 80 48 81 49 82 57 83 50 84
REMARK SMILES IDX 52 85 58 86 51 87 53 88 54 89 55 90 56 91
REMARK H PARENT 78 44 46 55
REMARK Flexibility Score: inf
ROOT
ATOM      1  C   UNL A   1      36.289  20.612  24.889  1.00  0.00     0.275 C 
ENDROOT
BRANCH   1   2
ATOM      2  O   UNL A   1      36.109  22.044  24.877  1.00  0.00    -0.458 OA
BRANCH   2   3
ATOM      3  C   UNL A   1      35.887  22.611  23.665  1.00  0.00     0.338 C 
ATOM      4  O   UNL A   1      36.690  22.728  22.756  1.00  0.00    -0.246 OA
BRANCH   3   5
ATOM      5  C   UNL A   1      34.461  23.004  23.532  1.00  0.00     0.061 A 
ATOM      6  C   UNL A   1      32.836  24.707  22.930  1.00  0.00     0.119 A 
ATOM      7  C   UNL A   1      34.160  24.330  23.182  1.00  0.00     0.040 A 
ATOM      8  C   UNL A   1      31.815  23.779  23.090  1.00  0.00     0.143 A 
ATOM      9  C   UNL A   1      32.099  22.480  23.508  1.00  0.00     0.041 A 
ATOM     10  F   UNL A   1      30.533  24.104  22.876  1.00  0.00    -0.206 F 
ATOM     11  C   UNL A   1      33.423  22.083  23.711  1.00  0.00     0.019 A 
BRANCH   6  12
ATOM     12  S   UNL A   1      32.515  26.262  22.154  1.00  0.00     0.246 S 
ATOM     13  O   UNL A   1      31.555  26.045  21.086  1.00  0.00    -0.207 OA
ATOM     14  O   UNL A   1      33.797  26.858  21.864  1.00  0.00    -0.207 OA
BRANCH  12  15
ATOM     15  N   UNL A   1      31.750  27.250  23.364  1.00  0.00    -0.197 NA
ATOM     16  C   UNL A   1      32.262  28.539  25.521  1.00  0.00     0.004 C 
ATOM     17  C   UNL A   1      31.598  29.762  24.878  1.00  0.00     0.006 C 
ATOM     18  C   UNL A   1      32.758  27.558  24.445  1.00  0.00     0.106 C 
ATOM     19  C   UNL A   1      30.529  29.349  23.878  1.00  0.00     0.017 C 
ATOM     20  C   UNL A   1      31.131  28.476  22.792  1.00  0.00     0.102 C 
BRANCH  16  21
ATOM     21  C   UNL A   1      31.365  27.869  26.581  1.00  0.00     0.001 C 
ATOM     22  C   UNL A   1      31.648  26.371  26.698  1.00  0.00     0.004 C 
ENDBRANCH  16  21
ENDBRANCH  12  15
ENDBRANCH   6  12
ENDBRANCH   3   5
ENDBRANCH   2   3
ENDBRANCH   1   2
BRANCH   1  23
ATOM     23  C   UNL A   1      37.767  20.244  25.004  1.00  0.00     0.275 C 
BRANCH  23  24
ATOM     24  O   UNL A   1      38.538  21.394  25.396  1.00  0.00    -0.458 OA
BRANCH  24  25
ATOM     25  C   UNL A   1      39.565  21.147  26.241  1.00  0.00     0.338 C 
ATOM     26  O   UNL A   1      40.119  20.080  26.443  1.00  0.00    -0.246 OA
BRANCH  25  27
ATOM     27  C   UNL A   1      40.012  22.408  26.849  1.00  0.00     0.060 A 
ATOM     28  C   UNL A   1      39.474  23.593  26.362  1.00  0.00     0.016 A 
ATOM     29  C   UNL A   1      41.048  22.437  27.781  1.00  0.00     0.016 A 
ATOM     30  C   UNL A   1      40.028  24.816  26.727  1.00  0.00     0.010 A 
ATOM     31  C   UNL A   1      41.539  23.675  28.221  1.00  0.00     0.010 A 
ATOM     32  C   UNL A   1      41.063  24.881  27.671  1.00  0.00    -0.014 A 
BRANCH  32  33
ATOM     33  C   UNL A   1      41.654  26.199  28.050  1.00  0.00     0.031 A 
ATOM     34  C   UNL A   1      40.832  27.217  28.799  1.00  0.00     0.074 A 
ATOM     35  C   UNL A   1      42.933  26.491  27.733  1.00  0.00     0.049 A 
ATOM     36  N   UNL A   1      41.107  28.471  29.059  1.00  0.00    -0.248 NA
ATOM     37  C   UNL A   1      39.523  26.778  29.309  1.00  0.00     0.031 C 
ATOM     38  C   UNL A   1      43.859  25.594  27.039  1.00  0.00     0.029 A 
ATOM     39  N   UNL A   1      43.678  27.627  27.949  1.00  0.00    -0.354 N 
ATOM     40  C   UNL A   1      39.980  28.987  29.690  1.00  0.00     0.074 A 
ATOM     41  C   UNL A   1      39.019  27.909  29.783  1.00  0.00     0.031 C 
ATOM     42  C   UNL A   1      45.050  26.195  26.917  1.00  0.00     0.029 A 
ATOM     43  C   UNL A   1      44.953  27.554  27.436  1.00  0.00     0.049 A 
ATOM     44  H   UNL A   1      43.332  28.416  28.425  1.00  0.00     0.167 HD
ATOM     45  C   UNL A   1      39.770  30.241  30.157  1.00  0.00     0.034 A 
ATOM     46  C   UNL A   1      45.928  28.483  27.349  1.00  0.00     0.034 A 
ATOM     47  C   UNL A   1      40.761  31.285  30.148  1.00  0.00     0.049 A 
ATOM     48  C   UNL A   1      45.673  29.864  27.884  1.00  0.00     0.074 A 
ATOM     49  C   UNL A   1      40.652  32.575  30.637  1.00  0.00     0.029 A 
ATOM     50  N   UNL A   1      42.047  31.156  29.645  1.00  0.00    -0.354 N 
ATOM     51  N   UNL A   1      44.609  30.328  28.490  1.00  0.00    -0.248 NA
ATOM     52  C   UNL A   1      46.756  30.848  27.731  1.00  0.00     0.031 C 
ATOM     53  C   UNL A   1      41.864  33.232  30.413  1.00  0.00     0.029 A 
ATOM     54  C   UNL A   1      42.739  32.344  29.809  1.00  0.00     0.049 A 
ATOM     55  H   UNL A   1      42.412  30.341  29.231  1.00  0.00     0.167 HD
ATOM     56  C   UNL A   1      44.896  31.650  28.806  1.00  0.00     0.074 A 
ATOM     57  C   UNL A   1      46.246  31.906  28.349  1.00  0.00     0.031 C 
ATOM     58  C   UNL A   1      44.102  32.574  29.400  1.00  0.00     0.034 A 
BRANCH  45  59
ATOM     59  C   UNL A   1      38.423  30.566  30.754  1.00  0.00     0.023 A 
ATOM     60  C   UNL A   1      38.164  30.273  32.106  1.00  0.00     0.012 A 
ATOM     61  C   UNL A   1      37.454  31.259  29.998  1.00  0.00     0.148 A 
ATOM     62  C   UNL A   1      36.954  30.644  32.692  1.00  0.00     0.002 A 
ATOM     63  C   UNL A   1      36.270  31.667  30.602  1.00  0.00     0.091 A 
ATOM     64  F   UNL A   1      37.713  31.515  28.707  1.00  0.00    -0.205 F 
ATOM     65  C   UNL A   1      36.014  31.352  31.946  1.00  0.00     0.022 A 
BRANCH  63  66
ATOM     66  S   UNL A   1      35.038  32.660  29.750  1.00  0.00     0.127 S 
ATOM     67  O   UNL A   1      34.118  32.987  30.840  1.00  0.00    -0.237 OA
ATOM     68  O   UNL A   1      35.833  33.790  29.267  1.00  0.00    -0.237 OA
ATOM     69  O   UNL A   1      34.487  31.811  28.704  1.00  0.00    -0.744 OA
ENDBRANCH  63  66
ENDBRANCH  45  59
BRANCH  46  70
ATOM     70  C   UNL A   1      47.238  28.115  26.738  1.00  0.00     0.023 A 
ATOM     71  C   UNL A   1      48.321  27.778  27.572  1.00  0.00     0.012 A 
ATOM     72  C   UNL A   1      47.394  28.021  25.339  1.00  0.00     0.148 A 
ATOM     73  C   UNL A   1      49.535  27.360  27.025  1.00  0.00     0.002 A 
ATOM     74  C   UNL A   1      48.582  27.539  24.805  1.00  0.00     0.091 A 
ATOM     75  F   UNL A   1      46.361  28.373  24.560  1.00  0.00    -0.205 F 
ATOM     76  C   UNL A   1      49.660  27.223  25.645  1.00  0.00     0.022 A 
BRANCH  74  77
ATOM     77  S   UNL A   1      48.774  27.178  23.055  1.00  0.00     0.127 S 
ATOM     78  O   UNL A   1      48.168  25.853  22.955  1.00  0.00    -0.237 OA
ATOM     79  O   UNL A   1      48.002  28.257  22.437  1.00  0.00    -0.237 OA
ATOM     80  O   UNL A   1      50.206  27.240  22.794  1.00  0.00    -0.744 OA
ENDBRANCH  74  77
ENDBRANCH  46  70
BRANCH  58  81
ATOM     81  C   UNL A   1      44.665  33.953  29.620  1.00  0.00     0.023 A 
ATOM     82  C   UNL A   1      45.378  34.233  30.802  1.00  0.00     0.012 A 
ATOM     83  C   UNL A   1      44.579  34.935  28.612  1.00  0.00     0.148 A 
ATOM     84  C   UNL A   1      45.982  35.476  30.986  1.00  0.00     0.002 A 
ATOM     85  C   UNL A   1      45.223  36.154  28.783  1.00  0.00     0.091 A 
ATOM     86  F   UNL A   1      43.880  34.654  27.503  1.00  0.00    -0.205 F 
ATOM     87  C   UNL A   1      45.916  36.430  29.973  1.00  0.00     0.022 A 
BRANCH  85  88
ATOM     88  S   UNL A   1      45.278  37.406  27.495  1.00  0.00     0.127 S 
ATOM     89  O   UNL A   1      46.066  36.736  26.462  1.00  0.00    -0.237 OA
ATOM     90  O   UNL A   1      43.863  37.577  27.167  1.00  0.00    -0.237 OA
ATOM     91  O   UNL A   1      45.905  38.575  28.098  1.00  0.00    -0.744 OA
ENDBRANCH  85  88
ENDBRANCH  58  81
ENDBRANCH  32  33
ENDBRANCH  25  27
ENDBRANCH  24  25
ENDBRANCH  23  24
ENDBRANCH   1  23
TORSDOF 17
ENDMDL
MODEL 2
REMARK VINA RESULT:     -11.7      5.175     10.337
REMARK SMILES CC[C@@H]1CCCN(S(=O)(=O)c2cc(C(=O)OCCOC(=O)c3ccc(-c4c5nc(c(-c6cccc(S(=O)(=O)[O-])c6F)c6ccc([nH]6)c(-c6cccc(S(=O)(=O)[O-])c6F)c6nc(c(-c7cccc(S(=O)(=O)[O-])c7F)c7ccc4[nH]7)C=C6)C=C5)cc3)ccc2F)C1
REMARK SMILES IDX 17 1 16 2 14 3 15 4 13 5 11 6 12 7 87 8 86 9 88 10 85 11
REMARK SMILES IDX 8 12 9 13 10 14 7 15 3 16 4 17 89 18 5 19 6 20 2 21 1 22
REMARK SMILES IDX 18 23 19 24 20 25 21 26 22 27 23 28 84 29 24 30 83 31 25 32
REMARK SMILES IDX 26 33 27 34 77 35 28 36 82 37 76 38 78 39 29 40 81 41 75 42
REMARK SMILES IDX 74 43 30 45 62 46 42 47 61 48 43 49 46 50 60 51 79 52 44 53
REMARK SMILES IDX 45 54 59 56 80 57 47 58 31 59 32 60 40 61 33 62 35 63 41 64
REMARK SMILES IDX 34 65 36 66 37 67 38 68 39 69 63 70 64 71 72 72 65 73 67 74
REMARK SMILES IDX 73 75 66 76 68 77 69 78 70 79 71 80 48 81 49 82 57 83 50 84
REMARK SMILES IDX 52 85 58 86 51 87 53 88 54 89 55 90 56 91
REMARK H PARENT 78 44 46 55
REMARK Flexibility Score: inf
ROOT
ATOM      1  C   UNL A   1      31.258  30.428  25.566  1.00  0.00     0.275 C 
ENDROOT
BRANCH   1   2
ATOM      2  O   UNL A   1      31.727  29.174  26.106  1.00  0.00    -0.458 OA
BRANCH   2   3
ATOM      3  C   UNL A   1      32.645  28.508  25.363  1.00  0.00     0.338 C 
ATOM      4  O   UNL A   1      33.825  28.786  25.238  1.00  0.00    -0.246 OA
BRANCH   3   5
ATOM      5  C   UNL A   1      32.041  27.288  24.768  1.00  0.00     0.061 A 
ATOM      6  C   UNL A   1      31.606  24.903  24.941  1.00  0.00     0.119 A 
ATOM      7  C   UNL A   1      32.257  26.054  25.402  1.00  0.00     0.040 A 
ATOM      8  C   UNL A   1      30.799  24.976  23.814  1.00  0.00     0.143 A 
ATOM      9  C   UNL A   1      30.638  26.184  23.135  1.00  0.00     0.041 A 
ATOM     10  F   UNL A   1      30.174  23.896  23.329  1.00  0.00    -0.206 F 
ATOM     11  C   UNL A   1      31.242  27.346  23.621  1.00  0.00     0.019 A 
BRANCH   6  12
ATOM     12  S   UNL A   1      31.604  23.451  25.949  1.00  0.00     0.246 S 
ATOM     13  O   UNL A   1      30.309  22.809  25.813  1.00  0.00    -0.207 OA
ATOM     14  O   UNL A   1      32.083  23.846  27.252  1.00  0.00    -0.207 OA
BRANCH  12  15
ATOM     15  N   UNL A   1      32.799  22.391  25.260  1.00  0.00    -0.197 NA
ATOM     16  C   UNL A   1      34.986  21.186  25.840  1.00  0.00     0.004 C 
ATOM     17  C   UNL A   1      34.335  19.889  25.344  1.00  0.00     0.006 C 
ATOM     18  C   UNL A   1      33.917  22.209  26.258  1.00  0.00     0.106 C 
ATOM     19  C   UNL A   1      33.294  20.169  24.271  1.00  0.00     0.017 C 
ATOM     20  C   UNL A   1      32.219  21.098  24.807  1.00  0.00     0.102 C 
BRANCH  16  21
ATOM     21  C   UNL A   1      36.007  21.756  24.835  1.00  0.00     0.001 C 
ATOM     22  C   UNL A   1      37.219  20.839  24.677  1.00  0.00     0.004 C 
ENDBRANCH  16  21
ENDBRANCH  12  15
ENDBRANCH   6  12
ENDBRANCH   3   5
ENDBRANCH   2   3
ENDBRANCH   1   2
BRANCH   1  23
ATOM     23  C   UNL A   1      31.616  31.592  26.487  1.00  0.00     0.275 C 
BRANCH  23  24
ATOM     24  O   UNL A   1      32.798  31.283  27.247  1.00  0.00    -0.458 OA
BRANCH  24  25
ATOM     25  C   UNL A   1      33.571  32.342  27.580  1.00  0.00     0.338 C 
ATOM     26  O   UNL A   1      33.247  33.516  27.610  1.00  0.00    -0.246 OA
BRANCH  25  27
ATOM     27  C   UNL A   1      34.894  31.866  28.008  1.00  0.00     0.060 A 
ATOM     28  C   UNL A   1      35.016  30.535  28.387  1.00  0.00     0.016 A 
ATOM     29  C   UNL A   1      35.963  32.744  28.173  1.00  0.00     0.016 A 
ATOM     30  C   UNL A   1      36.172  30.091  29.023  1.00  0.00     0.010 A 
ATOM     31  C   UNL A   1      37.161  32.270  28.725  1.00  0.00     0.010 A 
ATOM     32  C   UNL A   1      37.269  30.946  29.194  1.00  0.00    -0.014 A 
BRANCH  32  33
ATOM     33  C   UNL A   1      38.502  30.460  29.884  1.00  0.00     0.031 A 
ATOM     34  C   UNL A   1      39.423  29.481  29.201  1.00  0.00     0.074 A 
ATOM     35  C   UNL A   1      38.809  30.899  31.122  1.00  0.00     0.049 A 
ATOM     36  N   UNL A   1      40.435  28.814  29.698  1.00  0.00    -0.248 NA
ATOM     37  C   UNL A   1      39.165  29.197  27.780  1.00  0.00     0.031 C 
ATOM     38  C   UNL A   1      38.032  31.870  31.894  1.00  0.00     0.029 A 
ATOM     39  N   UNL A   1      39.857  30.583  31.956  1.00  0.00    -0.354 N 
ATOM     40  C   UNL A   1      40.882  27.980  28.679  1.00  0.00     0.074 A 
ATOM     41  C   UNL A   1      40.038  28.230  27.530  1.00  0.00     0.031 C 
ATOM     42  C   UNL A   1      38.643  32.096  33.066  1.00  0.00     0.029 A 
ATOM     43  C   UNL A   1      39.803  31.219  33.175  1.00  0.00     0.049 A 
ATOM     44  H   UNL A   1      40.578  29.960  31.704  1.00  0.00     0.167 HD
ATOM     45  C   UNL A   1      41.908  27.096  28.696  1.00  0.00     0.034 A 
ATOM     46  C   UNL A   1      40.568  31.088  34.278  1.00  0.00     0.034 A 
ATOM     47  C   UNL A   1      42.803  26.917  29.809  1.00  0.00     0.049 A 
ATOM     48  C   UNL A   1      41.706  30.108  34.268  1.00  0.00     0.074 A 
ATOM     49  C   UNL A   1      43.897  26.073  29.901  1.00  0.00     0.029 A 
ATOM     50  N   UNL A   1      42.726  27.604  31.010  1.00  0.00    -0.354 N 
ATOM     51  N   UNL A   1      42.123  29.341  33.292  1.00  0.00    -0.248 NA
ATOM     52  C   UNL A   1      42.485  29.978  35.509  1.00  0.00     0.031 C 
ATOM     53  C   UNL A   1      44.470  26.236  31.165  1.00  0.00     0.029 A 
ATOM     54  C   UNL A   1      43.750  27.201  31.851  1.00  0.00     0.049 A 
ATOM     55  H   UNL A   1      42.044  28.278  31.233  1.00  0.00     0.167 HD
ATOM     56  C   UNL A   1      43.220  28.650  33.790  1.00  0.00     0.074 A 
ATOM     57  C   UNL A   1      43.422  29.110  35.148  1.00  0.00     0.031 C 
ATOM     58  C   UNL A   1      43.976  27.703  33.183  1.00  0.00     0.034 A 
BRANCH  45  59
ATOM     59  C   UNL A   1      42.152  26.260  27.464  1.00  0.00     0.023 A 
ATOM     60  C   UNL A   1      42.818  26.819  26.356  1.00  0.00     0.012 A 
ATOM     61  C   UNL A   1      41.815  24.891  27.450  1.00  0.00     0.148 A 
ATOM     62  C   UNL A   1      43.126  26.034  25.245  1.00  0.00     0.002 A 
ATOM     63  C   UNL A   1      42.166  24.105  26.358  1.00  0.00     0.091 A 
ATOM     64  F   UNL A   1      41.166  24.380  28.508  1.00  0.00    -0.205 F 
ATOM     65  C   UNL A   1      42.813  24.677  25.251  1.00  0.00     0.022 A 
BRANCH  63  66
ATOM     66  S   UNL A   1      41.887  22.330  26.309  1.00  0.00     0.127 S 
ATOM     67  O   UNL A   1      40.444  22.263  26.082  1.00  0.00    -0.237 OA
ATOM     68  O   UNL A   1      42.703  21.921  25.165  1.00  0.00    -0.237 OA
ATOM     69  O   UNL A   1      42.340  21.814  27.594  1.00  0.00    -0.744 OA
ENDBRANCH  63  66
ENDBRANCH  45  59
BRANCH  46  70
ATOM     70  C   UNL A   1      40.275  31.928  35.476  1.00  0.00     0.023 A 
ATOM     71  C   UNL A   1      40.997  33.120  35.677  1.00  0.00     0.012 A 
ATOM     72  C   UNL A   1      39.237  31.595  36.370  1.00  0.00     0.148 A 
ATOM     73  C   UNL A   1      40.693  33.961  36.750  1.00  0.00     0.002 A 
ATOM     74  C   UNL A   1      38.896  32.469  37.394  1.00  0.00     0.091 A 
ATOM     75  F   UNL A   1      38.580  30.442  36.178  1.00  0.00    -0.205 F 
ATOM     76  C   UNL A   1      39.633  33.646  37.596  1.00  0.00     0.022 A 
BRANCH  74  77
ATOM     77  S   UNL A   1      37.447  32.224  38.427  1.00  0.00     0.127 S 
ATOM     78  O   UNL A   1      37.925  32.683  39.728  1.00  0.00    -0.237 OA
ATOM     79  O   UNL A   1      36.466  33.101  37.786  1.00  0.00    -0.237 OA
ATOM     80  O   UNL A   1      37.132  30.805  38.333  1.00  0.00    -0.744 OA
ENDBRANCH  74  77
ENDBRANCH  46  70
BRANCH  58  81
ATOM     81  C   UNL A   1      45.116  27.102  33.962  1.00  0.00     0.023 A 
ATOM     82  C   UNL A   1      46.391  27.699  33.901  1.00  0.00     0.012 A 
ATOM     83  C   UNL A   1      44.899  26.016  34.834  1.00  0.00     0.148 A 
ATOM     84  C   UNL A   1      47.438  27.211  34.682  1.00  0.00     0.002 A 
ATOM     85  C   UNL A   1      45.934  25.567  35.644  1.00  0.00     0.091 A 
ATOM     86  F   UNL A   1      43.682  25.453  34.863  1.00  0.00    -0.205 F 
ATOM     87  C   UNL A   1      47.206  26.156  35.563  1.00  0.00     0.022 A 
BRANCH  85  88
ATOM     88  S   UNL A   1      45.706  24.280  36.877  1.00  0.00     0.127 S 
ATOM     89  O   UNL A   1      45.308  23.142  36.050  1.00  0.00    -0.237 OA
ATOM     90  O   UNL A   1      47.041  24.171  37.464  1.00  0.00    -0.237 OA
ATOM     91  O   UNL A   1      44.683  24.775  37.789  1.00  0.00    -0.744 OA
ENDBRANCH  85  88
ENDBRANCH  58  81
ENDBRANCH  32  33
ENDBRANCH  25  27
ENDBRANCH  24  25
ENDBRANCH  23  24
ENDBRANCH   1  23
TORSDOF 17
ENDMDL
MODEL 3
REMARK VINA RESULT:     -11.6      5.272      8.694
REMARK SMILES CC[C@@H]1CCCN(S(=O)(=O)c2cc(C(=O)OCCOC(=O)c3ccc(-c4c5nc(c(-c6cccc(S(=O)(=O)[O-])c6F)c6ccc([nH]6)c(-c6cccc(S(=O)(=O)[O-])c6F)c6nc(c(-c7cccc(S(=O)(=O)[O-])c7F)c7ccc4[nH]7)C=C6)C=C5)cc3)ccc2F)C1
REMARK SMILES IDX 17 1 16 2 14 3 15 4 13 5 11 6 12 7 87 8 86 9 88 10 85 11
REMARK SMILES IDX 8 12 9 13 10 14 7 15 3 16 4 17 89 18 5 19 6 20 2 21 1 22
REMARK SMILES IDX 18 23 19 24 20 25 21 26 22 27 23 28 84 29 24 30 83 31 25 32
REMARK SMILES IDX 26 33 27 34 77 35 28 36 82 37 76 38 78 39 29 40 81 41 75 42
REMARK SMILES IDX 74 43 30 45 62 46 42 47 61 48 43 49 46 50 60 51 79 52 44 53
REMARK SMILES IDX 45 54 59 56 80 57 47 58 31 59 32 60 40 61 33 62 35 63 41 64
REMARK SMILES IDX 34 65 36 66 37 67 38 68 39 69 63 70 64 71 72 72 65 73 67 74
REMARK SMILES IDX 73 75 66 76 68 77 69 78 70 79 71 80 48 81 49 82 57 83 50 84
REMARK SMILES IDX 52 85 58 86 51 87 53 88 54 89 55 90 56 91
REMARK H PARENT 78 44 46 55
REMARK Flexibility Score: inf
ROOT
ATOM      1  C   UNL A   1      31.513  31.661  26.818  1.00  0.00     0.275 C 
ENDROOT
BRANCH   1   2
ATOM      2  O   UNL A   1      32.353  30.636  26.245  1.00  0.00    -0.458 OA
BRANCH   2   3
ATOM      3  C   UNL A   1      32.096  29.364  26.636  1.00  0.00     0.338 C 
ATOM      4  O   UNL A   1      31.494  29.014  27.636  1.00  0.00    -0.246 OA
BRANCH   3   5
ATOM      5  C   UNL A   1      32.573  28.401  25.610  1.00  0.00     0.061 A 
ATOM      6  C   UNL A   1      32.386  26.202  24.595  1.00  0.00     0.119 A 
ATOM      7  C   UNL A   1      32.052  27.098  25.617  1.00  0.00     0.040 A 
ATOM      8  C   UNL A   1      33.286  26.587  23.610  1.00  0.00     0.143 A 
ATOM      9  C   UNL A   1      33.865  27.856  23.638  1.00  0.00     0.041 A 
ATOM     10  F   UNL A   1      33.646  25.754  22.626  1.00  0.00    -0.206 F 
ATOM     11  C   UNL A   1      33.496  28.773  24.625  1.00  0.00     0.019 A 
BRANCH   6  12
ATOM     12  S   UNL A   1      31.458  24.708  24.421  1.00  0.00     0.246 S 
ATOM     13  O   UNL A   1      30.710  24.782  23.178  1.00  0.00    -0.207 OA
ATOM     14  O   UNL A   1      30.767  24.497  25.670  1.00  0.00    -0.207 OA
BRANCH  12  15
ATOM     15  N   UNL A   1      32.632  23.433  24.260  1.00  0.00    -0.197 NA
ATOM     16  C   UNL A   1      34.530  22.280  25.541  1.00  0.00     0.004 C 
ATOM     17  C   UNL A   1      33.839  20.944  25.245  1.00  0.00     0.006 C 
ATOM     18  C   UNL A   1      33.524  23.441  25.478  1.00  0.00     0.106 C 
ATOM     19  C   UNL A   1      33.046  21.006  23.948  1.00  0.00     0.017 C 
ATOM     20  C   UNL A   1      32.003  22.107  24.019  1.00  0.00     0.102 C 
BRANCH  16  21
ATOM     21  C   UNL A   1      35.773  22.510  24.657  1.00  0.00     0.001 C 
ATOM     22  C   UNL A   1      36.519  23.785  25.048  1.00  0.00     0.004 C 
ENDBRANCH  16  21
ENDBRANCH  12  15
ENDBRANCH   6  12
ENDBRANCH   3   5
ENDBRANCH   2   3
ENDBRANCH   1   2
BRANCH   1  23
ATOM     23  C   UNL A   1      32.196  33.026  26.763  1.00  0.00     0.275 C 
BRANCH  23  24
ATOM     24  O   UNL A   1      32.165  33.652  28.058  1.00  0.00    -0.458 OA
BRANCH  24  25
ATOM     25  C   UNL A   1      33.203  34.474  28.334  1.00  0.00     0.338 C 
ATOM     26  O   UNL A   1      33.203  35.693  28.340  1.00  0.00    -0.246 OA
BRANCH  25  27
ATOM     27  C   UNL A   1      34.369  33.672  28.732  1.00  0.00     0.060 A 
ATOM     28  C   UNL A   1      34.139  32.410  29.268  1.00  0.00     0.016 A 
ATOM     29  C   UNL A   1      35.656  34.205  28.716  1.00  0.00     0.016 A 
ATOM     30  C   UNL A   1      35.175  31.710  29.879  1.00  0.00     0.010 A 
ATOM     31  C   UNL A   1      36.716  33.454  29.246  1.00  0.00     0.010 A 
ATOM     32  C   UNL A   1      36.483  32.213  29.870  1.00  0.00    -0.014 A 
BRANCH  32  33
ATOM     33  C   UNL A   1      37.585  31.455  30.535  1.00  0.00     0.031 A 
ATOM     34  C   UNL A   1      37.921  31.708  31.983  1.00  0.00     0.074 A 
ATOM     35  C   UNL A   1      38.289  30.530  29.849  1.00  0.00     0.049 A 
ATOM     36  N   UNL A   1      38.945  31.285  32.681  1.00  0.00    -0.248 NA
ATOM     37  C   UNL A   1      36.996  32.563  32.745  1.00  0.00     0.031 C 
ATOM     38  C   UNL A   1      38.058  30.154  28.454  1.00  0.00     0.029 A 
ATOM     39  N   UNL A   1      39.345  29.736  30.231  1.00  0.00    -0.354 N 
ATOM     40  C   UNL A   1      38.829  31.880  33.932  1.00  0.00     0.074 A 
ATOM     41  C   UNL A   1      37.630  32.689  33.904  1.00  0.00     0.031 C 
ATOM     42  C   UNL A   1      38.917  29.185  28.108  1.00  0.00     0.029 A 
ATOM     43  C   UNL A   1      39.825  28.934  29.221  1.00  0.00     0.049 A 
ATOM     44  H   UNL A   1      39.723  29.742  31.140  1.00  0.00     0.167 HD
ATOM     45  C   UNL A   1      39.642  31.756  35.008  1.00  0.00     0.034 A 
ATOM     46  C   UNL A   1      40.896  28.116  29.171  1.00  0.00     0.034 A 
ATOM     47  C   UNL A   1      40.782  30.878  35.064  1.00  0.00     0.049 A 
ATOM     48  C   UNL A   1      41.777  27.988  30.381  1.00  0.00     0.074 A 
ATOM     49  C   UNL A   1      41.640  30.656  36.127  1.00  0.00     0.029 A 
ATOM     50  N   UNL A   1      41.210  30.064  34.027  1.00  0.00    -0.354 N 
ATOM     51  N   UNL A   1      41.643  28.546  31.559  1.00  0.00    -0.248 NA
ATOM     52  C   UNL A   1      42.952  27.112  30.261  1.00  0.00     0.031 C 
ATOM     53  C   UNL A   1      42.599  29.721  35.727  1.00  0.00     0.029 A 
ATOM     54  C   UNL A   1      42.322  29.341  34.424  1.00  0.00     0.049 A 
ATOM     55  H   UNL A   1      40.787  30.010  33.140  1.00  0.00     0.167 HD
ATOM     56  C   UNL A   1      42.704  28.080  32.325  1.00  0.00     0.074 A 
ATOM     57  C   UNL A   1      43.457  27.170  31.487  1.00  0.00     0.031 C 
ATOM     58  C   UNL A   1      43.035  28.396  33.601  1.00  0.00     0.034 A 
BRANCH  45  59
ATOM     59  C   UNL A   1      39.325  32.565  36.242  1.00  0.00     0.023 A 
ATOM     60  C   UNL A   1      39.832  33.872  36.375  1.00  0.00     0.012 A 
ATOM     61  C   UNL A   1      38.437  32.063  37.216  1.00  0.00     0.148 A 
ATOM     62  C   UNL A   1      39.477  34.660  37.470  1.00  0.00     0.002 A 
ATOM     63  C   UNL A   1      38.052  32.873  38.279  1.00  0.00     0.091 A 
ATOM     64  F   UNL A   1      37.977  30.811  37.080  1.00  0.00    -0.205 F 
ATOM     65  C   UNL A   1      38.578  34.167  38.412  1.00  0.00     0.022 A 
BRANCH  63  66
ATOM     66  S   UNL A   1      36.831  32.362  39.496  1.00  0.00     0.127 S 
ATOM     67  O   UNL A   1      37.285  31.010  39.821  1.00  0.00    -0.237 OA
ATOM     68  O   UNL A   1      37.029  33.344  40.563  1.00  0.00    -0.237 OA
ATOM     69  O   UNL A   1      35.539  32.441  38.829  1.00  0.00    -0.744 OA
ENDBRANCH  63  66
ENDBRANCH  45  59
BRANCH  46  70
ATOM     70  C   UNL A   1      41.175  27.349  27.922  1.00  0.00     0.023 A 
ATOM     71  C   UNL A   1      41.759  28.005  26.822  1.00  0.00     0.012 A 
ATOM     72  C   UNL A   1      40.937  25.961  27.846  1.00  0.00     0.148 A 
ATOM     73  C   UNL A   1      42.096  27.295  25.669  1.00  0.00     0.002 A 
ATOM     74  C   UNL A   1      41.338  25.249  26.722  1.00  0.00     0.091 A 
ATOM     75  F   UNL A   1      40.355  25.358  28.892  1.00  0.00    -0.205 F 
ATOM     76  C   UNL A   1      41.903  25.917  25.625  1.00  0.00     0.022 A 
BRANCH  74  77
ATOM     77  S   UNL A   1      41.277  23.455  26.647  1.00  0.00     0.127 S 
ATOM     78  O   UNL A   1      39.851  23.212  26.447  1.00  0.00    -0.237 OA
ATOM     79  O   UNL A   1      42.120  23.173  25.484  1.00  0.00    -0.237 OA
ATOM     80  O   UNL A   1      41.827  22.989  27.913  1.00  0.00    -0.744 OA
ENDBRANCH  74  77
ENDBRANCH  46  70
BRANCH  58  81
ATOM     81  C   UNL A   1      44.255  27.744  34.196  1.00  0.00     0.023 A 
ATOM     82  C   UNL A   1      45.502  28.393  34.109  1.00  0.00     0.012 A 
ATOM     83  C   UNL A   1      44.145  26.547  34.932  1.00  0.00     0.148 A 
ATOM     84  C   UNL A   1      46.626  27.849  34.729  1.00  0.00     0.002 A 
ATOM     85  C   UNL A   1      45.259  26.037  35.586  1.00  0.00     0.091 A 
ATOM     86  F   UNL A   1      42.952  25.937  34.986  1.00  0.00    -0.205 F 
ATOM     87  C   UNL A   1      46.502  26.680  35.478  1.00  0.00     0.022 A 
BRANCH  85  88
ATOM     88  S   UNL A   1      45.175  24.593  36.653  1.00  0.00     0.127 S 
ATOM     89  O   UNL A   1      46.572  24.440  37.057  1.00  0.00    -0.237 OA
ATOM     90  O   UNL A   1      44.278  25.044  37.716  1.00  0.00    -0.237 OA
ATOM     91  O   UNL A   1      44.644  23.515  35.829  1.00  0.00    -0.744 OA
ENDBRANCH  85  88
ENDBRANCH  58  81
ENDBRANCH  32  33
ENDBRANCH  25  27
ENDBRANCH  24  25
ENDBRANCH  23  24
ENDBRANCH   1  23
TORSDOF 17
ENDMDL
