MODEL 1
REMARK VINA RESULT:     -11.0      0.000      0.000
REMARK SMILES C[C@H](COc1ccccc1C(=O)OCCOC(=O)c1ccc(-c2c3nc(c(-c4cccc(S(=O)(=O)[O-])c4F)c4ccc([nH]4)c(-c4cccc(S(=O)(=O)[O-])c4F)c4nc(c(-c5cccc(S(=O)(=O)[O-])c5F)c5ccc2[nH]5)C=C4)C=C3)cc1)C(N)=O
REMARK SMILES IDX 14 1 13 2 11 3 12 4 10 5 5 6 6 7 7 8 9 9 8 10 4 11 3 12 2 13
REMARK SMILES IDX 1 14 82 15 83 16 84 17 15 20 16 21 17 22 18 23 19 24 20 25
REMARK SMILES IDX 81 26 21 27 80 28 22 29 23 30 24 31 74 32 25 33 79 34 73 35
REMARK SMILES IDX 75 36 26 37 78 38 72 39 71 40 27 42 59 43 39 44 58 45 40 46
REMARK SMILES IDX 43 47 57 48 76 49 41 50 42 51 56 53 77 54 44 55 28 56 29 57
REMARK SMILES IDX 37 58 30 59 32 60 38 61 31 62 33 63 34 64 35 65 36 66 60 67
REMARK SMILES IDX 61 68 69 69 62 70 64 71 70 72 63 73 65 74 66 75 67 76 68 77
REMARK SMILES IDX 45 78 46 79 54 80 47 81 49 82 55 83 48 84 50 85 51 86 52 87
REMARK SMILES IDX 53 88
REMARK H PARENT 83 18 83 19 75 41 43 52
REMARK Flexibility Score: inf
ROOT
ATOM      1  C   UNL A   1      37.344  19.756  25.015  1.00  0.00     0.275 C 
ENDROOT
BRANCH   1   2
ATOM      2  O   UNL A   1      37.101  21.071  24.468  1.00  0.00    -0.458 OA
BRANCH   2   3
ATOM      3  C   UNL A   1      36.153  21.785  25.110  1.00  0.00     0.342 C 
ATOM      4  O   UNL A   1      36.217  22.252  26.238  1.00  0.00    -0.246 OA
BRANCH   3   5
ATOM      5  C   UNL A   1      34.974  22.004  24.257  1.00  0.00     0.102 A 
ATOM      6  C   UNL A   1      33.760  21.355  24.505  1.00  0.00     0.133 A 
ATOM      7  C   UNL A   1      32.606  21.764  23.831  1.00  0.00     0.047 A 
ATOM      8  C   UNL A   1      32.683  22.780  22.871  1.00  0.00     0.004 A 
ATOM      9  C   UNL A   1      35.049  23.016  23.293  1.00  0.00     0.019 A 
ATOM     10  C   UNL A   1      33.909  23.380  22.578  1.00  0.00     0.001 A 
BRANCH   6  11
ATOM     11  O   UNL A   1      33.749  20.217  25.255  1.00  0.00    -0.492 OA
BRANCH  11  12
ATOM     12  C   UNL A   1      32.743  19.269  24.903  1.00  0.00     0.242 C 
BRANCH  12  13
ATOM     13  C   UNL A   1      33.443  17.945  24.561  1.00  0.00     0.113 C 
ATOM     14  C   UNL A   1      33.134  16.857  25.604  1.00  0.00     0.022 C 
BRANCH  13  15
ATOM     15  C   UNL A   1      33.121  17.452  23.152  1.00  0.00     0.223 C 
ATOM     16  N   UNL A   1      32.040  18.012  22.540  1.00  0.00    -0.369 N 
ATOM     17  O   UNL A   1      33.821  16.668  22.517  1.00  0.00    -0.275 OA
ATOM     18  H   UNL A   1      31.468  18.643  23.032  1.00  0.00     0.159 HD
ATOM     19  H   UNL A   1      31.833  17.786  21.604  1.00  0.00     0.159 HD
ENDBRANCH  13  15
ENDBRANCH  12  13
ENDBRANCH  11  12
ENDBRANCH   6  11
ENDBRANCH   3   5
ENDBRANCH   2   3
ENDBRANCH   1   2
BRANCH   1  20
ATOM     20  C   UNL A   1      38.852  19.539  25.191  1.00  0.00     0.275 C 
BRANCH  20  21
ATOM     21  O   UNL A   1      39.457  20.781  25.593  1.00  0.00    -0.458 OA
BRANCH  21  22
ATOM     22  C   UNL A   1      40.105  20.707  26.781  1.00  0.00     0.338 C 
ATOM     23  O   UNL A   1      40.565  19.720  27.318  1.00  0.00    -0.246 OA
BRANCH  22  24
ATOM     24  C   UNL A   1      40.487  22.092  27.104  1.00  0.00     0.060 A 
ATOM     25  C   UNL A   1      39.786  23.104  26.438  1.00  0.00     0.016 A 
ATOM     26  C   UNL A   1      41.419  22.392  28.096  1.00  0.00     0.016 A 
ATOM     27  C   UNL A   1      39.996  24.432  26.770  1.00  0.00     0.010 A 
ATOM     28  C   UNL A   1      41.658  23.730  28.405  1.00  0.00     0.010 A 
ATOM     29  C   UNL A   1      40.956  24.749  27.733  1.00  0.00    -0.014 A 
BRANCH  29  30
ATOM     30  C   UNL A   1      41.394  26.150  27.868  1.00  0.00     0.031 A 
ATOM     31  C   UNL A   1      42.748  26.492  27.327  1.00  0.00     0.074 A 
ATOM     32  C   UNL A   1      40.605  27.075  28.436  1.00  0.00     0.049 A 
ATOM     33  N   UNL A   1      43.458  27.571  27.491  1.00  0.00    -0.248 NA
ATOM     34  C   UNL A   1      43.395  25.462  26.493  1.00  0.00     0.031 C 
ATOM     35  C   UNL A   1      39.238  26.852  28.906  1.00  0.00     0.029 A 
ATOM     36  N   UNL A   1      40.856  28.388  28.738  1.00  0.00    -0.354 N 
ATOM     37  C   UNL A   1      44.665  27.322  26.851  1.00  0.00     0.074 A 
ATOM     38  C   UNL A   1      44.584  25.999  26.275  1.00  0.00     0.031 C 
ATOM     39  C   UNL A   1      38.782  27.982  29.473  1.00  0.00     0.029 A 
ATOM     40  C   UNL A   1      39.847  28.980  29.461  1.00  0.00     0.049 A 
ATOM     41  H   UNL A   1      41.676  28.860  28.464  1.00  0.00     0.167 HD
ATOM     42  C   UNL A   1      45.745  28.128  26.765  1.00  0.00     0.034 A 
ATOM     43  C   UNL A   1      39.825  30.171  30.090  1.00  0.00     0.034 A 
ATOM     44  C   UNL A   1      45.780  29.449  27.326  1.00  0.00     0.049 A 
ATOM     45  C   UNL A   1      41.055  31.039  30.011  1.00  0.00     0.074 A 
ATOM     46  C   UNL A   1      46.808  30.371  27.302  1.00  0.00     0.029 A 
ATOM     47  N   UNL A   1      44.730  30.031  28.023  1.00  0.00    -0.354 N 
ATOM     48  N   UNL A   1      42.189  30.811  29.391  1.00  0.00    -0.248 NA
ATOM     49  C   UNL A   1      41.000  32.333  30.705  1.00  0.00     0.031 C 
ATOM     50  C   UNL A   1      46.389  31.500  28.012  1.00  0.00     0.029 A 
ATOM     51  C   UNL A   1      45.084  31.299  28.438  1.00  0.00     0.049 A 
ATOM     52  H   UNL A   1      43.860  29.603  28.195  1.00  0.00     0.167 HD
ATOM     53  C   UNL A   1      42.969  31.943  29.588  1.00  0.00     0.074 A 
ATOM     54  C   UNL A   1      42.168  32.864  30.373  1.00  0.00     0.031 C 
ATOM     55  C   UNL A   1      44.235  32.203  29.175  1.00  0.00     0.034 A 
BRANCH  42  56
ATOM     56  C   UNL A   1      46.967  27.585  26.075  1.00  0.00     0.023 A 
ATOM     57  C   UNL A   1      47.157  27.789  24.693  1.00  0.00     0.012 A 
ATOM     58  C   UNL A   1      47.935  26.867  26.806  1.00  0.00     0.148 A 
ATOM     59  C   UNL A   1      48.269  27.252  24.043  1.00  0.00     0.002 A 
ATOM     60  C   UNL A   1      49.065  26.381  26.161  1.00  0.00     0.091 A 
ATOM     61  F   UNL A   1      47.722  26.656  28.112  1.00  0.00    -0.205 F 
ATOM     62  C   UNL A   1      49.226  26.559  24.778  1.00  0.00     0.022 A 
BRANCH  60  63
ATOM     63  S   UNL A   1      50.392  25.542  27.032  1.00  0.00     0.127 S 
ATOM     64  O   UNL A   1      50.799  26.559  28.001  1.00  0.00    -0.237 OA
ATOM     65  O   UNL A   1      49.696  24.392  27.610  1.00  0.00    -0.237 OA
ATOM     66  O   UNL A   1      51.390  25.209  26.025  1.00  0.00    -0.744 OA
ENDBRANCH  60  63
ENDBRANCH  42  56
BRANCH  43  67
ATOM     67  C   UNL A   1      38.618  30.601  30.853  1.00  0.00     0.023 A 
ATOM     68  C   UNL A   1      38.521  30.310  32.228  1.00  0.00     0.012 A 
ATOM     69  C   UNL A   1      37.571  31.310  30.230  1.00  0.00     0.148 A 
ATOM     70  C   UNL A   1      37.394  30.691  32.959  1.00  0.00     0.002 A 
ATOM     71  C   UNL A   1      36.478  31.737  30.977  1.00  0.00     0.091 A 
ATOM     72  F   UNL A   1      37.670  31.563  28.916  1.00  0.00    -0.205 F 
ATOM     73  C   UNL A   1      36.380  31.412  32.337  1.00  0.00     0.022 A 
BRANCH  71  74
ATOM     74  S   UNL A   1      35.186  32.779  30.289  1.00  0.00     0.127 S 
ATOM     75  O   UNL A   1      34.600  31.901  29.279  1.00  0.00    -0.237 OA
ATOM     76  O   UNL A   1      34.343  33.021  31.460  1.00  0.00    -0.237 OA
ATOM     77  O   UNL A   1      35.863  33.964  29.780  1.00  0.00    -0.744 OA
ENDBRANCH  71  74
ENDBRANCH  43  67
BRANCH  55  78
ATOM     78  C   UNL A   1      44.808  33.553  29.509  1.00  0.00     0.023 A 
ATOM     79  C   UNL A   1      45.500  33.750  30.719  1.00  0.00     0.012 A 
ATOM     80  C   UNL A   1      44.728  34.604  28.573  1.00  0.00     0.148 A 
ATOM     81  C   UNL A   1      46.075  34.987  31.009  1.00  0.00     0.002 A 
ATOM     82  C   UNL A   1      45.351  35.814  28.844  1.00  0.00     0.091 A 
ATOM     83  F   UNL A   1      44.050  34.397  27.435  1.00  0.00    -0.205 F 
ATOM     84  C   UNL A   1      46.012  36.013  30.067  1.00  0.00     0.022 A 
BRANCH  82  85
ATOM     85  S   UNL A   1      45.416  37.149  27.647  1.00  0.00     0.127 S 
ATOM     86  O   UNL A   1      43.996  37.440  27.449  1.00  0.00    -0.237 OA
ATOM     87  O   UNL A   1      46.155  38.181  28.375  1.00  0.00    -0.237 OA
ATOM     88  O   UNL A   1      46.110  36.615  26.483  1.00  0.00    -0.744 OA
ENDBRANCH  82  85
ENDBRANCH  55  78
ENDBRANCH  29  30
ENDBRANCH  22  24
ENDBRANCH  21  22
ENDBRANCH  20  21
ENDBRANCH   1  20
TORSDOF 18
ENDMDL
MODEL 2
REMARK VINA RESULT:     -10.8      1.507      8.258
REMARK SMILES C[C@H](COc1ccccc1C(=O)OCCOC(=O)c1ccc(-c2c3nc(c(-c4cccc(S(=O)(=O)[O-])c4F)c4ccc([nH]4)c(-c4cccc(S(=O)(=O)[O-])c4F)c4nc(c(-c5cccc(S(=O)(=O)[O-])c5F)c5ccc2[nH]5)C=C4)C=C3)cc1)C(N)=O
REMARK SMILES IDX 14 1 13 2 11 3 12 4 10 5 5 6 6 7 7 8 9 9 8 10 4 11 3 12 2 13
REMARK SMILES IDX 1 14 82 15 83 16 84 17 15 20 16 21 17 22 18 23 19 24 20 25
REMARK SMILES IDX 81 26 21 27 80 28 22 29 23 30 24 31 74 32 25 33 79 34 73 35
REMARK SMILES IDX 75 36 26 37 78 38 72 39 71 40 27 42 59 43 39 44 58 45 40 46
REMARK SMILES IDX 43 47 57 48 76 49 41 50 42 51 56 53 77 54 44 55 28 56 29 57
REMARK SMILES IDX 37 58 30 59 32 60 38 61 31 62 33 63 34 64 35 65 36 66 60 67
REMARK SMILES IDX 61 68 69 69 62 70 64 71 70 72 63 73 65 74 66 75 67 76 68 77
REMARK SMILES IDX 45 78 46 79 54 80 47 81 49 82 55 83 48 84 50 85 51 86 52 87
REMARK SMILES IDX 53 88
REMARK H PARENT 83 18 83 19 75 41 43 52
REMARK Flexibility Score: inf
ROOT
ATOM      1  C   UNL A   1      36.528  22.826  23.485  1.00  0.00     0.275 C 
ENDROOT
BRANCH   1   2
ATOM      2  O   UNL A   1      35.535  23.471  24.313  1.00  0.00    -0.458 OA
BRANCH   2   3
ATOM      3  C   UNL A   1      34.499  24.011  23.638  1.00  0.00     0.342 C 
ATOM      4  O   UNL A   1      34.279  23.934  22.439  1.00  0.00    -0.246 OA
BRANCH   3   5
ATOM      5  C   UNL A   1      33.571  24.708  24.544  1.00  0.00     0.102 A 
ATOM      6  C   UNL A   1      32.433  24.075  25.054  1.00  0.00     0.133 A 
ATOM      7  C   UNL A   1      31.712  24.677  26.089  1.00  0.00     0.047 A 
ATOM      8  C   UNL A   1      32.098  25.934  26.567  1.00  0.00     0.004 A 
ATOM      9  C   UNL A   1      33.952  25.967  25.021  1.00  0.00     0.019 A 
ATOM     10  C   UNL A   1      33.195  26.593  26.009  1.00  0.00     0.001 A 
BRANCH   6  11
ATOM     11  O   UNL A   1      31.933  22.977  24.418  1.00  0.00    -0.492 OA
BRANCH  11  12
ATOM     12  C   UNL A   1      31.378  21.981  25.275  1.00  0.00     0.242 C 
BRANCH  12  13
ATOM     13  C   UNL A   1      32.146  20.672  25.035  1.00  0.00     0.113 C 
ATOM     14  C   UNL A   1      32.332  20.394  23.534  1.00  0.00     0.022 C 
BRANCH  13  15
ATOM     15  C   UNL A   1      33.486  20.631  25.765  1.00  0.00     0.223 C 
ATOM     16  N   UNL A   1      33.461  20.870  27.105  1.00  0.00    -0.369 N 
ATOM     17  O   UNL A   1      34.548  20.306  25.241  1.00  0.00    -0.275 OA
ATOM     18  H   UNL A   1      32.619  21.130  27.544  1.00  0.00     0.159 HD
ATOM     19  H   UNL A   1      34.285  20.781  27.637  1.00  0.00     0.159 HD
ENDBRANCH  13  15
ENDBRANCH  12  13
ENDBRANCH  11  12
ENDBRANCH   6  11
ENDBRANCH   3   5
ENDBRANCH   2   3
ENDBRANCH   1   2
BRANCH   1  20
ATOM     20  C   UNL A   1      37.136  21.636  24.236  1.00  0.00     0.275 C 
BRANCH  20  21
ATOM     21  O   UNL A   1      37.508  22.062  25.560  1.00  0.00    -0.458 OA
BRANCH  21  22
ATOM     22  C   UNL A   1      38.684  21.541  25.985  1.00  0.00     0.338 C 
ATOM     23  O   UNL A   1      39.170  20.466  25.697  1.00  0.00    -0.246 OA
BRANCH  22  24
ATOM     24  C   UNL A   1      39.436  22.678  26.542  1.00  0.00     0.060 A 
ATOM     25  C   UNL A   1      39.038  23.953  26.124  1.00  0.00     0.016 A 
ATOM     26  C   UNL A   1      40.419  22.511  27.515  1.00  0.00     0.016 A 
ATOM     27  C   UNL A   1      39.608  25.082  26.690  1.00  0.00     0.010 A 
ATOM     28  C   UNL A   1      41.020  23.645  28.059  1.00  0.00     0.010 A 
ATOM     29  C   UNL A   1      40.623  24.929  27.637  1.00  0.00    -0.014 A 
BRANCH  29  30
ATOM     30  C   UNL A   1      41.432  26.103  28.009  1.00  0.00     0.031 A 
ATOM     31  C   UNL A   1      40.751  27.166  28.816  1.00  0.00     0.074 A 
ATOM     32  C   UNL A   1      42.722  26.203  27.653  1.00  0.00     0.049 A 
ATOM     33  N   UNL A   1      41.148  28.374  29.098  1.00  0.00    -0.248 NA
ATOM     34  C   UNL A   1      39.429  26.818  29.369  1.00  0.00     0.031 C 
ATOM     35  C   UNL A   1      43.489  25.177  26.948  1.00  0.00     0.029 A 
ATOM     36  N   UNL A   1      43.608  27.237  27.814  1.00  0.00    -0.354 N 
ATOM     37  C   UNL A   1      40.095  28.957  29.792  1.00  0.00     0.074 A 
ATOM     38  C   UNL A   1      39.052  27.964  29.909  1.00  0.00     0.031 C 
ATOM     39  C   UNL A   1      44.725  25.648  26.704  1.00  0.00     0.029 A 
ATOM     40  C   UNL A   1      44.808  27.026  27.178  1.00  0.00     0.049 A 
ATOM     41  H   UNL A   1      43.405  28.048  28.335  1.00  0.00     0.167 HD
ATOM     42  C   UNL A   1      40.012  30.215  30.277  1.00  0.00     0.034 A 
ATOM     43  C   UNL A   1      45.825  27.881  26.956  1.00  0.00     0.034 A 
ATOM     44  C   UNL A   1      41.081  31.167  30.167  1.00  0.00     0.049 A 
ATOM     45  C   UNL A   1      45.695  29.290  27.474  1.00  0.00     0.074 A 
ATOM     46  C   UNL A   1      41.128  32.470  30.623  1.00  0.00     0.029 A 
ATOM     47  N   UNL A   1      42.296  30.911  29.546  1.00  0.00    -0.354 N 
ATOM     48  N   UNL A   1      44.708  29.835  28.146  1.00  0.00    -0.248 NA
ATOM     49  C   UNL A   1      46.821  30.198  27.218  1.00  0.00     0.031 C 
ATOM     50  C   UNL A   1      42.361  33.011  30.249  1.00  0.00     0.029 A 
ATOM     51  C   UNL A   1      43.100  32.031  29.602  1.00  0.00     0.049 A 
ATOM     52  H   UNL A   1      42.547  30.055  29.128  1.00  0.00     0.167 HD
ATOM     53  C   UNL A   1      45.106  31.137  28.424  1.00  0.00     0.074 A 
ATOM     54  C   UNL A   1      46.434  31.291  27.862  1.00  0.00     0.031 C 
ATOM     55  C   UNL A   1      44.438  32.125  29.072  1.00  0.00     0.034 A 
BRANCH  42  56
ATOM     56  C   UNL A   1      38.719  30.626  30.928  1.00  0.00     0.023 A 
ATOM     57  C   UNL A   1      38.505  30.392  32.302  1.00  0.00     0.012 A 
ATOM     58  C   UNL A   1      37.709  31.251  30.169  1.00  0.00     0.148 A 
ATOM     59  C   UNL A   1      37.292  30.737  32.900  1.00  0.00     0.002 A 
ATOM     60  C   UNL A   1      36.525  31.638  30.783  1.00  0.00     0.091 A 
ATOM     61  F   UNL A   1      37.918  31.436  28.858  1.00  0.00    -0.205 F 
ATOM     62  C   UNL A   1      36.308  31.367  32.144  1.00  0.00     0.022 A 
BRANCH  60  63
ATOM     63  S   UNL A   1      35.228  32.525  29.915  1.00  0.00     0.127 S 
ATOM     64  O   UNL A   1      34.241  32.720  30.976  1.00  0.00    -0.237 OA
ATOM     65  O   UNL A   1      35.922  33.742  29.495  1.00  0.00    -0.237 OA
ATOM     66  O   UNL A   1      34.804  31.656  28.825  1.00  0.00    -0.744 OA
ENDBRANCH  60  63
ENDBRANCH  42  56
BRANCH  43  67
ATOM     67  C   UNL A   1      47.034  27.438  26.203  1.00  0.00     0.023 A 
ATOM     68  C   UNL A   1      47.148  27.735  24.830  1.00  0.00     0.012 A 
ATOM     69  C   UNL A   1      48.079  26.738  26.839  1.00  0.00     0.148 A 
ATOM     70  C   UNL A   1      48.265  27.319  24.102  1.00  0.00     0.002 A 
ATOM     71  C   UNL A   1      49.214  26.378  26.122  1.00  0.00     0.091 A 
ATOM     72  F   UNL A   1      47.946  26.447  28.142  1.00  0.00    -0.205 F 
ATOM     73  C   UNL A   1      49.301  26.650  24.749  1.00  0.00     0.022 A 
BRANCH  71  74
ATOM     74  S   UNL A   1      50.650  25.628  26.899  1.00  0.00     0.127 S 
ATOM     75  O   UNL A   1      51.555  25.468  25.762  1.00  0.00    -0.237 OA
ATOM     76  O   UNL A   1      51.043  26.659  27.860  1.00  0.00    -0.237 OA
ATOM     77  O   UNL A   1      50.173  24.392  27.504  1.00  0.00    -0.744 OA
ENDBRANCH  71  74
ENDBRANCH  43  67
BRANCH  55  78
ATOM     78  C   UNL A   1      45.154  33.434  29.261  1.00  0.00     0.023 A 
ATOM     79  C   UNL A   1      45.959  33.645  30.396  1.00  0.00     0.012 A 
ATOM     80  C   UNL A   1      45.088  34.424  28.260  1.00  0.00     0.148 A 
ATOM     81  C   UNL A   1      46.663  34.838  30.550  1.00  0.00     0.002 A 
ATOM     82  C   UNL A   1      45.836  35.585  28.393  1.00  0.00     0.091 A 
ATOM     83  F   UNL A   1      44.302  34.207  27.196  1.00  0.00    -0.205 F 
ATOM     84  C   UNL A   1      46.612  35.801  29.543  1.00  0.00     0.022 A 
BRANCH  82  85
ATOM     85  S   UNL A   1      45.917  36.827  27.100  1.00  0.00     0.127 S 
ATOM     86  O   UNL A   1      46.347  36.032  25.950  1.00  0.00    -0.237 OA
ATOM     87  O   UNL A   1      44.532  37.296  27.035  1.00  0.00    -0.237 OA
ATOM     88  O   UNL A   1      46.873  37.826  27.558  1.00  0.00    -0.744 OA
ENDBRANCH  82  85
ENDBRANCH  55  78
ENDBRANCH  29  30
ENDBRANCH  22  24
ENDBRANCH  21  22
ENDBRANCH  20  21
ENDBRANCH   1  20
TORSDOF 18
ENDMDL
MODEL 3
REMARK VINA RESULT:     -10.7      5.150      7.903
REMARK SMILES C[C@H](COc1ccccc1C(=O)OCCOC(=O)c1ccc(-c2c3nc(c(-c4cccc(S(=O)(=O)[O-])c4F)c4ccc([nH]4)c(-c4cccc(S(=O)(=O)[O-])c4F)c4nc(c(-c5cccc(S(=O)(=O)[O-])c5F)c5ccc2[nH]5)C=C4)C=C3)cc1)C(N)=O
REMARK SMILES IDX 14 1 13 2 11 3 12 4 10 5 5 6 6 7 7 8 9 9 8 10 4 11 3 12 2 13
REMARK SMILES IDX 1 14 82 15 83 16 84 17 15 20 16 21 17 22 18 23 19 24 20 25
REMARK SMILES IDX 81 26 21 27 80 28 22 29 23 30 24 31 74 32 25 33 79 34 73 35
REMARK SMILES IDX 75 36 26 37 78 38 72 39 71 40 27 42 59 43 39 44 58 45 40 46
REMARK SMILES IDX 43 47 57 48 76 49 41 50 42 51 56 53 77 54 44 55 28 56 29 57
REMARK SMILES IDX 37 58 30 59 32 60 38 61 31 62 33 63 34 64 35 65 36 66 60 67
REMARK SMILES IDX 61 68 69 69 62 70 64 71 70 72 63 73 65 74 66 75 67 76 68 77
REMARK SMILES IDX 45 78 46 79 54 80 47 81 49 82 55 83 48 84 50 85 51 86 52 87
REMARK SMILES IDX 53 88
REMARK H PARENT 83 18 83 19 75 41 43 52
REMARK Flexibility Score: inf
ROOT
ATOM      1  C   UNL A   1      31.853  28.058  25.427  1.00  0.00     0.275 C 
ENDROOT
BRANCH   1   2
ATOM      2  O   UNL A   1      33.060  27.271  25.537  1.00  0.00    -0.458 OA
BRANCH   2   3
ATOM      3  C   UNL A   1      33.474  26.705  24.384  1.00  0.00     0.342 C 
ATOM      4  O   UNL A   1      33.648  27.261  23.310  1.00  0.00    -0.246 OA
BRANCH   3   5
ATOM      5  C   UNL A   1      33.761  25.273  24.560  1.00  0.00     0.102 A 
ATOM      6  C   UNL A   1      32.954  24.288  23.980  1.00  0.00     0.133 A 
ATOM      7  C   UNL A   1      33.387  22.960  23.965  1.00  0.00     0.047 A 
ATOM      8  C   UNL A   1      34.596  22.614  24.581  1.00  0.00     0.004 A 
ATOM      9  C   UNL A   1      34.966  24.923  25.179  1.00  0.00     0.019 A 
ATOM     10  C   UNL A   1      35.366  23.588  25.217  1.00  0.00     0.001 A 
BRANCH   6  11
ATOM     11  O   UNL A   1      31.681  24.599  23.605  1.00  0.00    -0.492 OA
BRANCH  11  12
ATOM     12  C   UNL A   1      30.655  23.889  24.296  1.00  0.00     0.242 C 
BRANCH  12  13
ATOM     13  C   UNL A   1      30.649  24.371  25.755  1.00  0.00     0.113 C 
ATOM     14  C   UNL A   1      29.633  25.505  25.971  1.00  0.00     0.022 C 
BRANCH  13  15
ATOM     15  C   UNL A   1      30.416  23.237  26.751  1.00  0.00     0.223 C 
ATOM     16  N   UNL A   1      31.303  22.204  26.721  1.00  0.00    -0.369 N 
ATOM     17  O   UNL A   1      29.550  23.250  27.622  1.00  0.00    -0.275 OA
ATOM     18  H   UNL A   1      32.005  22.177  26.032  1.00  0.00     0.159 HD
ATOM     19  H   UNL A   1      31.244  21.485  27.391  1.00  0.00     0.159 HD
ENDBRANCH  13  15
ENDBRANCH  12  13
ENDBRANCH  11  12
ENDBRANCH   6  11
ENDBRANCH   3   5
ENDBRANCH   2   3
ENDBRANCH   1   2
BRANCH   1  20
ATOM     20  C   UNL A   1      32.193  29.548  25.557  1.00  0.00     0.275 C 
BRANCH  20  21
ATOM     21  O   UNL A   1      32.795  29.778  26.844  1.00  0.00    -0.458 OA
BRANCH  21  22
ATOM     22  C   UNL A   1      33.267  31.038  27.002  1.00  0.00     0.338 C 
ATOM     23  O   UNL A   1      32.649  32.080  26.928  1.00  0.00    -0.246 OA
BRANCH  22  24
ATOM     24  C   UNL A   1      34.575  30.884  27.663  1.00  0.00     0.060 A 
ATOM     25  C   UNL A   1      34.955  29.580  27.996  1.00  0.00     0.016 A 
ATOM     26  C   UNL A   1      35.440  31.959  27.853  1.00  0.00     0.016 A 
ATOM     27  C   UNL A   1      36.218  29.331  28.508  1.00  0.00     0.010 A 
ATOM     28  C   UNL A   1      36.698  31.716  28.402  1.00  0.00     0.010 A 
ATOM     29  C   UNL A   1      37.080  30.404  28.741  1.00  0.00    -0.014 A 
BRANCH  29  30
ATOM     30  C   UNL A   1      38.287  30.182  29.557  1.00  0.00     0.031 A 
ATOM     31  C   UNL A   1      39.337  29.280  28.984  1.00  0.00     0.074 A 
ATOM     32  C   UNL A   1      38.440  30.775  30.752  1.00  0.00     0.049 A 
ATOM     33  N   UNL A   1      40.381  28.753  29.558  1.00  0.00    -0.248 NA
ATOM     34  C   UNL A   1      39.175  28.912  27.565  1.00  0.00     0.031 C 
ATOM     35  C   UNL A   1      37.514  31.738  31.346  1.00  0.00     0.029 A 
ATOM     36  N   UNL A   1      39.426  30.630  31.693  1.00  0.00    -0.354 N 
ATOM     37  C   UNL A   1      40.955  27.930  28.597  1.00  0.00     0.074 A 
ATOM     38  C   UNL A   1      40.159  28.045  27.397  1.00  0.00     0.031 C 
ATOM     39  C   UNL A   1      37.957  32.071  32.570  1.00  0.00     0.029 A 
ATOM     40  C   UNL A   1      39.158  31.295  32.865  1.00  0.00     0.049 A 
ATOM     41  H   UNL A   1      40.244  30.102  31.543  1.00  0.00     0.167 HD
ATOM     42  C   UNL A   1      42.046  27.144  28.718  1.00  0.00     0.034 A 
ATOM     43  C   UNL A   1      39.785  31.227  34.056  1.00  0.00     0.034 A 
ATOM     44  C   UNL A   1      42.831  27.076  29.919  1.00  0.00     0.049 A 
ATOM     45  C   UNL A   1      40.979  30.315  34.178  1.00  0.00     0.074 A 
ATOM     46  C   UNL A   1      43.963  26.327  30.170  1.00  0.00     0.029 A 
ATOM     47  N   UNL A   1      42.551  27.789  31.077  1.00  0.00    -0.354 N 
ATOM     48  N   UNL A   1      41.533  29.552  33.265  1.00  0.00    -0.248 NA
ATOM     49  C   UNL A   1      41.643  30.264  35.487  1.00  0.00     0.031 C 
ATOM     50  C   UNL A   1      44.351  26.563  31.492  1.00  0.00     0.029 A 
ATOM     51  C   UNL A   1      43.487  27.495  32.049  1.00  0.00     0.049 A 
ATOM     52  H   UNL A   1      41.797  28.412  31.189  1.00  0.00     0.167 HD
ATOM     53  C   UNL A   1      42.630  28.957  33.876  1.00  0.00     0.074 A 
ATOM     54  C   UNL A   1      42.670  29.465  35.235  1.00  0.00     0.031 C 
ATOM     55  C   UNL A   1      43.519  28.063  33.374  1.00  0.00     0.034 A 
BRANCH  42  56
ATOM     56  C   UNL A   1      42.419  26.283  27.541  1.00  0.00     0.023 A 
ATOM     57  C   UNL A   1      43.193  26.810  26.488  1.00  0.00     0.012 A 
ATOM     58  C   UNL A   1      41.998  24.939  27.483  1.00  0.00     0.148 A 
ATOM     59  C   UNL A   1      43.507  26.026  25.377  1.00  0.00     0.002 A 
ATOM     60  C   UNL A   1      42.358  24.151  26.398  1.00  0.00     0.091 A 
ATOM     61  F   UNL A   1      41.236  24.465  28.479  1.00  0.00    -0.205 F 
ATOM     62  C   UNL A   1      43.099  24.696  25.337  1.00  0.00     0.022 A 
BRANCH  60  63
ATOM     63  S   UNL A   1      41.947  22.406  26.290  1.00  0.00     0.127 S 
ATOM     64  O   UNL A   1      42.631  22.017  25.057  1.00  0.00    -0.237 OA
ATOM     65  O   UNL A   1      42.547  21.876  27.514  1.00  0.00    -0.237 OA
ATOM     66  O   UNL A   1      40.493  22.335  26.242  1.00  0.00    -0.744 OA
ENDBRANCH  60  63
ENDBRANCH  42  56
BRANCH  43  67
ATOM     67  C   UNL A   1      39.293  32.025  35.216  1.00  0.00     0.023 A 
ATOM     68  C   UNL A   1      38.341  31.468  36.091  1.00  0.00     0.012 A 
ATOM     69  C   UNL A   1      39.775  33.325  35.468  1.00  0.00     0.148 A 
ATOM     70  C   UNL A   1      37.856  32.201  37.177  1.00  0.00     0.002 A 
ATOM     71  C   UNL A   1      39.332  34.028  36.584  1.00  0.00     0.091 A 
ATOM     72  F   UNL A   1      40.668  33.848  34.615  1.00  0.00    -0.205 F 
ATOM     73  C   UNL A   1      38.359  33.475  37.428  1.00  0.00     0.022 A 
BRANCH  71  74
ATOM     74  S   UNL A   1      40.016  35.620  37.057  1.00  0.00     0.127 S 
ATOM     75  O   UNL A   1      39.654  36.453  35.913  1.00  0.00    -0.237 OA
ATOM     76  O   UNL A   1      39.278  35.908  38.288  1.00  0.00    -0.237 OA
ATOM     77  O   UNL A   1      41.442  35.396  37.250  1.00  0.00    -0.744 OA
ENDBRANCH  71  74
ENDBRANCH  43  67
BRANCH  55  78
ATOM     78  C   UNL A   1      44.642  27.626  34.274  1.00  0.00     0.023 A 
ATOM     79  C   UNL A   1      45.836  28.369  34.331  1.00  0.00     0.012 A 
ATOM     80  C   UNL A   1      44.471  26.517  35.127  1.00  0.00     0.148 A 
ATOM     81  C   UNL A   1      46.859  27.995  35.200  1.00  0.00     0.002 A 
ATOM     82  C   UNL A   1      45.471  26.185  36.030  1.00  0.00     0.091 A 
ATOM     83  F   UNL A   1      43.332  25.815  35.043  1.00  0.00    -0.205 F 
ATOM     84  C   UNL A   1      46.672  26.912  36.057  1.00  0.00     0.022 A 
BRANCH  82  85
ATOM     85  S   UNL A   1      45.271  24.878  37.244  1.00  0.00     0.127 S 
ATOM     86  O   UNL A   1      45.212  23.689  36.394  1.00  0.00    -0.237 OA
ATOM     87  O   UNL A   1      46.496  25.003  38.036  1.00  0.00    -0.237 OA
ATOM     88  O   UNL A   1      44.047  25.186  37.971  1.00  0.00    -0.744 OA
ENDBRANCH  82  85
ENDBRANCH  55  78
ENDBRANCH  29  30
ENDBRANCH  22  24
ENDBRANCH  21  22
ENDBRANCH  20  21
ENDBRANCH   1  20
TORSDOF 18
ENDMDL
