MODEL 1
REMARK VINA RESULT:     -14.0      0.000      0.000
REMARK SMILES O=C(OCCOC(=O)[C@H]1C[C@](O)(c2ccc(Cl)cc2)[C@@H](c2ccc(Cl)cc2)O1)c1ccc(-c2c3nc(c(-c4cccc(S(=O)(=O)[O-])c4F)c4ccc([nH]4)c(-c4cccc(S(=O)(=O)[O-])c4F)c4nc(c(-c5cccc(S(=O)(=O)[O-])c5F)c5ccc2[nH]5)C=C4)C=C3)cc1
REMARK SMILES IDX 4 1 3 2 2 3 1 4 29 5 30 6 91 7 31 8 90 9 32 10 33 11 34 12
REMARK SMILES IDX 84 13 35 14 89 15 83 16 85 17 36 18 88 19 82 20 81 21 37 23
REMARK SMILES IDX 69 24 49 25 68 26 50 27 53 28 67 29 86 30 51 31 52 32 66 34
REMARK SMILES IDX 87 35 54 36 38 37 39 38 47 39 40 40 42 41 48 42 41 43 43 44
REMARK SMILES IDX 44 45 45 46 46 47 70 48 71 49 79 50 72 51 74 52 80 53 73 54
REMARK SMILES IDX 75 55 76 56 77 57 78 58 55 59 56 60 64 61 57 62 59 63 65 64
REMARK SMILES IDX 58 65 60 66 61 67 62 68 63 69 5 70 6 71 7 72 8 73 9 74 10 75
REMARK SMILES IDX 28 76 11 77 20 78 13 79 14 80 19 81 15 82 18 83 16 84 17 85
REMARK SMILES IDX 12 86 21 88 22 89 27 90 23 91 26 92 24 93 25 94
REMARK H PARENT 85 22 53 33 12 87
REMARK Flexibility Score: inf
ROOT
ATOM      1  C   UNL A   1      40.951  20.889  26.171  1.00  0.00     0.275 C 
ENDROOT
BRANCH   1   2
ATOM      2  O   UNL A   1      42.290  21.293  25.765  1.00  0.00    -0.458 OA
BRANCH   2   3
ATOM      3  C   UNL A   1      42.729  22.531  25.360  1.00  0.00     0.338 C 
ATOM      4  O   UNL A   1      43.301  22.629  24.277  1.00  0.00    -0.246 OA
BRANCH   3   5
ATOM      5  C   UNL A   1      42.786  23.705  26.329  1.00  0.00     0.060 A 
ATOM      6  C   UNL A   1      42.449  24.973  25.952  1.00  0.00     0.016 A 
ATOM      7  C   UNL A   1      43.036  23.604  27.713  1.00  0.00     0.016 A 
ATOM      8  C   UNL A   1      42.185  26.002  26.909  1.00  0.00     0.010 A 
ATOM      9  C   UNL A   1      42.653  24.678  28.665  1.00  0.00     0.010 A 
ATOM     10  C   UNL A   1      42.019  25.889  28.269  1.00  0.00    -0.014 A 
BRANCH  10  11
ATOM     11  C   UNL A   1      41.438  27.179  29.126  1.00  0.00     0.031 A 
ATOM     12  C   UNL A   1      42.277  27.463  30.311  1.00  0.00     0.074 A 
ATOM     13  C   UNL A   1      40.466  28.197  29.025  1.00  0.00     0.049 A 
ATOM     14  N   UNL A   1      41.953  28.119  31.386  1.00  0.00    -0.248 NA
ATOM     15  C   UNL A   1      43.635  26.916  30.276  1.00  0.00     0.031 C 
ATOM     16  C   UNL A   1      39.551  28.488  27.951  1.00  0.00     0.029 A 
ATOM     17  N   UNL A   1      39.973  29.220  29.893  1.00  0.00    -0.354 N 
ATOM     18  C   UNL A   1      43.031  27.968  32.214  1.00  0.00     0.074 A 
ATOM     19  C   UNL A   1      43.978  27.102  31.535  1.00  0.00     0.031 C 
ATOM     20  C   UNL A   1      38.720  29.523  28.074  1.00  0.00     0.029 A 
ATOM     21  C   UNL A   1      38.780  29.855  29.452  1.00  0.00     0.049 A 
ATOM     22  H   UNL A   1      40.425  29.465  30.733  1.00  0.00     0.167 HD
ATOM     23  C   UNL A   1      43.236  28.523  33.421  1.00  0.00     0.034 A 
ATOM     24  C   UNL A   1      37.697  30.470  30.001  1.00  0.00     0.034 A 
ATOM     25  C   UNL A   1      42.367  29.438  34.094  1.00  0.00     0.049 A 
ATOM     26  C   UNL A   1      37.781  30.825  31.430  1.00  0.00     0.074 A 
ATOM     27  C   UNL A   1      42.588  30.048  35.314  1.00  0.00     0.029 A 
ATOM     28  N   UNL A   1      41.128  29.867  33.651  1.00  0.00    -0.354 N 
ATOM     29  N   UNL A   1      38.773  30.568  32.230  1.00  0.00    -0.248 NA
ATOM     30  C   UNL A   1      36.687  31.609  32.020  1.00  0.00     0.031 C 
ATOM     31  C   UNL A   1      41.463  30.808  35.636  1.00  0.00     0.029 A 
ATOM     32  C   UNL A   1      40.565  30.721  34.588  1.00  0.00     0.049 A 
ATOM     33  H   UNL A   1      40.708  29.604  32.799  1.00  0.00     0.167 HD
ATOM     34  C   UNL A   1      38.484  31.251  33.389  1.00  0.00     0.074 A 
ATOM     35  C   UNL A   1      37.192  31.880  33.217  1.00  0.00     0.031 C 
ATOM     36  C   UNL A   1      39.289  31.372  34.460  1.00  0.00     0.034 A 
BRANCH  23  37
ATOM     37  C   UNL A   1      44.472  28.045  34.096  1.00  0.00     0.023 A 
ATOM     38  C   UNL A   1      45.714  28.653  33.827  1.00  0.00     0.012 A 
ATOM     39  C   UNL A   1      44.396  26.880  34.871  1.00  0.00     0.148 A 
ATOM     40  C   UNL A   1      46.886  28.040  34.254  1.00  0.00     0.002 A 
ATOM     41  C   UNL A   1      45.560  26.322  35.355  1.00  0.00     0.091 A 
ATOM     42  F   UNL A   1      43.198  26.305  35.053  1.00  0.00    -0.205 F 
ATOM     43  C   UNL A   1      46.808  26.881  35.025  1.00  0.00     0.022 A 
BRANCH  41  44
ATOM     44  S   UNL A   1      45.542  24.889  36.424  1.00  0.00     0.127 S 
ATOM     45  O   UNL A   1      46.944  24.809  36.835  1.00  0.00    -0.237 OA
ATOM     46  O   UNL A   1      44.616  25.311  37.475  1.00  0.00    -0.237 OA
ATOM     47  O   UNL A   1      45.064  23.784  35.606  1.00  0.00    -0.744 OA
ENDBRANCH  41  44
ENDBRANCH  23  37
BRANCH  24  48
ATOM     48  C   UNL A   1      36.394  30.757  29.254  1.00  0.00     0.023 A 
ATOM     49  C   UNL A   1      35.690  29.719  28.607  1.00  0.00     0.012 A 
ATOM     50  C   UNL A   1      35.887  32.075  29.111  1.00  0.00     0.148 A 
ATOM     51  C   UNL A   1      34.548  29.983  27.832  1.00  0.00     0.002 A 
ATOM     52  C   UNL A   1      34.719  32.326  28.380  1.00  0.00     0.091 A 
ATOM     53  F   UNL A   1      36.574  33.077  29.671  1.00  0.00    -0.205 F 
ATOM     54  C   UNL A   1      34.058  31.281  27.725  1.00  0.00     0.022 A 
BRANCH  52  55
ATOM     55  S   UNL A   1      33.952  33.955  28.255  1.00  0.00     0.127 S 
ATOM     56  O   UNL A   1      34.014  34.430  29.636  1.00  0.00    -0.237 OA
ATOM     57  O   UNL A   1      34.858  34.637  27.330  1.00  0.00    -0.237 OA
ATOM     58  O   UNL A   1      32.616  33.718  27.731  1.00  0.00    -0.744 OA
ENDBRANCH  52  55
ENDBRANCH  24  48
BRANCH  36  59
ATOM     59  C   UNL A   1      38.859  32.309  35.538  1.00  0.00     0.023 A 
ATOM     60  C   UNL A   1      38.004  31.876  36.566  1.00  0.00     0.012 A 
ATOM     61  C   UNL A   1      39.406  33.605  35.571  1.00  0.00     0.148 A 
ATOM     62  C   UNL A   1      37.710  32.727  37.628  1.00  0.00     0.002 A 
ATOM     63  C   UNL A   1      39.161  34.420  36.660  1.00  0.00     0.091 A 
ATOM     64  F   UNL A   1      40.175  33.998  34.544  1.00  0.00    -0.205 F 
ATOM     65  C   UNL A   1      38.305  33.987  37.687  1.00  0.00     0.022 A 
BRANCH  63  66
ATOM     66  S   UNL A   1      39.975  36.004  36.871  1.00  0.00     0.127 S 
ATOM     67  O   UNL A   1      41.372  35.603  37.028  1.00  0.00    -0.237 OA
ATOM     68  O   UNL A   1      39.667  36.672  35.608  1.00  0.00    -0.237 OA
ATOM     69  O   UNL A   1      39.374  36.618  38.049  1.00  0.00    -0.744 OA
ENDBRANCH  63  66
ENDBRANCH  36  59
ENDBRANCH  10  11
ENDBRANCH   3   5
ENDBRANCH   2   3
ENDBRANCH   1   2
BRANCH   1  70
ATOM     70  C   UNL A   1      40.035  22.105  26.392  1.00  0.00     0.274 C 
BRANCH  70  71
ATOM     71  O   UNL A   1      38.658  21.779  26.181  1.00  0.00    -0.460 OA
BRANCH  71  72
ATOM     72  C   UNL A   1      37.777  22.751  25.775  1.00  0.00     0.335 C 
ATOM     73  O   UNL A   1      37.526  23.759  26.397  1.00  0.00    -0.249 OA
BRANCH  72  74
ATOM     74  C   UNL A   1      37.052  22.303  24.481  1.00  0.00     0.232 C 
ATOM     75  C   UNL A   1      36.462  20.885  24.487  1.00  0.00     0.087 C 
ATOM     76  O   UNL A   1      36.079  23.306  24.178  1.00  0.00    -0.355 OA
ATOM     77  C   UNL A   1      35.061  21.046  25.046  1.00  0.00     0.123 C 
ATOM     78  C   UNL A   1      34.752  22.779  24.367  1.00  0.00     0.186 C 
BRANCH  77  79
ATOM     79  C   UNL A   1      34.280  19.493  24.926  1.00  0.00    -0.013 A 
ATOM     80  C   UNL A   1      34.906  18.348  24.343  1.00  0.00     0.008 A 
ATOM     81  C   UNL A   1      32.980  19.132  25.382  1.00  0.00     0.008 A 
ATOM     82  C   UNL A   1      34.436  16.999  24.494  1.00  0.00     0.021 A 
ATOM     83  C   UNL A   1      32.547  17.787  25.648  1.00  0.00     0.021 A 
ATOM     84  C   UNL A   1      33.302  16.716  25.232  1.00  0.00     0.041 A 
ATOM     85  Cl  UNL A   1      32.814  15.093  25.536  1.00  0.00    -0.084 Cl
ENDBRANCH  77  79
BRANCH  77  86
ATOM     86  O   UNL A   1      35.471  21.182  26.412  1.00  0.00    -0.382 OA
ATOM     87  H   UNL A   1      34.686  21.230  26.981  1.00  0.00     0.212 HD
ENDBRANCH  77  86
BRANCH  78  88
ATOM     88  C   UNL A   1      33.811  24.093  24.812  1.00  0.00    -0.016 A 
ATOM     89  C   UNL A   1      34.356  25.402  24.840  1.00  0.00     0.008 A 
ATOM     90  C   UNL A   1      32.475  24.060  25.347  1.00  0.00     0.008 A 
ATOM     91  C   UNL A   1      33.791  26.476  25.595  1.00  0.00     0.021 A 
ATOM     92  C   UNL A   1      31.891  25.138  26.095  1.00  0.00     0.021 A 
ATOM     93  C   UNL A   1      32.581  26.327  26.257  1.00  0.00     0.041 A 
ATOM     94  Cl  UNL A   1      31.981  27.577  27.281  1.00  0.00    -0.084 Cl
ENDBRANCH  78  88
ENDBRANCH  72  74
ENDBRANCH  71  72
ENDBRANCH  70  71
ENDBRANCH   1  70
TORSDOF 17
ENDMDL
MODEL 2
REMARK VINA RESULT:     -13.4      4.520      6.829
REMARK SMILES O=C(OCCOC(=O)[C@H]1C[C@](O)(c2ccc(Cl)cc2)[C@@H](c2ccc(Cl)cc2)O1)c1ccc(-c2c3nc(c(-c4cccc(S(=O)(=O)[O-])c4F)c4ccc([nH]4)c(-c4cccc(S(=O)(=O)[O-])c4F)c4nc(c(-c5cccc(S(=O)(=O)[O-])c5F)c5ccc2[nH]5)C=C4)C=C3)cc1
REMARK SMILES IDX 4 1 3 2 2 3 1 4 29 5 30 6 91 7 31 8 90 9 32 10 33 11 34 12
REMARK SMILES IDX 84 13 35 14 89 15 83 16 85 17 36 18 88 19 82 20 81 21 37 23
REMARK SMILES IDX 69 24 49 25 68 26 50 27 53 28 67 29 86 30 51 31 52 32 66 34
REMARK SMILES IDX 87 35 54 36 38 37 39 38 47 39 40 40 42 41 48 42 41 43 43 44
REMARK SMILES IDX 44 45 45 46 46 47 70 48 71 49 79 50 72 51 74 52 80 53 73 54
REMARK SMILES IDX 75 55 76 56 77 57 78 58 55 59 56 60 64 61 57 62 59 63 65 64
REMARK SMILES IDX 58 65 60 66 61 67 62 68 63 69 5 70 6 71 7 72 8 73 9 74 10 75
REMARK SMILES IDX 28 76 11 77 20 78 13 79 14 80 19 81 15 82 18 83 16 84 17 85
REMARK SMILES IDX 12 86 21 88 22 89 27 90 23 91 26 92 24 93 25 94
REMARK H PARENT 85 22 53 33 12 87
REMARK Flexibility Score: inf
ROOT
ATOM      1  C   UNL A   1      39.345  19.168  25.744  1.00  0.00     0.275 C 
ENDROOT
BRANCH   1   2
ATOM      2  O   UNL A   1      40.724  19.633  25.798  1.00  0.00    -0.458 OA
BRANCH   2   3
ATOM      3  C   UNL A   1      41.422  20.133  26.872  1.00  0.00     0.338 C 
ATOM      4  O   UNL A   1      42.105  19.362  27.543  1.00  0.00    -0.246 OA
BRANCH   3   5
ATOM      5  C   UNL A   1      41.146  21.530  27.413  1.00  0.00     0.060 A 
ATOM      6  C   UNL A   1      42.102  22.260  28.058  1.00  0.00     0.016 A 
ATOM      7  C   UNL A   1      39.965  22.268  27.191  1.00  0.00     0.016 A 
ATOM      8  C   UNL A   1      41.962  23.666  28.275  1.00  0.00     0.010 A 
ATOM      9  C   UNL A   1      39.915  23.743  27.350  1.00  0.00     0.010 A 
ATOM     10  C   UNL A   1      41.034  24.530  27.746  1.00  0.00    -0.014 A 
BRANCH  10  11
ATOM     11  C   UNL A   1      41.249  26.160  27.918  1.00  0.00     0.031 A 
ATOM     12  C   UNL A   1      42.543  26.598  27.348  1.00  0.00     0.074 A 
ATOM     13  C   UNL A   1      40.537  27.311  28.317  1.00  0.00     0.049 A 
ATOM     14  N   UNL A   1      43.213  27.680  27.613  1.00  0.00    -0.248 NA
ATOM     15  C   UNL A   1      43.155  25.684  26.381  1.00  0.00     0.031 C 
ATOM     16  C   UNL A   1      39.165  27.440  28.737  1.00  0.00     0.029 A 
ATOM     17  N   UNL A   1      40.864  28.687  28.526  1.00  0.00    -0.354 N 
ATOM     18  C   UNL A   1      44.388  27.528  26.932  1.00  0.00     0.074 A 
ATOM     19  C   UNL A   1      44.357  26.219  26.304  1.00  0.00     0.031 C 
ATOM     20  C   UNL A   1      38.700  28.647  29.059  1.00  0.00     0.029 A 
ATOM     21  C   UNL A   1      39.866  29.444  29.197  1.00  0.00     0.049 A 
ATOM     22  H   UNL A   1      41.717  29.079  28.228  1.00  0.00     0.167 HD
ATOM     23  C   UNL A   1      45.398  28.408  26.808  1.00  0.00     0.034 A 
ATOM     24  C   UNL A   1      39.796  30.527  30.018  1.00  0.00     0.034 A 
ATOM     25  C   UNL A   1      45.440  29.732  27.346  1.00  0.00     0.049 A 
ATOM     26  C   UNL A   1      41.011  31.356  30.138  1.00  0.00     0.074 A 
ATOM     27  C   UNL A   1      46.452  30.660  27.189  1.00  0.00     0.029 A 
ATOM     28  N   UNL A   1      44.476  30.324  28.144  1.00  0.00    -0.354 N 
ATOM     29  N   UNL A   1      42.158  31.128  29.569  1.00  0.00    -0.248 NA
ATOM     30  C   UNL A   1      40.930  32.605  30.907  1.00  0.00     0.031 C 
ATOM     31  C   UNL A   1      46.127  31.795  27.930  1.00  0.00     0.029 A 
ATOM     32  C   UNL A   1      44.884  31.601  28.501  1.00  0.00     0.049 A 
ATOM     33  H   UNL A   1      43.629  29.901  28.417  1.00  0.00     0.167 HD
ATOM     34  C   UNL A   1      42.909  32.254  29.813  1.00  0.00     0.074 A 
ATOM     35  C   UNL A   1      42.115  33.140  30.638  1.00  0.00     0.031 C 
ATOM     36  C   UNL A   1      44.130  32.517  29.315  1.00  0.00     0.034 A 
BRANCH  23  37
ATOM     37  C   UNL A   1      46.579  27.863  26.089  1.00  0.00     0.023 A 
ATOM     38  C   UNL A   1      46.643  27.906  24.683  1.00  0.00     0.012 A 
ATOM     39  C   UNL A   1      47.542  27.165  26.830  1.00  0.00     0.148 A 
ATOM     40  C   UNL A   1      47.615  27.170  24.015  1.00  0.00     0.002 A 
ATOM     41  C   UNL A   1      48.549  26.500  26.161  1.00  0.00     0.091 A 
ATOM     42  F   UNL A   1      47.409  27.104  28.164  1.00  0.00    -0.205 F 
ATOM     43  C   UNL A   1      48.572  26.475  24.755  1.00  0.00     0.022 A 
BRANCH  41  44
ATOM     44  S   UNL A   1      49.864  25.661  27.034  1.00  0.00     0.127 S 
ATOM     45  O   UNL A   1      49.174  24.473  27.536  1.00  0.00    -0.237 OA
ATOM     46  O   UNL A   1      50.823  25.406  25.958  1.00  0.00    -0.237 OA
ATOM     47  O   UNL A   1      50.330  26.593  28.050  1.00  0.00    -0.744 OA
ENDBRANCH  41  44
ENDBRANCH  23  37
BRANCH  24  48
ATOM     48  C   UNL A   1      38.575  30.899  30.860  1.00  0.00     0.023 A 
ATOM     49  C   UNL A   1      38.460  30.464  32.196  1.00  0.00     0.012 A 
ATOM     50  C   UNL A   1      37.480  31.618  30.312  1.00  0.00     0.148 A 
ATOM     51  C   UNL A   1      37.299  30.710  32.949  1.00  0.00     0.002 A 
ATOM     52  C   UNL A   1      36.346  31.906  31.083  1.00  0.00     0.091 A 
ATOM     53  F   UNL A   1      37.549  31.988  29.029  1.00  0.00    -0.205 F 
ATOM     54  C   UNL A   1      36.248  31.436  32.398  1.00  0.00     0.022 A 
BRANCH  52  55
ATOM     55  S   UNL A   1      34.970  32.915  30.494  1.00  0.00     0.127 S 
ATOM     56  O   UNL A   1      34.471  32.126  29.370  1.00  0.00    -0.237 OA
ATOM     57  O   UNL A   1      34.094  32.933  31.667  1.00  0.00    -0.237 OA
ATOM     58  O   UNL A   1      35.550  34.203  30.150  1.00  0.00    -0.744 OA
ENDBRANCH  52  55
ENDBRANCH  24  48
BRANCH  36  59
ATOM     59  C   UNL A   1      44.690  33.878  29.555  1.00  0.00     0.023 A 
ATOM     60  C   UNL A   1      45.466  34.143  30.697  1.00  0.00     0.012 A 
ATOM     61  C   UNL A   1      44.521  34.867  28.569  1.00  0.00     0.148 A 
ATOM     62  C   UNL A   1      46.081  35.384  30.845  1.00  0.00     0.002 A 
ATOM     63  C   UNL A   1      45.186  36.073  28.693  1.00  0.00     0.091 A 
ATOM     64  F   UNL A   1      43.730  34.593  27.520  1.00  0.00    -0.205 F 
ATOM     65  C   UNL A   1      45.960  36.338  29.835  1.00  0.00     0.022 A 
BRANCH  63  66
ATOM     66  S   UNL A   1      45.180  37.306  27.390  1.00  0.00     0.127 S 
ATOM     67  O   UNL A   1      45.958  36.642  26.347  1.00  0.00    -0.237 OA
ATOM     68  O   UNL A   1      43.752  37.435  27.104  1.00  0.00    -0.237 OA
ATOM     69  O   UNL A   1      45.799  38.499  27.956  1.00  0.00    -0.744 OA
ENDBRANCH  63  66
ENDBRANCH  36  59
ENDBRANCH  10  11
ENDBRANCH   3   5
ENDBRANCH   2   3
ENDBRANCH   1   2
BRANCH   1  70
ATOM     70  C   UNL A   1      38.478  20.070  24.849  1.00  0.00     0.274 C 
BRANCH  70  71
ATOM     71  O   UNL A   1      37.459  20.740  25.598  1.00  0.00    -0.460 OA
BRANCH  71  72
ATOM     72  C   UNL A   1      37.039  21.991  25.220  1.00  0.00     0.335 C 
ATOM     73  O   UNL A   1      37.686  22.763  24.548  1.00  0.00    -0.249 OA
BRANCH  72  74
ATOM     74  C   UNL A   1      35.682  22.322  25.892  1.00  0.00     0.232 C 
ATOM     75  C   UNL A   1      34.829  23.399  25.206  1.00  0.00     0.087 C 
ATOM     76  O   UNL A   1      34.985  21.085  26.059  1.00  0.00    -0.355 OA
ATOM     77  C   UNL A   1      33.981  22.644  24.199  1.00  0.00     0.123 C 
ATOM     78  C   UNL A   1      33.839  21.043  25.186  1.00  0.00     0.186 C 
BRANCH  77  79
ATOM     79  C   UNL A   1      32.872  23.792  23.501  1.00  0.00    -0.013 A 
ATOM     80  C   UNL A   1      31.576  24.054  24.044  1.00  0.00     0.008 A 
ATOM     81  C   UNL A   1      33.074  24.618  22.357  1.00  0.00     0.008 A 
ATOM     82  C   UNL A   1      30.763  25.186  23.697  1.00  0.00     0.021 A 
ATOM     83  C   UNL A   1      32.338  25.820  22.072  1.00  0.00     0.021 A 
ATOM     84  C   UNL A   1      31.195  26.121  22.774  1.00  0.00     0.041 A 
ATOM     85  Cl  UNL A   1      30.291  27.552  22.459  1.00  0.00    -0.084 Cl
ENDBRANCH  77  79
BRANCH  77  86
ATOM     86  O   UNL A   1      35.031  22.470  23.239  1.00  0.00    -0.382 OA
ATOM     87  H   UNL A   1      35.781  23.040  23.473  1.00  0.00     0.212 HD
ENDBRANCH  77  86
BRANCH  78  88
ATOM     88  C   UNL A   1      33.617  19.422  24.821  1.00  0.00    -0.016 A 
ATOM     89  C   UNL A   1      32.351  18.806  24.987  1.00  0.00     0.008 A 
ATOM     90  C   UNL A   1      34.635  18.464  24.479  1.00  0.00     0.008 A 
ATOM     91  C   UNL A   1      32.171  17.394  25.122  1.00  0.00     0.021 A 
ATOM     92  C   UNL A   1      34.462  17.043  24.596  1.00  0.00     0.021 A 
ATOM     93  C   UNL A   1      33.237  16.520  24.970  1.00  0.00     0.041 A 
ATOM     94  Cl  UNL A   1      33.039  14.835  25.276  1.00  0.00    -0.084 Cl
ENDBRANCH  78  88
ENDBRANCH  72  74
ENDBRANCH  71  72
ENDBRANCH  70  71
ENDBRANCH   1  70
TORSDOF 17
ENDMDL
MODEL 3
REMARK VINA RESULT:     -13.2      1.852      2.103
REMARK SMILES O=C(OCCOC(=O)[C@H]1C[C@](O)(c2ccc(Cl)cc2)[C@@H](c2ccc(Cl)cc2)O1)c1ccc(-c2c3nc(c(-c4cccc(S(=O)(=O)[O-])c4F)c4ccc([nH]4)c(-c4cccc(S(=O)(=O)[O-])c4F)c4nc(c(-c5cccc(S(=O)(=O)[O-])c5F)c5ccc2[nH]5)C=C4)C=C3)cc1
REMARK SMILES IDX 4 1 3 2 2 3 1 4 29 5 30 6 91 7 31 8 90 9 32 10 33 11 34 12
REMARK SMILES IDX 84 13 35 14 89 15 83 16 85 17 36 18 88 19 82 20 81 21 37 23
REMARK SMILES IDX 69 24 49 25 68 26 50 27 53 28 67 29 86 30 51 31 52 32 66 34
REMARK SMILES IDX 87 35 54 36 38 37 39 38 47 39 40 40 42 41 48 42 41 43 43 44
REMARK SMILES IDX 44 45 45 46 46 47 70 48 71 49 79 50 72 51 74 52 80 53 73 54
REMARK SMILES IDX 75 55 76 56 77 57 78 58 55 59 56 60 64 61 57 62 59 63 65 64
REMARK SMILES IDX 58 65 60 66 61 67 62 68 63 69 5 70 6 71 7 72 8 73 9 74 10 75
REMARK SMILES IDX 28 76 11 77 20 78 13 79 14 80 19 81 15 82 18 83 16 84 17 85
REMARK SMILES IDX 12 86 21 88 22 89 27 90 23 91 26 92 24 93 25 94
REMARK H PARENT 85 22 53 33 12 87
REMARK Flexibility Score: inf
ROOT
ATOM      1  C   UNL A   1      40.845  20.939  26.056  1.00  0.00     0.275 C 
ENDROOT
BRANCH   1   2
ATOM      2  O   UNL A   1      42.213  21.313  25.729  1.00  0.00    -0.458 OA
BRANCH   2   3
ATOM      3  C   UNL A   1      42.688  22.515  25.260  1.00  0.00     0.338 C 
ATOM      4  O   UNL A   1      43.248  22.543  24.167  1.00  0.00    -0.246 OA
BRANCH   3   5
ATOM      5  C   UNL A   1      42.796  23.732  26.171  1.00  0.00     0.060 A 
ATOM      6  C   UNL A   1      42.296  24.951  25.814  1.00  0.00     0.016 A 
ATOM      7  C   UNL A   1      43.269  23.713  27.499  1.00  0.00     0.016 A 
ATOM      8  C   UNL A   1      42.099  25.997  26.770  1.00  0.00     0.010 A 
ATOM      9  C   UNL A   1      42.951  24.793  28.466  1.00  0.00     0.010 A 
ATOM     10  C   UNL A   1      42.161  25.932  28.141  1.00  0.00    -0.014 A 
BRANCH  10  11
ATOM     11  C   UNL A   1      41.613  27.207  29.041  1.00  0.00     0.031 A 
ATOM     12  C   UNL A   1      42.371  27.342  30.304  1.00  0.00     0.074 A 
ATOM     13  C   UNL A   1      40.735  28.307  28.938  1.00  0.00     0.049 A 
ATOM     14  N   UNL A   1      42.012  27.953  31.395  1.00  0.00    -0.248 NA
ATOM     15  C   UNL A   1      43.681  26.687  30.334  1.00  0.00     0.031 C 
ATOM     16  C   UNL A   1      39.937  28.742  27.820  1.00  0.00     0.029 A 
ATOM     17  N   UNL A   1      40.254  29.309  29.836  1.00  0.00    -0.354 N 
ATOM     18  C   UNL A   1      43.003  27.659  32.290  1.00  0.00     0.074 A 
ATOM     19  C   UNL A   1      43.933  26.762  31.626  1.00  0.00     0.031 C 
ATOM     20  C   UNL A   1      39.182  29.833  27.953  1.00  0.00     0.029 A 
ATOM     21  C   UNL A   1      39.155  30.069  29.351  1.00  0.00     0.049 A 
ATOM     22  H   UNL A   1      40.653  29.461  30.723  1.00  0.00     0.167 HD
ATOM     23  C   UNL A   1      43.152  28.116  33.546  1.00  0.00     0.034 A 
ATOM     24  C   UNL A   1      38.081  30.736  29.858  1.00  0.00     0.034 A 
ATOM     25  C   UNL A   1      42.304  29.054  34.213  1.00  0.00     0.049 A 
ATOM     26  C   UNL A   1      38.074  30.989  31.311  1.00  0.00     0.074 A 
ATOM     27  C   UNL A   1      42.470  29.563  35.487  1.00  0.00     0.029 A 
ATOM     28  N   UNL A   1      41.142  29.613  33.708  1.00  0.00    -0.354 N 
ATOM     29  N   UNL A   1      38.975  30.599  32.165  1.00  0.00    -0.248 NA
ATOM     30  C   UNL A   1      37.001  31.822  31.869  1.00  0.00     0.031 C 
ATOM     31  C   UNL A   1      41.386  30.392  35.774  1.00  0.00     0.029 A 
ATOM     32  C   UNL A   1      40.573  30.449  34.658  1.00  0.00     0.049 A 
ATOM     33  H   UNL A   1      40.775  29.442  32.810  1.00  0.00     0.167 HD
ATOM     34  C   UNL A   1      38.646  31.227  33.343  1.00  0.00     0.074 A 
ATOM     35  C   UNL A   1      37.425  31.971  33.118  1.00  0.00     0.031 C 
ATOM     36  C   UNL A   1      39.366  31.211  34.479  1.00  0.00     0.034 A 
BRANCH  23  37
ATOM     37  C   UNL A   1      44.286  27.494  34.277  1.00  0.00     0.023 A 
ATOM     38  C   UNL A   1      45.571  28.067  34.224  1.00  0.00     0.012 A 
ATOM     39  C   UNL A   1      44.082  26.244  34.878  1.00  0.00     0.148 A 
ATOM     40  C   UNL A   1      46.666  27.347  34.688  1.00  0.00     0.002 A 
ATOM     41  C   UNL A   1      45.165  25.570  35.404  1.00  0.00     0.091 A 
ATOM     42  F   UNL A   1      42.852  25.711  34.854  1.00  0.00    -0.205 F 
ATOM     43  C   UNL A   1      46.461  26.103  35.285  1.00  0.00     0.022 A 
BRANCH  41  44
ATOM     44  S   UNL A   1      44.977  24.015  36.264  1.00  0.00     0.127 S 
ATOM     45  O   UNL A   1      46.327  23.460  36.171  1.00  0.00    -0.237 OA
ATOM     46  O   UNL A   1      44.586  24.458  37.603  1.00  0.00    -0.237 OA
ATOM     47  O   UNL A   1      43.945  23.281  35.547  1.00  0.00    -0.744 OA
ENDBRANCH  41  44
ENDBRANCH  23  37
BRANCH  24  48
ATOM     48  C   UNL A   1      36.870  31.178  29.035  1.00  0.00     0.023 A 
ATOM     49  C   UNL A   1      36.570  32.546  28.872  1.00  0.00     0.012 A 
ATOM     50  C   UNL A   1      35.961  30.240  28.479  1.00  0.00     0.148 A 
ATOM     51  C   UNL A   1      35.405  32.965  28.207  1.00  0.00     0.002 A 
ATOM     52  C   UNL A   1      34.828  30.663  27.772  1.00  0.00     0.091 A 
ATOM     53  F   UNL A   1      36.201  28.939  28.674  1.00  0.00    -0.205 F 
ATOM     54  C   UNL A   1      34.540  32.028  27.651  1.00  0.00     0.022 A 
BRANCH  52  55
ATOM     55  S   UNL A   1      33.694  29.534  26.937  1.00  0.00     0.127 S 
ATOM     56  O   UNL A   1      33.124  28.788  28.057  1.00  0.00    -0.237 OA
ATOM     57  O   UNL A   1      32.772  30.468  26.289  1.00  0.00    -0.237 OA
ATOM     58  O   UNL A   1      34.518  28.761  26.021  1.00  0.00    -0.744 OA
ENDBRANCH  52  55
ENDBRANCH  24  48
BRANCH  36  59
ATOM     59  C   UNL A   1      38.924  32.109  35.585  1.00  0.00     0.023 A 
ATOM     60  C   UNL A   1      38.999  33.505  35.448  1.00  0.00     0.012 A 
ATOM     61  C   UNL A   1      38.331  31.539  36.727  1.00  0.00     0.148 A 
ATOM     62  C   UNL A   1      38.471  34.328  36.440  1.00  0.00     0.002 A 
ATOM     63  C   UNL A   1      37.752  32.362  37.675  1.00  0.00     0.091 A 
ATOM     64  F   UNL A   1      38.327  30.203  36.843  1.00  0.00    -0.205 F 
ATOM     65  C   UNL A   1      37.829  33.759  37.539  1.00  0.00     0.022 A 
BRANCH  63  66
ATOM     66  S   UNL A   1      36.809  31.713  39.055  1.00  0.00     0.127 S 
ATOM     67  O   UNL A   1      37.766  31.832  40.153  1.00  0.00    -0.237 OA
ATOM     68  O   UNL A   1      35.684  32.645  39.117  1.00  0.00    -0.237 OA
ATOM     69  O   UNL A   1      36.449  30.346  38.696  1.00  0.00    -0.744 OA
ENDBRANCH  63  66
ENDBRANCH  36  59
ENDBRANCH  10  11
ENDBRANCH   3   5
ENDBRANCH   2   3
ENDBRANCH   1   2
BRANCH   1  70
ATOM     70  C   UNL A   1      39.929  22.171  26.157  1.00  0.00     0.274 C 
BRANCH  70  71
ATOM     71  O   UNL A   1      38.567  21.803  26.389  1.00  0.00    -0.460 OA
BRANCH  71  72
ATOM     72  C   UNL A   1      37.552  22.524  25.810  1.00  0.00     0.335 C 
ATOM     73  O   UNL A   1      37.010  23.482  26.315  1.00  0.00    -0.249 OA
BRANCH  72  74
ATOM     74  C   UNL A   1      37.109  21.850  24.487  1.00  0.00     0.232 C 
ATOM     75  C   UNL A   1      36.487  20.451  24.611  1.00  0.00     0.087 C 
ATOM     76  O   UNL A   1      36.258  22.777  23.809  1.00  0.00    -0.355 OA
ATOM     77  C   UNL A   1      35.004  20.700  24.813  1.00  0.00     0.123 C 
ATOM     78  C   UNL A   1      34.905  22.283  23.793  1.00  0.00     0.186 C 
BRANCH  77  79
ATOM     79  C   UNL A   1      34.218  19.144  24.798  1.00  0.00    -0.013 A 
ATOM     80  C   UNL A   1      34.792  17.986  24.188  1.00  0.00     0.008 A 
ATOM     81  C   UNL A   1      32.963  18.794  25.374  1.00  0.00     0.008 A 
ATOM     82  C   UNL A   1      34.339  16.641  24.410  1.00  0.00     0.021 A 
ATOM     83  C   UNL A   1      32.558  17.455  25.708  1.00  0.00     0.021 A 
ATOM     84  C   UNL A   1      33.275  16.375  25.250  1.00  0.00     0.041 A 
ATOM     85  Cl  UNL A   1      32.818  14.759  25.633  1.00  0.00    -0.084 Cl
ENDBRANCH  77  79
BRANCH  77  86
ATOM     86  O   UNL A   1      35.114  21.077  26.191  1.00  0.00    -0.382 OA
ATOM     87  H   UNL A   1      35.779  21.779  26.282  1.00  0.00     0.212 HD
ENDBRANCH  77  86
BRANCH  78  88
ATOM     88  C   UNL A   1      33.932  23.648  23.787  1.00  0.00    -0.016 A 
ATOM     89  C   UNL A   1      34.415  24.888  24.279  1.00  0.00     0.008 A 
ATOM     90  C   UNL A   1      32.531  23.712  23.465  1.00  0.00     0.008 A 
ATOM     91  C   UNL A   1      33.563  25.952  24.709  1.00  0.00     0.021 A 
ATOM     92  C   UNL A   1      31.668  24.783  23.879  1.00  0.00     0.021 A 
ATOM     93  C   UNL A   1      32.187  25.877  24.547  1.00  0.00     0.041 A 
ATOM     94  Cl  UNL A   1      31.160  27.099  25.198  1.00  0.00    -0.084 Cl
ENDBRANCH  78  88
ENDBRANCH  72  74
ENDBRANCH  71  72
ENDBRANCH  70  71
ENDBRANCH   1  70
TORSDOF 17
ENDMDL
