MODEL 1
REMARK VINA RESULT:     -11.6      0.000      0.000
REMARK SMILES Nn1c(Cc2ccc(F)c(F)c2)nnc1SCC(=O)OCCOC(=O)c1ccc(-c2c3nc(c(-c4cccc(S(=O)(=O)[O-])c4F)c4ccc([nH]4)c(-c4cccc(S(=O)(=O)[O-])c4F)c4nc(c(-c5cccc(S(=O)(=O)[O-])c5F)c5ccc2[nH]5)C=C4)C=C3)cc1
REMARK SMILES IDX 21 1 20 2 18 3 19 4 17 5 16 6 15 7 2 8 3 9 13 10 14 11 1 12
REMARK SMILES IDX 4 15 5 16 6 17 12 18 7 19 10 20 8 21 11 22 9 23 22 24 23 25
REMARK SMILES IDX 24 26 25 27 26 28 27 29 88 30 28 31 87 32 29 33 30 34 31 35
REMARK SMILES IDX 81 36 32 37 86 38 80 39 82 40 33 41 85 42 79 43 78 44 34 46
REMARK SMILES IDX 66 47 46 48 65 49 47 50 50 51 64 52 83 53 48 54 49 55 63 57
REMARK SMILES IDX 84 58 51 59 35 60 36 61 44 62 37 63 39 64 45 65 38 66 40 67
REMARK SMILES IDX 41 68 42 69 43 70 67 71 68 72 76 73 69 74 71 75 77 76 70 77
REMARK SMILES IDX 72 78 73 79 74 80 75 81 52 82 53 83 61 84 54 85 56 86 62 87
REMARK SMILES IDX 55 88 57 89 58 90 59 91 60 92
REMARK H PARENT 1 13 1 14 82 45 50 56
REMARK Flexibility Score: inf
ROOT
ATOM      1  C   UNL A   1      36.135  20.167  25.028  1.00  0.00     0.274 C 
ENDROOT
BRANCH   1   2
ATOM      2  O   UNL A   1      35.601  21.443  24.625  1.00  0.00    -0.461 OA
BRANCH   2   3
ATOM      3  C   UNL A   1      34.762  22.036  25.508  1.00  0.00     0.316 C 
ATOM      4  O   UNL A   1      35.137  22.763  26.427  1.00  0.00    -0.251 OA
BRANCH   3   5
ATOM      5  C   UNL A   1      33.292  21.775  25.290  1.00  0.00     0.200 C 
BRANCH   5   6
ATOM      6  S   UNL A   1      32.708  21.635  23.594  1.00  0.00    -0.073 SA
BRANCH   6   7
ATOM      7  C   UNL A   1      32.785  23.237  22.943  1.00  0.00     0.210 A 
ATOM      8  N   UNL A   1      31.747  24.132  22.821  1.00  0.00    -0.221 N 
ATOM      9  C   UNL A   1      32.284  25.240  22.202  1.00  0.00     0.157 A 
ATOM     10  N   UNL A   1      33.537  24.977  21.877  1.00  0.00    -0.132 NA
ATOM     11  N   UNL A   1      33.851  23.723  22.345  1.00  0.00    -0.121 NA
BRANCH   8  12
ATOM     12  N   UNL A   1      30.367  23.936  23.161  1.00  0.00    -0.336 N 
ATOM     13  H   UNL A   1      30.022  24.264  24.023  1.00  0.00     0.178 HD
ATOM     14  H   UNL A   1      29.766  23.475  22.534  1.00  0.00     0.178 HD
ENDBRANCH   8  12
BRANCH   9  15
ATOM     15  C   UNL A   1      31.525  26.500  21.939  1.00  0.00     0.115 C 
BRANCH  15  16
ATOM     16  C   UNL A   1      31.568  27.483  23.089  1.00  0.00    -0.037 A 
ATOM     17  C   UNL A   1      32.377  27.232  24.210  1.00  0.00     0.007 A 
ATOM     18  C   UNL A   1      30.756  28.627  23.081  1.00  0.00     0.046 A 
ATOM     19  C   UNL A   1      32.364  28.102  25.303  1.00  0.00     0.043 A 
ATOM     20  C   UNL A   1      30.744  29.485  24.176  1.00  0.00     0.159 A 
ATOM     21  C   UNL A   1      31.541  29.223  25.281  1.00  0.00     0.158 A 
ATOM     22  F   UNL A   1      29.944  30.561  24.159  1.00  0.00    -0.204 F 
ATOM     23  F   UNL A   1      31.516  30.042  26.343  1.00  0.00    -0.204 F 
ENDBRANCH  15  16
ENDBRANCH   9  15
ENDBRANCH   6   7
ENDBRANCH   5   6
ENDBRANCH   3   5
ENDBRANCH   2   3
ENDBRANCH   1   2
BRANCH   1  24
ATOM     24  C   UNL A   1      37.643  20.084  24.804  1.00  0.00     0.275 C 
BRANCH  24  25
ATOM     25  O   UNL A   1      38.291  21.318  25.168  1.00  0.00    -0.458 OA
BRANCH  25  26
ATOM     26  C   UNL A   1      39.275  21.176  26.079  1.00  0.00     0.338 C 
ATOM     27  O   UNL A   1      39.895  20.160  26.349  1.00  0.00    -0.246 OA
BRANCH  26  28
ATOM     28  C   UNL A   1      39.602  22.436  26.754  1.00  0.00     0.060 A 
ATOM     29  C   UNL A   1      38.996  23.620  26.334  1.00  0.00     0.016 A 
ATOM     30  C   UNL A   1      40.707  22.465  27.608  1.00  0.00     0.016 A 
ATOM     31  C   UNL A   1      39.566  24.843  26.693  1.00  0.00     0.010 A 
ATOM     32  C   UNL A   1      41.234  23.691  28.018  1.00  0.00     0.010 A 
ATOM     33  C   UNL A   1      40.702  24.890  27.520  1.00  0.00    -0.014 A 
BRANCH  33  34
ATOM     34  C   UNL A   1      41.344  26.190  27.847  1.00  0.00     0.031 A 
ATOM     35  C   UNL A   1      40.592  27.259  28.599  1.00  0.00     0.074 A 
ATOM     36  C   UNL A   1      42.613  26.417  27.458  1.00  0.00     0.049 A 
ATOM     37  N   UNL A   1      40.994  28.451  28.956  1.00  0.00    -0.248 NA
ATOM     38  C   UNL A   1      39.209  26.952  29.004  1.00  0.00     0.031 C 
ATOM     39  C   UNL A   1      43.437  25.477  26.699  1.00  0.00     0.029 A 
ATOM     40  N   UNL A   1      43.426  27.506  27.642  1.00  0.00    -0.354 N 
ATOM     41  C   UNL A   1      39.912  29.051  29.589  1.00  0.00     0.074 A 
ATOM     42  C   UNL A   1      38.831  28.089  29.573  1.00  0.00     0.031 C 
ATOM     43  C   UNL A   1      44.645  26.023  26.495  1.00  0.00     0.029 A 
ATOM     44  C   UNL A   1      44.670  27.363  27.076  1.00  0.00     0.049 A 
ATOM     45  H   UNL A   1      43.145  28.313  28.131  1.00  0.00     0.167 HD
ATOM     46  C   UNL A   1      39.829  30.282  30.148  1.00  0.00     0.034 A 
ATOM     47  C   UNL A   1      45.714  28.213  27.021  1.00  0.00     0.034 A 
ATOM     48  C   UNL A   1      40.912  31.227  30.206  1.00  0.00     0.049 A 
ATOM     49  C   UNL A   1      45.604  29.559  27.676  1.00  0.00     0.074 A 
ATOM     50  C   UNL A   1      40.928  32.482  30.791  1.00  0.00     0.029 A 
ATOM     51  N   UNL A   1      42.170  31.024  29.663  1.00  0.00    -0.354 N 
ATOM     52  N   UNL A   1      44.604  30.062  28.359  1.00  0.00    -0.248 NA
ATOM     53  C   UNL A   1      46.770  30.449  27.568  1.00  0.00     0.031 C 
ATOM     54  C   UNL A   1      42.201  33.034  30.610  1.00  0.00     0.029 A 
ATOM     55  C   UNL A   1      42.972  32.127  29.903  1.00  0.00     0.049 A 
ATOM     56  H   UNL A   1      42.452  30.215  29.179  1.00  0.00     0.167 HD
ATOM     57  C   UNL A   1      45.022  31.323  28.767  1.00  0.00     0.074 A 
ATOM     58  C   UNL A   1      46.376  31.494  28.283  1.00  0.00     0.031 C 
ATOM     59  C   UNL A   1      44.333  32.266  29.455  1.00  0.00     0.034 A 
BRANCH  46  60
ATOM     60  C   UNL A   1      38.533  30.664  30.807  1.00  0.00     0.023 A 
ATOM     61  C   UNL A   1      38.361  30.392  32.179  1.00  0.00     0.012 A 
ATOM     62  C   UNL A   1      37.530  31.356  30.106  1.00  0.00     0.148 A 
ATOM     63  C   UNL A   1      37.202  30.796  32.840  1.00  0.00     0.002 A 
ATOM     64  C   UNL A   1      36.387  31.778  30.780  1.00  0.00     0.091 A 
ATOM     65  F   UNL A   1      37.695  31.576  28.794  1.00  0.00    -0.205 F 
ATOM     66  C   UNL A   1      36.221  31.498  32.145  1.00  0.00     0.022 A 
BRANCH  64  67
ATOM     67  S   UNL A   1      35.111  32.734  29.950  1.00  0.00     0.127 S 
ATOM     68  O   UNL A   1      35.882  33.854  29.413  1.00  0.00    -0.237 OA
ATOM     69  O   UNL A   1      34.614  31.799  28.940  1.00  0.00    -0.237 OA
ATOM     70  O   UNL A   1      34.145  33.059  30.991  1.00  0.00    -0.744 OA
ENDBRANCH  64  67
ENDBRANCH  46  60
BRANCH  47  71
ATOM     71  C   UNL A   1      46.975  27.767  26.370  1.00  0.00     0.023 A 
ATOM     72  C   UNL A   1      47.902  27.012  27.112  1.00  0.00     0.012 A 
ATOM     73  C   UNL A   1      47.214  28.000  25.003  1.00  0.00     0.148 A 
ATOM     74  C   UNL A   1      49.047  26.498  26.502  1.00  0.00     0.002 A 
ATOM     75  C   UNL A   1      48.327  27.437  24.390  1.00  0.00     0.091 A 
ATOM     76  F   UNL A   1      46.336  28.743  24.313  1.00  0.00    -0.205 F 
ATOM     77  C   UNL A   1      49.251  26.694  25.138  1.00  0.00     0.022 A 
BRANCH  75  78
ATOM     78  S   UNL A   1      48.521  27.531  22.607  1.00  0.00     0.127 S 
ATOM     79  O   UNL A   1      49.796  28.227  22.473  1.00  0.00    -0.237 OA
ATOM     80  O   UNL A   1      48.544  26.123  22.207  1.00  0.00    -0.237 OA
ATOM     81  O   UNL A   1      47.334  28.252  22.160  1.00  0.00    -0.744 OA
ENDBRANCH  75  78
ENDBRANCH  47  71
BRANCH  59  82
ATOM     82  C   UNL A   1      45.024  33.575  29.710  1.00  0.00     0.023 A 
ATOM     83  C   UNL A   1      45.827  33.709  30.861  1.00  0.00     0.012 A 
ATOM     84  C   UNL A   1      44.934  34.644  28.801  1.00  0.00     0.148 A 
ATOM     85  C   UNL A   1      46.513  34.897  31.111  1.00  0.00     0.002 A 
ATOM     86  C   UNL A   1      45.643  35.817  29.044  1.00  0.00     0.091 A 
ATOM     87  F   UNL A   1      44.150  34.511  27.720  1.00  0.00    -0.205 F 
ATOM     88  C   UNL A   1      46.429  35.948  30.199  1.00  0.00     0.022 A 
BRANCH  86  89
ATOM     89  S   UNL A   1      45.601  37.165  27.859  1.00  0.00     0.127 S 
ATOM     90  O   UNL A   1      46.316  36.594  26.720  1.00  0.00    -0.237 OA
ATOM     91  O   UNL A   1      44.169  37.367  27.635  1.00  0.00    -0.237 OA
ATOM     92  O   UNL A   1      46.257  38.272  28.545  1.00  0.00    -0.744 OA
ENDBRANCH  86  89
ENDBRANCH  59  82
ENDBRANCH  33  34
ENDBRANCH  26  28
ENDBRANCH  25  26
ENDBRANCH  24  25
ENDBRANCH   1  24
TORSDOF 19
ENDMDL
MODEL 2
REMARK VINA RESULT:     -11.5      1.412      1.803
REMARK SMILES Nn1c(Cc2ccc(F)c(F)c2)nnc1SCC(=O)OCCOC(=O)c1ccc(-c2c3nc(c(-c4cccc(S(=O)(=O)[O-])c4F)c4ccc([nH]4)c(-c4cccc(S(=O)(=O)[O-])c4F)c4nc(c(-c5cccc(S(=O)(=O)[O-])c5F)c5ccc2[nH]5)C=C4)C=C3)cc1
REMARK SMILES IDX 21 1 20 2 18 3 19 4 17 5 16 6 15 7 2 8 3 9 13 10 14 11 1 12
REMARK SMILES IDX 4 15 5 16 6 17 12 18 7 19 10 20 8 21 11 22 9 23 22 24 23 25
REMARK SMILES IDX 24 26 25 27 26 28 27 29 88 30 28 31 87 32 29 33 30 34 31 35
REMARK SMILES IDX 81 36 32 37 86 38 80 39 82 40 33 41 85 42 79 43 78 44 34 46
REMARK SMILES IDX 66 47 46 48 65 49 47 50 50 51 64 52 83 53 48 54 49 55 63 57
REMARK SMILES IDX 84 58 51 59 35 60 36 61 44 62 37 63 39 64 45 65 38 66 40 67
REMARK SMILES IDX 41 68 42 69 43 70 67 71 68 72 76 73 69 74 71 75 77 76 70 77
REMARK SMILES IDX 72 78 73 79 74 80 75 81 52 82 53 83 61 84 54 85 56 86 62 87
REMARK SMILES IDX 55 88 57 89 58 90 59 91 60 92
REMARK H PARENT 1 13 1 14 82 45 50 56
REMARK Flexibility Score: inf
ROOT
ATOM      1  C   UNL A   1      35.675  19.763  25.014  1.00  0.00     0.274 C 
ENDROOT
BRANCH   1   2
ATOM      2  O   UNL A   1      35.119  21.074  25.236  1.00  0.00    -0.461 OA
BRANCH   2   3
ATOM      3  C   UNL A   1      34.033  21.126  26.044  1.00  0.00     0.316 C 
ATOM      4  O   UNL A   1      34.081  21.423  27.237  1.00  0.00    -0.251 OA
BRANCH   3   5
ATOM      5  C   UNL A   1      32.712  20.817  25.385  1.00  0.00     0.200 C 
BRANCH   5   6
ATOM      6  S   UNL A   1      32.538  21.197  23.635  1.00  0.00    -0.073 SA
BRANCH   6   7
ATOM      7  C   UNL A   1      32.387  22.919  23.547  1.00  0.00     0.210 A 
ATOM      8  N   UNL A   1      33.409  23.839  23.518  1.00  0.00    -0.221 N 
ATOM      9  C   UNL A   1      32.797  25.074  23.501  1.00  0.00     0.157 A 
ATOM     10  N   UNL A   1      31.493  24.900  23.624  1.00  0.00    -0.132 NA
ATOM     11  N   UNL A   1      31.238  23.550  23.650  1.00  0.00    -0.121 NA
BRANCH   8  12
ATOM     12  N   UNL A   1      34.821  23.594  23.594  1.00  0.00    -0.336 N 
ATOM     13  H   UNL A   1      35.353  24.006  24.313  1.00  0.00     0.178 HD
ATOM     14  H   UNL A   1      35.257  23.016  22.929  1.00  0.00     0.178 HD
ENDBRANCH   8  12
BRANCH   9  15
ATOM     15  C   UNL A   1      33.531  26.369  23.389  1.00  0.00     0.115 C 
BRANCH  15  16
ATOM     16  C   UNL A   1      33.197  27.351  24.493  1.00  0.00    -0.037 A 
ATOM     17  C   UNL A   1      33.737  27.185  25.780  1.00  0.00     0.007 A 
ATOM     18  C   UNL A   1      32.298  28.403  24.265  1.00  0.00     0.046 A 
ATOM     19  C   UNL A   1      33.374  28.049  26.817  1.00  0.00     0.043 A 
ATOM     20  C   UNL A   1      31.938  29.255  25.304  1.00  0.00     0.159 A 
ATOM     21  C   UNL A   1      32.470  29.077  26.572  1.00  0.00     0.158 A 
ATOM     22  F   UNL A   1      31.058  30.240  25.071  1.00  0.00    -0.204 F 
ATOM     23  F   UNL A   1      32.108  29.887  27.578  1.00  0.00    -0.204 F 
ENDBRANCH  15  16
ENDBRANCH   9  15
ENDBRANCH   6   7
ENDBRANCH   5   6
ENDBRANCH   3   5
ENDBRANCH   2   3
ENDBRANCH   1   2
BRANCH   1  24
ATOM     24  C   UNL A   1      37.176  19.819  24.742  1.00  0.00     0.275 C 
BRANCH  24  25
ATOM     25  O   UNL A   1      37.738  21.068  25.185  1.00  0.00    -0.458 OA
BRANCH  25  26
ATOM     26  C   UNL A   1      38.902  20.942  25.854  1.00  0.00     0.338 C 
ATOM     27  O   UNL A   1      39.619  19.957  25.915  1.00  0.00    -0.246 OA
BRANCH  26  28
ATOM     28  C   UNL A   1      39.300  22.182  26.529  1.00  0.00     0.060 A 
ATOM     29  C   UNL A   1      38.696  23.387  26.168  1.00  0.00     0.016 A 
ATOM     30  C   UNL A   1      40.457  22.171  27.312  1.00  0.00     0.016 A 
ATOM     31  C   UNL A   1      39.316  24.590  26.512  1.00  0.00     0.010 A 
ATOM     32  C   UNL A   1      41.036  23.377  27.709  1.00  0.00     0.010 A 
ATOM     33  C   UNL A   1      40.502  24.596  27.266  1.00  0.00    -0.014 A 
BRANCH  33  34
ATOM     34  C   UNL A   1      41.193  25.876  27.575  1.00  0.00     0.031 A 
ATOM     35  C   UNL A   1      40.511  26.950  28.384  1.00  0.00     0.074 A 
ATOM     36  C   UNL A   1      42.442  26.079  27.117  1.00  0.00     0.049 A 
ATOM     37  N   UNL A   1      40.963  28.126  28.735  1.00  0.00    -0.248 NA
ATOM     38  C   UNL A   1      39.148  26.668  28.864  1.00  0.00     0.031 C 
ATOM     39  C   UNL A   1      43.199  25.133  26.297  1.00  0.00     0.029 A 
ATOM     40  N   UNL A   1      43.291  27.147  27.269  1.00  0.00    -0.354 N 
ATOM     41  C   UNL A   1      39.933  28.741  29.438  1.00  0.00     0.074 A 
ATOM     42  C   UNL A   1      38.830  27.805  29.471  1.00  0.00     0.031 C 
ATOM     43  C   UNL A   1      44.406  25.654  26.032  1.00  0.00     0.029 A 
ATOM     44  C   UNL A   1      44.496  26.983  26.630  1.00  0.00     0.049 A 
ATOM     45  H   UNL A   1      43.058  27.952  27.785  1.00  0.00     0.167 HD
ATOM     46  C   UNL A   1      39.912  29.964  30.019  1.00  0.00     0.034 A 
ATOM     47  C   UNL A   1      45.556  27.810  26.528  1.00  0.00     0.034 A 
ATOM     48  C   UNL A   1      41.019  30.883  30.028  1.00  0.00     0.049 A 
ATOM     49  C   UNL A   1      45.517  29.147  27.207  1.00  0.00     0.074 A 
ATOM     50  C   UNL A   1      41.099  32.127  30.630  1.00  0.00     0.029 A 
ATOM     51  N   UNL A   1      42.239  30.660  29.411  1.00  0.00    -0.354 N 
ATOM     52  N   UNL A   1      44.570  29.662  27.954  1.00  0.00    -0.248 NA
ATOM     53  C   UNL A   1      46.695  30.011  27.045  1.00  0.00     0.031 C 
ATOM     54  C   UNL A   1      42.372  32.653  30.384  1.00  0.00     0.029 A 
ATOM     55  C   UNL A   1      43.080  31.740  29.620  1.00  0.00     0.049 A 
ATOM     56  H   UNL A   1      42.473  29.852  28.899  1.00  0.00     0.167 HD
ATOM     57  C   UNL A   1      45.041  30.906  28.356  1.00  0.00     0.074 A 
ATOM     58  C   UNL A   1      46.369  31.054  27.797  1.00  0.00     0.031 C 
ATOM     59  C   UNL A   1      44.415  31.854  29.097  1.00  0.00     0.034 A 
BRANCH  46  60
ATOM     60  C   UNL A   1      38.666  30.366  30.758  1.00  0.00     0.023 A 
ATOM     61  C   UNL A   1      38.559  30.061  32.130  1.00  0.00     0.012 A 
ATOM     62  C   UNL A   1      37.648  31.106  30.130  1.00  0.00     0.148 A 
ATOM     63  C   UNL A   1      37.451  30.481  32.863  1.00  0.00     0.002 A 
ATOM     64  C   UNL A   1      36.556  31.542  30.876  1.00  0.00     0.091 A 
ATOM     65  F   UNL A   1      37.749  31.357  28.818  1.00  0.00    -0.205 F 
ATOM     66  C   UNL A   1      36.456  31.230  32.240  1.00  0.00     0.022 A 
BRANCH  64  67
ATOM     67  S   UNL A   1      35.268  32.558  30.142  1.00  0.00     0.127 S 
ATOM     68  O   UNL A   1      36.023  33.734  29.718  1.00  0.00    -0.237 OA
ATOM     69  O   UNL A   1      34.782  31.718  29.046  1.00  0.00    -0.237 OA
ATOM     70  O   UNL A   1      34.298  32.767  31.209  1.00  0.00    -0.744 OA
ENDBRANCH  64  67
ENDBRANCH  46  60
BRANCH  47  71
ATOM     71  C   UNL A   1      46.766  27.345  25.798  1.00  0.00     0.023 A 
ATOM     72  C   UNL A   1      46.913  27.664  24.436  1.00  0.00     0.012 A 
ATOM     73  C   UNL A   1      47.811  26.679  26.465  1.00  0.00     0.148 A 
ATOM     74  C   UNL A   1      48.080  27.326  23.750  1.00  0.00     0.002 A 
ATOM     75  C   UNL A   1      48.993  26.397  25.791  1.00  0.00     0.091 A 
ATOM     76  F   UNL A   1      47.649  26.358  27.757  1.00  0.00    -0.205 F 
ATOM     77  C   UNL A   1      49.128  26.709  24.430  1.00  0.00     0.022 A 
BRANCH  75  78
ATOM     78  S   UNL A   1      50.414  25.760  26.685  1.00  0.00     0.127 S 
ATOM     79  O   UNL A   1      51.398  25.593  25.620  1.00  0.00    -0.237 OA
ATOM     80  O   UNL A   1      50.711  26.835  27.632  1.00  0.00    -0.237 OA
ATOM     81  O   UNL A   1      49.919  24.540  27.313  1.00  0.00    -0.744 OA
ENDBRANCH  75  78
ENDBRANCH  47  71
BRANCH  59  82
ATOM     82  C   UNL A   1      45.152  33.142  29.330  1.00  0.00     0.023 A 
ATOM     83  C   UNL A   1      45.962  33.266  30.477  1.00  0.00     0.012 A 
ATOM     84  C   UNL A   1      45.095  34.200  28.406  1.00  0.00     0.148 A 
ATOM     85  C   UNL A   1      46.689  34.433  30.707  1.00  0.00     0.002 A 
ATOM     86  C   UNL A   1      45.844  35.351  28.630  1.00  0.00     0.091 A 
ATOM     87  F   UNL A   1      44.303  34.078  27.329  1.00  0.00    -0.205 F 
ATOM     88  C   UNL A   1      46.638  35.472  29.780  1.00  0.00     0.022 A 
BRANCH  86  89
ATOM     89  S   UNL A   1      45.844  36.683  27.425  1.00  0.00     0.127 S 
ATOM     90  O   UNL A   1      44.441  37.086  27.412  1.00  0.00    -0.237 OA
ATOM     91  O   UNL A   1      46.751  37.667  28.018  1.00  0.00    -0.237 OA
ATOM     92  O   UNL A   1      46.352  36.068  26.204  1.00  0.00    -0.744 OA
ENDBRANCH  86  89
ENDBRANCH  59  82
ENDBRANCH  33  34
ENDBRANCH  26  28
ENDBRANCH  25  26
ENDBRANCH  24  25
ENDBRANCH   1  24
TORSDOF 19
ENDMDL
MODEL 3
REMARK VINA RESULT:     -11.4      1.437      7.697
REMARK SMILES Nn1c(Cc2ccc(F)c(F)c2)nnc1SCC(=O)OCCOC(=O)c1ccc(-c2c3nc(c(-c4cccc(S(=O)(=O)[O-])c4F)c4ccc([nH]4)c(-c4cccc(S(=O)(=O)[O-])c4F)c4nc(c(-c5cccc(S(=O)(=O)[O-])c5F)c5ccc2[nH]5)C=C4)C=C3)cc1
REMARK SMILES IDX 21 1 20 2 18 3 19 4 17 5 16 6 15 7 2 8 3 9 13 10 14 11 1 12
REMARK SMILES IDX 4 15 5 16 6 17 12 18 7 19 10 20 8 21 11 22 9 23 22 24 23 25
REMARK SMILES IDX 24 26 25 27 26 28 27 29 88 30 28 31 87 32 29 33 30 34 31 35
REMARK SMILES IDX 81 36 32 37 86 38 80 39 82 40 33 41 85 42 79 43 78 44 34 46
REMARK SMILES IDX 66 47 46 48 65 49 47 50 50 51 64 52 83 53 48 54 49 55 63 57
REMARK SMILES IDX 84 58 51 59 35 60 36 61 44 62 37 63 39 64 45 65 38 66 40 67
REMARK SMILES IDX 41 68 42 69 43 70 67 71 68 72 76 73 69 74 71 75 77 76 70 77
REMARK SMILES IDX 72 78 73 79 74 80 75 81 52 82 53 83 61 84 54 85 56 86 62 87
REMARK SMILES IDX 55 88 57 89 58 90 59 91 60 92
REMARK H PARENT 1 13 1 14 82 45 50 56
REMARK Flexibility Score: inf
ROOT
ATOM      1  C   UNL A   1      35.848  21.093  25.241  1.00  0.00     0.274 C 
ENDROOT
BRANCH   1   2
ATOM      2  O   UNL A   1      34.590  20.417  25.046  1.00  0.00    -0.461 OA
BRANCH   2   3
ATOM      3  C   UNL A   1      33.480  21.141  25.327  1.00  0.00     0.316 C 
ATOM      4  O   UNL A   1      33.455  22.071  26.132  1.00  0.00    -0.251 OA
BRANCH   3   5
ATOM      5  C   UNL A   1      32.238  20.757  24.562  1.00  0.00     0.200 C 
BRANCH   5   6
ATOM      6  S   UNL A   1      32.202  21.094  22.796  1.00  0.00    -0.073 SA
BRANCH   6   7
ATOM      7  C   UNL A   1      32.617  22.767  22.634  1.00  0.00     0.210 A 
ATOM      8  N   UNL A   1      31.784  23.847  22.816  1.00  0.00    -0.221 N 
ATOM      9  C   UNL A   1      32.548  24.958  22.526  1.00  0.00     0.157 A 
ATOM     10  N   UNL A   1      33.729  24.556  22.093  1.00  0.00    -0.132 NA
ATOM     11  N   UNL A   1      33.772  23.184  22.164  1.00  0.00    -0.121 NA
BRANCH   8  12
ATOM     12  N   UNL A   1      30.386  23.841  23.136  1.00  0.00    -0.336 N 
ATOM     13  H   UNL A   1      30.094  23.685  24.063  1.00  0.00     0.178 HD
ATOM     14  H   UNL A   1      29.719  23.993  22.428  1.00  0.00     0.178 HD
ENDBRANCH   8  12
BRANCH   9  15
ATOM     15  C   UNL A   1      32.065  26.364  22.667  1.00  0.00     0.115 C 
BRANCH  15  16
ATOM     16  C   UNL A   1      32.394  26.984  24.009  1.00  0.00    -0.037 A 
ATOM     17  C   UNL A   1      33.096  26.249  24.979  1.00  0.00     0.007 A 
ATOM     18  C   UNL A   1      31.950  28.276  24.327  1.00  0.00     0.046 A 
ATOM     19  C   UNL A   1      33.339  26.794  26.243  1.00  0.00     0.043 A 
ATOM     20  C   UNL A   1      32.189  28.808  25.589  1.00  0.00     0.159 A 
ATOM     21  C   UNL A   1      32.877  28.071  26.542  1.00  0.00     0.158 A 
ATOM     22  F   UNL A   1      31.736  30.036  25.882  1.00  0.00    -0.204 F 
ATOM     23  F   UNL A   1      33.092  28.579  27.765  1.00  0.00    -0.204 F 
ENDBRANCH  15  16
ENDBRANCH   9  15
ENDBRANCH   6   7
ENDBRANCH   5   6
ENDBRANCH   3   5
ENDBRANCH   2   3
ENDBRANCH   1   2
BRANCH   1  24
ATOM     24  C   UNL A   1      37.036  20.158  25.030  1.00  0.00     0.275 C 
BRANCH  24  25
ATOM     25  O   UNL A   1      38.253  20.901  24.831  1.00  0.00    -0.458 OA
BRANCH  25  26
ATOM     26  C   UNL A   1      39.169  20.730  25.806  1.00  0.00     0.338 C 
ATOM     27  O   UNL A   1      39.737  19.696  26.116  1.00  0.00    -0.246 OA
BRANCH  26  28
ATOM     28  C   UNL A   1      39.490  21.981  26.502  1.00  0.00     0.060 A 
ATOM     29  C   UNL A   1      38.854  23.163  26.122  1.00  0.00     0.016 A 
ATOM     30  C   UNL A   1      40.615  22.010  27.330  1.00  0.00     0.016 A 
ATOM     31  C   UNL A   1      39.411  24.387  26.496  1.00  0.00     0.010 A 
ATOM     32  C   UNL A   1      41.130  23.236  27.755  1.00  0.00     0.010 A 
ATOM     33  C   UNL A   1      40.566  24.436  27.296  1.00  0.00    -0.014 A 
BRANCH  33  34
ATOM     34  C   UNL A   1      41.193  25.740  27.638  1.00  0.00     0.031 A 
ATOM     35  C   UNL A   1      42.600  26.063  27.204  1.00  0.00     0.074 A 
ATOM     36  C   UNL A   1      40.493  26.641  28.353  1.00  0.00     0.049 A 
ATOM     37  N   UNL A   1      43.301  27.144  27.426  1.00  0.00    -0.248 NA
ATOM     38  C   UNL A   1      43.313  25.041  26.419  1.00  0.00     0.031 C 
ATOM     39  C   UNL A   1      39.136  26.438  28.858  1.00  0.00     0.029 A 
ATOM     40  N   UNL A   1      40.827  27.900  28.782  1.00  0.00    -0.354 N 
ATOM     41  C   UNL A   1      44.546  26.923  26.848  1.00  0.00     0.074 A 
ATOM     42  C   UNL A   1      44.505  25.602  26.257  1.00  0.00     0.031 C 
ATOM     43  C   UNL A   1      38.745  27.541  29.515  1.00  0.00     0.029 A 
ATOM     44  C   UNL A   1      39.835  28.513  29.509  1.00  0.00     0.049 A 
ATOM     45  H   UNL A   1      41.694  28.324  28.587  1.00  0.00     0.167 HD
ATOM     46  C   UNL A   1      45.617  27.749  26.795  1.00  0.00     0.034 A 
ATOM     47  C   UNL A   1      39.803  29.718  30.111  1.00  0.00     0.034 A 
ATOM     48  C   UNL A   1      45.651  29.079  27.341  1.00  0.00     0.049 A 
ATOM     49  C   UNL A   1      40.995  30.625  30.012  1.00  0.00     0.074 A 
ATOM     50  C   UNL A   1      46.683  30.001  27.297  1.00  0.00     0.029 A 
ATOM     51  N   UNL A   1      44.609  29.680  28.029  1.00  0.00    -0.354 N 
ATOM     52  N   UNL A   1      42.122  30.433  29.369  1.00  0.00    -0.248 NA
ATOM     53  C   UNL A   1      40.906  31.918  30.704  1.00  0.00     0.031 C 
ATOM     54  C   UNL A   1      46.260  31.165  27.950  1.00  0.00     0.029 A 
ATOM     55  C   UNL A   1      44.970  30.961  28.410  1.00  0.00     0.049 A 
ATOM     56  H   UNL A   1      43.740  29.258  28.217  1.00  0.00     0.167 HD
ATOM     57  C   UNL A   1      42.874  31.583  29.574  1.00  0.00     0.074 A 
ATOM     58  C   UNL A   1      42.062  32.479  30.372  1.00  0.00     0.031 C 
ATOM     59  C   UNL A   1      44.136  31.859  29.164  1.00  0.00     0.034 A 
BRANCH  46  60
ATOM     60  C   UNL A   1      46.838  27.264  26.064  1.00  0.00     0.023 A 
ATOM     61  C   UNL A   1      46.941  27.503  24.679  1.00  0.00     0.012 A 
ATOM     62  C   UNL A   1      47.907  26.654  26.744  1.00  0.00     0.148 A 
ATOM     63  C   UNL A   1      48.090  27.132  23.981  1.00  0.00     0.002 A 
ATOM     64  C   UNL A   1      49.060  26.309  26.044  1.00  0.00     0.091 A 
ATOM     65  F   UNL A   1      47.778  26.403  28.054  1.00  0.00    -0.205 F 
ATOM     66  C   UNL A   1      49.152  26.546  24.664  1.00  0.00     0.022 A 
BRANCH  64  67
ATOM     67  S   UNL A   1      50.484  25.600  26.879  1.00  0.00     0.127 S 
ATOM     68  O   UNL A   1      50.841  26.665  27.814  1.00  0.00    -0.237 OA
ATOM     69  O   UNL A   1      49.926  24.401  27.506  1.00  0.00    -0.237 OA
ATOM     70  O   UNL A   1      51.446  25.327  25.819  1.00  0.00    -0.744 OA
ENDBRANCH  64  67
ENDBRANCH  46  60
BRANCH  47  71
ATOM     71  C   UNL A   1      38.558  30.146  30.804  1.00  0.00     0.023 A 
ATOM     72  C   UNL A   1      38.436  29.939  32.190  1.00  0.00     0.012 A 
ATOM     73  C   UNL A   1      37.543  30.840  30.121  1.00  0.00     0.148 A 
ATOM     74  C   UNL A   1      37.323  30.417  32.884  1.00  0.00     0.002 A 
ATOM     75  C   UNL A   1      36.465  31.363  30.827  1.00  0.00     0.091 A 
ATOM     76  F   UNL A   1      37.658  31.008  28.795  1.00  0.00    -0.205 F 
ATOM     77  C   UNL A   1      36.347  31.144  32.206  1.00  0.00     0.022 A 
BRANCH  75  78
ATOM     78  S   UNL A   1      35.288  32.444  30.010  1.00  0.00     0.127 S 
ATOM     79  O   UNL A   1      34.356  32.754  31.088  1.00  0.00    -0.237 OA
ATOM     80  O   UNL A   1      36.121  33.566  29.576  1.00  0.00    -0.237 OA
ATOM     81  O   UNL A   1      34.769  31.636  28.911  1.00  0.00    -0.744 OA
ENDBRANCH  75  78
ENDBRANCH  47  71
BRANCH  59  82
ATOM     82  C   UNL A   1      44.725  33.175  29.585  1.00  0.00     0.023 A 
ATOM     83  C   UNL A   1      45.480  33.235  30.773  1.00  0.00     0.012 A 
ATOM     84  C   UNL A   1      44.586  34.330  28.795  1.00  0.00     0.148 A 
ATOM     85  C   UNL A   1      46.073  34.431  31.177  1.00  0.00     0.002 A 
ATOM     86  C   UNL A   1      45.202  35.513  29.191  1.00  0.00     0.091 A 
ATOM     87  F   UNL A   1      43.846  34.265  27.678  1.00  0.00    -0.205 F 
ATOM     88  C   UNL A   1      45.942  35.568  30.382  1.00  0.00     0.022 A 
BRANCH  86  89
ATOM     89  S   UNL A   1      45.100  36.979  28.159  1.00  0.00     0.127 S 
ATOM     90  O   UNL A   1      45.840  36.568  26.968  1.00  0.00    -0.237 OA
ATOM     91  O   UNL A   1      43.660  37.140  27.951  1.00  0.00    -0.237 OA
ATOM     92  O   UNL A   1      45.705  38.033  28.964  1.00  0.00    -0.744 OA
ENDBRANCH  86  89
ENDBRANCH  59  82
ENDBRANCH  33  34
ENDBRANCH  26  28
ENDBRANCH  25  26
ENDBRANCH  24  25
ENDBRANCH   1  24
TORSDOF 19
ENDMDL
