MODEL 1
REMARK VINA RESULT:     -12.0      0.000      0.000
REMARK SMILES C[C@H](Sc1ccccn1)C(=O)N[C@H](C(=O)OCCOC(=O)c1ccc(-c2c3nc(c(-c4cccc(S(=O)(=O)[O-])c4F)c4ccc([nH]4)c(-c4cccc(S(=O)(=O)[O-])c4F)c4nc(c(-c5cccc(S(=O)(=O)[O-])c5F)c5ccc2[nH]5)C=C4)C=C3)cc1)c1ccc(F)cc1
REMARK SMILES IDX 17 1 16 2 14 3 15 4 13 5 12 6 10 7 11 8 2 10 1 11 3 12 4 13
REMARK SMILES IDX 5 14 9 15 6 16 8 17 7 18 85 19 86 20 91 21 87 22 90 23 88 24
REMARK SMILES IDX 89 25 18 26 19 27 20 28 21 29 22 30 23 31 84 32 24 33 83 34
REMARK SMILES IDX 25 35 26 36 27 37 77 38 28 39 82 40 76 41 78 42 29 43 81 44
REMARK SMILES IDX 75 45 74 46 30 48 62 49 42 50 61 51 43 52 46 53 60 54 79 55
REMARK SMILES IDX 44 56 45 57 59 59 80 60 47 61 31 62 32 63 40 64 33 65 35 66
REMARK SMILES IDX 41 67 34 68 36 69 37 70 38 71 39 72 63 73 64 74 72 75 65 76
REMARK SMILES IDX 67 77 73 78 66 79 68 80 69 81 70 82 71 83 48 84 49 85 57 86
REMARK SMILES IDX 50 87 52 88 58 89 51 90 53 91 54 92 55 93 56 94
REMARK H PARENT 12 9 78 47 46 58
REMARK Flexibility Score: inf
ROOT
ATOM      1  C   UNL A   1      31.786  28.870  25.848  1.00  0.00     0.274 C 
ENDROOT
BRANCH   1   2
ATOM      2  O   UNL A   1      32.637  27.890  26.488  1.00  0.00    -0.460 OA
BRANCH   2   3
ATOM      3  C   UNL A   1      33.389  27.146  25.623  1.00  0.00     0.333 C 
ATOM      4  O   UNL A   1      33.999  27.639  24.684  1.00  0.00    -0.249 OA
BRANCH   3   5
ATOM      5  C   UNL A   1      33.310  25.630  25.885  1.00  0.00     0.223 C 
BRANCH   5   6
ATOM      6  N   UNL A   1      31.876  25.241  25.980  1.00  0.00    -0.338 N 
ATOM      7  C   UNL A   1      30.712  25.561  25.364  1.00  0.00     0.234 C 
ATOM      8  O   UNL A   1      29.773  25.666  26.179  1.00  0.00    -0.274 OA
ATOM      9  H   UNL A   1      31.734  24.568  26.685  1.00  0.00     0.164 HD
BRANCH   7  10
ATOM     10  C   UNL A   1      30.332  25.595  23.883  1.00  0.00     0.139 C 
ATOM     11  C   UNL A   1      30.583  24.245  23.197  1.00  0.00     0.030 C 
BRANCH  10  12
ATOM     12  S   UNL A   1      30.922  26.941  22.852  1.00  0.00    -0.093 SA
BRANCH  12  13
ATOM     13  C   UNL A   1      29.552  28.050  22.647  1.00  0.00     0.097 A 
ATOM     14  C   UNL A   1      28.282  27.891  23.185  1.00  0.00     0.035 A 
ATOM     15  N   UNL A   1      29.904  29.178  21.987  1.00  0.00    -0.250 NA
ATOM     16  C   UNL A   1      27.400  28.975  23.155  1.00  0.00     0.004 A 
ATOM     17  C   UNL A   1      29.035  30.207  21.959  1.00  0.00     0.112 A 
ATOM     18  C   UNL A   1      27.791  30.165  22.554  1.00  0.00     0.020 A 
ENDBRANCH  12  13
ENDBRANCH  10  12
ENDBRANCH   7  10
ENDBRANCH   5   6
BRANCH   5  19
ATOM     19  C   UNL A   1      34.306  24.764  25.142  1.00  0.00    -0.014 A 
ATOM     20  C   UNL A   1      35.536  24.382  25.678  1.00  0.00     0.009 A 
ATOM     21  C   UNL A   1      34.025  24.347  23.822  1.00  0.00     0.009 A 
ATOM     22  C   UNL A   1      36.393  23.507  25.003  1.00  0.00     0.039 A 
ATOM     23  C   UNL A   1      34.891  23.498  23.126  1.00  0.00     0.039 A 
ATOM     24  C   UNL A   1      36.057  23.062  23.735  1.00  0.00     0.123 A 
ATOM     25  F   UNL A   1      36.870  22.220  23.088  1.00  0.00    -0.207 F 
ENDBRANCH   5  19
ENDBRANCH   3   5
ENDBRANCH   2   3
ENDBRANCH   1   2
BRANCH   1  26
ATOM     26  C   UNL A   1      32.390  30.270  25.905  1.00  0.00     0.275 C 
BRANCH  26  27
ATOM     27  O   UNL A   1      32.495  30.720  27.266  1.00  0.00    -0.458 OA
BRANCH  27  28
ATOM     28  C   UNL A   1      33.345  31.755  27.472  1.00  0.00     0.338 C 
ATOM     29  O   UNL A   1      33.062  32.943  27.480  1.00  0.00    -0.246 OA
BRANCH  28  30
ATOM     30  C   UNL A   1      34.701  31.261  27.761  1.00  0.00     0.060 A 
ATOM     31  C   UNL A   1      34.887  29.897  27.949  1.00  0.00     0.016 A 
ATOM     32  C   UNL A   1      35.741  32.149  28.030  1.00  0.00     0.016 A 
ATOM     33  C   UNL A   1      36.068  29.418  28.506  1.00  0.00     0.010 A 
ATOM     34  C   UNL A   1      36.961  31.656  28.515  1.00  0.00     0.010 A 
ATOM     35  C   UNL A   1      37.114  30.289  28.808  1.00  0.00    -0.014 A 
BRANCH  35  36
ATOM     36  C   UNL A   1      38.282  29.769  29.565  1.00  0.00     0.031 A 
ATOM     37  C   UNL A   1      38.461  30.182  31.000  1.00  0.00     0.074 A 
ATOM     38  C   UNL A   1      39.125  28.870  29.021  1.00  0.00     0.049 A 
ATOM     39  N   UNL A   1      39.436  29.908  31.828  1.00  0.00    -0.248 NA
ATOM     40  C   UNL A   1      37.394  31.012  31.585  1.00  0.00     0.031 C 
ATOM     41  C   UNL A   1      39.017  28.308  27.675  1.00  0.00     0.029 A 
ATOM     42  N   UNL A   1      40.243  28.266  29.546  1.00  0.00    -0.354 N 
ATOM     43  C   UNL A   1      39.128  30.573  33.008  1.00  0.00     0.074 A 
ATOM     44  C   UNL A   1      37.875  31.263  32.793  1.00  0.00     0.031 C 
ATOM     45  C   UNL A   1      40.030  27.447  27.477  1.00  0.00     0.029 A 
ATOM     46  C   UNL A   1      40.885  27.431  28.661  1.00  0.00     0.049 A 
ATOM     47  H   UNL A   1      40.555  28.418  30.467  1.00  0.00     0.167 HD
ATOM     48  C   UNL A   1      39.816  30.598  34.174  1.00  0.00     0.034 A 
ATOM     49  C   UNL A   1      42.042  26.750  28.785  1.00  0.00     0.034 A 
ATOM     50  C   UNL A   1      41.031  29.871  34.414  1.00  0.00     0.049 A 
ATOM     51  C   UNL A   1      42.810  26.829  30.081  1.00  0.00     0.074 A 
ATOM     52  C   UNL A   1      41.808  29.848  35.559  1.00  0.00     0.029 A 
ATOM     53  N   UNL A   1      41.644  29.029  33.498  1.00  0.00    -0.354 N 
ATOM     54  N   UNL A   1      42.495  27.440  31.197  1.00  0.00    -0.248 NA
ATOM     55  C   UNL A   1      44.086  26.099  30.141  1.00  0.00     0.031 C 
ATOM     56  C   UNL A   1      42.900  29.003  35.330  1.00  0.00     0.029 A 
ATOM     57  C   UNL A   1      42.789  28.481  34.051  1.00  0.00     0.049 A 
ATOM     58  H   UNL A   1      41.313  28.848  32.589  1.00  0.00     0.167 HD
ATOM     59  C   UNL A   1      43.509  27.140  32.099  1.00  0.00     0.074 A 
ATOM     60  C   UNL A   1      44.440  26.272  31.407  1.00  0.00     0.031 C 
ATOM     61  C   UNL A   1      43.669  27.561  33.378  1.00  0.00     0.034 A 
BRANCH  48  62
ATOM     62  C   UNL A   1      39.260  31.449  35.282  1.00  0.00     0.023 A 
ATOM     63  C   UNL A   1      38.321  30.908  36.183  1.00  0.00     0.012 A 
ATOM     64  C   UNL A   1      39.686  32.782  35.442  1.00  0.00     0.148 A 
ATOM     65  C   UNL A   1      37.790  31.691  37.206  1.00  0.00     0.002 A 
ATOM     66  C   UNL A   1      39.183  33.544  36.489  1.00  0.00     0.091 A 
ATOM     67  F   UNL A   1      40.559  33.285  34.557  1.00  0.00    -0.205 F 
ATOM     68  C   UNL A   1      38.228  33.004  37.365  1.00  0.00     0.022 A 
BRANCH  66  69
ATOM     69  S   UNL A   1      39.738  35.221  36.813  1.00  0.00     0.127 S 
ATOM     70  O   UNL A   1      41.186  35.039  36.909  1.00  0.00    -0.237 OA
ATOM     71  O   UNL A   1      39.291  35.932  35.616  1.00  0.00    -0.237 OA
ATOM     72  O   UNL A   1      39.077  35.632  38.045  1.00  0.00    -0.744 OA
ENDBRANCH  66  69
ENDBRANCH  48  62
BRANCH  49  73
ATOM     73  C   UNL A   1      42.547  25.914  27.657  1.00  0.00     0.023 A 
ATOM     74  C   UNL A   1      43.464  26.464  26.740  1.00  0.00     0.012 A 
ATOM     75  C   UNL A   1      42.112  24.586  27.476  1.00  0.00     0.148 A 
ATOM     76  C   UNL A   1      43.909  25.722  25.645  1.00  0.00     0.002 A 
ATOM     77  C   UNL A   1      42.602  23.833  26.417  1.00  0.00     0.091 A 
ATOM     78  F   UNL A   1      41.219  24.086  28.343  1.00  0.00    -0.205 F 
ATOM     79  C   UNL A   1      43.486  24.405  25.488  1.00  0.00     0.022 A 
BRANCH  77  80
ATOM     80  S   UNL A   1      42.199  22.097  26.201  1.00  0.00     0.127 S 
ATOM     81  O   UNL A   1      43.012  21.741  25.040  1.00  0.00    -0.237 OA
ATOM     82  O   UNL A   1      42.653  21.520  27.467  1.00  0.00    -0.237 OA
ATOM     83  O   UNL A   1      40.757  22.048  26.003  1.00  0.00    -0.744 OA
ENDBRANCH  77  80
ENDBRANCH  49  73
BRANCH  61  84
ATOM     84  C   UNL A   1      44.865  27.054  34.142  1.00  0.00     0.023 A 
ATOM     85  C   UNL A   1      46.060  27.802  34.153  1.00  0.00     0.012 A 
ATOM     86  C   UNL A   1      44.783  25.874  34.908  1.00  0.00     0.148 A 
ATOM     87  C   UNL A   1      47.163  27.365  34.886  1.00  0.00     0.002 A 
ATOM     88  C   UNL A   1      45.871  25.471  35.676  1.00  0.00     0.091 A 
ATOM     89  F   UNL A   1      43.647  25.162  34.871  1.00  0.00    -0.205 F 
ATOM     90  C   UNL A   1      47.066  26.208  35.656  1.00  0.00     0.022 A 
BRANCH  88  91
ATOM     91  S   UNL A   1      45.793  24.048  36.770  1.00  0.00     0.127 S 
ATOM     92  O   UNL A   1      45.354  22.992  35.858  1.00  0.00    -0.237 OA
ATOM     93  O   UNL A   1      47.180  23.923  37.223  1.00  0.00    -0.237 OA
ATOM     94  O   UNL A   1      44.850  24.407  37.820  1.00  0.00    -0.744 OA
ENDBRANCH  88  91
ENDBRANCH  61  84
ENDBRANCH  35  36
ENDBRANCH  28  30
ENDBRANCH  27  28
ENDBRANCH  26  27
ENDBRANCH   1  26
TORSDOF 19
ENDMDL
MODEL 2
REMARK VINA RESULT:     -11.9      5.185      7.478
REMARK SMILES C[C@H](Sc1ccccn1)C(=O)N[C@H](C(=O)OCCOC(=O)c1ccc(-c2c3nc(c(-c4cccc(S(=O)(=O)[O-])c4F)c4ccc([nH]4)c(-c4cccc(S(=O)(=O)[O-])c4F)c4nc(c(-c5cccc(S(=O)(=O)[O-])c5F)c5ccc2[nH]5)C=C4)C=C3)cc1)c1ccc(F)cc1
REMARK SMILES IDX 17 1 16 2 14 3 15 4 13 5 12 6 10 7 11 8 2 10 1 11 3 12 4 13
REMARK SMILES IDX 5 14 9 15 6 16 8 17 7 18 85 19 86 20 91 21 87 22 90 23 88 24
REMARK SMILES IDX 89 25 18 26 19 27 20 28 21 29 22 30 23 31 84 32 24 33 83 34
REMARK SMILES IDX 25 35 26 36 27 37 77 38 28 39 82 40 76 41 78 42 29 43 81 44
REMARK SMILES IDX 75 45 74 46 30 48 62 49 42 50 61 51 43 52 46 53 60 54 79 55
REMARK SMILES IDX 44 56 45 57 59 59 80 60 47 61 31 62 32 63 40 64 33 65 35 66
REMARK SMILES IDX 41 67 34 68 36 69 37 70 38 71 39 72 63 73 64 74 72 75 65 76
REMARK SMILES IDX 67 77 73 78 66 79 68 80 69 81 70 82 71 83 48 84 49 85 57 86
REMARK SMILES IDX 50 87 52 88 58 89 51 90 53 91 54 92 55 93 56 94
REMARK H PARENT 12 9 78 47 46 58
REMARK Flexibility Score: inf
ROOT
ATOM      1  C   UNL A   1      35.433  21.343  25.120  1.00  0.00     0.274 C 
ENDROOT
BRANCH   1   2
ATOM      2  O   UNL A   1      35.685  22.764  25.005  1.00  0.00    -0.460 OA
BRANCH   2   3
ATOM      3  C   UNL A   1      35.187  23.334  23.869  1.00  0.00     0.333 C 
ATOM      4  O   UNL A   1      35.558  23.012  22.748  1.00  0.00    -0.249 OA
BRANCH   3   5
ATOM      5  C   UNL A   1      34.195  24.483  24.139  1.00  0.00     0.223 C 
BRANCH   5   6
ATOM      6  N   UNL A   1      34.144  25.356  22.935  1.00  0.00    -0.338 N 
ATOM      7  C   UNL A   1      33.223  26.109  22.287  1.00  0.00     0.234 C 
ATOM      8  O   UNL A   1      33.319  25.991  21.048  1.00  0.00    -0.274 OA
ATOM      9  H   UNL A   1      35.019  25.397  22.486  1.00  0.00     0.164 HD
BRANCH   7  10
ATOM     10  C   UNL A   1      32.274  27.197  22.792  1.00  0.00     0.139 C 
ATOM     11  C   UNL A   1      32.856  27.949  23.997  1.00  0.00     0.030 C 
BRANCH  10  12
ATOM     12  S   UNL A   1      30.547  26.799  23.077  1.00  0.00    -0.093 SA
BRANCH  12  13
ATOM     13  C   UNL A   1      29.637  28.298  22.805  1.00  0.00     0.097 A 
ATOM     14  C   UNL A   1      30.090  29.418  22.123  1.00  0.00     0.035 A 
ATOM     15  N   UNL A   1      28.359  28.205  23.241  1.00  0.00    -0.250 NA
ATOM     16  C   UNL A   1      29.168  30.406  21.766  1.00  0.00     0.004 A 
ATOM     17  C   UNL A   1      27.488  29.173  22.898  1.00  0.00     0.112 A 
ATOM     18  C   UNL A   1      27.836  30.271  22.138  1.00  0.00     0.020 A 
ENDBRANCH  12  13
ENDBRANCH  10  12
ENDBRANCH   7  10
ENDBRANCH   5   6
BRANCH   5  19
ATOM     19  C   UNL A   1      32.934  24.121  24.896  1.00  0.00    -0.014 A 
ATOM     20  C   UNL A   1      32.082  23.085  24.511  1.00  0.00     0.009 A 
ATOM     21  C   UNL A   1      32.550  24.881  26.023  1.00  0.00     0.009 A 
ATOM     22  C   UNL A   1      30.976  22.716  25.282  1.00  0.00     0.039 A 
ATOM     23  C   UNL A   1      31.426  24.540  26.783  1.00  0.00     0.039 A 
ATOM     24  C   UNL A   1      30.663  23.442  26.420  1.00  0.00     0.123 A 
ATOM     25  F   UNL A   1      29.610  23.089  27.166  1.00  0.00    -0.207 F 
ENDBRANCH   5  19
ENDBRANCH   3   5
ENDBRANCH   2   3
ENDBRANCH   1   2
BRANCH   1  26
ATOM     26  C   UNL A   1      36.717  20.527  24.989  1.00  0.00     0.275 C 
BRANCH  26  27
ATOM     27  O   UNL A   1      37.862  21.393  24.928  1.00  0.00    -0.458 OA
BRANCH  27  28
ATOM     28  C   UNL A   1      38.889  21.057  25.745  1.00  0.00     0.338 C 
ATOM     29  O   UNL A   1      39.401  19.955  25.860  1.00  0.00    -0.246 OA
BRANCH  28  30
ATOM     30  C   UNL A   1      39.381  22.240  26.469  1.00  0.00     0.060 A 
ATOM     31  C   UNL A   1      38.796  23.473  26.208  1.00  0.00     0.016 A 
ATOM     32  C   UNL A   1      40.531  22.168  27.255  1.00  0.00     0.016 A 
ATOM     33  C   UNL A   1      39.407  24.647  26.634  1.00  0.00     0.010 A 
ATOM     34  C   UNL A   1      41.102  23.349  27.753  1.00  0.00     0.010 A 
ATOM     35  C   UNL A   1      40.572  24.603  27.400  1.00  0.00    -0.014 A 
BRANCH  35  36
ATOM     36  C   UNL A   1      41.292  25.871  27.681  1.00  0.00     0.031 A 
ATOM     37  C   UNL A   1      40.605  26.935  28.492  1.00  0.00     0.074 A 
ATOM     38  C   UNL A   1      42.574  26.047  27.303  1.00  0.00     0.049 A 
ATOM     39  N   UNL A   1      41.013  28.139  28.799  1.00  0.00    -0.248 NA
ATOM     40  C   UNL A   1      39.280  26.596  29.035  1.00  0.00     0.031 C 
ATOM     41  C   UNL A   1      43.395  25.063  26.596  1.00  0.00     0.029 A 
ATOM     42  N   UNL A   1      43.412  27.123  27.470  1.00  0.00    -0.354 N 
ATOM     43  C   UNL A   1      39.978  28.716  29.523  1.00  0.00     0.074 A 
ATOM     44  C   UNL A   1      38.921  27.733  29.611  1.00  0.00     0.031 C 
ATOM     45  C   UNL A   1      44.616  25.584  26.384  1.00  0.00     0.029 A 
ATOM     46  C   UNL A   1      44.650  26.951  26.896  1.00  0.00     0.049 A 
ATOM     47  H   UNL A   1      43.150  27.940  27.953  1.00  0.00     0.167 HD
ATOM     48  C   UNL A   1      39.913  29.950  30.078  1.00  0.00     0.034 A 
ATOM     49  C   UNL A   1      45.685  27.807  26.777  1.00  0.00     0.034 A 
ATOM     50  C   UNL A   1      40.979  30.912  30.042  1.00  0.00     0.049 A 
ATOM     51  C   UNL A   1      45.571  29.190  27.369  1.00  0.00     0.074 A 
ATOM     52  C   UNL A   1      40.999  32.194  30.563  1.00  0.00     0.029 A 
ATOM     53  N   UNL A   1      42.219  30.697  29.462  1.00  0.00    -0.354 N 
ATOM     54  N   UNL A   1      44.596  29.714  28.072  1.00  0.00    -0.248 NA
ATOM     55  C   UNL A   1      46.715  30.093  27.171  1.00  0.00     0.031 C 
ATOM     56  C   UNL A   1      42.248  32.760  30.284  1.00  0.00     0.029 A 
ATOM     57  C   UNL A   1      43.014  31.821  29.611  1.00  0.00     0.049 A 
ATOM     58  H   UNL A   1      42.495  29.867  29.010  1.00  0.00     0.167 HD
ATOM     59  C   UNL A   1      45.023  30.988  28.430  1.00  0.00     0.074 A 
ATOM     60  C   UNL A   1      46.356  31.150  27.886  1.00  0.00     0.031 C 
ATOM     61  C   UNL A   1      44.364  31.946  29.129  1.00  0.00     0.034 A 
BRANCH  48  62
ATOM     62  C   UNL A   1      38.634  30.324  30.774  1.00  0.00     0.023 A 
ATOM     63  C   UNL A   1      38.403  29.904  32.099  1.00  0.00     0.012 A 
ATOM     64  C   UNL A   1      37.667  31.112  30.118  1.00  0.00     0.148 A 
ATOM     65  C   UNL A   1      37.215  30.235  32.750  1.00  0.00     0.002 A 
ATOM     66  C   UNL A   1      36.504  31.472  30.787  1.00  0.00     0.091 A 
ATOM     67  F   UNL A   1      37.895  31.477  28.848  1.00  0.00    -0.205 F 
ATOM     68  C   UNL A   1      36.272  31.026  32.098  1.00  0.00     0.022 A 
BRANCH  66  69
ATOM     69  S   UNL A   1      35.264  32.544  30.054  1.00  0.00     0.127 S 
ATOM     70  O   UNL A   1      34.779  31.721  28.947  1.00  0.00    -0.237 OA
ATOM     71  O   UNL A   1      34.312  32.711  31.151  1.00  0.00    -0.237 OA
ATOM     72  O   UNL A   1      35.963  33.762  29.668  1.00  0.00    -0.744 OA
ENDBRANCH  66  69
ENDBRANCH  48  62
BRANCH  49  73
ATOM     73  C   UNL A   1      46.936  27.385  26.083  1.00  0.00     0.023 A 
ATOM     74  C   UNL A   1      47.916  26.662  26.793  1.00  0.00     0.012 A 
ATOM     75  C   UNL A   1      47.171  27.710  24.732  1.00  0.00     0.148 A 
ATOM     76  C   UNL A   1      49.119  26.304  26.182  1.00  0.00     0.002 A 
ATOM     77  C   UNL A   1      48.346  27.301  24.114  1.00  0.00     0.091 A 
ATOM     78  F   UNL A   1      46.240  28.421  24.078  1.00  0.00    -0.205 F 
ATOM     79  C   UNL A   1      49.330  26.615  24.843  1.00  0.00     0.022 A 
BRANCH  77  80
ATOM     80  S   UNL A   1      48.654  27.560  22.364  1.00  0.00     0.127 S 
ATOM     81  O   UNL A   1      47.498  28.362  21.970  1.00  0.00    -0.237 OA
ATOM     82  O   UNL A   1      49.926  28.284  22.383  1.00  0.00    -0.237 OA
ATOM     83  O   UNL A   1      48.731  26.230  21.775  1.00  0.00    -0.744 OA
ENDBRANCH  77  80
ENDBRANCH  49  73
BRANCH  61  84
ATOM     84  C   UNL A   1      45.085  33.243  29.396  1.00  0.00     0.023 A 
ATOM     85  C   UNL A   1      45.964  33.345  30.493  1.00  0.00     0.012 A 
ATOM     86  C   UNL A   1      44.947  34.338  28.519  1.00  0.00     0.148 A 
ATOM     87  C   UNL A   1      46.667  34.526  30.731  1.00  0.00     0.002 A 
ATOM     88  C   UNL A   1      45.688  35.494  28.735  1.00  0.00     0.091 A 
ATOM     89  F   UNL A   1      44.091  34.233  27.492  1.00  0.00    -0.205 F 
ATOM     90  C   UNL A   1      46.539  35.595  29.847  1.00  0.00     0.022 A 
BRANCH  88  91
ATOM     91  S   UNL A   1      45.655  36.878  27.589  1.00  0.00     0.127 S 
ATOM     92  O   UNL A   1      46.691  36.498  26.630  1.00  0.00    -0.237 OA
ATOM     93  O   UNL A   1      44.289  36.820  27.065  1.00  0.00    -0.237 OA
ATOM     94  O   UNL A   1      45.939  38.061  28.390  1.00  0.00    -0.744 OA
ENDBRANCH  88  91
ENDBRANCH  61  84
ENDBRANCH  35  36
ENDBRANCH  28  30
ENDBRANCH  27  28
ENDBRANCH  26  27
ENDBRANCH   1  26
TORSDOF 19
ENDMDL
MODEL 3
REMARK VINA RESULT:     -11.5      1.976      8.426
REMARK SMILES C[C@H](Sc1ccccn1)C(=O)N[C@H](C(=O)OCCOC(=O)c1ccc(-c2c3nc(c(-c4cccc(S(=O)(=O)[O-])c4F)c4ccc([nH]4)c(-c4cccc(S(=O)(=O)[O-])c4F)c4nc(c(-c5cccc(S(=O)(=O)[O-])c5F)c5ccc2[nH]5)C=C4)C=C3)cc1)c1ccc(F)cc1
REMARK SMILES IDX 17 1 16 2 14 3 15 4 13 5 12 6 10 7 11 8 2 10 1 11 3 12 4 13
REMARK SMILES IDX 5 14 9 15 6 16 8 17 7 18 85 19 86 20 91 21 87 22 90 23 88 24
REMARK SMILES IDX 89 25 18 26 19 27 20 28 21 29 22 30 23 31 84 32 24 33 83 34
REMARK SMILES IDX 25 35 26 36 27 37 77 38 28 39 82 40 76 41 78 42 29 43 81 44
REMARK SMILES IDX 75 45 74 46 30 48 62 49 42 50 61 51 43 52 46 53 60 54 79 55
REMARK SMILES IDX 44 56 45 57 59 59 80 60 47 61 31 62 32 63 40 64 33 65 35 66
REMARK SMILES IDX 41 67 34 68 36 69 37 70 38 71 39 72 63 73 64 74 72 75 65 76
REMARK SMILES IDX 67 77 73 78 66 79 68 80 69 81 70 82 71 83 48 84 49 85 57 86
REMARK SMILES IDX 50 87 52 88 58 89 51 90 53 91 54 92 55 93 56 94
REMARK H PARENT 12 9 78 47 46 58
REMARK Flexibility Score: inf
ROOT
ATOM      1  C   UNL A   1      31.934  28.212  26.489  1.00  0.00     0.274 C 
ENDROOT
BRANCH   1   2
ATOM      2  O   UNL A   1      30.970  27.313  27.086  1.00  0.00    -0.460 OA
BRANCH   2   3
ATOM      3  C   UNL A   1      30.914  26.079  26.502  1.00  0.00     0.333 C 
ATOM      4  O   UNL A   1      29.897  25.400  26.486  1.00  0.00    -0.249 OA
BRANCH   3   5
ATOM      5  C   UNL A   1      32.272  25.591  25.961  1.00  0.00     0.223 C 
BRANCH   5   6
ATOM      6  N   UNL A   1      32.749  24.473  26.819  1.00  0.00    -0.338 N 
ATOM      7  C   UNL A   1      32.787  23.120  26.764  1.00  0.00     0.234 C 
ATOM      8  O   UNL A   1      32.500  22.605  27.864  1.00  0.00    -0.274 OA
ATOM      9  H   UNL A   1      33.143  24.808  27.657  1.00  0.00     0.164 HD
BRANCH   7  10
ATOM     10  C   UNL A   1      33.315  22.169  25.688  1.00  0.00     0.139 C 
ATOM     11  C   UNL A   1      34.528  22.755  24.952  1.00  0.00     0.030 C 
BRANCH  10  12
ATOM     12  S   UNL A   1      32.166  21.437  24.519  1.00  0.00    -0.093 SA
BRANCH  12  13
ATOM     13  C   UNL A   1      32.883  19.894  24.014  1.00  0.00     0.097 A 
ATOM     14  C   UNL A   1      33.898  19.209  24.668  1.00  0.00     0.035 A 
ATOM     15  N   UNL A   1      32.244  19.360  22.947  1.00  0.00    -0.250 NA
ATOM     16  C   UNL A   1      34.166  17.889  24.296  1.00  0.00     0.004 A 
ATOM     17  C   UNL A   1      32.525  18.090  22.596  1.00  0.00     0.112 A 
ATOM     18  C   UNL A   1      33.449  17.308  23.257  1.00  0.00     0.020 A 
ENDBRANCH  12  13
ENDBRANCH  10  12
ENDBRANCH   7  10
ENDBRANCH   5   6
BRANCH   5  19
ATOM     19  C   UNL A   1      32.417  25.536  24.455  1.00  0.00    -0.014 A 
ATOM     20  C   UNL A   1      31.459  24.967  23.614  1.00  0.00     0.009 A 
ATOM     21  C   UNL A   1      33.590  26.034  23.844  1.00  0.00     0.009 A 
ATOM     22  C   UNL A   1      31.580  25.014  22.222  1.00  0.00     0.039 A 
ATOM     23  C   UNL A   1      33.734  26.057  22.453  1.00  0.00     0.039 A 
ATOM     24  C   UNL A   1      32.713  25.570  21.652  1.00  0.00     0.123 A 
ATOM     25  F   UNL A   1      32.831  25.624  20.320  1.00  0.00    -0.207 F 
ENDBRANCH   5  19
ENDBRANCH   3   5
ENDBRANCH   2   3
ENDBRANCH   1   2
BRANCH   1  26
ATOM     26  C   UNL A   1      31.826  29.622  27.065  1.00  0.00     0.275 C 
BRANCH  26  27
ATOM     27  O   UNL A   1      32.730  30.513  26.390  1.00  0.00    -0.458 OA
BRANCH  27  28
ATOM     28  C   UNL A   1      33.243  31.508  27.153  1.00  0.00     0.338 C 
ATOM     29  O   UNL A   1      32.668  32.521  27.517  1.00  0.00    -0.246 OA
BRANCH  28  30
ATOM     30  C   UNL A   1      34.619  31.186  27.564  1.00  0.00     0.060 A 
ATOM     31  C   UNL A   1      34.959  29.855  27.771  1.00  0.00     0.016 A 
ATOM     32  C   UNL A   1      35.511  32.196  27.923  1.00  0.00     0.016 A 
ATOM     33  C   UNL A   1      36.137  29.524  28.433  1.00  0.00     0.010 A 
ATOM     34  C   UNL A   1      36.735  31.857  28.518  1.00  0.00     0.010 A 
ATOM     35  C   UNL A   1      37.033  30.517  28.826  1.00  0.00    -0.014 A 
BRANCH  35  36
ATOM     36  C   UNL A   1      38.184  30.143  29.686  1.00  0.00     0.031 A 
ATOM     37  C   UNL A   1      39.248  29.238  29.127  1.00  0.00     0.074 A 
ATOM     38  C   UNL A   1      38.338  30.669  30.917  1.00  0.00     0.049 A 
ATOM     39  N   UNL A   1      40.299  28.729  29.715  1.00  0.00    -0.248 NA
ATOM     40  C   UNL A   1      39.112  28.860  27.711  1.00  0.00     0.031 C 
ATOM     41  C   UNL A   1      37.437  31.632  31.549  1.00  0.00     0.029 A 
ATOM     42  N   UNL A   1      39.321  30.464  31.857  1.00  0.00    -0.354 N 
ATOM     43  C   UNL A   1      40.917  27.931  28.761  1.00  0.00     0.074 A 
ATOM     44  C   UNL A   1      40.126  28.023  27.554  1.00  0.00     0.031 C 
ATOM     45  C   UNL A   1      37.905  31.930  32.774  1.00  0.00     0.029 A 
ATOM     46  C   UNL A   1      39.109  31.146  33.032  1.00  0.00     0.049 A 
ATOM     47  H   UNL A   1      40.101  29.884  31.703  1.00  0.00     0.167 HD
ATOM     48  C   UNL A   1      42.049  27.197  28.871  1.00  0.00     0.034 A 
ATOM     49  C   UNL A   1      39.796  31.122  34.193  1.00  0.00     0.034 A 
ATOM     50  C   UNL A   1      42.870  27.144  30.048  1.00  0.00     0.049 A 
ATOM     51  C   UNL A   1      41.031  30.263  34.301  1.00  0.00     0.074 A 
ATOM     52  C   UNL A   1      44.027  26.415  30.259  1.00  0.00     0.029 A 
ATOM     53  N   UNL A   1      42.629  27.855  31.214  1.00  0.00    -0.354 N 
ATOM     54  N   UNL A   1      41.618  29.534  33.383  1.00  0.00    -0.248 NA
ATOM     55  C   UNL A   1      41.714  30.245  35.605  1.00  0.00     0.031 C 
ATOM     56  C   UNL A   1      44.478  26.674  31.558  1.00  0.00     0.029 A 
ATOM     57  C   UNL A   1      43.615  27.584  32.147  1.00  0.00     0.049 A 
ATOM     58  H   UNL A   1      41.869  28.464  31.356  1.00  0.00     0.167 HD
ATOM     59  C   UNL A   1      42.754  29.002  33.985  1.00  0.00     0.074 A 
ATOM     60  C   UNL A   1      42.787  29.512  35.340  1.00  0.00     0.031 C 
ATOM     61  C   UNL A   1      43.677  28.152  33.468  1.00  0.00     0.034 A 
BRANCH  48  62
ATOM     62  C   UNL A   1      42.462  26.386  27.673  1.00  0.00     0.023 A 
ATOM     63  C   UNL A   1      43.258  26.970  26.668  1.00  0.00     0.012 A 
ATOM     64  C   UNL A   1      42.077  25.037  27.556  1.00  0.00     0.148 A 
ATOM     65  C   UNL A   1      43.637  26.232  25.548  1.00  0.00     0.002 A 
ATOM     66  C   UNL A   1      42.492  24.296  26.457  1.00  0.00     0.091 A 
ATOM     67  F   UNL A   1      41.296  24.510  28.510  1.00  0.00    -0.205 F 
ATOM     68  C   UNL A   1      43.263  24.894  25.447  1.00  0.00     0.022 A 
BRANCH  66  69
ATOM     69  S   UNL A   1      42.116  22.549  26.275  1.00  0.00     0.127 S 
ATOM     70  O   UNL A   1      42.768  22.238  25.003  1.00  0.00    -0.237 OA
ATOM     71  O   UNL A   1      42.765  21.969  27.450  1.00  0.00    -0.237 OA
ATOM     72  O   UNL A   1      40.663  22.449  26.274  1.00  0.00    -0.744 OA
ENDBRANCH  66  69
ENDBRANCH  48  62
BRANCH  49  73
ATOM     73  C   UNL A   1      39.348  31.950  35.350  1.00  0.00     0.023 A 
ATOM     74  C   UNL A   1      38.440  31.410  36.281  1.00  0.00     0.012 A 
ATOM     75  C   UNL A   1      39.800  33.273  35.523  1.00  0.00     0.148 A 
ATOM     76  C   UNL A   1      37.962  32.182  37.341  1.00  0.00     0.002 A 
ATOM     77  C   UNL A   1      39.365  34.018  36.612  1.00  0.00     0.091 A 
ATOM     78  F   UNL A   1      40.644  33.781  34.613  1.00  0.00    -0.205 F 
ATOM     79  C   UNL A   1      38.431  33.481  37.512  1.00  0.00     0.022 A 
BRANCH  77  80
ATOM     80  S   UNL A   1      40.000  35.659  36.973  1.00  0.00     0.127 S 
ATOM     81  O   UNL A   1      41.433  35.404  37.107  1.00  0.00    -0.237 OA
ATOM     82  O   UNL A   1      39.619  36.403  35.772  1.00  0.00    -0.237 OA
ATOM     83  O   UNL A   1      39.318  36.089  38.186  1.00  0.00    -0.744 OA
ENDBRANCH  77  80
ENDBRANCH  49  73
BRANCH  61  84
ATOM     84  C   UNL A   1      44.835  27.752  34.347  1.00  0.00     0.023 A 
ATOM     85  C   UNL A   1      46.011  28.530  34.357  1.00  0.00     0.012 A 
ATOM     86  C   UNL A   1      44.731  26.649  35.217  1.00  0.00     0.148 A 
ATOM     87  C   UNL A   1      47.076  28.195  35.192  1.00  0.00     0.002 A 
ATOM     88  C   UNL A   1      45.778  26.350  36.083  1.00  0.00     0.091 A 
ATOM     89  F   UNL A   1      43.615  25.906  35.182  1.00  0.00    -0.205 F 
ATOM     90  C   UNL A   1      46.955  27.114  36.063  1.00  0.00     0.022 A 
BRANCH  88  91
ATOM     91  S   UNL A   1      45.663  25.036  37.303  1.00  0.00     0.127 S 
ATOM     92  O   UNL A   1      45.405  23.868  36.462  1.00  0.00    -0.237 OA
ATOM     93  O   UNL A   1      46.991  25.061  37.918  1.00  0.00    -0.237 OA
ATOM     94  O   UNL A   1      44.581  25.421  38.198  1.00  0.00    -0.744 OA
ENDBRANCH  88  91
ENDBRANCH  61  84
ENDBRANCH  35  36
ENDBRANCH  28  30
ENDBRANCH  27  28
ENDBRANCH  26  27
ENDBRANCH   1  26
TORSDOF 19
ENDMDL
