MODEL 1
REMARK VINA RESULT:     -10.5      0.000      0.000
REMARK SMILES C[C@H]([NH2+][C@H](C)[C@@H](C)C(=O)OCCOC(=O)c1ccc(-c2c3nc(c(-c4cccc(S(=O)(=O)[O-])c4F)c4ccc([nH]4)c(-c4cccc(S(=O)(=O)[O-])c4F)c4nc(c(-c5cccc(S(=O)(=O)[O-])c5F)c5ccc2[nH]5)C=C4)C=C3)cc1)C1CCCCC1
REMARK SMILES IDX 11 1 10 2 8 3 9 4 6 5 7 6 4 7 5 8 3 9 2 12 1 13 79 14 80 15
REMARK SMILES IDX 84 16 81 17 83 18 82 19 12 20 13 21 14 22 15 23 16 24 17 25
REMARK SMILES IDX 78 26 18 27 77 28 19 29 20 30 21 31 71 32 22 33 76 34 70 35
REMARK SMILES IDX 72 36 23 37 75 38 69 39 68 40 24 42 56 43 36 44 55 45 37 46
REMARK SMILES IDX 40 47 54 48 73 49 38 50 39 51 53 53 74 54 41 55 25 56 26 57
REMARK SMILES IDX 34 58 27 59 29 60 35 61 28 62 30 63 31 64 32 65 33 66 57 67
REMARK SMILES IDX 58 68 66 69 59 70 61 71 67 72 60 73 62 74 63 75 64 76 65 77
REMARK SMILES IDX 42 78 43 79 51 80 44 81 46 82 52 83 45 84 47 85 48 86 49 87
REMARK SMILES IDX 50 88
REMARK H PARENT 3 10 3 11 72 41 40 52
REMARK Flexibility Score: inf
ROOT
ATOM      1  C   UNL A   1      38.206  20.855  24.873  1.00  0.00     0.274 C 
ENDROOT
BRANCH   1   2
ATOM      2  O   UNL A   1      36.789  21.021  25.143  1.00  0.00    -0.462 OA
BRANCH   2   3
ATOM      3  C   UNL A   1      36.174  22.035  24.467  1.00  0.00     0.314 C 
ATOM      4  O   UNL A   1      36.616  22.489  23.410  1.00  0.00    -0.252 OA
BRANCH   3   5
ATOM      5  C   UNL A   1      34.814  22.489  25.059  1.00  0.00     0.154 C 
ATOM      6  C   UNL A   1      35.121  23.725  25.930  1.00  0.00     0.026 C 
BRANCH   5   7
ATOM      7  C   UNL A   1      33.971  21.410  25.823  1.00  0.00     0.193 C 
ATOM      8  C   UNL A   1      34.067  21.527  27.354  1.00  0.00     0.076 C 
BRANCH   7   9
ATOM      9  N   UNL A   1      32.568  21.239  25.376  1.00  0.00    -0.341 N 
ATOM     10  H   UNL A   1      32.028  21.007  26.209  1.00  0.00     0.346 HD
ATOM     11  H   UNL A   1      32.389  22.121  24.896  1.00  0.00     0.346 HD
BRANCH   9  12
ATOM     12  C   UNL A   1      32.188  20.246  24.347  1.00  0.00     0.182 C 
ATOM     13  C   UNL A   1      32.199  20.766  22.910  1.00  0.00     0.075 C 
BRANCH  12  14
ATOM     14  C   UNL A   1      33.072  18.932  24.507  1.00  0.00     0.047 C 
ATOM     15  C   UNL A   1      32.552  17.980  25.612  1.00  0.00     0.010 C 
ATOM     16  C   UNL A   1      33.246  18.143  23.193  1.00  0.00     0.010 C 
ATOM     17  C   UNL A   1      33.361  16.689  25.745  1.00  0.00     0.001 C 
ATOM     18  C   UNL A   1      34.051  16.855  23.346  1.00  0.00     0.001 C 
ATOM     19  C   UNL A   1      33.462  15.950  24.417  1.00  0.00     0.000 C 
ENDBRANCH  12  14
ENDBRANCH   9  12
ENDBRANCH   7   9
ENDBRANCH   5   7
ENDBRANCH   3   5
ENDBRANCH   2   3
ENDBRANCH   1   2
BRANCH   1  20
ATOM     20  C   UNL A   1      38.836  19.731  25.735  1.00  0.00     0.275 C 
BRANCH  20  21
ATOM     21  O   UNL A   1      40.286  19.617  25.789  1.00  0.00    -0.458 OA
BRANCH  21  22
ATOM     22  C   UNL A   1      40.852  20.086  26.914  1.00  0.00     0.338 C 
ATOM     23  O   UNL A   1      40.814  19.540  27.998  1.00  0.00    -0.246 OA
BRANCH  22  24
ATOM     24  C   UNL A   1      41.447  21.421  26.918  1.00  0.00     0.060 A 
ATOM     25  C   UNL A   1      41.873  21.860  28.185  1.00  0.00     0.016 A 
ATOM     26  C   UNL A   1      41.256  22.325  25.876  1.00  0.00     0.016 A 
ATOM     27  C   UNL A   1      42.019  23.212  28.441  1.00  0.00     0.010 A 
ATOM     28  C   UNL A   1      41.479  23.685  26.116  1.00  0.00     0.010 A 
ATOM     29  C   UNL A   1      41.848  24.131  27.399  1.00  0.00    -0.014 A 
BRANCH  29  30
ATOM     30  C   UNL A   1      42.333  25.507  27.614  1.00  0.00     0.031 A 
ATOM     31  C   UNL A   1      43.698  25.968  27.216  1.00  0.00     0.074 A 
ATOM     32  C   UNL A   1      41.459  26.332  28.216  1.00  0.00     0.049 A 
ATOM     33  N   UNL A   1      44.240  27.145  27.386  1.00  0.00    -0.248 NA
ATOM     34  C   UNL A   1      44.573  24.997  26.547  1.00  0.00     0.031 C 
ATOM     35  C   UNL A   1      40.115  25.938  28.654  1.00  0.00     0.029 A 
ATOM     36  N   UNL A   1      41.558  27.644  28.579  1.00  0.00    -0.354 N 
ATOM     37  C   UNL A   1      45.530  27.053  26.880  1.00  0.00     0.074 A 
ATOM     38  C   UNL A   1      45.689  25.702  26.381  1.00  0.00     0.031 C 
ATOM     39  C   UNL A   1      39.520  26.981  29.238  1.00  0.00     0.029 A 
ATOM     40  C   UNL A   1      40.455  28.095  29.259  1.00  0.00     0.049 A 
ATOM     41  H   UNL A   1      42.340  28.207  28.374  1.00  0.00     0.167 HD
ATOM     42  C   UNL A   1      46.480  28.019  26.838  1.00  0.00     0.034 A 
ATOM     43  C   UNL A   1      40.225  29.273  29.864  1.00  0.00     0.034 A 
ATOM     44  C   UNL A   1      46.272  29.363  27.320  1.00  0.00     0.049 A 
ATOM     45  C   UNL A   1      41.269  30.334  29.752  1.00  0.00     0.074 A 
ATOM     46  C   UNL A   1      47.144  30.438  27.278  1.00  0.00     0.029 A 
ATOM     47  N   UNL A   1      45.112  29.817  27.933  1.00  0.00    -0.354 N 
ATOM     48  N   UNL A   1      42.447  30.261  29.180  1.00  0.00    -0.248 NA
ATOM     49  C   UNL A   1      40.947  31.643  30.325  1.00  0.00     0.031 C 
ATOM     50  C   UNL A   1      46.511  31.538  27.871  1.00  0.00     0.029 A 
ATOM     51  C   UNL A   1      45.244  31.153  28.275  1.00  0.00     0.049 A 
ATOM     52  H   UNL A   1      44.311  29.269  28.100  1.00  0.00     0.167 HD
ATOM     53  C   UNL A   1      43.011  31.519  29.316  1.00  0.00     0.074 A 
ATOM     54  C   UNL A   1      42.026  32.341  29.997  1.00  0.00     0.031 C 
ATOM     55  C   UNL A   1      44.237  31.949  28.932  1.00  0.00     0.034 A 
BRANCH  42  56
ATOM     56  C   UNL A   1      47.813  27.692  26.215  1.00  0.00     0.023 A 
ATOM     57  C   UNL A   1      48.858  27.210  27.029  1.00  0.00     0.012 A 
ATOM     58  C   UNL A   1      48.001  27.745  24.818  1.00  0.00     0.148 A 
ATOM     59  C   UNL A   1      50.066  26.796  26.469  1.00  0.00     0.002 A 
ATOM     60  C   UNL A   1      49.197  27.300  24.263  1.00  0.00     0.091 A 
ATOM     61  F   UNL A   1      47.008  28.227  24.057  1.00  0.00    -0.205 F 
ATOM     62  C   UNL A   1      50.232  26.829  25.086  1.00  0.00     0.022 A 
BRANCH  60  63
ATOM     63  S   UNL A   1      49.472  27.233  22.486  1.00  0.00     0.127 S 
ATOM     64  O   UNL A   1      50.902  26.937  22.420  1.00  0.00    -0.237 OA
ATOM     65  O   UNL A   1      48.603  26.130  22.076  1.00  0.00    -0.237 OA
ATOM     66  O   UNL A   1      49.074  28.537  21.974  1.00  0.00    -0.744 OA
ENDBRANCH  60  63
ENDBRANCH  42  56
BRANCH  43  67
ATOM     67  C   UNL A   1      38.918  29.465  30.543  1.00  0.00     0.023 A 
ATOM     68  C   UNL A   1      38.759  29.018  31.866  1.00  0.00     0.012 A 
ATOM     69  C   UNL A   1      37.919  30.272  29.960  1.00  0.00     0.148 A 
ATOM     70  C   UNL A   1      37.632  29.383  32.603  1.00  0.00     0.002 A 
ATOM     71  C   UNL A   1      36.833  30.687  30.722  1.00  0.00     0.091 A 
ATOM     72  F   UNL A   1      38.085  30.684  28.694  1.00  0.00    -0.205 F 
ATOM     73  C   UNL A   1      36.682  30.234  32.040  1.00  0.00     0.022 A 
BRANCH  71  74
ATOM     74  S   UNL A   1      35.706  31.948  30.114  1.00  0.00     0.127 S 
ATOM     75  O   UNL A   1      35.053  31.262  29.004  1.00  0.00    -0.237 OA
ATOM     76  O   UNL A   1      34.848  32.197  31.273  1.00  0.00    -0.237 OA
ATOM     77  O   UNL A   1      36.564  33.074  29.765  1.00  0.00    -0.744 OA
ENDBRANCH  71  74
ENDBRANCH  43  67
BRANCH  55  78
ATOM     78  C   UNL A   1      44.579  33.371  29.270  1.00  0.00     0.023 A 
ATOM     79  C   UNL A   1      45.113  33.663  30.540  1.00  0.00     0.012 A 
ATOM     80  C   UNL A   1      44.397  34.406  28.335  1.00  0.00     0.148 A 
ATOM     81  C   UNL A   1      45.433  34.973  30.887  1.00  0.00     0.002 A 
ATOM     82  C   UNL A   1      44.750  35.706  28.677  1.00  0.00     0.091 A 
ATOM     83  F   UNL A   1      43.861  34.108  27.142  1.00  0.00    -0.205 F 
ATOM     84  C   UNL A   1      45.260  35.993  29.954  1.00  0.00     0.022 A 
BRANCH  82  85
ATOM     85  S   UNL A   1      44.613  37.059  27.505  1.00  0.00     0.127 S 
ATOM     86  O   UNL A   1      44.953  38.211  28.337  1.00  0.00    -0.237 OA
ATOM     87  O   UNL A   1      45.620  36.713  26.500  1.00  0.00    -0.237 OA
ATOM     88  O   UNL A   1      43.241  37.013  27.014  1.00  0.00    -0.744 OA
ENDBRANCH  82  85
ENDBRANCH  55  78
ENDBRANCH  29  30
ENDBRANCH  22  24
ENDBRANCH  21  22
ENDBRANCH  20  21
ENDBRANCH   1  20
TORSDOF 18
ENDMDL
MODEL 2
REMARK VINA RESULT:     -10.5      1.334      7.873
REMARK SMILES C[C@H]([NH2+][C@H](C)[C@@H](C)C(=O)OCCOC(=O)c1ccc(-c2c3nc(c(-c4cccc(S(=O)(=O)[O-])c4F)c4ccc([nH]4)c(-c4cccc(S(=O)(=O)[O-])c4F)c4nc(c(-c5cccc(S(=O)(=O)[O-])c5F)c5ccc2[nH]5)C=C4)C=C3)cc1)C1CCCCC1
REMARK SMILES IDX 11 1 10 2 8 3 9 4 6 5 7 6 4 7 5 8 3 9 2 12 1 13 79 14 80 15
REMARK SMILES IDX 84 16 81 17 83 18 82 19 12 20 13 21 14 22 15 23 16 24 17 25
REMARK SMILES IDX 78 26 18 27 77 28 19 29 20 30 21 31 71 32 22 33 76 34 70 35
REMARK SMILES IDX 72 36 23 37 75 38 69 39 68 40 24 42 56 43 36 44 55 45 37 46
REMARK SMILES IDX 40 47 54 48 73 49 38 50 39 51 53 53 74 54 41 55 25 56 26 57
REMARK SMILES IDX 34 58 27 59 29 60 35 61 28 62 30 63 31 64 32 65 33 66 57 67
REMARK SMILES IDX 58 68 66 69 59 70 61 71 67 72 60 73 62 74 63 75 64 76 65 77
REMARK SMILES IDX 42 78 43 79 51 80 44 81 46 82 52 83 45 84 47 85 48 86 49 87
REMARK SMILES IDX 50 88
REMARK H PARENT 3 10 3 11 72 41 40 52
REMARK Flexibility Score: inf
ROOT
ATOM      1  C   UNL A   1      36.588  22.805  23.800  1.00  0.00     0.274 C 
ENDROOT
BRANCH   1   2
ATOM      2  O   UNL A   1      35.504  23.215  24.675  1.00  0.00    -0.462 OA
BRANCH   2   3
ATOM      3  C   UNL A   1      34.478  23.881  24.070  1.00  0.00     0.314 C 
ATOM      4  O   UNL A   1      34.580  24.372  22.945  1.00  0.00    -0.252 OA
BRANCH   3   5
ATOM      5  C   UNL A   1      33.137  23.867  24.850  1.00  0.00     0.154 C 
ATOM      6  C   UNL A   1      33.266  24.954  25.937  1.00  0.00     0.026 C 
BRANCH   5   7
ATOM      7  C   UNL A   1      32.661  22.491  25.430  1.00  0.00     0.193 C 
ATOM      8  C   UNL A   1      31.130  22.347  25.492  1.00  0.00     0.076 C 
BRANCH   7   9
ATOM      9  N   UNL A   1      33.301  21.282  24.857  1.00  0.00    -0.341 N 
ATOM     10  H   UNL A   1      33.955  21.614  24.149  1.00  0.00     0.346 HD
ATOM     11  H   UNL A   1      33.662  20.818  25.690  1.00  0.00     0.346 HD
BRANCH   9  12
ATOM     12  C   UNL A   1      32.514  20.204  24.219  1.00  0.00     0.182 C 
ATOM     13  C   UNL A   1      32.176  20.434  22.746  1.00  0.00     0.075 C 
BRANCH  12  14
ATOM     14  C   UNL A   1      33.229  18.800  24.449  1.00  0.00     0.047 C 
ATOM     15  C   UNL A   1      32.567  17.957  25.565  1.00  0.00     0.010 C 
ATOM     16  C   UNL A   1      33.344  17.951  23.167  1.00  0.00     0.010 C 
ATOM     17  C   UNL A   1      33.210  16.584  25.766  1.00  0.00     0.001 C 
ATOM     18  C   UNL A   1      33.983  16.582  23.386  1.00  0.00     0.001 C 
ATOM     19  C   UNL A   1      33.259  15.792  24.465  1.00  0.00     0.000 C 
ENDBRANCH  12  14
ENDBRANCH   9  12
ENDBRANCH   7   9
ENDBRANCH   5   7
ENDBRANCH   3   5
ENDBRANCH   2   3
ENDBRANCH   1   2
BRANCH   1  20
ATOM     20  C   UNL A   1      37.413  21.638  24.401  1.00  0.00     0.275 C 
BRANCH  20  21
ATOM     21  O   UNL A   1      37.683  21.633  25.832  1.00  0.00    -0.458 OA
BRANCH  21  22
ATOM     22  C   UNL A   1      38.983  21.711  26.166  1.00  0.00     0.338 C 
ATOM     23  O   UNL A   1      39.793  20.815  26.041  1.00  0.00    -0.246 OA
BRANCH  22  24
ATOM     24  C   UNL A   1      39.476  22.893  26.870  1.00  0.00     0.060 A 
ATOM     25  C   UNL A   1      39.004  24.113  26.351  1.00  0.00     0.016 A 
ATOM     26  C   UNL A   1      40.594  22.854  27.698  1.00  0.00     0.016 A 
ATOM     27  C   UNL A   1      39.702  25.285  26.583  1.00  0.00     0.010 A 
ATOM     28  C   UNL A   1      41.254  24.052  27.994  1.00  0.00     0.010 A 
ATOM     29  C   UNL A   1      40.817  25.265  27.429  1.00  0.00    -0.014 A 
BRANCH  29  30
ATOM     30  C   UNL A   1      41.327  26.558  27.920  1.00  0.00     0.031 A 
ATOM     31  C   UNL A   1      40.465  27.582  28.585  1.00  0.00     0.074 A 
ATOM     32  C   UNL A   1      42.639  26.769  27.713  1.00  0.00     0.049 A 
ATOM     33  N   UNL A   1      40.802  28.765  29.026  1.00  0.00    -0.248 NA
ATOM     34  C   UNL A   1      39.048  27.250  28.782  1.00  0.00     0.031 C 
ATOM     35  C   UNL A   1      43.536  25.818  27.045  1.00  0.00     0.029 A 
ATOM     36  N   UNL A   1      43.442  27.831  28.016  1.00  0.00    -0.354 N 
ATOM     37  C   UNL A   1      39.638  29.338  29.522  1.00  0.00     0.074 A 
ATOM     38  C   UNL A   1      38.581  28.363  29.340  1.00  0.00     0.031 C 
ATOM     39  C   UNL A   1      44.761  26.344  26.977  1.00  0.00     0.029 A 
ATOM     40  C   UNL A   1      44.724  27.681  27.549  1.00  0.00     0.049 A 
ATOM     41  H   UNL A   1      43.133  28.620  28.517  1.00  0.00     0.167 HD
ATOM     42  C   UNL A   1      39.484  30.563  30.080  1.00  0.00     0.034 A 
ATOM     43  C   UNL A   1      45.758  28.539  27.552  1.00  0.00     0.034 A 
ATOM     44  C   UNL A   1      40.570  31.495  30.271  1.00  0.00     0.049 A 
ATOM     45  C   UNL A   1      45.571  29.859  28.223  1.00  0.00     0.074 A 
ATOM     46  C   UNL A   1      40.540  32.741  30.875  1.00  0.00     0.029 A 
ATOM     47  N   UNL A   1      41.879  31.283  29.860  1.00  0.00    -0.354 N 
ATOM     48  N   UNL A   1      44.487  30.346  28.778  1.00  0.00    -0.248 NA
ATOM     49  C   UNL A   1      46.746  30.730  28.309  1.00  0.00     0.031 C 
ATOM     50  C   UNL A   1      41.831  33.282  30.823  1.00  0.00     0.029 A 
ATOM     51  C   UNL A   1      42.666  32.373  30.195  1.00  0.00     0.049 A 
ATOM     52  H   UNL A   1      42.201  30.476  29.398  1.00  0.00     0.167 HD
ATOM     53  C   UNL A   1      44.847  31.582  29.289  1.00  0.00     0.074 A 
ATOM     54  C   UNL A   1      46.261  31.751  29.003  1.00  0.00     0.031 C 
ATOM     55  C   UNL A   1      44.075  32.501  29.917  1.00  0.00     0.034 A 
BRANCH  42  56
ATOM     56  C   UNL A   1      38.117  30.965  30.572  1.00  0.00     0.023 A 
ATOM     57  C   UNL A   1      37.764  30.715  31.914  1.00  0.00     0.012 A 
ATOM     58  C   UNL A   1      37.228  31.692  29.754  1.00  0.00     0.148 A 
ATOM     59  C   UNL A   1      36.551  31.171  32.430  1.00  0.00     0.002 A 
ATOM     60  C   UNL A   1      36.034  32.172  30.283  1.00  0.00     0.091 A 
ATOM     61  F   UNL A   1      37.565  31.902  28.473  1.00  0.00    -0.205 F 
ATOM     62  C   UNL A   1      35.692  31.910  31.619  1.00  0.00     0.022 A 
BRANCH  60  63
ATOM     63  S   UNL A   1      34.900  33.198  29.336  1.00  0.00     0.127 S 
ATOM     64  O   UNL A   1      35.798  34.229  28.819  1.00  0.00    -0.237 OA
ATOM     65  O   UNL A   1      34.401  32.265  28.326  1.00  0.00    -0.237 OA
ATOM     66  O   UNL A   1      33.894  33.656  30.283  1.00  0.00    -0.744 OA
ENDBRANCH  60  63
ENDBRANCH  42  56
BRANCH  43  67
ATOM     67  C   UNL A   1      47.039  28.089  26.950  1.00  0.00     0.023 A 
ATOM     68  C   UNL A   1      47.959  27.381  27.742  1.00  0.00     0.012 A 
ATOM     69  C   UNL A   1      47.245  28.173  25.557  1.00  0.00     0.148 A 
ATOM     70  C   UNL A   1      49.058  26.752  27.154  1.00  0.00     0.002 A 
ATOM     71  C   UNL A   1      48.303  27.488  24.972  1.00  0.00     0.091 A 
ATOM     72  F   UNL A   1      46.359  28.859  24.818  1.00  0.00    -0.205 F 
ATOM     73  C   UNL A   1      49.217  26.786  25.770  1.00  0.00     0.022 A 
BRANCH  71  74
ATOM     74  S   UNL A   1      48.423  27.325  23.185  1.00  0.00     0.127 S 
ATOM     75  O   UNL A   1      48.175  25.900  22.993  1.00  0.00    -0.237 OA
ATOM     76  O   UNL A   1      47.353  28.205  22.711  1.00  0.00    -0.237 OA
ATOM     77  O   UNL A   1      49.762  27.800  22.859  1.00  0.00    -0.744 OA
ENDBRANCH  71  74
ENDBRANCH  43  67
BRANCH  55  78
ATOM     78  C   UNL A   1      44.753  33.782  30.311  1.00  0.00     0.023 A 
ATOM     79  C   UNL A   1      45.366  33.869  31.576  1.00  0.00     0.012 A 
ATOM     80  C   UNL A   1      44.804  34.879  29.432  1.00  0.00     0.148 A 
ATOM     81  C   UNL A   1      45.996  35.046  31.974  1.00  0.00     0.002 A 
ATOM     82  C   UNL A   1      45.463  36.038  29.825  1.00  0.00     0.091 A 
ATOM     83  F   UNL A   1      44.189  34.782  28.245  1.00  0.00    -0.205 F 
ATOM     84  C   UNL A   1      46.052  36.126  31.097  1.00  0.00     0.022 A 
BRANCH  82  85
ATOM     85  S   UNL A   1      45.630  37.446  28.724  1.00  0.00     0.127 S 
ATOM     86  O   UNL A   1      46.387  38.384  29.550  1.00  0.00    -0.237 OA
ATOM     87  O   UNL A   1      46.377  36.884  27.598  1.00  0.00    -0.237 OA
ATOM     88  O   UNL A   1      44.268  37.847  28.394  1.00  0.00    -0.744 OA
ENDBRANCH  82  85
ENDBRANCH  55  78
ENDBRANCH  29  30
ENDBRANCH  22  24
ENDBRANCH  21  22
ENDBRANCH  20  21
ENDBRANCH   1  20
TORSDOF 18
ENDMDL
MODEL 3
REMARK VINA RESULT:     -10.3      5.576     11.307
REMARK SMILES C[C@H]([NH2+][C@H](C)[C@@H](C)C(=O)OCCOC(=O)c1ccc(-c2c3nc(c(-c4cccc(S(=O)(=O)[O-])c4F)c4ccc([nH]4)c(-c4cccc(S(=O)(=O)[O-])c4F)c4nc(c(-c5cccc(S(=O)(=O)[O-])c5F)c5ccc2[nH]5)C=C4)C=C3)cc1)C1CCCCC1
REMARK SMILES IDX 11 1 10 2 8 3 9 4 6 5 7 6 4 7 5 8 3 9 2 12 1 13 79 14 80 15
REMARK SMILES IDX 84 16 81 17 83 18 82 19 12 20 13 21 14 22 15 23 16 24 17 25
REMARK SMILES IDX 78 26 18 27 77 28 19 29 20 30 21 31 71 32 22 33 76 34 70 35
REMARK SMILES IDX 72 36 23 37 75 38 69 39 68 40 24 42 56 43 36 44 55 45 37 46
REMARK SMILES IDX 40 47 54 48 73 49 38 50 39 51 53 53 74 54 41 55 25 56 26 57
REMARK SMILES IDX 34 58 27 59 29 60 35 61 28 62 30 63 31 64 32 65 33 66 57 67
REMARK SMILES IDX 58 68 66 69 59 70 61 71 67 72 60 73 62 74 63 75 64 76 65 77
REMARK SMILES IDX 42 78 43 79 51 80 44 81 46 82 52 83 45 84 47 85 48 86 49 87
REMARK SMILES IDX 50 88
REMARK H PARENT 3 10 3 11 72 41 40 52
REMARK Flexibility Score: inf
ROOT
ATOM      1  C   UNL A   1      32.199  31.477  26.947  1.00  0.00     0.274 C 
ENDROOT
BRANCH   1   2
ATOM      2  O   UNL A   1      31.535  30.832  25.829  1.00  0.00    -0.462 OA
BRANCH   2   3
ATOM      3  C   UNL A   1      32.123  29.687  25.374  1.00  0.00     0.314 C 
ATOM      4  O   UNL A   1      33.197  29.691  24.770  1.00  0.00    -0.252 OA
BRANCH   3   5
ATOM      5  C   UNL A   1      31.405  28.374  25.779  1.00  0.00     0.154 C 
ATOM      6  C   UNL A   1      32.250  27.760  26.914  1.00  0.00     0.026 C 
BRANCH   5   7
ATOM      7  C   UNL A   1      31.096  27.346  24.637  1.00  0.00     0.193 C 
ATOM      8  C   UNL A   1      30.138  27.890  23.563  1.00  0.00     0.076 C 
BRANCH   7   9
ATOM      9  N   UNL A   1      32.267  26.667  24.031  1.00  0.00    -0.341 N 
ATOM     10  H   UNL A   1      32.664  27.326  23.362  1.00  0.00     0.346 HD
ATOM     11  H   UNL A   1      32.810  26.407  24.855  1.00  0.00     0.346 HD
BRANCH   9  12
ATOM     12  C   UNL A   1      32.146  25.377  23.319  1.00  0.00     0.182 C 
ATOM     13  C   UNL A   1      33.042  25.229  22.090  1.00  0.00     0.075 C 
BRANCH  12  14
ATOM     14  C   UNL A   1      32.341  24.172  24.341  1.00  0.00     0.047 C 
ATOM     15  C   UNL A   1      33.369  24.480  25.456  1.00  0.00     0.010 C 
ATOM     16  C   UNL A   1      31.023  23.688  24.980  1.00  0.00     0.010 C 
ATOM     17  C   UNL A   1      33.531  23.352  26.476  1.00  0.00     0.001 C 
ATOM     18  C   UNL A   1      31.204  22.566  25.999  1.00  0.00     0.001 C 
ATOM     19  C   UNL A   1      32.194  22.952  27.087  1.00  0.00     0.000 C 
ENDBRANCH  12  14
ENDBRANCH   9  12
ENDBRANCH   7   9
ENDBRANCH   5   7
ENDBRANCH   3   5
ENDBRANCH   2   3
ENDBRANCH   1   2
BRANCH   1  20
ATOM     20  C   UNL A   1      32.078  33.021  26.885  1.00  0.00     0.275 C 
BRANCH  20  21
ATOM     21  O   UNL A   1      32.536  33.808  28.021  1.00  0.00    -0.458 OA
BRANCH  21  22
ATOM     22  C   UNL A   1      33.836  34.146  27.992  1.00  0.00     0.338 C 
ATOM     23  O   UNL A   1      34.351  34.879  27.172  1.00  0.00    -0.246 OA
BRANCH  22  24
ATOM     24  C   UNL A   1      34.770  33.496  28.909  1.00  0.00     0.060 A 
ATOM     25  C   UNL A   1      36.107  33.911  28.763  1.00  0.00     0.016 A 
ATOM     26  C   UNL A   1      34.459  32.314  29.575  1.00  0.00     0.016 A 
ATOM     27  C   UNL A   1      37.140  33.101  29.200  1.00  0.00     0.010 A 
ATOM     28  C   UNL A   1      35.502  31.534  30.085  1.00  0.00     0.010 A 
ATOM     29  C   UNL A   1      36.842  31.919  29.888  1.00  0.00    -0.014 A 
BRANCH  29  30
ATOM     30  C   UNL A   1      37.937  31.262  30.626  1.00  0.00     0.031 A 
ATOM     31  C   UNL A   1      38.278  31.581  32.045  1.00  0.00     0.074 A 
ATOM     32  C   UNL A   1      38.631  30.351  29.922  1.00  0.00     0.049 A 
ATOM     33  N   UNL A   1      39.240  31.088  32.780  1.00  0.00    -0.248 NA
ATOM     34  C   UNL A   1      37.448  32.577  32.735  1.00  0.00     0.031 C 
ATOM     35  C   UNL A   1      38.366  30.009  28.519  1.00  0.00     0.029 A 
ATOM     36  N   UNL A   1      39.696  29.567  30.261  1.00  0.00    -0.354 N 
ATOM     37  C   UNL A   1      39.158  31.734  34.007  1.00  0.00     0.074 A 
ATOM     38  C   UNL A   1      38.039  32.650  33.924  1.00  0.00     0.031 C 
ATOM     39  C   UNL A   1      39.250  29.094  28.115  1.00  0.00     0.029 A 
ATOM     40  C   UNL A   1      40.170  28.825  29.209  1.00  0.00     0.049 A 
ATOM     41  H   UNL A   1      40.082  29.537  31.167  1.00  0.00     0.167 HD
ATOM     42  C   UNL A   1      39.949  31.562  35.094  1.00  0.00     0.034 A 
ATOM     43  C   UNL A   1      41.251  28.031  29.120  1.00  0.00     0.034 A 
ATOM     44  C   UNL A   1      41.037  30.616  35.147  1.00  0.00     0.049 A 
ATOM     45  C   UNL A   1      42.069  27.820  30.350  1.00  0.00     0.074 A 
ATOM     46  C   UNL A   1      41.869  30.318  36.212  1.00  0.00     0.029 A 
ATOM     47  N   UNL A   1      41.446  29.816  34.088  1.00  0.00    -0.354 N 
ATOM     48  N   UNL A   1      41.917  28.364  31.534  1.00  0.00    -0.248 NA
ATOM     49  C   UNL A   1      43.176  26.864  30.254  1.00  0.00     0.031 C 
ATOM     50  C   UNL A   1      42.783  29.342  35.794  1.00  0.00     0.029 A 
ATOM     51  C   UNL A   1      42.517  29.026  34.472  1.00  0.00     0.049 A 
ATOM     52  H   UNL A   1      41.034  29.810  33.194  1.00  0.00     0.167 HD
ATOM     53  C   UNL A   1      42.905  27.812  32.333  1.00  0.00     0.074 A 
ATOM     54  C   UNL A   1      43.628  26.866  31.501  1.00  0.00     0.031 C 
ATOM     55  C   UNL A   1      43.201  28.078  33.628  1.00  0.00     0.034 A 
BRANCH  42  56
ATOM     56  C   UNL A   1      39.653  32.365  36.335  1.00  0.00     0.023 A 
ATOM     57  C   UNL A   1      40.286  33.612  36.518  1.00  0.00     0.012 A 
ATOM     58  C   UNL A   1      38.669  31.954  37.256  1.00  0.00     0.148 A 
ATOM     59  C   UNL A   1      39.953  34.428  37.599  1.00  0.00     0.002 A 
ATOM     60  C   UNL A   1      38.319  32.788  38.315  1.00  0.00     0.091 A 
ATOM     61  F   UNL A   1      38.092  30.756  37.084  1.00  0.00    -0.205 F 
ATOM     62  C   UNL A   1      38.962  34.023  38.489  1.00  0.00     0.022 A 
BRANCH  60  63
ATOM     63  S   UNL A   1      36.999  32.383  39.468  1.00  0.00     0.127 S 
ATOM     64  O   UNL A   1      37.429  31.076  39.963  1.00  0.00    -0.237 OA
ATOM     65  O   UNL A   1      37.094  33.466  40.447  1.00  0.00    -0.237 OA
ATOM     66  O   UNL A   1      35.772  32.386  38.683  1.00  0.00    -0.744 OA
ENDBRANCH  60  63
ENDBRANCH  42  56
BRANCH  43  67
ATOM     67  C   UNL A   1      41.518  27.361  27.821  1.00  0.00     0.023 A 
ATOM     68  C   UNL A   1      42.143  28.085  26.791  1.00  0.00     0.012 A 
ATOM     69  C   UNL A   1      41.353  25.967  27.686  1.00  0.00     0.148 A 
ATOM     70  C   UNL A   1      42.610  27.428  25.652  1.00  0.00     0.002 A 
ATOM     71  C   UNL A   1      41.881  25.312  26.581  1.00  0.00     0.091 A 
ATOM     72  F   UNL A   1      40.749  25.294  28.678  1.00  0.00    -0.205 F 
ATOM     73  C   UNL A   1      42.501  26.042  25.557  1.00  0.00     0.022 A 
BRANCH  71  74
ATOM     74  S   UNL A   1      41.954  23.516  26.519  1.00  0.00     0.127 S 
ATOM     75  O   UNL A   1      42.662  23.199  27.755  1.00  0.00    -0.237 OA
ATOM     76  O   UNL A   1      40.540  23.138  26.505  1.00  0.00    -0.237 OA
ATOM     77  O   UNL A   1      42.655  23.217  25.276  1.00  0.00    -0.744 OA
ENDBRANCH  71  74
ENDBRANCH  43  67
BRANCH  55  78
ATOM     78  C   UNL A   1      44.377  27.345  34.206  1.00  0.00     0.023 A 
ATOM     79  C   UNL A   1      45.670  27.868  34.012  1.00  0.00     0.012 A 
ATOM     80  C   UNL A   1      44.205  26.166  34.952  1.00  0.00     0.148 A 
ATOM     81  C   UNL A   1      46.782  27.208  34.528  1.00  0.00     0.002 A 
ATOM     82  C   UNL A   1      45.317  25.531  35.492  1.00  0.00     0.091 A 
ATOM     83  F   UNL A   1      42.967  25.672  35.100  1.00  0.00    -0.205 F 
ATOM     84  C   UNL A   1      46.606  26.045  35.275  1.00  0.00     0.022 A 
BRANCH  82  85
ATOM     85  S   UNL A   1      45.161  24.065  36.516  1.00  0.00     0.127 S 
ATOM     86  O   UNL A   1      44.526  23.124  35.597  1.00  0.00    -0.237 OA
ATOM     87  O   UNL A   1      46.553  23.754  36.842  1.00  0.00    -0.237 OA
ATOM     88  O   UNL A   1      44.358  24.474  37.662  1.00  0.00    -0.744 OA
ENDBRANCH  82  85
ENDBRANCH  55  78
ENDBRANCH  29  30
ENDBRANCH  22  24
ENDBRANCH  21  22
ENDBRANCH  20  21
ENDBRANCH   1  20
TORSDOF 18
ENDMDL
