MODEL 1
REMARK VINA RESULT:     -10.8      0.000      0.000
REMARK SMILES [H]/N=C1\C=CC2=NC(C(=O)OCCOC(=O)c3ccc(-c4c5nc(c(-c6cccc(S(=O)(=O)[O-])c6F)c6ccc([nH]6)c(-c6cccc(S(=O)(=O)[O-])c6F)c6nc(c(-c7cccc(S(=O)(=O)[O-])c7F)c7ccc4[nH]7)C=C6)C=C5)cc3)=C[C@@H]2C1
REMARK SMILES IDX 14 1 13 2 12 3 11 4 9 5 10 6 8 7 2 8 3 9 1 10 4 11 82 12
REMARK SMILES IDX 5 13 81 14 6 15 80 16 7 17 15 18 16 19 17 20 18 21 79 22
REMARK SMILES IDX 19 23 78 24 20 25 21 26 22 27 72 28 23 29 77 30 71 31 73 32
REMARK SMILES IDX 24 33 76 34 70 35 69 36 25 38 57 39 37 40 56 41 38 42 41 43
REMARK SMILES IDX 55 44 74 45 39 46 40 47 54 49 75 50 42 51 26 52 27 53 35 54
REMARK SMILES IDX 28 55 30 56 36 57 29 58 31 59 32 60 33 61 34 62 58 63 59 64
REMARK SMILES IDX 67 65 60 66 62 67 68 68 61 69 63 70 64 71 65 72 66 73 43 74
REMARK SMILES IDX 44 75 52 76 45 77 47 78 53 79 46 80 48 81 49 82 50 83 51 84
REMARK H PARENT 73 37 41 48
REMARK Flexibility Score: inf
ROOT
ATOM      1  O   UNL A   1      35.219  33.224  28.246  1.00  0.00    -0.458 OA
ENDROOT
BRANCH   1   2
ATOM      2  C   UNL A   1      33.942  33.809  28.001  1.00  0.00     0.275 C 
BRANCH   2   3
ATOM      3  C   UNL A   1      33.697  35.053  28.853  1.00  0.00     0.275 C 
BRANCH   3   4
ATOM      4  O   UNL A   1      32.854  34.802  29.995  1.00  0.00    -0.457 OA
BRANCH   4   5
ATOM      5  C   UNL A   1      33.370  35.253  31.177  1.00  0.00     0.356 C 
ATOM      6  O   UNL A   1      32.946  36.205  31.808  1.00  0.00    -0.244 OA
BRANCH   5   7
ATOM      7  C   UNL A   1      34.523  34.421  31.650  1.00  0.00     0.145 C 
ATOM      8  N   UNL A   1      39.185  31.807  33.831  1.00  0.00    -0.305 NA
ATOM      9  C   UNL A   1      38.104  32.025  33.157  1.00  0.00     0.032 C 
ATOM     10  H   UNL A   1      39.367  30.910  34.192  1.00  0.00     0.187 HD
ATOM     11  C   UNL A   1      37.115  30.947  32.883  1.00  0.00     0.025 C 
ATOM     12  C   UNL A   1      37.835  33.419  32.605  1.00  0.00     0.069 C 
ATOM     13  C   UNL A   1      35.890  31.239  32.435  1.00  0.00     0.026 C 
ATOM     14  C   UNL A   1      36.377  33.740  32.839  1.00  0.00     0.069 C 
ATOM     15  C   UNL A   1      35.500  32.647  32.276  1.00  0.00     0.049 C 
ATOM     16  C   UNL A   1      35.680  34.877  32.158  1.00  0.00     0.019 C 
ATOM     17  N   UNL A   1      34.412  33.044  31.699  1.00  0.00    -0.245 NA
ENDBRANCH   5   7
ENDBRANCH   4   5
ENDBRANCH   3   4
ENDBRANCH   2   3
ENDBRANCH   1   2
BRANCH   1  18
ATOM     18  C   UNL A   1      35.276  31.897  28.005  1.00  0.00     0.338 C 
ATOM     19  O   UNL A   1      34.506  31.250  27.294  1.00  0.00    -0.246 OA
BRANCH  18  20
ATOM     20  C   UNL A   1      36.263  31.261  28.878  1.00  0.00     0.060 A 
ATOM     21  C   UNL A   1      37.403  32.013  29.178  1.00  0.00     0.016 A 
ATOM     22  C   UNL A   1      36.211  29.876  29.095  1.00  0.00     0.016 A 
ATOM     23  C   UNL A   1      38.565  31.348  29.492  1.00  0.00     0.010 A 
ATOM     24  C   UNL A   1      37.376  29.210  29.408  1.00  0.00     0.010 A 
ATOM     25  C   UNL A   1      38.553  29.950  29.508  1.00  0.00    -0.014 A 
BRANCH  25  26
ATOM     26  C   UNL A   1      39.828  29.275  29.595  1.00  0.00     0.031 A 
ATOM     27  C   UNL A   1      40.359  29.118  30.961  1.00  0.00     0.074 A 
ATOM     28  C   UNL A   1      40.446  28.771  28.512  1.00  0.00     0.049 A 
ATOM     29  N   UNL A   1      41.402  29.690  31.462  1.00  0.00    -0.248 NA
ATOM     30  C   UNL A   1      39.571  28.332  31.916  1.00  0.00     0.031 C 
ATOM     31  C   UNL A   1      39.915  28.614  27.156  1.00  0.00     0.029 A 
ATOM     32  N   UNL A   1      41.655  28.151  28.452  1.00  0.00    -0.354 N 
ATOM     33  C   UNL A   1      41.519  29.180  32.749  1.00  0.00     0.074 A 
ATOM     34  C   UNL A   1      40.288  28.484  33.029  1.00  0.00     0.031 C 
ATOM     35  C   UNL A   1      40.679  27.717  26.493  1.00  0.00     0.029 A 
ATOM     36  C   UNL A   1      41.806  27.349  27.332  1.00  0.00     0.049 A 
ATOM     37  H   UNL A   1      42.353  28.260  29.137  1.00  0.00     0.167 HD
ATOM     38  C   UNL A   1      42.703  29.182  33.415  1.00  0.00     0.034 A 
ATOM     39  C   UNL A   1      42.736  26.377  27.172  1.00  0.00     0.034 A 
ATOM     40  C   UNL A   1      43.692  30.006  32.776  1.00  0.00     0.049 A 
ATOM     41  C   UNL A   1      43.849  26.662  28.111  1.00  0.00     0.074 A 
ATOM     42  C   UNL A   1      43.793  31.346  32.459  1.00  0.00     0.029 A 
ATOM     43  N   UNL A   1      44.651  29.365  32.029  1.00  0.00    -0.354 N 
ATOM     44  N   UNL A   1      44.642  27.692  27.991  1.00  0.00    -0.248 NA
ATOM     45  C   UNL A   1      43.828  26.047  29.430  1.00  0.00     0.031 C 
ATOM     46  C   UNL A   1      44.484  31.379  31.213  1.00  0.00     0.029 A 
ATOM     47  C   UNL A   1      44.786  30.062  30.858  1.00  0.00     0.049 A 
ATOM     48  H   UNL A   1      45.149  28.556  32.288  1.00  0.00     0.167 HD
ATOM     49  C   UNL A   1      44.854  28.124  29.295  1.00  0.00     0.074 A 
ATOM     50  C   UNL A   1      44.440  27.004  30.135  1.00  0.00     0.031 C 
ATOM     51  C   UNL A   1      45.059  29.447  29.577  1.00  0.00     0.034 A 
BRANCH  38  52
ATOM     52  C   UNL A   1      43.082  28.185  34.471  1.00  0.00     0.023 A 
ATOM     53  C   UNL A   1      43.495  28.682  35.725  1.00  0.00     0.012 A 
ATOM     54  C   UNL A   1      43.299  26.815  34.209  1.00  0.00     0.148 A 
ATOM     55  C   UNL A   1      44.120  27.857  36.665  1.00  0.00     0.002 A 
ATOM     56  C   UNL A   1      43.844  25.982  35.177  1.00  0.00     0.091 A 
ATOM     57  F   UNL A   1      43.109  26.334  32.975  1.00  0.00    -0.205 F 
ATOM     58  C   UNL A   1      44.282  26.501  36.396  1.00  0.00     0.022 A 
BRANCH  56  59
ATOM     59  S   UNL A   1      44.015  24.218  34.892  1.00  0.00     0.127 S 
ATOM     60  O   UNL A   1      44.672  23.784  36.121  1.00  0.00    -0.237 OA
ATOM     61  O   UNL A   1      42.622  23.795  34.750  1.00  0.00    -0.237 OA
ATOM     62  O   UNL A   1      44.797  24.107  33.665  1.00  0.00    -0.744 OA
ENDBRANCH  56  59
ENDBRANCH  38  52
BRANCH  39  63
ATOM     63  C   UNL A   1      42.597  25.097  26.446  1.00  0.00     0.023 A 
ATOM     64  C   UNL A   1      43.525  24.751  25.447  1.00  0.00     0.012 A 
ATOM     65  C   UNL A   1      41.697  24.102  26.895  1.00  0.00     0.148 A 
ATOM     66  C   UNL A   1      43.563  23.454  24.921  1.00  0.00     0.002 A 
ATOM     67  C   UNL A   1      41.727  22.821  26.358  1.00  0.00     0.091 A 
ATOM     68  F   UNL A   1      40.874  24.383  27.914  1.00  0.00    -0.205 F 
ATOM     69  C   UNL A   1      42.668  22.488  25.377  1.00  0.00     0.022 A 
BRANCH  67  70
ATOM     70  S   UNL A   1      40.601  21.531  26.910  1.00  0.00     0.127 S 
ATOM     71  O   UNL A   1      39.302  22.065  26.501  1.00  0.00    -0.237 OA
ATOM     72  O   UNL A   1      41.060  20.378  26.140  1.00  0.00    -0.237 OA
ATOM     73  O   UNL A   1      40.779  21.441  28.354  1.00  0.00    -0.744 OA
ENDBRANCH  67  70
ENDBRANCH  39  63
BRANCH  51  74
ATOM     74  C   UNL A   1      45.266  30.393  28.416  1.00  0.00     0.023 A 
ATOM     75  C   UNL A   1      44.172  30.954  27.721  1.00  0.00     0.012 A 
ATOM     76  C   UNL A   1      46.556  30.870  28.137  1.00  0.00     0.148 A 
ATOM     77  C   UNL A   1      44.361  31.938  26.749  1.00  0.00     0.002 A 
ATOM     78  C   UNL A   1      46.738  31.884  27.201  1.00  0.00     0.091 A 
ATOM     79  F   UNL A   1      47.589  30.346  28.815  1.00  0.00    -0.205 F 
ATOM     80  C   UNL A   1      45.644  32.411  26.496  1.00  0.00     0.022 A 
BRANCH  78  81
ATOM     81  S   UNL A   1      48.344  32.636  26.925  1.00  0.00     0.127 S 
ATOM     82  O   UNL A   1      48.669  33.160  28.249  1.00  0.00    -0.237 OA
ATOM     83  O   UNL A   1      49.161  31.496  26.503  1.00  0.00    -0.237 OA
ATOM     84  O   UNL A   1      48.142  33.635  25.883  1.00  0.00    -0.744 OA
ENDBRANCH  78  81
ENDBRANCH  51  74
ENDBRANCH  25  26
ENDBRANCH  18  20
ENDBRANCH   1  18
TORSDOF 14
ENDMDL
MODEL 2
REMARK VINA RESULT:     -10.7      3.061     10.655
REMARK SMILES [H]/N=C1\C=CC2=NC(C(=O)OCCOC(=O)c3ccc(-c4c5nc(c(-c6cccc(S(=O)(=O)[O-])c6F)c6ccc([nH]6)c(-c6cccc(S(=O)(=O)[O-])c6F)c6nc(c(-c7cccc(S(=O)(=O)[O-])c7F)c7ccc4[nH]7)C=C6)C=C5)cc3)=C[C@@H]2C1
REMARK SMILES IDX 14 1 13 2 12 3 11 4 9 5 10 6 8 7 2 8 3 9 1 10 4 11 82 12
REMARK SMILES IDX 5 13 81 14 6 15 80 16 7 17 15 18 16 19 17 20 18 21 79 22
REMARK SMILES IDX 19 23 78 24 20 25 21 26 22 27 72 28 23 29 77 30 71 31 73 32
REMARK SMILES IDX 24 33 76 34 70 35 69 36 25 38 57 39 37 40 56 41 38 42 41 43
REMARK SMILES IDX 55 44 74 45 39 46 40 47 54 49 75 50 42 51 26 52 27 53 35 54
REMARK SMILES IDX 28 55 30 56 36 57 29 58 31 59 32 60 33 61 34 62 58 63 59 64
REMARK SMILES IDX 67 65 60 66 62 67 68 68 61 69 63 70 64 71 65 72 66 73 43 74
REMARK SMILES IDX 44 75 52 76 45 77 47 78 53 79 46 80 48 81 49 82 50 83 51 84
REMARK H PARENT 73 37 41 48
REMARK Flexibility Score: inf
ROOT
ATOM      1  O   UNL A   1      40.914  21.352  27.299  1.00  0.00    -0.458 OA
ENDROOT
BRANCH   1   2
ATOM      2  C   UNL A   1      40.776  20.121  26.592  1.00  0.00     0.275 C 
BRANCH   2   3
ATOM      3  C   UNL A   1      42.105  19.384  26.439  1.00  0.00     0.275 C 
BRANCH   3   4
ATOM      4  O   UNL A   1      42.648  19.465  25.105  1.00  0.00    -0.457 OA
BRANCH   4   5
ATOM      5  C   UNL A   1      43.968  19.814  25.064  1.00  0.00     0.356 C 
ATOM      6  O   UNL A   1      44.884  19.057  24.791  1.00  0.00    -0.244 OA
BRANCH   5   7
ATOM      7  C   UNL A   1      44.184  21.266  25.364  1.00  0.00     0.145 C 
ATOM      8  N   UNL A   1      45.692  26.674  26.708  1.00  0.00    -0.305 NA
ATOM      9  C   UNL A   1      44.991  25.649  26.345  1.00  0.00     0.032 C 
ATOM     10  H   UNL A   1      45.509  27.558  26.316  1.00  0.00     0.187 HD
ATOM     11  C   UNL A   1      43.885  25.762  25.356  1.00  0.00     0.025 C 
ATOM     12  C   UNL A   1      45.285  24.287  26.959  1.00  0.00     0.069 C 
ATOM     13  C   UNL A   1      43.360  24.671  24.788  1.00  0.00     0.026 C 
ATOM     14  C   UNL A   1      45.236  23.257  25.854  1.00  0.00     0.069 C 
ATOM     15  C   UNL A   1      43.930  23.353  25.101  1.00  0.00     0.049 C 
ATOM     16  C   UNL A   1      45.163  21.786  26.122  1.00  0.00     0.019 C 
ATOM     17  N   UNL A   1      43.404  22.226  24.747  1.00  0.00    -0.245 NA
ENDBRANCH   5   7
ENDBRANCH   4   5
ENDBRANCH   3   4
ENDBRANCH   2   3
ENDBRANCH   1   2
BRANCH   1  18
ATOM     18  C   UNL A   1      40.028  22.302  26.934  1.00  0.00     0.338 C 
ATOM     19  O   UNL A   1      38.905  22.113  26.464  1.00  0.00    -0.246 OA
BRANCH  18  20
ATOM     20  C   UNL A   1      40.654  23.624  26.970  1.00  0.00     0.060 A 
ATOM     21  C   UNL A   1      41.638  23.819  27.944  1.00  0.00     0.016 A 
ATOM     22  C   UNL A   1      40.050  24.699  26.301  1.00  0.00     0.016 A 
ATOM     23  C   UNL A   1      41.862  25.096  28.404  1.00  0.00     0.010 A 
ATOM     24  C   UNL A   1      40.274  25.977  26.763  1.00  0.00     0.010 A 
ATOM     25  C   UNL A   1      41.105  26.144  27.869  1.00  0.00    -0.014 A 
BRANCH  25  26
ATOM     26  C   UNL A   1      41.180  27.425  28.534  1.00  0.00     0.031 A 
ATOM     27  C   UNL A   1      42.243  28.320  28.043  1.00  0.00     0.074 A 
ATOM     28  C   UNL A   1      40.301  27.791  29.482  1.00  0.00     0.049 A 
ATOM     29  N   UNL A   1      43.300  28.699  28.681  1.00  0.00    -0.248 NA
ATOM     30  C   UNL A   1      42.187  28.746  26.641  1.00  0.00     0.031 C 
ATOM     31  C   UNL A   1      39.053  27.126  29.868  1.00  0.00     0.029 A 
ATOM     32  N   UNL A   1      40.281  28.943  30.205  1.00  0.00    -0.354 N 
ATOM     33  C   UNL A   1      43.952  29.578  27.825  1.00  0.00     0.074 A 
ATOM     34  C   UNL A   1      43.318  29.443  26.537  1.00  0.00     0.031 C 
ATOM     35  C   UNL A   1      38.283  28.008  30.544  1.00  0.00     0.029 A 
ATOM     36  C   UNL A   1      39.037  29.235  30.742  1.00  0.00     0.049 A 
ATOM     37  H   UNL A   1      41.073  29.513  30.333  1.00  0.00     0.167 HD
ATOM     38  C   UNL A   1      44.826  30.510  28.286  1.00  0.00     0.034 A 
ATOM     39  C   UNL A   1      38.639  30.441  31.210  1.00  0.00     0.034 A 
ATOM     40  C   UNL A   1      45.200  30.284  29.655  1.00  0.00     0.049 A 
ATOM     41  C   UNL A   1      39.858  31.218  31.543  1.00  0.00     0.074 A 
ATOM     42  C   UNL A   1      45.824  29.264  30.344  1.00  0.00     0.029 A 
ATOM     43  N   UNL A   1      44.591  31.068  30.606  1.00  0.00    -0.354 N 
ATOM     44  N   UNL A   1      40.664  30.903  32.520  1.00  0.00    -0.248 NA
ATOM     45  C   UNL A   1      40.423  32.101  30.534  1.00  0.00     0.031 C 
ATOM     46  C   UNL A   1      45.179  29.228  31.614  1.00  0.00     0.029 A 
ATOM     47  C   UNL A   1      44.220  30.244  31.635  1.00  0.00     0.049 A 
ATOM     48  H   UNL A   1      44.449  32.041  30.556  1.00  0.00     0.167 HD
ATOM     49  C   UNL A   1      41.936  31.159  32.020  1.00  0.00     0.074 A 
ATOM     50  C   UNL A   1      41.718  32.013  30.855  1.00  0.00     0.031 C 
ATOM     51  C   UNL A   1      43.014  30.417  32.416  1.00  0.00     0.034 A 
BRANCH  38  52
ATOM     52  C   UNL A   1      45.102  31.820  27.607  1.00  0.00     0.023 A 
ATOM     53  C   UNL A   1      46.391  32.021  27.069  1.00  0.00     0.012 A 
ATOM     54  C   UNL A   1      44.253  32.943  27.702  1.00  0.00     0.148 A 
ATOM     55  C   UNL A   1      46.821  33.290  26.670  1.00  0.00     0.002 A 
ATOM     56  C   UNL A   1      44.655  34.183  27.228  1.00  0.00     0.091 A 
ATOM     57  F   UNL A   1      43.101  32.852  28.379  1.00  0.00    -0.205 F 
ATOM     58  C   UNL A   1      45.948  34.370  26.735  1.00  0.00     0.022 A 
BRANCH  56  59
ATOM     59  S   UNL A   1      43.538  35.588  27.240  1.00  0.00     0.127 S 
ATOM     60  O   UNL A   1      43.093  35.598  28.630  1.00  0.00    -0.237 OA
ATOM     61  O   UNL A   1      44.426  36.689  26.864  1.00  0.00    -0.237 OA
ATOM     62  O   UNL A   1      42.525  35.275  26.238  1.00  0.00    -0.744 OA
ENDBRANCH  56  59
ENDBRANCH  38  52
BRANCH  39  63
ATOM     63  C   UNL A   1      37.289  31.041  31.145  1.00  0.00     0.023 A 
ATOM     64  C   UNL A   1      36.669  31.507  32.319  1.00  0.00     0.012 A 
ATOM     65  C   UNL A   1      36.704  31.378  29.902  1.00  0.00     0.148 A 
ATOM     66  C   UNL A   1      35.512  32.293  32.256  1.00  0.00     0.002 A 
ATOM     67  C   UNL A   1      35.545  32.143  29.845  1.00  0.00     0.091 A 
ATOM     68  F   UNL A   1      37.333  31.028  28.772  1.00  0.00    -0.205 F 
ATOM     69  C   UNL A   1      34.951  32.613  31.021  1.00  0.00     0.022 A 
BRANCH  67  70
ATOM     70  S   UNL A   1      34.779  32.594  28.281  1.00  0.00     0.127 S 
ATOM     71  O   UNL A   1      33.671  33.442  28.718  1.00  0.00    -0.237 OA
ATOM     72  O   UNL A   1      35.863  33.300  27.605  1.00  0.00    -0.237 OA
ATOM     73  O   UNL A   1      34.361  31.339  27.668  1.00  0.00    -0.744 OA
ENDBRANCH  67  70
ENDBRANCH  39  63
BRANCH  51  74
ATOM     74  C   UNL A   1      42.827  29.458  33.570  1.00  0.00     0.023 A 
ATOM     75  C   UNL A   1      42.136  28.237  33.406  1.00  0.00     0.012 A 
ATOM     76  C   UNL A   1      43.505  29.692  34.777  1.00  0.00     0.148 A 
ATOM     77  C   UNL A   1      42.092  27.290  34.430  1.00  0.00     0.002 A 
ATOM     78  C   UNL A   1      43.497  28.725  35.779  1.00  0.00     0.091 A 
ATOM     79  F   UNL A   1      44.174  30.846  34.919  1.00  0.00    -0.205 F 
ATOM     80  C   UNL A   1      42.782  27.529  35.613  1.00  0.00     0.022 A 
BRANCH  78  81
ATOM     81  S   UNL A   1      44.477  28.908  37.272  1.00  0.00     0.127 S 
ATOM     82  O   UNL A   1      43.892  30.101  37.879  1.00  0.00    -0.237 OA
ATOM     83  O   UNL A   1      44.199  27.661  37.988  1.00  0.00    -0.237 OA
ATOM     84  O   UNL A   1      45.859  29.038  36.828  1.00  0.00    -0.744 OA
ENDBRANCH  78  81
ENDBRANCH  51  74
ENDBRANCH  25  26
ENDBRANCH  18  20
ENDBRANCH   1  18
TORSDOF 14
ENDMDL
MODEL 3
REMARK VINA RESULT:     -10.1      3.131      4.574
REMARK SMILES [H]/N=C1\C=CC2=NC(C(=O)OCCOC(=O)c3ccc(-c4c5nc(c(-c6cccc(S(=O)(=O)[O-])c6F)c6ccc([nH]6)c(-c6cccc(S(=O)(=O)[O-])c6F)c6nc(c(-c7cccc(S(=O)(=O)[O-])c7F)c7ccc4[nH]7)C=C6)C=C5)cc3)=C[C@@H]2C1
REMARK SMILES IDX 14 1 13 2 12 3 11 4 9 5 10 6 8 7 2 8 3 9 1 10 4 11 82 12
REMARK SMILES IDX 5 13 81 14 6 15 80 16 7 17 15 18 16 19 17 20 18 21 79 22
REMARK SMILES IDX 19 23 78 24 20 25 21 26 22 27 72 28 23 29 77 30 71 31 73 32
REMARK SMILES IDX 24 33 76 34 70 35 69 36 25 38 57 39 37 40 56 41 38 42 41 43
REMARK SMILES IDX 55 44 74 45 39 46 40 47 54 49 75 50 42 51 26 52 27 53 35 54
REMARK SMILES IDX 28 55 30 56 36 57 29 58 31 59 32 60 33 61 34 62 58 63 59 64
REMARK SMILES IDX 67 65 60 66 62 67 68 68 61 69 63 70 64 71 65 72 66 73 43 74
REMARK SMILES IDX 44 75 52 76 45 77 47 78 53 79 46 80 48 81 49 82 50 83 51 84
REMARK H PARENT 73 37 41 48
REMARK Flexibility Score: inf
ROOT
ATOM      1  O   UNL A   1      34.601  30.887  27.330  1.00  0.00    -0.458 OA
ENDROOT
BRANCH   1   2
ATOM      2  C   UNL A   1      33.236  31.297  27.273  1.00  0.00     0.275 C 
BRANCH   2   3
ATOM      3  C   UNL A   1      32.299  30.154  26.887  1.00  0.00     0.275 C 
BRANCH   3   4
ATOM      4  O   UNL A   1      32.585  29.600  25.586  1.00  0.00    -0.457 OA
BRANCH   4   5
ATOM      5  C   UNL A   1      31.536  28.929  25.025  1.00  0.00     0.356 C 
ATOM      6  O   UNL A   1      30.675  29.435  24.325  1.00  0.00    -0.244 OA
BRANCH   5   7
ATOM      7  C   UNL A   1      31.564  27.464  25.336  1.00  0.00     0.145 C 
ATOM      8  N   UNL A   1      31.050  21.773  26.162  1.00  0.00    -0.305 NA
ATOM      9  C   UNL A   1      31.494  22.987  26.219  1.00  0.00     0.032 C 
ATOM     10  H   UNL A   1      31.681  21.018  26.169  1.00  0.00     0.187 HD
ATOM     11  C   UNL A   1      32.948  23.289  26.319  1.00  0.00     0.025 C 
ATOM     12  C   UNL A   1      30.507  24.146  26.206  1.00  0.00     0.069 C 
ATOM     13  C   UNL A   1      33.406  24.526  26.099  1.00  0.00     0.026 C 
ATOM     14  C   UNL A   1      31.056  25.216  25.291  1.00  0.00     0.069 C 
ATOM     15  C   UNL A   1      32.466  25.579  25.692  1.00  0.00     0.049 C 
ATOM     16  C   UNL A   1      30.525  26.616  25.273  1.00  0.00     0.019 C 
ATOM     17  N   UNL A   1      32.763  26.836  25.615  1.00  0.00    -0.245 NA
ENDBRANCH   5   7
ENDBRANCH   4   5
ENDBRANCH   3   4
ENDBRANCH   2   3
ENDBRANCH   1   2
BRANCH   1  18
ATOM     18  C   UNL A   1      35.427  31.790  27.898  1.00  0.00     0.338 C 
ATOM     19  O   UNL A   1      35.514  32.985  27.608  1.00  0.00    -0.246 OA
BRANCH  18  20
ATOM     20  C   UNL A   1      36.382  31.124  28.782  1.00  0.00     0.060 A 
ATOM     21  C   UNL A   1      37.531  31.848  29.114  1.00  0.00     0.016 A 
ATOM     22  C   UNL A   1      36.296  29.738  28.983  1.00  0.00     0.016 A 
ATOM     23  C   UNL A   1      38.672  31.155  29.444  1.00  0.00     0.010 A 
ATOM     24  C   UNL A   1      37.440  29.044  29.312  1.00  0.00     0.010 A 
ATOM     25  C   UNL A   1      38.630  29.757  29.444  1.00  0.00    -0.014 A 
BRANCH  25  26
ATOM     26  C   UNL A   1      39.888  29.054  29.549  1.00  0.00     0.031 A 
ATOM     27  C   UNL A   1      40.390  28.876  30.924  1.00  0.00     0.074 A 
ATOM     28  C   UNL A   1      40.516  28.546  28.474  1.00  0.00     0.049 A 
ATOM     29  N   UNL A   1      41.436  29.420  31.449  1.00  0.00    -0.248 NA
ATOM     30  C   UNL A   1      39.568  28.100  31.858  1.00  0.00     0.031 C 
ATOM     31  C   UNL A   1      40.007  28.410  27.107  1.00  0.00     0.029 A 
ATOM     32  N   UNL A   1      41.712  27.900  28.431  1.00  0.00    -0.354 N 
ATOM     33  C   UNL A   1      41.518  28.898  32.733  1.00  0.00     0.074 A 
ATOM     34  C   UNL A   1      40.267  28.227  32.985  1.00  0.00     0.031 C 
ATOM     35  C   UNL A   1      40.763  27.502  26.451  1.00  0.00     0.029 A 
ATOM     36  C   UNL A   1      41.867  27.103  27.308  1.00  0.00     0.049 A 
ATOM     37  H   UNL A   1      42.399  27.989  29.131  1.00  0.00     0.167 HD
ATOM     38  C   UNL A   1      42.689  28.870  33.421  1.00  0.00     0.034 A 
ATOM     39  C   UNL A   1      42.778  26.113  27.158  1.00  0.00     0.034 A 
ATOM     40  C   UNL A   1      43.707  29.678  32.807  1.00  0.00     0.049 A 
ATOM     41  C   UNL A   1      43.880  26.366  28.120  1.00  0.00     0.074 A 
ATOM     42  C   UNL A   1      43.843  31.017  32.503  1.00  0.00     0.029 A 
ATOM     43  N   UNL A   1      44.666  29.021  32.073  1.00  0.00    -0.354 N 
ATOM     44  N   UNL A   1      44.697  27.380  28.022  1.00  0.00    -0.248 NA
ATOM     45  C   UNL A   1      43.820  25.742  29.433  1.00  0.00     0.031 C 
ATOM     46  C   UNL A   1      44.558  31.045  31.271  1.00  0.00     0.029 A 
ATOM     47  C   UNL A   1      44.838  29.725  30.910  1.00  0.00     0.049 A 
ATOM     48  H   UNL A   1      45.142  28.200  32.335  1.00  0.00     0.167 HD
ATOM     49  C   UNL A   1      44.893  27.797  29.333  1.00  0.00     0.074 A 
ATOM     50  C   UNL A   1      44.440  26.680  30.157  1.00  0.00     0.031 C 
ATOM     51  C   UNL A   1      45.121  29.114  29.629  1.00  0.00     0.034 A 
BRANCH  38  52
ATOM     52  C   UNL A   1      43.027  27.857  34.476  1.00  0.00     0.023 A 
ATOM     53  C   UNL A   1      43.260  28.326  35.786  1.00  0.00     0.012 A 
ATOM     54  C   UNL A   1      43.378  26.520  34.191  1.00  0.00     0.148 A 
ATOM     55  C   UNL A   1      43.840  27.508  36.759  1.00  0.00     0.002 A 
ATOM     56  C   UNL A   1      43.876  25.687  35.182  1.00  0.00     0.091 A 
ATOM     57  F   UNL A   1      43.362  26.082  32.925  1.00  0.00    -0.205 F 
ATOM     58  C   UNL A   1      44.136  26.181  36.461  1.00  0.00     0.022 A 
BRANCH  56  59
ATOM     59  S   UNL A   1      44.215  23.955  34.854  1.00  0.00     0.127 S 
ATOM     60  O   UNL A   1      44.693  23.497  36.155  1.00  0.00    -0.237 OA
ATOM     61  O   UNL A   1      42.896  23.454  34.465  1.00  0.00    -0.237 OA
ATOM     62  O   UNL A   1      45.191  23.959  33.770  1.00  0.00    -0.744 OA
ENDBRANCH  56  59
ENDBRANCH  38  52
BRANCH  39  63
ATOM     63  C   UNL A   1      42.626  24.842  26.419  1.00  0.00     0.023 A 
ATOM     64  C   UNL A   1      43.570  24.478  25.443  1.00  0.00     0.012 A 
ATOM     65  C   UNL A   1      41.688  23.868  26.836  1.00  0.00     0.148 A 
ATOM     66  C   UNL A   1      43.589  23.184  24.908  1.00  0.00     0.002 A 
ATOM     67  C   UNL A   1      41.699  22.589  26.291  1.00  0.00     0.091 A 
ATOM     68  F   UNL A   1      40.846  24.163  27.835  1.00  0.00    -0.205 F 
ATOM     69  C   UNL A   1      42.657  22.239  25.333  1.00  0.00     0.022 A 
BRANCH  67  70
ATOM     70  S   UNL A   1      40.525  21.326  26.803  1.00  0.00     0.127 S 
ATOM     71  O   UNL A   1      40.763  21.256  28.245  1.00  0.00    -0.237 OA
ATOM     72  O   UNL A   1      39.250  21.926  26.421  1.00  0.00    -0.237 OA
ATOM     73  O   UNL A   1      40.901  20.119  26.079  1.00  0.00    -0.744 OA
ENDBRANCH  67  70
ENDBRANCH  39  63
BRANCH  51  74
ATOM     74  C   UNL A   1      45.370  30.063  28.480  1.00  0.00     0.023 A 
ATOM     75  C   UNL A   1      44.302  30.679  27.791  1.00  0.00     0.012 A 
ATOM     76  C   UNL A   1      46.681  30.488  28.208  1.00  0.00     0.148 A 
ATOM     77  C   UNL A   1      44.535  31.666  26.832  1.00  0.00     0.002 A 
ATOM     78  C   UNL A   1      46.907  31.504  27.284  1.00  0.00     0.091 A 
ATOM     79  F   UNL A   1      47.689  29.911  28.880  1.00  0.00    -0.205 F 
ATOM     80  C   UNL A   1      45.837  32.086  26.586  1.00  0.00     0.022 A 
BRANCH  78  81
ATOM     81  S   UNL A   1      48.544  32.190  27.019  1.00  0.00     0.127 S 
ATOM     82  O   UNL A   1      49.286  31.031  26.529  1.00  0.00    -0.237 OA
ATOM     83  O   UNL A   1      48.296  33.225  26.013  1.00  0.00    -0.237 OA
ATOM     84  O   UNL A   1      48.971  32.712  28.311  1.00  0.00    -0.744 OA
ENDBRANCH  78  81
ENDBRANCH  51  74
ENDBRANCH  25  26
ENDBRANCH  18  20
ENDBRANCH   1  18
TORSDOF 14
ENDMDL
