MODEL 1
REMARK VINA RESULT:     -11.5      0.000      0.000
REMARK SMILES C/C(=N/OCc1ccccc1Nc1c(Cl)cccc1Cl)C(=O)OCCOC(=O)c1ccc(-c2c3nc(c(-c4cccc(S(=O)(=O)[O-])c4F)c4ccc([nH]4)c(-c4cccc(S(=O)(=O)[O-])c4F)c4nc(c(-c5cccc(S(=O)(=O)[O-])c5F)c5ccc2[nH]5)C=C4)C=C3)cc1
REMARK SMILES IDX 24 1 23 2 21 3 22 4 2 5 1 6 3 7 4 8 5 9 6 10 7 11 11 12 8 13
REMARK SMILES IDX 10 14 9 15 12 16 13 18 14 19 19 20 15 21 16 22 18 23 20 24
REMARK SMILES IDX 17 25 25 26 26 27 27 28 28 29 29 30 30 31 91 32 31 33 90 34
REMARK SMILES IDX 32 35 33 36 34 37 84 38 35 39 89 40 83 41 85 42 36 43 88 44
REMARK SMILES IDX 82 45 81 46 37 48 69 49 49 50 68 51 50 52 53 53 67 54 86 55
REMARK SMILES IDX 51 56 52 57 66 59 87 60 54 61 38 62 39 63 47 64 40 65 42 66
REMARK SMILES IDX 48 67 41 68 43 69 44 70 45 71 46 72 70 73 71 74 79 75 72 76
REMARK SMILES IDX 74 77 80 78 73 79 75 80 76 81 77 82 78 83 55 84 56 85 64 86
REMARK SMILES IDX 57 87 59 88 65 89 58 90 60 91 61 92 62 93 63 94
REMARK H PARENT 12 17 85 47 53 58
REMARK Flexibility Score: inf
ROOT
ATOM      1  C   UNL A   1      36.621  22.476  23.676  1.00  0.00     0.275 C 
ENDROOT
BRANCH   1   2
ATOM      2  O   UNL A   1      35.711  23.410  24.287  1.00  0.00    -0.458 OA
BRANCH   2   3
ATOM      3  C   UNL A   1      34.627  23.781  23.580  1.00  0.00     0.355 C 
ATOM      4  O   UNL A   1      34.460  23.694  22.379  1.00  0.00    -0.245 OA
BRANCH   3   5
ATOM      5  C   UNL A   1      33.505  24.247  24.507  1.00  0.00     0.161 C 
ATOM      6  C   UNL A   1      32.449  23.246  24.874  1.00  0.00     0.079 C 
ATOM      7  N   UNL A   1      33.356  25.460  24.946  1.00  0.00    -0.084 NA
BRANCH   7   8
ATOM      8  O   UNL A   1      34.223  26.343  24.300  1.00  0.00    -0.390 OA
BRANCH   8   9
ATOM      9  C   UNL A   1      33.451  27.437  23.793  1.00  0.00     0.302 C 
BRANCH   9  10
ATOM     10  C   UNL A   1      33.036  28.423  24.876  1.00  0.00     0.016 A 
ATOM     11  C   UNL A   1      33.807  28.560  26.051  1.00  0.00     0.009 A 
ATOM     12  C   UNL A   1      31.944  29.292  24.690  1.00  0.00     0.045 A 
ATOM     13  C   UNL A   1      33.501  29.501  27.031  1.00  0.00     0.001 A 
ATOM     14  C   UNL A   1      31.656  30.242  25.688  1.00  0.00     0.026 A 
ATOM     15  C   UNL A   1      32.420  30.345  26.849  1.00  0.00     0.002 A 
BRANCH  12  16
ATOM     16  N   UNL A   1      31.183  29.233  23.501  1.00  0.00    -0.353 N 
ATOM     17  H   UNL A   1      31.700  29.322  22.669  1.00  0.00     0.167 HD
BRANCH  16  18
ATOM     18  C   UNL A   1      29.790  29.067  23.326  1.00  0.00     0.076 A 
ATOM     19  C   UNL A   1      29.239  27.775  23.459  1.00  0.00     0.066 A 
ATOM     20  C   UNL A   1      28.898  30.136  23.108  1.00  0.00     0.066 A 
ATOM     21  Cl  UNL A   1      30.267  26.397  23.688  1.00  0.00    -0.082 Cl
ATOM     22  C   UNL A   1      27.860  27.561  23.420  1.00  0.00     0.023 A 
ATOM     23  C   UNL A   1      27.515  29.919  23.073  1.00  0.00     0.023 A 
ATOM     24  Cl  UNL A   1      29.441  31.747  22.776  1.00  0.00    -0.082 Cl
ATOM     25  C   UNL A   1      26.997  28.637  23.241  1.00  0.00     0.003 A 
ENDBRANCH  16  18
ENDBRANCH  12  16
ENDBRANCH   9  10
ENDBRANCH   8   9
ENDBRANCH   7   8
ENDBRANCH   3   5
ENDBRANCH   2   3
ENDBRANCH   1   2
BRANCH   1  26
ATOM     26  C   UNL A   1      36.734  21.230  24.556  1.00  0.00     0.275 C 
BRANCH  26  27
ATOM     27  O   UNL A   1      37.273  21.581  25.844  1.00  0.00    -0.458 OA
BRANCH  27  28
ATOM     28  C   UNL A   1      38.605  21.398  25.969  1.00  0.00     0.338 C 
ATOM     29  O   UNL A   1      39.280  20.488  25.512  1.00  0.00    -0.246 OA
BRANCH  28  30
ATOM     30  C   UNL A   1      39.206  22.566  26.612  1.00  0.00     0.060 A 
ATOM     31  C   UNL A   1      38.738  23.819  26.230  1.00  0.00     0.016 A 
ATOM     32  C   UNL A   1      40.315  22.448  27.442  1.00  0.00     0.016 A 
ATOM     33  C   UNL A   1      39.455  24.962  26.554  1.00  0.00     0.010 A 
ATOM     34  C   UNL A   1      40.964  23.610  27.871  1.00  0.00     0.010 A 
ATOM     35  C   UNL A   1      40.569  24.876  27.396  1.00  0.00    -0.014 A 
BRANCH  35  36
ATOM     36  C   UNL A   1      41.314  26.108  27.770  1.00  0.00     0.031 A 
ATOM     37  C   UNL A   1      40.668  27.153  28.639  1.00  0.00     0.074 A 
ATOM     38  C   UNL A   1      42.570  26.294  27.314  1.00  0.00     0.049 A 
ATOM     39  N   UNL A   1      41.089  28.354  28.938  1.00  0.00    -0.248 NA
ATOM     40  C   UNL A   1      39.368  26.810  29.240  1.00  0.00     0.031 C 
ATOM     41  C   UNL A   1      43.318  25.349  26.480  1.00  0.00     0.029 A 
ATOM     42  N   UNL A   1      43.436  27.346  27.475  1.00  0.00    -0.354 N 
ATOM     43  C   UNL A   1      40.080  28.936  29.696  1.00  0.00     0.074 A 
ATOM     44  C   UNL A   1      39.027  27.953  29.819  1.00  0.00     0.031 C 
ATOM     45  C   UNL A   1      44.529  25.857  26.212  1.00  0.00     0.029 A 
ATOM     46  C   UNL A   1      44.615  27.195  26.781  1.00  0.00     0.049 A 
ATOM     47  H   UNL A   1      43.235  28.131  28.033  1.00  0.00     0.167 HD
ATOM     48  C   UNL A   1      40.040  30.174  30.244  1.00  0.00     0.034 A 
ATOM     49  C   UNL A   1      45.632  28.054  26.578  1.00  0.00     0.034 A 
ATOM     50  C   UNL A   1      41.120  31.123  30.168  1.00  0.00     0.049 A 
ATOM     51  C   UNL A   1      45.559  29.422  27.193  1.00  0.00     0.074 A 
ATOM     52  C   UNL A   1      41.198  32.386  30.728  1.00  0.00     0.029 A 
ATOM     53  N   UNL A   1      42.312  30.914  29.490  1.00  0.00    -0.354 N 
ATOM     54  N   UNL A   1      44.623  29.934  27.952  1.00  0.00    -0.248 NA
ATOM     55  C   UNL A   1      46.690  30.323  26.937  1.00  0.00     0.031 C 
ATOM     56  C   UNL A   1      42.427  32.948  30.370  1.00  0.00     0.029 A 
ATOM     57  C   UNL A   1      43.128  32.025  29.611  1.00  0.00     0.049 A 
ATOM     58  H   UNL A   1      42.543  30.094  28.996  1.00  0.00     0.167 HD
ATOM     59  C   UNL A   1      45.062  31.208  28.290  1.00  0.00     0.074 A 
ATOM     60  C   UNL A   1      46.362  31.377  27.671  1.00  0.00     0.031 C 
ATOM     61  C   UNL A   1      44.440  32.157  29.030  1.00  0.00     0.034 A 
BRANCH  48  62
ATOM     62  C   UNL A   1      38.792  30.575  30.988  1.00  0.00     0.023 A 
ATOM     63  C   UNL A   1      38.681  30.320  32.370  1.00  0.00     0.012 A 
ATOM     64  C   UNL A   1      37.749  31.255  30.326  1.00  0.00     0.148 A 
ATOM     65  C   UNL A   1      37.538  30.702  33.072  1.00  0.00     0.002 A 
ATOM     66  C   UNL A   1      36.634  31.673  31.043  1.00  0.00     0.091 A 
ATOM     67  F   UNL A   1      37.862  31.472  29.008  1.00  0.00    -0.205 F 
ATOM     68  C   UNL A   1      36.520  31.387  32.413  1.00  0.00     0.022 A 
BRANCH  66  69
ATOM     69  S   UNL A   1      35.308  32.631  30.300  1.00  0.00     0.127 S 
ATOM     70  O   UNL A   1      34.337  32.688  31.392  1.00  0.00    -0.237 OA
ATOM     71  O   UNL A   1      35.971  33.903  30.008  1.00  0.00    -0.237 OA
ATOM     72  O   UNL A   1      34.883  31.886  29.124  1.00  0.00    -0.744 OA
ENDBRANCH  66  69
ENDBRANCH  48  62
BRANCH  49  73
ATOM     73  C   UNL A   1      46.805  27.634  25.759  1.00  0.00     0.023 A 
ATOM     74  C   UNL A   1      46.808  27.883  24.374  1.00  0.00     0.012 A 
ATOM     75  C   UNL A   1      47.932  27.031  26.351  1.00  0.00     0.148 A 
ATOM     76  C   UNL A   1      47.902  27.516  23.588  1.00  0.00     0.002 A 
ATOM     77  C   UNL A   1      49.043  26.724  25.573  1.00  0.00     0.091 A 
ATOM     78  F   UNL A   1      47.905  26.787  27.669  1.00  0.00    -0.205 F 
ATOM     79  C   UNL A   1      49.023  26.948  24.190  1.00  0.00     0.022 A 
BRANCH  77  80
ATOM     80  S   UNL A   1      50.579  26.125  26.286  1.00  0.00     0.127 S 
ATOM     81  O   UNL A   1      51.423  25.981  25.103  1.00  0.00    -0.237 OA
ATOM     82  O   UNL A   1      50.949  27.226  27.176  1.00  0.00    -0.237 OA
ATOM     83  O   UNL A   1      50.237  24.887  26.975  1.00  0.00    -0.744 OA
ENDBRANCH  77  80
ENDBRANCH  49  73
BRANCH  61  84
ATOM     84  C   UNL A   1      45.173  33.454  29.250  1.00  0.00     0.023 A 
ATOM     85  C   UNL A   1      46.007  33.607  30.375  1.00  0.00     0.012 A 
ATOM     86  C   UNL A   1      45.084  34.496  28.307  1.00  0.00     0.148 A 
ATOM     87  C   UNL A   1      46.715  34.791  30.576  1.00  0.00     0.002 A 
ATOM     88  C   UNL A   1      45.831  35.654  28.488  1.00  0.00     0.091 A 
ATOM     89  F   UNL A   1      44.268  34.338  27.254  1.00  0.00    -0.205 F 
ATOM     90  C   UNL A   1      46.637  35.808  29.627  1.00  0.00     0.022 A 
BRANCH  88  91
ATOM     91  S   UNL A   1      45.868  36.974  27.271  1.00  0.00     0.127 S 
ATOM     92  O   UNL A   1      46.393  36.283  26.096  1.00  0.00    -0.237 OA
ATOM     93  O   UNL A   1      44.457  37.349  27.179  1.00  0.00    -0.237 OA
ATOM     94  O   UNL A   1      46.732  38.008  27.826  1.00  0.00    -0.744 OA
ENDBRANCH  88  91
ENDBRANCH  61  84
ENDBRANCH  35  36
ENDBRANCH  28  30
ENDBRANCH  27  28
ENDBRANCH  26  27
ENDBRANCH   1  26
TORSDOF 19
ENDMDL
MODEL 2
REMARK VINA RESULT:     -11.2      2.226      8.189
REMARK SMILES C/C(=N/OCc1ccccc1Nc1c(Cl)cccc1Cl)C(=O)OCCOC(=O)c1ccc(-c2c3nc(c(-c4cccc(S(=O)(=O)[O-])c4F)c4ccc([nH]4)c(-c4cccc(S(=O)(=O)[O-])c4F)c4nc(c(-c5cccc(S(=O)(=O)[O-])c5F)c5ccc2[nH]5)C=C4)C=C3)cc1
REMARK SMILES IDX 24 1 23 2 21 3 22 4 2 5 1 6 3 7 4 8 5 9 6 10 7 11 11 12 8 13
REMARK SMILES IDX 10 14 9 15 12 16 13 18 14 19 19 20 15 21 16 22 18 23 20 24
REMARK SMILES IDX 17 25 25 26 26 27 27 28 28 29 29 30 30 31 91 32 31 33 90 34
REMARK SMILES IDX 32 35 33 36 34 37 84 38 35 39 89 40 83 41 85 42 36 43 88 44
REMARK SMILES IDX 82 45 81 46 37 48 69 49 49 50 68 51 50 52 53 53 67 54 86 55
REMARK SMILES IDX 51 56 52 57 66 59 87 60 54 61 38 62 39 63 47 64 40 65 42 66
REMARK SMILES IDX 48 67 41 68 43 69 44 70 45 71 46 72 70 73 71 74 79 75 72 76
REMARK SMILES IDX 74 77 80 78 73 79 75 80 76 81 77 82 78 83 55 84 56 85 64 86
REMARK SMILES IDX 57 87 59 88 65 89 58 90 60 91 61 92 62 93 63 94
REMARK H PARENT 12 17 85 47 53 58
REMARK Flexibility Score: inf
ROOT
ATOM      1  C   UNL A   1      37.709  19.846  24.929  1.00  0.00     0.275 C 
ENDROOT
BRANCH   1   2
ATOM      2  O   UNL A   1      37.479  21.132  25.535  1.00  0.00    -0.458 OA
BRANCH   2   3
ATOM      3  C   UNL A   1      36.558  21.935  24.968  1.00  0.00     0.355 C 
ATOM      4  O   UNL A   1      36.059  21.828  23.865  1.00  0.00    -0.245 OA
BRANCH   3   5
ATOM      5  C   UNL A   1      36.080  22.998  25.957  1.00  0.00     0.161 C 
ATOM      6  C   UNL A   1      36.918  24.236  26.100  1.00  0.00     0.079 C 
ATOM      7  N   UNL A   1      35.045  22.885  26.732  1.00  0.00    -0.084 NA
BRANCH   7   8
ATOM      8  O   UNL A   1      34.537  21.585  26.713  1.00  0.00    -0.390 OA
BRANCH   8   9
ATOM      9  C   UNL A   1      33.135  21.656  26.434  1.00  0.00     0.302 C 
BRANCH   9  10
ATOM     10  C   UNL A   1      32.807  21.395  24.971  1.00  0.00     0.016 A 
ATOM     11  C   UNL A   1      32.631  20.075  24.502  1.00  0.00     0.009 A 
ATOM     12  C   UNL A   1      32.566  22.457  24.078  1.00  0.00     0.045 A 
ATOM     13  C   UNL A   1      32.259  19.799  23.189  1.00  0.00     0.001 A 
ATOM     14  C   UNL A   1      32.183  22.158  22.756  1.00  0.00     0.026 A 
ATOM     15  C   UNL A   1      32.036  20.845  22.312  1.00  0.00     0.002 A 
BRANCH  12  16
ATOM     16  N   UNL A   1      32.668  23.795  24.520  1.00  0.00    -0.353 N 
ATOM     17  H   UNL A   1      33.448  23.989  25.087  1.00  0.00     0.167 HD
BRANCH  16  18
ATOM     18  C   UNL A   1      31.820  24.898  24.271  1.00  0.00     0.076 A 
ATOM     19  C   UNL A   1      30.707  25.100  25.114  1.00  0.00     0.066 A 
ATOM     20  C   UNL A   1      32.068  25.864  23.277  1.00  0.00     0.066 A 
ATOM     21  Cl  UNL A   1      30.304  23.940  26.338  1.00  0.00    -0.082 Cl
ATOM     22  C   UNL A   1      29.901  26.235  25.001  1.00  0.00     0.023 A 
ATOM     23  C   UNL A   1      31.260  27.004  23.167  1.00  0.00     0.023 A 
ATOM     24  Cl  UNL A   1      33.304  25.670  22.078  1.00  0.00    -0.082 Cl
ATOM     25  C   UNL A   1      30.188  27.194  24.035  1.00  0.00     0.003 A 
ENDBRANCH  16  18
ENDBRANCH  12  16
ENDBRANCH   9  10
ENDBRANCH   8   9
ENDBRANCH   7   8
ENDBRANCH   3   5
ENDBRANCH   2   3
ENDBRANCH   1   2
BRANCH   1  26
ATOM     26  C   UNL A   1      39.060  19.301  25.396  1.00  0.00     0.275 C 
BRANCH  26  27
ATOM     27  O   UNL A   1      39.426  19.898  26.654  1.00  0.00    -0.458 OA
BRANCH  27  28
ATOM     28  C   UNL A   1      40.743  20.159  26.793  1.00  0.00     0.338 C 
ATOM     29  O   UNL A   1      41.683  19.428  26.521  1.00  0.00    -0.246 OA
BRANCH  28  30
ATOM     30  C   UNL A   1      40.931  21.558  27.178  1.00  0.00     0.060 A 
ATOM     31  C   UNL A   1      40.458  22.531  26.304  1.00  0.00     0.016 A 
ATOM     32  C   UNL A   1      41.700  21.911  28.280  1.00  0.00     0.016 A 
ATOM     33  C   UNL A   1      40.865  23.851  26.440  1.00  0.00     0.010 A 
ATOM     34  C   UNL A   1      42.007  23.260  28.486  1.00  0.00     0.010 A 
ATOM     35  C   UNL A   1      41.630  24.238  27.545  1.00  0.00    -0.014 A 
BRANCH  35  36
ATOM     36  C   UNL A   1      42.036  25.661  27.707  1.00  0.00     0.031 A 
ATOM     37  C   UNL A   1      43.377  26.129  27.210  1.00  0.00     0.074 A 
ATOM     38  C   UNL A   1      41.201  26.529  28.315  1.00  0.00     0.049 A 
ATOM     39  N   UNL A   1      43.971  27.279  27.400  1.00  0.00    -0.248 NA
ATOM     40  C   UNL A   1      44.162  25.177  26.407  1.00  0.00     0.031 C 
ATOM     41  C   UNL A   1      39.865  26.205  28.824  1.00  0.00     0.029 A 
ATOM     42  N   UNL A   1      41.357  27.857  28.621  1.00  0.00    -0.354 N 
ATOM     43  C   UNL A   1      45.223  27.163  26.808  1.00  0.00     0.074 A 
ATOM     44  C   UNL A   1      45.301  25.834  26.244  1.00  0.00     0.031 C 
ATOM     45  C   UNL A   1      39.321  27.303  29.369  1.00  0.00     0.029 A 
ATOM     46  C   UNL A   1      40.297  28.384  29.324  1.00  0.00     0.049 A 
ATOM     47  H   UNL A   1      42.148  28.382  28.363  1.00  0.00     0.167 HD
ATOM     48  C   UNL A   1      46.213  28.085  26.735  1.00  0.00     0.034 A 
ATOM     49  C   UNL A   1      40.143  29.584  29.914  1.00  0.00     0.034 A 
ATOM     50  C   UNL A   1      46.103  29.426  27.245  1.00  0.00     0.049 A 
ATOM     51  C   UNL A   1      41.258  30.585  29.823  1.00  0.00     0.074 A 
ATOM     52  C   UNL A   1      47.030  30.451  27.181  1.00  0.00     0.029 A 
ATOM     53  N   UNL A   1      44.996  29.931  27.913  1.00  0.00    -0.354 N 
ATOM     54  N   UNL A   1      42.412  30.478  29.211  1.00  0.00    -0.248 NA
ATOM     55  C   UNL A   1      41.044  31.877  30.488  1.00  0.00     0.031 C 
ATOM     56  C   UNL A   1      46.494  31.568  27.830  1.00  0.00     0.029 A 
ATOM     57  C   UNL A   1      45.220  31.249  28.273  1.00  0.00     0.049 A 
ATOM     58  H   UNL A   1      44.173  29.426  28.102  1.00  0.00     0.167 HD
ATOM     59  C   UNL A   1      43.052  31.698  29.391  1.00  0.00     0.074 A 
ATOM     60  C   UNL A   1      42.144  32.536  30.150  1.00  0.00     0.031 C 
ATOM     61  C   UNL A   1      44.285  32.084  28.984  1.00  0.00     0.034 A 
BRANCH  48  62
ATOM     62  C   UNL A   1      47.504  27.681  26.068  1.00  0.00     0.023 A 
ATOM     63  C   UNL A   1      48.550  27.128  26.833  1.00  0.00     0.012 A 
ATOM     64  C   UNL A   1      47.659  27.801  24.673  1.00  0.00     0.148 A 
ATOM     65  C   UNL A   1      49.743  26.735  26.226  1.00  0.00     0.002 A 
ATOM     66  C   UNL A   1      48.832  27.364  24.068  1.00  0.00     0.091 A 
ATOM     67  F   UNL A   1      46.662  28.348  23.962  1.00  0.00    -0.205 F 
ATOM     68  C   UNL A   1      49.880  26.842  24.844  1.00  0.00     0.022 A 
BRANCH  66  69
ATOM     69  S   UNL A   1      49.072  27.387  22.288  1.00  0.00     0.127 S 
ATOM     70  O   UNL A   1      50.524  27.535  22.188  1.00  0.00    -0.237 OA
ATOM     71  O   UNL A   1      48.565  26.073  21.891  1.00  0.00    -0.237 OA
ATOM     72  O   UNL A   1      48.293  28.512  21.791  1.00  0.00    -0.744 OA
ENDBRANCH  66  69
ENDBRANCH  48  62
BRANCH  49  73
ATOM     73  C   UNL A   1      38.877  29.899  30.636  1.00  0.00     0.023 A 
ATOM     74  C   UNL A   1      38.715  29.475  31.969  1.00  0.00     0.012 A 
ATOM     75  C   UNL A   1      37.854  30.651  30.026  1.00  0.00     0.148 A 
ATOM     76  C   UNL A   1      37.547  29.772  32.672  1.00  0.00     0.002 A 
ATOM     77  C   UNL A   1      36.720  30.997  30.752  1.00  0.00     0.091 A 
ATOM     78  F   UNL A   1      38.019  31.033  28.751  1.00  0.00    -0.205 F 
ATOM     79  C   UNL A   1      36.556  30.543  32.068  1.00  0.00     0.022 A 
BRANCH  77  80
ATOM     80  S   UNL A   1      35.463  32.103  30.101  1.00  0.00     0.127 S 
ATOM     81  O   UNL A   1      34.564  32.240  31.244  1.00  0.00    -0.237 OA
ATOM     82  O   UNL A   1      36.247  33.299  29.787  1.00  0.00    -0.237 OA
ATOM     83  O   UNL A   1      34.908  31.427  28.936  1.00  0.00    -0.744 OA
ENDBRANCH  77  80
ENDBRANCH  49  73
BRANCH  61  84
ATOM     84  C   UNL A   1      44.713  33.490  29.309  1.00  0.00     0.023 A 
ATOM     85  C   UNL A   1      45.333  33.767  30.544  1.00  0.00     0.012 A 
ATOM     86  C   UNL A   1      44.560  34.523  28.364  1.00  0.00     0.148 A 
ATOM     87  C   UNL A   1      45.761  35.058  30.846  1.00  0.00     0.002 A 
ATOM     88  C   UNL A   1      45.036  35.796  28.652  1.00  0.00     0.091 A 
ATOM     89  F   UNL A   1      43.950  34.242  27.203  1.00  0.00    -0.205 F 
ATOM     90  C   UNL A   1      45.625  36.069  29.897  1.00  0.00     0.022 A 
BRANCH  88  91
ATOM     91  S   UNL A   1      44.990  37.134  27.455  1.00  0.00     0.127 S 
ATOM     92  O   UNL A   1      45.869  36.625  26.404  1.00  0.00    -0.237 OA
ATOM     93  O   UNL A   1      43.572  37.179  27.096  1.00  0.00    -0.237 OA
ATOM     94  O   UNL A   1      45.473  38.317  28.155  1.00  0.00    -0.744 OA
ENDBRANCH  88  91
ENDBRANCH  61  84
ENDBRANCH  35  36
ENDBRANCH  28  30
ENDBRANCH  27  28
ENDBRANCH  26  27
ENDBRANCH   1  26
TORSDOF 19
ENDMDL
MODEL 3
REMARK VINA RESULT:     -11.2      1.385      7.650
REMARK SMILES C/C(=N/OCc1ccccc1Nc1c(Cl)cccc1Cl)C(=O)OCCOC(=O)c1ccc(-c2c3nc(c(-c4cccc(S(=O)(=O)[O-])c4F)c4ccc([nH]4)c(-c4cccc(S(=O)(=O)[O-])c4F)c4nc(c(-c5cccc(S(=O)(=O)[O-])c5F)c5ccc2[nH]5)C=C4)C=C3)cc1
REMARK SMILES IDX 24 1 23 2 21 3 22 4 2 5 1 6 3 7 4 8 5 9 6 10 7 11 11 12 8 13
REMARK SMILES IDX 10 14 9 15 12 16 13 18 14 19 19 20 15 21 16 22 18 23 20 24
REMARK SMILES IDX 17 25 25 26 26 27 27 28 28 29 29 30 30 31 91 32 31 33 90 34
REMARK SMILES IDX 32 35 33 36 34 37 84 38 35 39 89 40 83 41 85 42 36 43 88 44
REMARK SMILES IDX 82 45 81 46 37 48 69 49 49 50 68 51 50 52 53 53 67 54 86 55
REMARK SMILES IDX 51 56 52 57 66 59 87 60 54 61 38 62 39 63 47 64 40 65 42 66
REMARK SMILES IDX 48 67 41 68 43 69 44 70 45 71 46 72 70 73 71 74 79 75 72 76
REMARK SMILES IDX 74 77 80 78 73 79 75 80 76 81 77 82 78 83 55 84 56 85 64 86
REMARK SMILES IDX 57 87 59 88 65 89 58 90 60 91 61 92 62 93 63 94
REMARK H PARENT 12 17 85 47 53 58
REMARK Flexibility Score: inf
ROOT
ATOM      1  C   UNL A   1      35.668  20.253  25.024  1.00  0.00     0.275 C 
ENDROOT
BRANCH   1   2
ATOM      2  O   UNL A   1      35.290  21.591  25.397  1.00  0.00    -0.458 OA
BRANCH   2   3
ATOM      3  C   UNL A   1      34.568  22.307  24.513  1.00  0.00     0.355 C 
ATOM      4  O   UNL A   1      34.863  22.581  23.366  1.00  0.00    -0.245 OA
BRANCH   3   5
ATOM      5  C   UNL A   1      33.200  22.667  25.090  1.00  0.00     0.161 C 
ATOM      6  C   UNL A   1      32.130  21.615  25.045  1.00  0.00     0.079 C 
ATOM      7  N   UNL A   1      32.870  23.834  25.554  1.00  0.00    -0.084 NA
BRANCH   7   8
ATOM      8  O   UNL A   1      33.849  24.788  25.268  1.00  0.00    -0.390 OA
BRANCH   8   9
ATOM      9  C   UNL A   1      33.295  25.735  24.348  1.00  0.00     0.302 C 
BRANCH   9  10
ATOM     10  C   UNL A   1      33.157  27.129  24.944  1.00  0.00     0.016 A 
ATOM     11  C   UNL A   1      34.041  27.566  25.954  1.00  0.00     0.009 A 
ATOM     12  C   UNL A   1      32.221  28.049  24.434  1.00  0.00     0.045 A 
ATOM     13  C   UNL A   1      33.992  28.857  26.473  1.00  0.00     0.001 A 
ATOM     14  C   UNL A   1      32.192  29.353  24.965  1.00  0.00     0.026 A 
ATOM     15  C   UNL A   1      33.063  29.754  25.977  1.00  0.00     0.002 A 
BRANCH  12  16
ATOM     16  N   UNL A   1      31.358  27.675  23.379  1.00  0.00    -0.353 N 
ATOM     17  H   UNL A   1      31.802  27.276  22.597  1.00  0.00     0.167 HD
BRANCH  16  18
ATOM     18  C   UNL A   1      29.953  27.788  23.276  1.00  0.00     0.076 A 
ATOM     19  C   UNL A   1      29.147  26.799  23.878  1.00  0.00     0.066 A 
ATOM     20  C   UNL A   1      29.301  28.883  22.676  1.00  0.00     0.066 A 
ATOM     21  Cl  UNL A   1      29.865  25.397  24.604  1.00  0.00    -0.082 Cl
ATOM     22  C   UNL A   1      27.756  26.915  23.919  1.00  0.00     0.023 A 
ATOM     23  C   UNL A   1      27.905  28.999  22.721  1.00  0.00     0.023 A 
ATOM     24  Cl  UNL A   1      30.151  30.091  21.770  1.00  0.00    -0.082 Cl
ATOM     25  C   UNL A   1      27.137  28.024  23.352  1.00  0.00     0.003 A 
ENDBRANCH  16  18
ENDBRANCH  12  16
ENDBRANCH   9  10
ENDBRANCH   8   9
ENDBRANCH   7   8
ENDBRANCH   3   5
ENDBRANCH   2   3
ENDBRANCH   1   2
BRANCH   1  26
ATOM     26  C   UNL A   1      37.190  20.175  24.894  1.00  0.00     0.275 C 
BRANCH  26  27
ATOM     27  O   UNL A   1      37.793  21.369  25.427  1.00  0.00    -0.458 OA
BRANCH  27  28
ATOM     28  C   UNL A   1      38.968  21.174  26.063  1.00  0.00     0.338 C 
ATOM     29  O   UNL A   1      39.654  20.164  26.072  1.00  0.00    -0.246 OA
BRANCH  28  30
ATOM     30  C   UNL A   1      39.433  22.436  26.639  1.00  0.00     0.060 A 
ATOM     31  C   UNL A   1      38.785  23.599  26.238  1.00  0.00     0.016 A 
ATOM     32  C   UNL A   1      40.581  22.499  27.419  1.00  0.00     0.016 A 
ATOM     33  C   UNL A   1      39.354  24.840  26.490  1.00  0.00     0.010 A 
ATOM     34  C   UNL A   1      41.086  23.752  27.779  1.00  0.00     0.010 A 
ATOM     35  C   UNL A   1      40.504  24.935  27.282  1.00  0.00    -0.014 A 
BRANCH  35  36
ATOM     36  C   UNL A   1      41.092  26.269  27.580  1.00  0.00     0.031 A 
ATOM     37  C   UNL A   1      42.505  26.585  27.171  1.00  0.00     0.074 A 
ATOM     38  C   UNL A   1      40.358  27.192  28.235  1.00  0.00     0.049 A 
ATOM     39  N   UNL A   1      43.242  27.620  27.479  1.00  0.00    -0.248 NA
ATOM     40  C   UNL A   1      43.188  25.601  26.313  1.00  0.00     0.031 C 
ATOM     41  C   UNL A   1      38.969  27.018  28.670  1.00  0.00     0.029 A 
ATOM     42  N   UNL A   1      40.679  28.456  28.661  1.00  0.00    -0.354 N 
ATOM     43  C   UNL A   1      44.492  27.380  26.920  1.00  0.00     0.074 A 
ATOM     44  C   UNL A   1      44.412  26.103  26.246  1.00  0.00     0.031 C 
ATOM     45  C   UNL A   1      38.556  28.132  29.290  1.00  0.00     0.029 A 
ATOM     46  C   UNL A   1      39.671  29.066  29.372  1.00  0.00     0.049 A 
ATOM     47  H   UNL A   1      41.546  28.885  28.476  1.00  0.00     0.167 HD
ATOM     48  C   UNL A   1      45.601  28.157  26.961  1.00  0.00     0.034 A 
ATOM     49  C   UNL A   1      39.656  30.224  30.060  1.00  0.00     0.034 A 
ATOM     50  C   UNL A   1      45.652  29.454  27.583  1.00  0.00     0.049 A 
ATOM     51  C   UNL A   1      40.901  31.063  30.092  1.00  0.00     0.074 A 
ATOM     52  C   UNL A   1      46.712  30.342  27.639  1.00  0.00     0.029 A 
ATOM     53  N   UNL A   1      44.596  30.052  28.256  1.00  0.00    -0.354 N 
ATOM     54  N   UNL A   1      42.055  30.847  29.511  1.00  0.00    -0.248 NA
ATOM     55  C   UNL A   1      40.836  32.314  30.860  1.00  0.00     0.031 C 
ATOM     56  C   UNL A   1      46.305  31.465  28.365  1.00  0.00     0.029 A 
ATOM     57  C   UNL A   1      44.981  31.292  28.736  1.00  0.00     0.049 A 
ATOM     58  H   UNL A   1      43.703  29.653  28.373  1.00  0.00     0.167 HD
ATOM     59  C   UNL A   1      42.847  31.946  29.819  1.00  0.00     0.074 A 
ATOM     60  C   UNL A   1      42.029  32.838  30.617  1.00  0.00     0.031 C 
ATOM     61  C   UNL A   1      44.138  32.189  29.487  1.00  0.00     0.034 A 
BRANCH  48  62
ATOM     62  C   UNL A   1      46.852  27.633  26.304  1.00  0.00     0.023 A 
ATOM     63  C   UNL A   1      47.758  26.844  27.041  1.00  0.00     0.012 A 
ATOM     64  C   UNL A   1      47.103  27.879  24.939  1.00  0.00     0.148 A 
ATOM     65  C   UNL A   1      48.912  26.339  26.440  1.00  0.00     0.002 A 
ATOM     66  C   UNL A   1      48.231  27.333  24.336  1.00  0.00     0.091 A 
ATOM     67  F   UNL A   1      46.241  28.647  24.258  1.00  0.00    -0.205 F 
ATOM     68  C   UNL A   1      49.142  26.574  25.087  1.00  0.00     0.022 A 
BRANCH  66  69
ATOM     69  S   UNL A   1      48.573  27.512  22.581  1.00  0.00     0.127 S 
ATOM     70  O   UNL A   1      49.862  28.203  22.601  1.00  0.00    -0.237 OA
ATOM     71  O   UNL A   1      48.635  26.120  22.134  1.00  0.00    -0.237 OA
ATOM     72  O   UNL A   1      47.463  28.277  22.030  1.00  0.00    -0.744 OA
ENDBRANCH  66  69
ENDBRANCH  48  62
BRANCH  49  73
ATOM     73  C   UNL A   1      38.415  30.652  30.765  1.00  0.00     0.023 A 
ATOM     74  C   UNL A   1      38.262  30.367  32.134  1.00  0.00     0.012 A 
ATOM     75  C   UNL A   1      37.407  31.377  30.098  1.00  0.00     0.148 A 
ATOM     76  C   UNL A   1      37.116  30.772  32.821  1.00  0.00     0.002 A 
ATOM     77  C   UNL A   1      36.298  31.831  30.802  1.00  0.00     0.091 A 
ATOM     78  F   UNL A   1      37.562  31.626  28.790  1.00  0.00    -0.205 F 
ATOM     79  C   UNL A   1      36.142  31.515  32.158  1.00  0.00     0.022 A 
BRANCH  77  80
ATOM     80  S   UNL A   1      35.068  32.912  30.063  1.00  0.00     0.127 S 
ATOM     81  O   UNL A   1      34.425  32.021  29.102  1.00  0.00    -0.237 OA
ATOM     82  O   UNL A   1      34.245  33.267  31.220  1.00  0.00    -0.237 OA
ATOM     83  O   UNL A   1      35.815  34.027  29.495  1.00  0.00    -0.744 OA
ENDBRANCH  77  80
ENDBRANCH  49  73
BRANCH  61  84
ATOM     84  C   UNL A   1      44.740  33.489  29.948  1.00  0.00     0.023 A 
ATOM     85  C   UNL A   1      45.431  33.548  31.174  1.00  0.00     0.012 A 
ATOM     86  C   UNL A   1      44.674  34.637  29.134  1.00  0.00     0.148 A 
ATOM     87  C   UNL A   1      46.019  34.738  31.599  1.00  0.00     0.002 A 
ATOM     88  C   UNL A   1      45.306  35.806  29.541  1.00  0.00     0.091 A 
ATOM     89  F   UNL A   1      43.993  34.566  27.981  1.00  0.00    -0.205 F 
ATOM     90  C   UNL A   1      45.967  35.862  30.778  1.00  0.00     0.022 A 
BRANCH  88  91
ATOM     91  S   UNL A   1      45.373  37.273  28.507  1.00  0.00     0.127 S 
ATOM     92  O   UNL A   1      44.018  37.800  28.649  1.00  0.00    -0.237 OA
ATOM     93  O   UNL A   1      46.410  38.068  29.164  1.00  0.00    -0.237 OA
ATOM     94  O   UNL A   1      45.725  36.807  27.171  1.00  0.00    -0.744 OA
ENDBRANCH  88  91
ENDBRANCH  61  84
ENDBRANCH  35  36
ENDBRANCH  28  30
ENDBRANCH  27  28
ENDBRANCH  26  27
ENDBRANCH   1  26
TORSDOF 19
ENDMDL
