MODEL 1
REMARK VINA RESULT:     -11.2      0.000      0.000
REMARK SMILES Cc1cc(-n2cnc(C(=O)OCCOC(=O)c3ccc(-c4c5nc(c(-c6cccc(S(=O)(=O)[O-])c6F)c6ccc([nH]6)c(-c6cccc(S(=O)(=O)[O-])c6F)c6nc(c(-c7cccc(S(=O)(=O)[O-])c7F)c7ccc4[nH]7)C=C6)C=C5)cc3)c2)nc(Cl)n1
REMARK SMILES IDX 13 1 12 2 11 3 9 4 10 5 8 6 5 7 6 8 80 9 7 10 4 11 1 12 2 13
REMARK SMILES IDX 3 14 84 15 82 16 81 17 83 18 14 19 15 20 16 21 17 22 18 23
REMARK SMILES IDX 79 24 19 25 78 26 20 27 21 28 22 29 72 30 23 31 77 32 71 33
REMARK SMILES IDX 73 34 24 35 76 36 70 37 69 38 25 40 57 41 37 42 56 43 38 44
REMARK SMILES IDX 41 45 55 46 74 47 39 48 40 49 54 51 75 52 42 53 26 54 27 55
REMARK SMILES IDX 35 56 28 57 30 58 36 59 29 60 31 61 32 62 33 63 34 64 58 65
REMARK SMILES IDX 59 66 67 67 60 68 62 69 68 70 61 71 63 72 64 73 65 74 66 75
REMARK SMILES IDX 43 76 44 77 52 78 45 79 47 80 53 81 46 82 48 83 49 84 50 85
REMARK SMILES IDX 51 86
REMARK H PARENT 73 39 41 50
REMARK Flexibility Score: inf
ROOT
ATOM      1  C   UNL A   1      40.932  20.082  26.098  1.00  0.00     0.275 C 
ENDROOT
BRANCH   1   2
ATOM      2  C   UNL A   1      42.416  19.791  26.300  1.00  0.00     0.275 C 
BRANCH   2   3
ATOM      3  O   UNL A   1      43.026  19.259  25.111  1.00  0.00    -0.457 OA
BRANCH   3   4
ATOM      4  C   UNL A   1      44.386  19.421  25.004  1.00  0.00     0.358 C 
ATOM      5  O   UNL A   1      45.197  18.506  25.103  1.00  0.00    -0.244 OA
BRANCH   4   6
ATOM      6  C   UNL A   1      44.743  20.809  24.700  1.00  0.00     0.166 A 
ATOM      7  N   UNL A   1      45.398  22.900  24.918  1.00  0.00    -0.289 N 
ATOM      8  C   UNL A   1      44.823  22.713  23.688  1.00  0.00     0.206 A 
ATOM      9  C   UNL A   1      45.277  21.713  25.595  1.00  0.00     0.130 A 
ATOM     10  N   UNL A   1      44.510  21.447  23.491  1.00  0.00    -0.229 NA
BRANCH   7  11
ATOM     11  C   UNL A   1      46.068  24.054  25.383  1.00  0.00     0.143 A 
ATOM     12  C   UNL A   1      47.713  25.175  28.540  1.00  0.00     0.067 C 
ATOM     13  C   UNL A   1      47.152  25.167  27.150  1.00  0.00     0.044 A 
ATOM     14  C   UNL A   1      46.437  24.072  26.719  1.00  0.00     0.071 A 
ATOM     15  N   UNL A   1      47.411  26.212  26.347  1.00  0.00    -0.223 NA
ATOM     16  C   UNL A   1      46.984  26.095  25.076  1.00  0.00     0.224 A 
ATOM     17  N   UNL A   1      46.368  25.043  24.522  1.00  0.00    -0.200 NA
ATOM     18  Cl  UNL A   1      47.226  27.457  24.078  1.00  0.00    -0.041 Cl
ENDBRANCH   7  11
ENDBRANCH   4   6
ENDBRANCH   3   4
ENDBRANCH   2   3
ENDBRANCH   1   2
BRANCH   1  19
ATOM     19  O   UNL A   1      40.408  20.881  27.156  1.00  0.00    -0.458 OA
BRANCH  19  20
ATOM     20  C   UNL A   1      39.638  21.910  26.733  1.00  0.00     0.338 C 
ATOM     21  O   UNL A   1      38.577  21.832  26.132  1.00  0.00    -0.246 OA
BRANCH  20  22
ATOM     22  C   UNL A   1      40.366  23.165  26.891  1.00  0.00     0.060 A 
ATOM     23  C   UNL A   1      41.415  23.191  27.813  1.00  0.00     0.016 A 
ATOM     24  C   UNL A   1      39.773  24.331  26.389  1.00  0.00     0.016 A 
ATOM     25  C   UNL A   1      41.768  24.405  28.363  1.00  0.00     0.010 A 
ATOM     26  C   UNL A   1      40.103  25.533  26.961  1.00  0.00     0.010 A 
ATOM     27  C   UNL A   1      41.052  25.545  27.982  1.00  0.00    -0.014 A 
BRANCH  27  28
ATOM     28  C   UNL A   1      41.393  26.804  28.603  1.00  0.00     0.031 A 
ATOM     29  C   UNL A   1      42.721  27.311  28.189  1.00  0.00     0.074 A 
ATOM     30  C   UNL A   1      40.511  27.490  29.353  1.00  0.00     0.049 A 
ATOM     31  N   UNL A   1      43.777  27.456  28.918  1.00  0.00    -0.248 NA
ATOM     32  C   UNL A   1      42.943  27.522  26.748  1.00  0.00     0.031 C 
ATOM     33  C   UNL A   1      39.083  27.213  29.537  1.00  0.00     0.029 A 
ATOM     34  N   UNL A   1      40.680  28.678  29.992  1.00  0.00    -0.354 N 
ATOM     35  C   UNL A   1      44.726  28.009  28.063  1.00  0.00     0.074 A 
ATOM     36  C   UNL A   1      44.239  27.829  26.721  1.00  0.00     0.031 C 
ATOM     37  C   UNL A   1      38.479  28.323  30.021  1.00  0.00     0.029 A 
ATOM     38  C   UNL A   1      39.487  29.332  30.290  1.00  0.00     0.049 A 
ATOM     39  H   UNL A   1      41.565  29.042  30.222  1.00  0.00     0.167 HD
ATOM     40  C   UNL A   1      45.696  28.842  28.518  1.00  0.00     0.034 A 
ATOM     41  C   UNL A   1      39.368  30.641  30.625  1.00  0.00     0.034 A 
ATOM     42  C   UNL A   1      45.875  28.752  29.938  1.00  0.00     0.049 A 
ATOM     43  C   UNL A   1      40.709  31.085  31.080  1.00  0.00     0.074 A 
ATOM     44  C   UNL A   1      46.205  27.743  30.819  1.00  0.00     0.029 A 
ATOM     45  N   UNL A   1      45.316  29.756  30.687  1.00  0.00    -0.354 N 
ATOM     46  N   UNL A   1      41.304  30.643  32.153  1.00  0.00    -0.248 NA
ATOM     47  C   UNL A   1      41.568  31.757  30.117  1.00  0.00     0.031 C 
ATOM     48  C   UNL A   1      45.430  28.006  31.984  1.00  0.00     0.029 A 
ATOM     49  C   UNL A   1      44.700  29.177  31.763  1.00  0.00     0.049 A 
ATOM     50  H   UNL A   1      45.353  30.720  30.488  1.00  0.00     0.167 HD
ATOM     51  C   UNL A   1      42.648  30.597  31.809  1.00  0.00     0.074 A 
ATOM     52  C   UNL A   1      42.761  31.402  30.597  1.00  0.00     0.031 C 
ATOM     53  C   UNL A   1      43.487  29.679  32.369  1.00  0.00     0.034 A 
BRANCH  40  54
ATOM     54  C   UNL A   1      46.194  30.017  27.726  1.00  0.00     0.023 A 
ATOM     55  C   UNL A   1      47.584  30.229  27.654  1.00  0.00     0.012 A 
ATOM     56  C   UNL A   1      45.353  31.059  27.271  1.00  0.00     0.148 A 
ATOM     57  C   UNL A   1      48.109  31.423  27.146  1.00  0.00     0.002 A 
ATOM     58  C   UNL A   1      45.877  32.198  26.680  1.00  0.00     0.091 A 
ATOM     59  F   UNL A   1      44.041  31.020  27.537  1.00  0.00    -0.205 F 
ATOM     60  C   UNL A   1      47.256  32.399  26.638  1.00  0.00     0.022 A 
BRANCH  58  61
ATOM     61  S   UNL A   1      44.807  33.445  25.958  1.00  0.00     0.127 S 
ATOM     62  O   UNL A   1      45.775  34.320  25.306  1.00  0.00    -0.237 OA
ATOM     63  O   UNL A   1      43.982  32.645  25.052  1.00  0.00    -0.237 OA
ATOM     64  O   UNL A   1      44.072  34.015  27.081  1.00  0.00    -0.744 OA
ENDBRANCH  58  61
ENDBRANCH  40  54
BRANCH  41  65
ATOM     65  C   UNL A   1      38.295  31.624  30.311  1.00  0.00     0.023 A 
ATOM     66  C   UNL A   1      37.787  31.670  28.994  1.00  0.00     0.012 A 
ATOM     67  C   UNL A   1      37.564  32.294  31.318  1.00  0.00     0.148 A 
ATOM     68  C   UNL A   1      36.565  32.289  28.703  1.00  0.00     0.002 A 
ATOM     69  C   UNL A   1      36.357  32.925  31.021  1.00  0.00     0.091 A 
ATOM     70  F   UNL A   1      37.990  32.232  32.585  1.00  0.00    -0.205 F 
ATOM     71  C   UNL A   1      35.844  32.907  29.718  1.00  0.00     0.022 A 
BRANCH  69  72
ATOM     72  S   UNL A   1      35.378  33.749  32.286  1.00  0.00     0.127 S 
ATOM     73  O   UNL A   1      34.138  34.052  31.568  1.00  0.00    -0.237 OA
ATOM     74  O   UNL A   1      35.256  32.710  33.302  1.00  0.00    -0.237 OA
ATOM     75  O   UNL A   1      36.144  34.929  32.669  1.00  0.00    -0.744 OA
ENDBRANCH  69  72
ENDBRANCH  41  65
BRANCH  53  76
ATOM     76  C   UNL A   1      43.013  28.920  33.578  1.00  0.00     0.023 A 
ATOM     77  C   UNL A   1      42.136  27.821  33.475  1.00  0.00     0.012 A 
ATOM     78  C   UNL A   1      43.673  29.164  34.794  1.00  0.00     0.148 A 
ATOM     79  C   UNL A   1      41.934  26.971  34.566  1.00  0.00     0.002 A 
ATOM     80  C   UNL A   1      43.505  28.292  35.859  1.00  0.00     0.091 A 
ATOM     81  F   UNL A   1      44.510  30.211  34.855  1.00  0.00    -0.205 F 
ATOM     82  C   UNL A   1      42.633  27.196  35.752  1.00  0.00     0.022 A 
BRANCH  80  83
ATOM     83  S   UNL A   1      44.471  28.441  37.363  1.00  0.00     0.127 S 
ATOM     84  O   UNL A   1      44.001  27.297  38.144  1.00  0.00    -0.237 OA
ATOM     85  O   UNL A   1      45.840  28.318  36.861  1.00  0.00    -0.237 OA
ATOM     86  O   UNL A   1      44.151  29.746  37.929  1.00  0.00    -0.744 OA
ENDBRANCH  80  83
ENDBRANCH  53  76
ENDBRANCH  27  28
ENDBRANCH  20  22
ENDBRANCH  19  20
ENDBRANCH   1  19
TORSDOF 15
ENDMDL
MODEL 2
REMARK VINA RESULT:     -11.0      3.632     11.559
REMARK SMILES Cc1cc(-n2cnc(C(=O)OCCOC(=O)c3ccc(-c4c5nc(c(-c6cccc(S(=O)(=O)[O-])c6F)c6ccc([nH]6)c(-c6cccc(S(=O)(=O)[O-])c6F)c6nc(c(-c7cccc(S(=O)(=O)[O-])c7F)c7ccc4[nH]7)C=C6)C=C5)cc3)c2)nc(Cl)n1
REMARK SMILES IDX 13 1 12 2 11 3 9 4 10 5 8 6 5 7 6 8 80 9 7 10 4 11 1 12 2 13
REMARK SMILES IDX 3 14 84 15 82 16 81 17 83 18 14 19 15 20 16 21 17 22 18 23
REMARK SMILES IDX 79 24 19 25 78 26 20 27 21 28 22 29 72 30 23 31 77 32 71 33
REMARK SMILES IDX 73 34 24 35 76 36 70 37 69 38 25 40 57 41 37 42 56 43 38 44
REMARK SMILES IDX 41 45 55 46 74 47 39 48 40 49 54 51 75 52 42 53 26 54 27 55
REMARK SMILES IDX 35 56 28 57 30 58 36 59 29 60 31 61 32 62 33 63 34 64 58 65
REMARK SMILES IDX 59 66 67 67 60 68 62 69 68 70 61 71 63 72 64 73 65 74 66 75
REMARK SMILES IDX 43 76 44 77 52 78 45 79 47 80 53 81 46 82 48 83 49 84 50 85
REMARK SMILES IDX 51 86
REMARK H PARENT 73 39 41 50
REMARK Flexibility Score: inf
ROOT
ATOM      1  C   UNL A   1      33.820  32.921  28.199  1.00  0.00     0.275 C 
ENDROOT
BRANCH   1   2
ATOM      2  C   UNL A   1      33.661  34.429  28.366  1.00  0.00     0.275 C 
BRANCH   2   3
ATOM      3  O   UNL A   1      32.766  34.761  29.441  1.00  0.00    -0.457 OA
BRANCH   3   4
ATOM      4  C   UNL A   1      33.052  35.912  30.134  1.00  0.00     0.358 C 
ATOM      5  O   UNL A   1      32.730  37.036  29.763  1.00  0.00    -0.244 OA
BRANCH   4   6
ATOM      6  C   UNL A   1      33.736  35.626  31.397  1.00  0.00     0.166 A 
ATOM      7  N   UNL A   1      34.850  34.590  32.990  1.00  0.00    -0.289 N 
ATOM      8  C   UNL A   1      34.306  35.751  33.475  1.00  0.00     0.206 A 
ATOM      9  C   UNL A   1      34.423  34.467  31.692  1.00  0.00     0.130 A 
ATOM     10  N   UNL A   1      33.716  36.442  32.519  1.00  0.00    -0.229 NA
BRANCH   7  11
ATOM     11  C   UNL A   1      35.748  33.723  33.652  1.00  0.00     0.143 A 
ATOM     12  C   UNL A   1      37.310  33.462  37.031  1.00  0.00     0.067 C 
ATOM     13  C   UNL A   1      36.968  33.201  35.594  1.00  0.00     0.044 A 
ATOM     14  C   UNL A   1      36.150  34.086  34.927  1.00  0.00     0.071 A 
ATOM     15  N   UNL A   1      37.430  32.080  35.017  1.00  0.00    -0.223 NA
ATOM     16  C   UNL A   1      36.992  31.842  33.768  1.00  0.00     0.224 A 
ATOM     17  N   UNL A   1      36.124  32.575  33.059  1.00  0.00    -0.200 NA
ATOM     18  Cl  UNL A   1      37.649  30.470  32.995  1.00  0.00    -0.041 Cl
ENDBRANCH   7  11
ENDBRANCH   4   6
ENDBRANCH   3   4
ENDBRANCH   2   3
ENDBRANCH   1   2
BRANCH   1  19
ATOM     19  O   UNL A   1      35.190  32.551  28.064  1.00  0.00    -0.458 OA
BRANCH  19  20
ATOM     20  C   UNL A   1      35.640  31.751  29.057  1.00  0.00     0.338 C 
ATOM     21  O   UNL A   1      35.115  31.567  30.144  1.00  0.00    -0.246 OA
BRANCH  20  22
ATOM     22  C   UNL A   1      36.991  31.296  28.746  1.00  0.00     0.060 A 
ATOM     23  C   UNL A   1      37.125  30.063  28.102  1.00  0.00     0.016 A 
ATOM     24  C   UNL A   1      38.059  31.925  29.399  1.00  0.00     0.016 A 
ATOM     25  C   UNL A   1      38.309  29.374  28.254  1.00  0.00     0.010 A 
ATOM     26  C   UNL A   1      39.225  31.224  29.576  1.00  0.00     0.010 A 
ATOM     27  C   UNL A   1      39.311  29.935  29.053  1.00  0.00    -0.014 A 
BRANCH  27  28
ATOM     28  C   UNL A   1      40.528  29.182  29.251  1.00  0.00     0.031 A 
ATOM     29  C   UNL A   1      40.774  28.846  30.672  1.00  0.00     0.074 A 
ATOM     30  C   UNL A   1      41.256  28.721  28.218  1.00  0.00     0.049 A 
ATOM     31  N   UNL A   1      41.729  29.268  31.433  1.00  0.00    -0.248 NA
ATOM     32  C   UNL A   1      39.730  28.079  31.375  1.00  0.00     0.031 C 
ATOM     33  C   UNL A   1      40.903  28.733  26.795  1.00  0.00     0.029 A 
ATOM     34  N   UNL A   1      42.409  28.000  28.245  1.00  0.00    -0.354 N 
ATOM     35  C   UNL A   1      41.529  28.617  32.647  1.00  0.00     0.074 A 
ATOM     36  C   UNL A   1      40.194  28.080  32.623  1.00  0.00     0.031 C 
ATOM     37  C   UNL A   1      41.687  27.846  26.140  1.00  0.00     0.029 A 
ATOM     38  C   UNL A   1      42.663  27.302  27.067  1.00  0.00     0.049 A 
ATOM     39  H   UNL A   1      43.008  27.975  29.025  1.00  0.00     0.167 HD
ATOM     40  C   UNL A   1      42.565  28.300  33.464  1.00  0.00     0.034 A 
ATOM     41  C   UNL A   1      43.545  26.280  26.931  1.00  0.00     0.034 A 
ATOM     42  C   UNL A   1      43.755  29.038  33.154  1.00  0.00     0.049 A 
ATOM     43  C   UNL A   1      44.491  26.383  28.071  1.00  0.00     0.074 A 
ATOM     44  C   UNL A   1      44.089  30.376  33.104  1.00  0.00     0.029 A 
ATOM     45  N   UNL A   1      44.721  28.369  32.447  1.00  0.00    -0.354 N 
ATOM     46  N   UNL A   1      45.328  27.367  28.244  1.00  0.00    -0.248 NA
ATOM     47  C   UNL A   1      44.235  25.561  29.244  1.00  0.00     0.031 C 
ATOM     48  C   UNL A   1      44.987  30.489  32.005  1.00  0.00     0.029 A 
ATOM     49  C   UNL A   1      45.179  29.211  31.471  1.00  0.00     0.049 A 
ATOM     50  H   UNL A   1      45.031  27.449  32.612  1.00  0.00     0.167 HD
ATOM     51  C   UNL A   1      45.369  27.548  29.620  1.00  0.00     0.074 A 
ATOM     52  C   UNL A   1      44.776  26.339  30.183  1.00  0.00     0.031 C 
ATOM     53  C   UNL A   1      45.612  28.776  30.162  1.00  0.00     0.034 A 
BRANCH  40  54
ATOM     54  C   UNL A   1      42.603  27.035  34.275  1.00  0.00     0.023 A 
ATOM     55  C   UNL A   1      42.115  27.077  35.594  1.00  0.00     0.012 A 
ATOM     56  C   UNL A   1      43.328  25.885  33.886  1.00  0.00     0.148 A 
ATOM     57  C   UNL A   1      42.336  26.019  36.483  1.00  0.00     0.002 A 
ATOM     58  C   UNL A   1      43.462  24.800  34.737  1.00  0.00     0.091 A 
ATOM     59  F   UNL A   1      44.021  25.890  32.740  1.00  0.00    -0.205 F 
ATOM     60  C   UNL A   1      42.990  24.869  36.048  1.00  0.00     0.022 A 
BRANCH  58  61
ATOM     61  S   UNL A   1      44.242  23.279  34.187  1.00  0.00     0.127 S 
ATOM     62  O   UNL A   1      44.168  22.459  35.392  1.00  0.00    -0.237 OA
ATOM     63  O   UNL A   1      43.358  22.865  33.097  1.00  0.00    -0.237 OA
ATOM     64  O   UNL A   1      45.578  23.671  33.751  1.00  0.00    -0.744 OA
ENDBRANCH  58  61
ENDBRANCH  40  54
BRANCH  41  65
ATOM     65  C   UNL A   1      43.479  25.052  26.092  1.00  0.00     0.023 A 
ATOM     66  C   UNL A   1      44.469  24.856  25.105  1.00  0.00     0.012 A 
ATOM     67  C   UNL A   1      42.665  23.947  26.431  1.00  0.00     0.148 A 
ATOM     68  C   UNL A   1      44.692  23.597  24.533  1.00  0.00     0.002 A 
ATOM     69  C   UNL A   1      42.878  22.700  25.846  1.00  0.00     0.091 A 
ATOM     70  F   UNL A   1      41.748  24.083  27.397  1.00  0.00    -0.205 F 
ATOM     71  C   UNL A   1      43.904  22.516  24.913  1.00  0.00     0.022 A 
BRANCH  69  72
ATOM     72  S   UNL A   1      41.890  21.262  26.287  1.00  0.00     0.127 S 
ATOM     73  O   UNL A   1      42.181  21.113  27.714  1.00  0.00    -0.237 OA
ATOM     74  O   UNL A   1      40.537  21.716  25.984  1.00  0.00    -0.237 OA
ATOM     75  O   UNL A   1      42.397  20.171  25.462  1.00  0.00    -0.744 OA
ENDBRANCH  69  72
ENDBRANCH  41  65
BRANCH  53  76
ATOM     76  C   UNL A   1      46.131  29.864  29.262  1.00  0.00     0.023 A 
ATOM     77  C   UNL A   1      47.500  29.985  28.947  1.00  0.00     0.012 A 
ATOM     78  C   UNL A   1      45.186  30.599  28.527  1.00  0.00     0.148 A 
ATOM     79  C   UNL A   1      47.916  30.817  27.905  1.00  0.00     0.002 A 
ATOM     80  C   UNL A   1      45.599  31.389  27.464  1.00  0.00     0.091 A 
ATOM     81  F   UNL A   1      43.891  30.452  28.844  1.00  0.00    -0.205 F 
ATOM     82  C   UNL A   1      46.964  31.505  27.151  1.00  0.00     0.022 A 
BRANCH  80  83
ATOM     83  S   UNL A   1      44.425  32.190  26.369  1.00  0.00     0.127 S 
ATOM     84  O   UNL A   1      45.286  32.650  25.281  1.00  0.00    -0.237 OA
ATOM     85  O   UNL A   1      43.531  31.086  26.019  1.00  0.00    -0.237 OA
ATOM     86  O   UNL A   1      43.797  33.251  27.148  1.00  0.00    -0.744 OA
ENDBRANCH  80  83
ENDBRANCH  53  76
ENDBRANCH  27  28
ENDBRANCH  20  22
ENDBRANCH  19  20
ENDBRANCH   1  19
TORSDOF 15
ENDMDL
MODEL 3
REMARK VINA RESULT:     -10.9      3.602     11.472
REMARK SMILES Cc1cc(-n2cnc(C(=O)OCCOC(=O)c3ccc(-c4c5nc(c(-c6cccc(S(=O)(=O)[O-])c6F)c6ccc([nH]6)c(-c6cccc(S(=O)(=O)[O-])c6F)c6nc(c(-c7cccc(S(=O)(=O)[O-])c7F)c7ccc4[nH]7)C=C6)C=C5)cc3)c2)nc(Cl)n1
REMARK SMILES IDX 13 1 12 2 11 3 9 4 10 5 8 6 5 7 6 8 80 9 7 10 4 11 1 12 2 13
REMARK SMILES IDX 3 14 84 15 82 16 81 17 83 18 14 19 15 20 16 21 17 22 18 23
REMARK SMILES IDX 79 24 19 25 78 26 20 27 21 28 22 29 72 30 23 31 77 32 71 33
REMARK SMILES IDX 73 34 24 35 76 36 70 37 69 38 25 40 57 41 37 42 56 43 38 44
REMARK SMILES IDX 41 45 55 46 74 47 39 48 40 49 54 51 75 52 42 53 26 54 27 55
REMARK SMILES IDX 35 56 28 57 30 58 36 59 29 60 31 61 32 62 33 63 34 64 58 65
REMARK SMILES IDX 59 66 67 67 60 68 62 69 68 70 61 71 63 72 64 73 65 74 66 75
REMARK SMILES IDX 43 76 44 77 52 78 45 79 47 80 53 81 46 82 48 83 49 84 50 85
REMARK SMILES IDX 51 86
REMARK H PARENT 73 39 41 50
REMARK Flexibility Score: inf
ROOT
ATOM      1  C   UNL A   1      34.458  34.163  28.030  1.00  0.00     0.275 C 
ENDROOT
BRANCH   1   2
ATOM      2  C   UNL A   1      33.751  35.363  28.651  1.00  0.00     0.275 C 
BRANCH   2   3
ATOM      3  O   UNL A   1      32.824  34.970  29.677  1.00  0.00    -0.457 OA
BRANCH   3   4
ATOM      4  C   UNL A   1      32.923  35.640  30.872  1.00  0.00     0.358 C 
ATOM      5  O   UNL A   1      32.443  36.750  31.080  1.00  0.00    -0.244 OA
BRANCH   4   6
ATOM      6  C   UNL A   1      33.622  34.843  31.883  1.00  0.00     0.166 A 
ATOM      7  N   UNL A   1      35.211  33.830  33.024  1.00  0.00    -0.289 N 
ATOM      8  C   UNL A   1      33.981  33.374  33.423  1.00  0.00     0.206 A 
ATOM      9  C   UNL A   1      34.990  34.705  31.990  1.00  0.00     0.130 A 
ATOM     10  N   UNL A   1      33.007  34.034  32.827  1.00  0.00    -0.229 NA
BRANCH   7  11
ATOM     11  C   UNL A   1      36.464  33.537  33.607  1.00  0.00     0.143 A 
ATOM     12  C   UNL A   1      40.039  33.506  32.536  1.00  0.00     0.067 C 
ATOM     13  C   UNL A   1      38.795  33.343  33.358  1.00  0.00     0.044 A 
ATOM     14  C   UNL A   1      37.568  33.558  32.770  1.00  0.00     0.071 A 
ATOM     15  N   UNL A   1      38.920  33.041  34.660  1.00  0.00    -0.223 NA
ATOM     16  C   UNL A   1      37.778  33.026  35.370  1.00  0.00     0.224 A 
ATOM     17  N   UNL A   1      36.546  33.313  34.930  1.00  0.00    -0.200 NA
ATOM     18  Cl  UNL A   1      37.919  32.550  37.003  1.00  0.00    -0.041 Cl
ENDBRANCH   7  11
ENDBRANCH   4   6
ENDBRANCH   3   4
ENDBRANCH   2   3
ENDBRANCH   1   2
BRANCH   1  19
ATOM     19  O   UNL A   1      34.617  33.104  28.972  1.00  0.00    -0.458 OA
BRANCH  19  20
ATOM     20  C   UNL A   1      34.988  31.929  28.415  1.00  0.00     0.338 C 
ATOM     21  O   UNL A   1      34.403  31.321  27.531  1.00  0.00    -0.246 OA
BRANCH  20  22
ATOM     22  C   UNL A   1      36.085  31.346  29.181  1.00  0.00     0.060 A 
ATOM     23  C   UNL A   1      37.193  32.156  29.439  1.00  0.00     0.016 A 
ATOM     24  C   UNL A   1      36.124  29.951  29.308  1.00  0.00     0.016 A 
ATOM     25  C   UNL A   1      38.406  31.545  29.674  1.00  0.00     0.010 A 
ATOM     26  C   UNL A   1      37.338  29.345  29.510  1.00  0.00     0.010 A 
ATOM     27  C   UNL A   1      38.471  30.148  29.629  1.00  0.00    -0.014 A 
BRANCH  27  28
ATOM     28  C   UNL A   1      39.756  29.517  29.822  1.00  0.00     0.031 A 
ATOM     29  C   UNL A   1      40.280  29.687  31.197  1.00  0.00     0.074 A 
ATOM     30  C   UNL A   1      40.316  28.739  28.879  1.00  0.00     0.049 A 
ATOM     31  N   UNL A   1      41.323  30.350  31.572  1.00  0.00    -0.248 NA
ATOM     32  C   UNL A   1      39.441  29.196  32.304  1.00  0.00     0.031 C 
ATOM     33  C   UNL A   1      39.711  28.264  27.631  1.00  0.00     0.029 A 
ATOM     34  N   UNL A   1      41.505  28.080  28.917  1.00  0.00    -0.354 N 
ATOM     35  C   UNL A   1      41.396  30.148  32.947  1.00  0.00     0.074 A 
ATOM     36  C   UNL A   1      40.123  29.624  33.365  1.00  0.00     0.031 C 
ATOM     37  C   UNL A   1      40.426  27.214  27.168  1.00  0.00     0.029 A 
ATOM     38  C   UNL A   1      41.592  27.025  28.011  1.00  0.00     0.049 A 
ATOM     39  H   UNL A   1      42.236  28.326  29.527  1.00  0.00     0.167 HD
ATOM     40  C   UNL A   1      42.585  30.136  33.603  1.00  0.00     0.034 A 
ATOM     41  C   UNL A   1      42.508  26.025  28.052  1.00  0.00     0.034 A 
ATOM     42  C   UNL A   1      43.640  30.735  32.838  1.00  0.00     0.049 A 
ATOM     43  C   UNL A   1      43.634  26.517  28.884  1.00  0.00     0.074 A 
ATOM     44  C   UNL A   1      43.859  31.979  32.283  1.00  0.00     0.029 A 
ATOM     45  N   UNL A   1      44.508  29.873  32.218  1.00  0.00    -0.354 N 
ATOM     46  N   UNL A   1      44.414  27.508  28.554  1.00  0.00    -0.248 NA
ATOM     47  C   UNL A   1      43.658  26.140  30.289  1.00  0.00     0.031 C 
ATOM     48  C   UNL A   1      44.531  31.719  31.056  1.00  0.00     0.029 A 
ATOM     49  C   UNL A   1      44.717  30.338  30.949  1.00  0.00     0.049 A 
ATOM     50  H   UNL A   1      44.910  29.067  32.615  1.00  0.00     0.167 HD
ATOM     51  C   UNL A   1      44.691  28.146  29.755  1.00  0.00     0.074 A 
ATOM     52  C   UNL A   1      44.301  27.196  30.792  1.00  0.00     0.031 C 
ATOM     53  C   UNL A   1      44.936  29.487  29.800  1.00  0.00     0.034 A 
BRANCH  40  54
ATOM     54  C   UNL A   1      42.862  29.223  34.763  1.00  0.00     0.023 A 
ATOM     55  C   UNL A   1      43.459  29.772  35.913  1.00  0.00     0.012 A 
ATOM     56  C   UNL A   1      42.799  27.813  34.673  1.00  0.00     0.148 A 
ATOM     57  C   UNL A   1      43.966  28.952  36.928  1.00  0.00     0.002 A 
ATOM     58  C   UNL A   1      43.214  27.008  35.722  1.00  0.00     0.091 A 
ATOM     59  F   UNL A   1      42.472  27.233  33.511  1.00  0.00    -0.205 F 
ATOM     60  C   UNL A   1      43.823  27.570  36.844  1.00  0.00     0.022 A 
BRANCH  58  61
ATOM     61  S   UNL A   1      42.985  25.228  35.673  1.00  0.00     0.127 S 
ATOM     62  O   UNL A   1      41.537  25.122  35.532  1.00  0.00    -0.237 OA
ATOM     63  O   UNL A   1      43.755  24.858  34.485  1.00  0.00    -0.237 OA
ATOM     64  O   UNL A   1      43.552  24.735  36.924  1.00  0.00    -0.744 OA
ENDBRANCH  58  61
ENDBRANCH  40  54
BRANCH  41  65
ATOM     65  C   UNL A   1      42.382  24.584  27.698  1.00  0.00     0.023 A 
ATOM     66  C   UNL A   1      41.175  23.918  28.006  1.00  0.00     0.012 A 
ATOM     67  C   UNL A   1      43.278  23.940  26.816  1.00  0.00     0.148 A 
ATOM     68  C   UNL A   1      40.839  22.700  27.403  1.00  0.00     0.002 A 
ATOM     69  C   UNL A   1      42.948  22.718  26.232  1.00  0.00     0.091 A 
ATOM     70  F   UNL A   1      44.410  24.563  26.465  1.00  0.00    -0.205 F 
ATOM     71  C   UNL A   1      41.720  22.105  26.506  1.00  0.00     0.022 A 
BRANCH  69  72
ATOM     72  S   UNL A   1      44.046  21.892  25.070  1.00  0.00     0.127 S 
ATOM     73  O   UNL A   1      43.442  20.562  24.968  1.00  0.00    -0.237 OA
ATOM     74  O   UNL A   1      43.906  22.719  23.877  1.00  0.00    -0.237 OA
ATOM     75  O   UNL A   1      45.361  21.898  25.700  1.00  0.00    -0.744 OA
ENDBRANCH  69  72
ENDBRANCH  41  65
BRANCH  53  76
ATOM     76  C   UNL A   1      45.200  30.210  28.507  1.00  0.00     0.023 A 
ATOM     77  C   UNL A   1      44.155  30.697  27.695  1.00  0.00     0.012 A 
ATOM     78  C   UNL A   1      46.519  30.624  28.257  1.00  0.00     0.148 A 
ATOM     79  C   UNL A   1      44.425  31.595  26.659  1.00  0.00     0.002 A 
ATOM     80  C   UNL A   1      46.775  31.550  27.257  1.00  0.00     0.091 A 
ATOM     81  F   UNL A   1      47.488  30.152  29.057  1.00  0.00    -0.205 F 
ATOM     82  C   UNL A   1      45.732  32.036  26.452  1.00  0.00     0.022 A 
BRANCH  80  83
ATOM     83  S   UNL A   1      48.405  32.263  27.024  1.00  0.00     0.127 S 
ATOM     84  O   UNL A   1      49.202  31.093  26.661  1.00  0.00    -0.237 OA
ATOM     85  O   UNL A   1      48.173  33.209  25.933  1.00  0.00    -0.237 OA
ATOM     86  O   UNL A   1      48.766  32.883  28.294  1.00  0.00    -0.744 OA
ENDBRANCH  80  83
ENDBRANCH  53  76
ENDBRANCH  27  28
ENDBRANCH  20  22
ENDBRANCH  19  20
ENDBRANCH   1  19
TORSDOF 15
ENDMDL
