MODEL 1
REMARK VINA RESULT:     -12.1      0.000      0.000
REMARK SMILES Cc1ccc(CN(CC(=O)OCCOC(=O)c2ccc(-c3c4nc(c(-c5cccc(S(=O)(=O)[O-])c5F)c5ccc([nH]5)c(-c5cccc(S(=O)(=O)[O-])c5F)c5nc(c(-c6cccc(S(=O)(=O)[O-])c6F)c6ccc3[nH]6)C=C5)C=C4)cc2)C(=O)c2cc3c(s2)CCOC3)cc1
REMARK SMILES IDX 12 1 11 2 9 3 10 4 8 5 7 6 6 7 5 8 1 9 2 10 3 11 92 12 4 13
REMARK SMILES IDX 91 14 80 15 81 16 82 17 83 18 86 19 84 20 85 21 90 22 87 23
REMARK SMILES IDX 89 24 88 25 13 26 14 27 15 28 16 29 17 30 18 31 79 32 19 33
REMARK SMILES IDX 78 34 20 35 21 36 22 37 72 38 23 39 77 40 71 41 73 42 24 43
REMARK SMILES IDX 76 44 70 45 69 46 25 48 57 49 37 50 56 51 38 52 41 53 55 54
REMARK SMILES IDX 74 55 39 56 40 57 54 59 75 60 42 61 26 62 27 63 35 64 28 65
REMARK SMILES IDX 30 66 36 67 29 68 31 69 32 70 33 71 34 72 58 73 59 74 67 75
REMARK SMILES IDX 60 76 62 77 68 78 61 79 63 80 64 81 65 82 66 83 43 84 44 85
REMARK SMILES IDX 52 86 45 87 47 88 53 89 46 90 48 91 49 92 50 93 51 94
REMARK H PARENT 73 47 41 58
REMARK Flexibility Score: inf
ROOT
ATOM      1  C   UNL A   1      34.175  28.922  27.104  1.00  0.00     0.274 C 
ENDROOT
BRANCH   1   2
ATOM      2  O   UNL A   1      32.894  28.390  26.792  1.00  0.00    -0.461 OA
BRANCH   2   3
ATOM      3  C   UNL A   1      32.688  28.052  25.500  1.00  0.00     0.325 C 
ATOM      4  O   UNL A   1      33.549  28.112  24.633  1.00  0.00    -0.250 OA
BRANCH   3   5
ATOM      5  C   UNL A   1      31.187  27.848  25.300  1.00  0.00     0.242 C 
BRANCH   5   6
ATOM      6  N   UNL A   1      30.868  26.530  24.803  1.00  0.00    -0.323 N 
BRANCH   6   7
ATOM      7  C   UNL A   1      30.385  26.476  23.423  1.00  0.00     0.156 C 
BRANCH   7   8
ATOM      8  C   UNL A   1      29.708  27.740  22.959  1.00  0.00    -0.029 A 
ATOM      9  C   UNL A   1      27.979  31.555  21.946  1.00  0.00     0.044 C 
ATOM     10  C   UNL A   1      28.563  30.206  22.241  1.00  0.00    -0.051 A 
ATOM     11  C   UNL A   1      27.785  29.219  22.859  1.00  0.00     0.004 A 
ATOM     12  C   UNL A   1      29.899  29.932  21.939  1.00  0.00     0.004 A 
ATOM     13  C   UNL A   1      28.352  27.990  23.214  1.00  0.00     0.006 A 
ATOM     14  C   UNL A   1      30.463  28.709  22.289  1.00  0.00     0.006 A 
ENDBRANCH   7   8
ENDBRANCH   6   7
BRANCH   6  15
ATOM     15  C   UNL A   1      30.789  25.413  25.660  1.00  0.00     0.264 C 
ATOM     16  O   UNL A   1      30.036  25.430  26.634  1.00  0.00    -0.268 OA
BRANCH  15  17
ATOM     17  C   UNL A   1      31.566  24.203  25.336  1.00  0.00     0.093 A 
ATOM     18  C   UNL A   1      31.202  22.879  25.118  1.00  0.00     0.032 A 
ATOM     19  S   UNL A   1      33.256  24.403  25.066  1.00  0.00    -0.135 S 
ATOM     20  C   UNL A   1      32.324  22.006  24.876  1.00  0.00    -0.008 A 
ATOM     21  C   UNL A   1      33.483  22.746  24.812  1.00  0.00     0.013 A 
ATOM     22  C   UNL A   1      32.379  20.492  24.761  1.00  0.00     0.196 C 
ATOM     23  C   UNL A   1      34.810  22.105  24.578  1.00  0.00     0.075 C 
ATOM     24  O   UNL A   1      33.704  19.960  24.487  1.00  0.00    -0.376 OA
ATOM     25  C   UNL A   1      34.738  20.695  25.176  1.00  0.00     0.166 C 
ENDBRANCH  15  17
ENDBRANCH   6  15
ENDBRANCH   5   6
ENDBRANCH   3   5
ENDBRANCH   2   3
ENDBRANCH   1   2
BRANCH   1  26
ATOM     26  C   UNL A   1      34.255  30.471  27.121  1.00  0.00     0.275 C 
BRANCH  26  27
ATOM     27  O   UNL A   1      34.064  31.338  28.309  1.00  0.00    -0.458 OA
BRANCH  27  28
ATOM     28  C   UNL A   1      34.624  32.404  28.930  1.00  0.00     0.338 C 
ATOM     29  O   UNL A   1      34.052  33.484  29.092  1.00  0.00    -0.246 OA
BRANCH  28  30
ATOM     30  C   UNL A   1      35.928  32.257  29.487  1.00  0.00     0.060 A 
ATOM     31  C   UNL A   1      37.066  32.850  28.906  1.00  0.00     0.016 A 
ATOM     32  C   UNL A   1      35.972  31.506  30.635  1.00  0.00     0.016 A 
ATOM     33  C   UNL A   1      38.285  32.596  29.487  1.00  0.00     0.010 A 
ATOM     34  C   UNL A   1      37.081  31.599  31.394  1.00  0.00     0.010 A 
ATOM     35  C   UNL A   1      38.242  31.879  30.670  1.00  0.00    -0.014 A 
BRANCH  35  36
ATOM     36  C   UNL A   1      39.250  30.901  31.020  1.00  0.00     0.031 A 
ATOM     37  C   UNL A   1      39.237  29.693  30.223  1.00  0.00     0.074 A 
ATOM     38  C   UNL A   1      40.275  31.539  31.641  1.00  0.00     0.049 A 
ATOM     39  N   UNL A   1      39.582  28.534  30.660  1.00  0.00    -0.248 NA
ATOM     40  C   UNL A   1      38.651  29.676  28.877  1.00  0.00     0.031 C 
ATOM     41  C   UNL A   1      41.704  31.505  31.394  1.00  0.00     0.029 A 
ATOM     42  N   UNL A   1      40.128  32.608  32.535  1.00  0.00    -0.354 N 
ATOM     43  C   UNL A   1      39.756  27.809  29.504  1.00  0.00     0.074 A 
ATOM     44  C   UNL A   1      38.850  28.401  28.546  1.00  0.00     0.031 C 
ATOM     45  C   UNL A   1      42.315  32.318  32.285  1.00  0.00     0.029 A 
ATOM     46  C   UNL A   1      41.312  32.823  33.223  1.00  0.00     0.049 A 
ATOM     47  H   UNL A   1      39.302  33.131  32.656  1.00  0.00     0.167 HD
ATOM     48  C   UNL A   1      40.982  27.255  29.268  1.00  0.00     0.034 A 
ATOM     49  C   UNL A   1      41.320  32.707  34.582  1.00  0.00     0.034 A 
ATOM     50  C   UNL A   1      41.960  27.695  30.298  1.00  0.00     0.049 A 
ATOM     51  C   UNL A   1      41.816  31.311  34.927  1.00  0.00     0.074 A 
ATOM     52  C   UNL A   1      43.067  28.528  30.251  1.00  0.00     0.029 A 
ATOM     53  N   UNL A   1      41.693  27.503  31.651  1.00  0.00    -0.354 N 
ATOM     54  N   UNL A   1      42.162  30.417  34.042  1.00  0.00    -0.248 NA
ATOM     55  C   UNL A   1      41.957  30.813  36.288  1.00  0.00     0.031 C 
ATOM     56  C   UNL A   1      43.460  28.828  31.590  1.00  0.00     0.029 A 
ATOM     57  C   UNL A   1      42.588  28.193  32.457  1.00  0.00     0.049 A 
ATOM     58  H   UNL A   1      40.958  26.945  31.995  1.00  0.00     0.167 HD
ATOM     59  C   UNL A   1      42.383  29.213  34.642  1.00  0.00     0.074 A 
ATOM     60  C   UNL A   1      42.346  29.545  36.059  1.00  0.00     0.031 C 
ATOM     61  C   UNL A   1      42.509  28.056  33.914  1.00  0.00     0.034 A 
BRANCH  48  62
ATOM     62  C   UNL A   1      41.420  26.611  27.962  1.00  0.00     0.023 A 
ATOM     63  C   UNL A   1      41.563  27.475  26.856  1.00  0.00     0.012 A 
ATOM     64  C   UNL A   1      41.768  25.256  27.734  1.00  0.00     0.148 A 
ATOM     65  C   UNL A   1      41.952  27.026  25.591  1.00  0.00     0.002 A 
ATOM     66  C   UNL A   1      42.114  24.795  26.460  1.00  0.00     0.091 A 
ATOM     67  F   UNL A   1      41.859  24.401  28.752  1.00  0.00    -0.205 F 
ATOM     68  C   UNL A   1      42.208  25.681  25.386  1.00  0.00     0.022 A 
BRANCH  66  69
ATOM     69  S   UNL A   1      42.446  23.057  26.111  1.00  0.00     0.127 S 
ATOM     70  O   UNL A   1      42.835  23.095  24.700  1.00  0.00    -0.237 OA
ATOM     71  O   UNL A   1      43.538  22.754  27.034  1.00  0.00    -0.237 OA
ATOM     72  O   UNL A   1      41.199  22.343  26.361  1.00  0.00    -0.744 OA
ENDBRANCH  66  69
ENDBRANCH  48  62
BRANCH  49  73
ATOM     73  C   UNL A   1      40.124  33.387  35.209  1.00  0.00     0.023 A 
ATOM     74  C   UNL A   1      38.905  32.662  35.231  1.00  0.00     0.012 A 
ATOM     75  C   UNL A   1      40.285  34.435  36.132  1.00  0.00     0.148 A 
ATOM     76  C   UNL A   1      37.950  32.876  36.234  1.00  0.00     0.002 A 
ATOM     77  C   UNL A   1      39.354  34.605  37.160  1.00  0.00     0.091 A 
ATOM     78  F   UNL A   1      41.406  35.165  36.092  1.00  0.00    -0.205 F 
ATOM     79  C   UNL A   1      38.198  33.817  37.228  1.00  0.00     0.022 A 
BRANCH  77  80
ATOM     80  S   UNL A   1      39.773  35.674  38.544  1.00  0.00     0.127 S 
ATOM     81  O   UNL A   1      39.605  37.021  37.998  1.00  0.00    -0.237 OA
ATOM     82  O   UNL A   1      38.779  35.317  39.547  1.00  0.00    -0.237 OA
ATOM     83  O   UNL A   1      41.153  35.292  38.819  1.00  0.00    -0.744 OA
ENDBRANCH  77  80
ENDBRANCH  49  73
BRANCH  61  84
ATOM     84  C   UNL A   1      42.561  26.654  34.499  1.00  0.00     0.023 A 
ATOM     85  C   UNL A   1      41.523  26.116  35.279  1.00  0.00     0.012 A 
ATOM     86  C   UNL A   1      43.630  25.771  34.181  1.00  0.00     0.148 A 
ATOM     87  C   UNL A   1      41.578  24.815  35.790  1.00  0.00     0.002 A 
ATOM     88  C   UNL A   1      43.605  24.437  34.566  1.00  0.00     0.091 A 
ATOM     89  F   UNL A   1      44.711  26.222  33.528  1.00  0.00    -0.205 F 
ATOM     90  C   UNL A   1      42.605  23.966  35.413  1.00  0.00     0.022 A 
BRANCH  88  91
ATOM     91  S   UNL A   1      44.762  23.250  33.873  1.00  0.00     0.127 S 
ATOM     92  O   UNL A   1      44.328  22.004  34.501  1.00  0.00    -0.237 OA
ATOM     93  O   UNL A   1      44.478  23.342  32.439  1.00  0.00    -0.237 OA
ATOM     94  O   UNL A   1      46.083  23.735  34.250  1.00  0.00    -0.744 OA
ENDBRANCH  88  91
ENDBRANCH  61  84
ENDBRANCH  35  36
ENDBRANCH  28  30
ENDBRANCH  27  28
ENDBRANCH  26  27
ENDBRANCH   1  26
TORSDOF 19
ENDMDL
MODEL 2
REMARK VINA RESULT:     -11.9      5.080     10.628
REMARK SMILES Cc1ccc(CN(CC(=O)OCCOC(=O)c2ccc(-c3c4nc(c(-c5cccc(S(=O)(=O)[O-])c5F)c5ccc([nH]5)c(-c5cccc(S(=O)(=O)[O-])c5F)c5nc(c(-c6cccc(S(=O)(=O)[O-])c6F)c6ccc3[nH]6)C=C5)C=C4)cc2)C(=O)c2cc3c(s2)CCOC3)cc1
REMARK SMILES IDX 12 1 11 2 9 3 10 4 8 5 7 6 6 7 5 8 1 9 2 10 3 11 92 12 4 13
REMARK SMILES IDX 91 14 80 15 81 16 82 17 83 18 86 19 84 20 85 21 90 22 87 23
REMARK SMILES IDX 89 24 88 25 13 26 14 27 15 28 16 29 17 30 18 31 79 32 19 33
REMARK SMILES IDX 78 34 20 35 21 36 22 37 72 38 23 39 77 40 71 41 73 42 24 43
REMARK SMILES IDX 76 44 70 45 69 46 25 48 57 49 37 50 56 51 38 52 41 53 55 54
REMARK SMILES IDX 74 55 39 56 40 57 54 59 75 60 42 61 26 62 27 63 35 64 28 65
REMARK SMILES IDX 30 66 36 67 29 68 31 69 32 70 33 71 34 72 58 73 59 74 67 75
REMARK SMILES IDX 60 76 62 77 68 78 61 79 63 80 64 81 65 82 66 83 43 84 44 85
REMARK SMILES IDX 52 86 45 87 47 88 53 89 46 90 48 91 49 92 50 93 51 94
REMARK H PARENT 73 47 41 58
REMARK Flexibility Score: inf
ROOT
ATOM      1  C   UNL A   1      38.483  23.119  26.044  1.00  0.00     0.274 C 
ENDROOT
BRANCH   1   2
ATOM      2  O   UNL A   1      37.478  22.586  25.191  1.00  0.00    -0.461 OA
BRANCH   2   3
ATOM      3  C   UNL A   1      36.455  23.413  24.883  1.00  0.00     0.325 C 
ATOM      4  O   UNL A   1      36.068  24.318  25.610  1.00  0.00    -0.250 OA
BRANCH   3   5
ATOM      5  C   UNL A   1      35.754  22.855  23.647  1.00  0.00     0.242 C 
BRANCH   5   6
ATOM      6  N   UNL A   1      34.319  23.015  23.703  1.00  0.00    -0.323 N 
BRANCH   6   7
ATOM      7  C   UNL A   1      33.640  22.254  24.751  1.00  0.00     0.156 C 
BRANCH   7   8
ATOM      8  C   UNL A   1      33.550  20.775  24.476  1.00  0.00    -0.029 A 
ATOM      9  C   UNL A   1      33.602  16.602  23.399  1.00  0.00     0.044 C 
ATOM     10  C   UNL A   1      33.552  18.038  23.828  1.00  0.00    -0.051 A 
ATOM     11  C   UNL A   1      32.486  18.857  23.433  1.00  0.00     0.004 A 
ATOM     12  C   UNL A   1      34.588  18.586  24.590  1.00  0.00     0.004 A 
ATOM     13  C   UNL A   1      32.482  20.218  23.758  1.00  0.00     0.006 A 
ATOM     14  C   UNL A   1      34.582  19.939  24.916  1.00  0.00     0.006 A 
ENDBRANCH   7   8
ENDBRANCH   6   7
BRANCH   6  15
ATOM     15  C   UNL A   1      33.604  23.659  22.672  1.00  0.00     0.264 C 
ATOM     16  O   UNL A   1      33.641  23.218  21.522  1.00  0.00    -0.268 OA
BRANCH  15  17
ATOM     17  C   UNL A   1      32.759  24.821  23.000  1.00  0.00     0.093 A 
ATOM     18  C   UNL A   1      31.385  24.979  23.134  1.00  0.00     0.032 A 
ATOM     19  S   UNL A   1      33.566  26.289  23.402  1.00  0.00    -0.135 S 
ATOM     20  C   UNL A   1      30.987  26.335  23.421  1.00  0.00    -0.008 A 
ATOM     21  C   UNL A   1      32.105  27.119  23.602  1.00  0.00     0.013 A 
ATOM     22  C   UNL A   1      29.603  26.958  23.475  1.00  0.00     0.196 C 
ATOM     23  C   UNL A   1      32.000  28.576  23.906  1.00  0.00     0.075 C 
ATOM     24  O   UNL A   1      29.595  28.370  23.824  1.00  0.00    -0.376 OA
ATOM     25  C   UNL A   1      30.711  29.080  23.245  1.00  0.00     0.166 C 
ENDBRANCH  15  17
ENDBRANCH   6  15
ENDBRANCH   5   6
ENDBRANCH   3   5
ENDBRANCH   2   3
ENDBRANCH   1   2
BRANCH   1  26
ATOM     26  C   UNL A   1      39.516  22.088  26.566  1.00  0.00     0.275 C 
BRANCH  26  27
ATOM     27  O   UNL A   1      40.696  21.585  25.820  1.00  0.00    -0.458 OA
BRANCH  27  28
ATOM     28  C   UNL A   1      42.049  21.572  25.886  1.00  0.00     0.338 C 
ATOM     29  O   UNL A   1      42.750  20.656  25.451  1.00  0.00    -0.246 OA
BRANCH  28  30
ATOM     30  C   UNL A   1      42.714  22.709  26.432  1.00  0.00     0.060 A 
ATOM     31  C   UNL A   1      43.113  22.771  27.782  1.00  0.00     0.016 A 
ATOM     32  C   UNL A   1      42.939  23.721  25.532  1.00  0.00     0.016 A 
ATOM     33  C   UNL A   1      43.691  23.937  28.223  1.00  0.00     0.010 A 
ATOM     34  C   UNL A   1      43.840  24.663  25.871  1.00  0.00     0.010 A 
ATOM     35  C   UNL A   1      43.936  24.887  27.247  1.00  0.00    -0.014 A 
BRANCH  35  36
ATOM     36  C   UNL A   1      43.793  26.306  27.493  1.00  0.00     0.031 A 
ATOM     37  C   UNL A   1      42.442  26.815  27.388  1.00  0.00     0.074 A 
ATOM     38  C   UNL A   1      44.837  26.719  28.256  1.00  0.00     0.049 A 
ATOM     39  N   UNL A   1      42.145  28.004  27.000  1.00  0.00    -0.248 NA
ATOM     40  C   UNL A   1      41.281  25.931  27.559  1.00  0.00     0.031 C 
ATOM     41  C   UNL A   1      44.869  27.487  29.487  1.00  0.00     0.029 A 
ATOM     42  N   UNL A   1      46.152  26.252  28.133  1.00  0.00    -0.354 N 
ATOM     43  C   UNL A   1      40.836  28.140  27.403  1.00  0.00     0.074 A 
ATOM     44  C   UNL A   1      40.290  26.803  27.375  1.00  0.00     0.031 C 
ATOM     45  C   UNL A   1      46.158  27.644  29.863  1.00  0.00     0.029 A 
ATOM     46  C   UNL A   1      47.021  27.082  28.825  1.00  0.00     0.049 A 
ATOM     47  H   UNL A   1      46.420  25.450  27.629  1.00  0.00     0.167 HD
ATOM     48  C   UNL A   1      40.529  29.154  28.265  1.00  0.00     0.034 A 
ATOM     49  C   UNL A   1      48.013  27.722  28.140  1.00  0.00     0.034 A 
ATOM     50  C   UNL A   1      41.765  29.845  28.720  1.00  0.00     0.049 A 
ATOM     51  C   UNL A   1      47.527  29.127  27.822  1.00  0.00     0.074 A 
ATOM     52  C   UNL A   1      42.420  29.899  29.941  1.00  0.00     0.029 A 
ATOM     53  N   UNL A   1      42.659  30.372  27.792  1.00  0.00    -0.354 N 
ATOM     54  N   UNL A   1      46.358  29.594  28.166  1.00  0.00    -0.248 NA
ATOM     55  C   UNL A   1      48.313  30.112  27.092  1.00  0.00     0.031 C 
ATOM     56  C   UNL A   1      43.712  30.468  29.732  1.00  0.00     0.029 A 
ATOM     57  C   UNL A   1      43.856  30.749  28.385  1.00  0.00     0.049 A 
ATOM     58  H   UNL A   1      42.465  30.467  26.831  1.00  0.00     0.167 HD
ATOM     59  C   UNL A   1      46.139  30.808  27.585  1.00  0.00     0.074 A 
ATOM     60  C   UNL A   1      47.439  31.132  27.012  1.00  0.00     0.031 C 
ATOM     61  C   UNL A   1      44.897  31.391  27.577  1.00  0.00     0.034 A 
BRANCH  48  62
ATOM     62  C   UNL A   1      39.198  29.329  28.979  1.00  0.00     0.023 A 
ATOM     63  C   UNL A   1      38.052  29.397  28.159  1.00  0.00     0.012 A 
ATOM     64  C   UNL A   1      38.959  29.366  30.376  1.00  0.00     0.148 A 
ATOM     65  C   UNL A   1      36.763  29.563  28.674  1.00  0.00     0.002 A 
ATOM     66  C   UNL A   1      37.677  29.577  30.893  1.00  0.00     0.091 A 
ATOM     67  F   UNL A   1      39.944  29.112  31.237  1.00  0.00    -0.205 F 
ATOM     68  C   UNL A   1      36.576  29.675  30.042  1.00  0.00     0.022 A 
BRANCH  66  69
ATOM     69  S   UNL A   1      37.356  29.749  32.660  1.00  0.00     0.127 S 
ATOM     70  O   UNL A   1      37.333  28.355  33.105  1.00  0.00    -0.237 OA
ATOM     71  O   UNL A   1      38.517  30.513  33.116  1.00  0.00    -0.237 OA
ATOM     72  O   UNL A   1      36.072  30.430  32.779  1.00  0.00    -0.744 OA
ENDBRANCH  66  69
ENDBRANCH  48  62
BRANCH  49  73
ATOM     73  C   UNL A   1      48.707  26.797  27.166  1.00  0.00     0.023 A 
ATOM     74  C   UNL A   1      48.054  26.552  25.930  1.00  0.00     0.012 A 
ATOM     75  C   UNL A   1      50.093  26.576  27.234  1.00  0.00     0.148 A 
ATOM     76  C   UNL A   1      48.781  26.245  24.772  1.00  0.00     0.002 A 
ATOM     77  C   UNL A   1      50.816  26.324  26.065  1.00  0.00     0.091 A 
ATOM     78  F   UNL A   1      50.718  26.751  28.405  1.00  0.00    -0.205 F 
ATOM     79  C   UNL A   1      50.170  26.179  24.831  1.00  0.00     0.022 A 
BRANCH  77  80
ATOM     80  S   UNL A   1      52.610  26.439  26.112  1.00  0.00     0.127 S 
ATOM     81  O   UNL A   1      52.853  27.721  26.772  1.00  0.00    -0.237 OA
ATOM     82  O   UNL A   1      52.991  25.283  26.913  1.00  0.00    -0.237 OA
ATOM     83  O   UNL A   1      52.956  26.402  24.696  1.00  0.00    -0.744 OA
ENDBRANCH  77  80
ENDBRANCH  49  73
BRANCH  61  84
ATOM     84  C   UNL A   1      44.518  32.637  26.793  1.00  0.00     0.023 A 
ATOM     85  C   UNL A   1      44.284  32.622  25.408  1.00  0.00     0.012 A 
ATOM     86  C   UNL A   1      44.270  33.870  27.458  1.00  0.00     0.148 A 
ATOM     87  C   UNL A   1      43.914  33.773  24.705  1.00  0.00     0.002 A 
ATOM     88  C   UNL A   1      43.759  34.967  26.779  1.00  0.00     0.091 A 
ATOM     89  F   UNL A   1      44.561  34.009  28.759  1.00  0.00    -0.205 F 
ATOM     90  C   UNL A   1      43.626  34.940  25.393  1.00  0.00     0.022 A 
BRANCH  88  91
ATOM     91  S   UNL A   1      43.116  36.391  27.667  1.00  0.00     0.127 S 
ATOM     92  O   UNL A   1      44.342  37.029  28.140  1.00  0.00    -0.237 OA
ATOM     93  O   UNL A   1      42.414  37.124  26.612  1.00  0.00    -0.237 OA
ATOM     94  O   UNL A   1      42.240  35.840  28.693  1.00  0.00    -0.744 OA
ENDBRANCH  88  91
ENDBRANCH  61  84
ENDBRANCH  35  36
ENDBRANCH  28  30
ENDBRANCH  27  28
ENDBRANCH  26  27
ENDBRANCH   1  26
TORSDOF 19
ENDMDL
MODEL 3
REMARK VINA RESULT:     -11.8      1.981      2.735
REMARK SMILES Cc1ccc(CN(CC(=O)OCCOC(=O)c2ccc(-c3c4nc(c(-c5cccc(S(=O)(=O)[O-])c5F)c5ccc([nH]5)c(-c5cccc(S(=O)(=O)[O-])c5F)c5nc(c(-c6cccc(S(=O)(=O)[O-])c6F)c6ccc3[nH]6)C=C5)C=C4)cc2)C(=O)c2cc3c(s2)CCOC3)cc1
REMARK SMILES IDX 12 1 11 2 9 3 10 4 8 5 7 6 6 7 5 8 1 9 2 10 3 11 92 12 4 13
REMARK SMILES IDX 91 14 80 15 81 16 82 17 83 18 86 19 84 20 85 21 90 22 87 23
REMARK SMILES IDX 89 24 88 25 13 26 14 27 15 28 16 29 17 30 18 31 79 32 19 33
REMARK SMILES IDX 78 34 20 35 21 36 22 37 72 38 23 39 77 40 71 41 73 42 24 43
REMARK SMILES IDX 76 44 70 45 69 46 25 48 57 49 37 50 56 51 38 52 41 53 55 54
REMARK SMILES IDX 74 55 39 56 40 57 54 59 75 60 42 61 26 62 27 63 35 64 28 65
REMARK SMILES IDX 30 66 36 67 29 68 31 69 32 70 33 71 34 72 58 73 59 74 67 75
REMARK SMILES IDX 60 76 62 77 68 78 61 79 63 80 64 81 65 82 66 83 43 84 44 85
REMARK SMILES IDX 52 86 45 87 47 88 53 89 46 90 48 91 49 92 50 93 51 94
REMARK H PARENT 73 47 41 58
REMARK Flexibility Score: inf
ROOT
ATOM      1  C   UNL A   1      35.310  31.801  27.849  1.00  0.00     0.274 C 
ENDROOT
BRANCH   1   2
ATOM      2  O   UNL A   1      34.740  30.543  28.186  1.00  0.00    -0.461 OA
BRANCH   2   3
ATOM      3  C   UNL A   1      34.238  29.822  27.160  1.00  0.00     0.325 C 
ATOM      4  O   UNL A   1      34.916  29.116  26.425  1.00  0.00    -0.250 OA
BRANCH   3   5
ATOM      5  C   UNL A   1      32.786  30.249  26.950  1.00  0.00     0.242 C 
BRANCH   5   6
ATOM      6  N   UNL A   1      31.984  29.210  26.347  1.00  0.00    -0.323 N 
BRANCH   6   7
ATOM      7  C   UNL A   1      31.358  29.556  25.072  1.00  0.00     0.156 C 
BRANCH   7   8
ATOM      8  C   UNL A   1      31.735  28.643  23.934  1.00  0.00    -0.029 A 
ATOM      9  C   UNL A   1      32.759  25.706  20.951  1.00  0.00     0.044 C 
ATOM     10  C   UNL A   1      32.394  26.770  21.941  1.00  0.00    -0.051 A 
ATOM     11  C   UNL A   1      33.385  27.588  22.499  1.00  0.00     0.004 A 
ATOM     12  C   UNL A   1      31.067  26.933  22.349  1.00  0.00     0.004 A 
ATOM     13  C   UNL A   1      33.059  28.522  23.488  1.00  0.00     0.006 A 
ATOM     14  C   UNL A   1      30.741  27.864  23.330  1.00  0.00     0.006 A 
ENDBRANCH   7   8
ENDBRANCH   6   7
BRANCH   6  15
ATOM     15  C   UNL A   1      31.630  28.042  27.055  1.00  0.00     0.264 C 
ATOM     16  O   UNL A   1      31.118  28.125  28.172  1.00  0.00    -0.268 OA
BRANCH  15  17
ATOM     17  C   UNL A   1      31.814  26.729  26.412  1.00  0.00     0.093 A 
ATOM     18  C   UNL A   1      30.920  25.768  25.956  1.00  0.00     0.032 A 
ATOM     19  S   UNL A   1      33.429  26.261  26.032  1.00  0.00    -0.135 S 
ATOM     20  C   UNL A   1      31.560  24.587  25.432  1.00  0.00    -0.008 A 
ATOM     21  C   UNL A   1      32.925  24.768  25.415  1.00  0.00     0.013 A 
ATOM     22  C   UNL A   1      30.962  23.261  24.996  1.00  0.00     0.196 C 
ATOM     23  C   UNL A   1      33.851  23.704  24.928  1.00  0.00     0.075 C 
ATOM     24  O   UNL A   1      31.932  22.302  24.493  1.00  0.00    -0.376 OA
ATOM     25  C   UNL A   1      33.179  22.357  25.220  1.00  0.00     0.166 C 
ENDBRANCH  15  17
ENDBRANCH   6  15
ENDBRANCH   5   6
ENDBRANCH   3   5
ENDBRANCH   2   3
ENDBRANCH   1   2
BRANCH   1  26
ATOM     26  C   UNL A   1      34.445  33.034  28.221  1.00  0.00     0.275 C 
BRANCH  26  27
ATOM     27  O   UNL A   1      34.504  33.783  29.499  1.00  0.00    -0.458 OA
BRANCH  27  28
ATOM     28  C   UNL A   1      34.746  33.588  30.818  1.00  0.00     0.338 C 
ATOM     29  O   UNL A   1      33.873  33.610  31.688  1.00  0.00    -0.246 OA
BRANCH  28  30
ATOM     30  C   UNL A   1      36.077  33.274  31.224  1.00  0.00     0.060 A 
ATOM     31  C   UNL A   1      37.207  33.829  30.593  1.00  0.00     0.016 A 
ATOM     32  C   UNL A   1      36.155  32.405  32.284  1.00  0.00     0.016 A 
ATOM     33  C   UNL A   1      38.445  33.415  31.021  1.00  0.00     0.010 A 
ATOM     34  C   UNL A   1      37.332  32.325  32.933  1.00  0.00     0.010 A 
ATOM     35  C   UNL A   1      38.444  32.583  32.127  1.00  0.00    -0.014 A 
BRANCH  35  36
ATOM     36  C   UNL A   1      39.384  31.493  32.277  1.00  0.00     0.031 A 
ATOM     37  C   UNL A   1      39.107  30.326  31.467  1.00  0.00     0.074 A 
ATOM     38  C   UNL A   1      40.561  31.996  32.728  1.00  0.00     0.049 A 
ATOM     39  N   UNL A   1      39.393  29.121  31.811  1.00  0.00    -0.248 NA
ATOM     40  C   UNL A   1      38.307  30.426  30.239  1.00  0.00     0.031 C 
ATOM     41  C   UNL A   1      41.917  31.826  32.242  1.00  0.00     0.029 A 
ATOM     42  N   UNL A   1      40.682  33.037  33.659  1.00  0.00    -0.354 N 
ATOM     43  C   UNL A   1      39.293  28.431  30.625  1.00  0.00     0.074 A 
ATOM     44  C   UNL A   1      38.309  29.151  29.850  1.00  0.00     0.031 C 
ATOM     45  C   UNL A   1      42.752  32.535  33.034  1.00  0.00     0.029 A 
ATOM     46  C   UNL A   1      41.981  33.100  34.140  1.00  0.00     0.049 A 
ATOM     47  H   UNL A   1      39.949  33.637  33.932  1.00  0.00     0.167 HD
ATOM     48  C   UNL A   1      40.395  27.763  30.171  1.00  0.00     0.034 A 
ATOM     49  C   UNL A   1      42.203  32.929  35.476  1.00  0.00     0.034 A 
ATOM     50  C   UNL A   1      41.573  28.059  31.029  1.00  0.00     0.049 A 
ATOM     51  C   UNL A   1      42.596  31.476  35.698  1.00  0.00     0.074 A 
ATOM     52  C   UNL A   1      42.740  28.775  30.814  1.00  0.00     0.029 A 
ATOM     53  N   UNL A   1      41.516  27.840  32.403  1.00  0.00    -0.354 N 
ATOM     54  N   UNL A   1      42.690  30.588  34.746  1.00  0.00    -0.248 NA
ATOM     55  C   UNL A   1      42.907  30.910  37.003  1.00  0.00     0.031 C 
ATOM     56  C   UNL A   1      43.381  28.978  32.072  1.00  0.00     0.029 A 
ATOM     57  C   UNL A   1      42.603  28.400  33.060  1.00  0.00     0.049 A 
ATOM     58  H   UNL A   1      40.793  27.346  32.854  1.00  0.00     0.167 HD
ATOM     59  C   UNL A   1      42.877  29.344  35.271  1.00  0.00     0.074 A 
ATOM     60  C   UNL A   1      43.113  29.620  36.682  1.00  0.00     0.031 C 
ATOM     61  C   UNL A   1      42.754  28.211  34.506  1.00  0.00     0.034 A 
BRANCH  48  62
ATOM     62  C   UNL A   1      40.537  27.133  28.794  1.00  0.00     0.023 A 
ATOM     63  C   UNL A   1      39.588  26.144  28.458  1.00  0.00     0.012 A 
ATOM     64  C   UNL A   1      41.468  27.464  27.779  1.00  0.00     0.148 A 
ATOM     65  C   UNL A   1      39.598  25.474  27.232  1.00  0.00     0.002 A 
ATOM     66  C   UNL A   1      41.510  26.765  26.569  1.00  0.00     0.091 A 
ATOM     67  F   UNL A   1      42.277  28.515  27.919  1.00  0.00    -0.205 F 
ATOM     68  C   UNL A   1      40.572  25.768  26.293  1.00  0.00     0.022 A 
BRANCH  66  69
ATOM     69  S   UNL A   1      42.757  27.079  25.304  1.00  0.00     0.127 S 
ATOM     70  O   UNL A   1      43.969  27.258  26.106  1.00  0.00    -0.237 OA
ATOM     71  O   UNL A   1      42.725  25.846  24.520  1.00  0.00    -0.237 OA
ATOM     72  O   UNL A   1      42.331  28.281  24.598  1.00  0.00    -0.744 OA
ENDBRANCH  66  69
ENDBRANCH  48  62
BRANCH  49  73
ATOM     73  C   UNL A   1      41.210  33.701  36.313  1.00  0.00     0.023 A 
ATOM     74  C   UNL A   1      41.223  35.115  36.191  1.00  0.00     0.012 A 
ATOM     75  C   UNL A   1      40.042  33.092  36.802  1.00  0.00     0.148 A 
ATOM     76  C   UNL A   1      40.064  35.873  36.405  1.00  0.00     0.002 A 
ATOM     77  C   UNL A   1      38.877  33.849  36.960  1.00  0.00     0.091 A 
ATOM     78  F   UNL A   1      40.029  31.765  36.974  1.00  0.00    -0.205 F 
ATOM     79  C   UNL A   1      38.876  35.232  36.744  1.00  0.00     0.022 A 
BRANCH  77  80
ATOM     80  S   UNL A   1      37.313  32.994  37.199  1.00  0.00     0.127 S 
ATOM     81  O   UNL A   1      37.565  31.660  36.654  1.00  0.00    -0.237 OA
ATOM     82  O   UNL A   1      37.146  33.016  38.647  1.00  0.00    -0.237 OA
ATOM     83  O   UNL A   1      36.394  33.813  36.418  1.00  0.00    -0.744 OA
ENDBRANCH  77  80
ENDBRANCH  49  73
BRANCH  61  84
ATOM     84  C   UNL A   1      42.751  26.788  35.040  1.00  0.00     0.023 A 
ATOM     85  C   UNL A   1      41.666  26.244  35.747  1.00  0.00     0.012 A 
ATOM     86  C   UNL A   1      43.819  25.897  34.744  1.00  0.00     0.148 A 
ATOM     87  C   UNL A   1      41.670  24.924  36.212  1.00  0.00     0.002 A 
ATOM     88  C   UNL A   1      43.751  24.551  35.078  1.00  0.00     0.091 A 
ATOM     89  F   UNL A   1      44.940  26.350  34.164  1.00  0.00    -0.205 F 
ATOM     90  C   UNL A   1      42.700  24.070  35.856  1.00  0.00     0.022 A 
BRANCH  88  91
ATOM     91  S   UNL A   1      44.920  23.367  34.400  1.00  0.00     0.127 S 
ATOM     92  O   UNL A   1      46.118  23.641  35.190  1.00  0.00    -0.237 OA
ATOM     93  O   UNL A   1      44.273  22.087  34.697  1.00  0.00    -0.237 OA
ATOM     94  O   UNL A   1      45.000  23.677  32.979  1.00  0.00    -0.744 OA
ENDBRANCH  88  91
ENDBRANCH  61  84
ENDBRANCH  35  36
ENDBRANCH  28  30
ENDBRANCH  27  28
ENDBRANCH  26  27
ENDBRANCH   1  26
TORSDOF 19
ENDMDL
