MODEL 1
REMARK VINA RESULT:     -11.8      0.000      0.000
REMARK SMILES COc1cccc2ccc(C[N@@H+]3CC4(CC[NH2+]CC4)C[C@@H]3C(=O)OCCOC(=O)c3ccc(-c4c5nc(c(-c6cccc(S(=O)(=O)[O-])c6F)c6ccc([nH]6)c(-c6cccc(S(=O)(=O)[O-])c6F)c6nc(c(-c7cccc(S(=O)(=O)[O-])c7F)c7ccc4[nH]7)C=C6)C=C5)cc3)nc12
REMARK SMILES IDX 25 1 24 2 22 3 23 4 21 5 12 6 13 7 14 9 20 10 15 11 19 12
REMARK SMILES IDX 16 13 18 14 17 15 11 18 10 19 3 20 4 21 94 22 5 23 7 24
REMARK SMILES IDX 93 25 6 26 8 27 9 28 2 29 1 30 26 31 27 32 28 33 29 34 30 35
REMARK SMILES IDX 31 36 92 37 32 38 91 39 33 40 34 41 35 42 85 43 36 44 90 45
REMARK SMILES IDX 84 46 86 47 37 48 89 49 83 50 82 51 38 53 70 54 50 55 69 56
REMARK SMILES IDX 51 57 54 58 68 59 87 60 52 61 53 62 67 64 88 65 55 66 39 67
REMARK SMILES IDX 40 68 48 69 41 70 43 71 49 72 42 73 44 74 45 75 46 76 47 77
REMARK SMILES IDX 71 78 72 79 80 80 73 81 75 82 81 83 74 84 76 85 77 86 78 87
REMARK SMILES IDX 79 88 56 89 57 90 65 91 58 92 60 93 66 94 59 95 61 96 62 97
REMARK SMILES IDX 63 98 64 99
REMARK H PARENT 12 8 17 16 17 17 86 52 54 63
REMARK Flexibility Score: inf
ROOT
ATOM      1  C   UNL A   1      35.944  20.770  24.967  1.00  0.00     0.274 C 
ENDROOT
BRANCH   1   2
ATOM      2  O   UNL A   1      36.219  22.043  24.356  1.00  0.00    -0.458 OA
BRANCH   2   3
ATOM      3  C   UNL A   1      35.615  23.117  24.904  1.00  0.00     0.365 C 
ATOM      4  O   UNL A   1      36.212  24.138  25.242  1.00  0.00    -0.245 OA
BRANCH   3   5
ATOM      5  C   UNL A   1      34.102  23.028  25.020  1.00  0.00     0.296 C 
ATOM      6  N   UNL A   1      33.195  23.303  23.887  1.00  0.00    -0.318 N 
ATOM      7  C   UNL A   1      31.858  23.311  24.504  1.00  0.00     0.270 C 
ATOM      8  H   UNL A   1      33.349  22.574  23.189  1.00  0.00     0.349 HD
ATOM      9  C   UNL A   1      32.010  23.759  25.986  1.00  0.00     0.036 C 
ATOM     10  C   UNL A   1      33.530  23.803  26.193  1.00  0.00     0.091 C 
ATOM     11  C   UNL A   1      31.328  22.746  26.938  1.00  0.00     0.074 C 
ATOM     12  C   UNL A   1      31.405  25.131  26.330  1.00  0.00     0.074 C 
ATOM     13  C   UNL A   1      29.801  22.800  26.818  1.00  0.00     0.261 C 
ATOM     14  C   UNL A   1      29.886  25.142  26.181  1.00  0.00     0.261 C 
ATOM     15  N   UNL A   1      29.259  24.142  27.044  1.00  0.00    -0.346 N 
ATOM     16  H   UNL A   1      29.419  24.401  28.018  1.00  0.00     0.346 HD
ATOM     17  H   UNL A   1      28.263  24.119  26.826  1.00  0.00     0.346 HD
BRANCH   6  18
ATOM     18  C   UNL A   1      33.463  24.361  22.893  1.00  0.00     0.320 C 
BRANCH  18  19
ATOM     19  C   UNL A   1      32.753  25.709  22.974  1.00  0.00     0.095 A 
ATOM     20  C   UNL A   1      32.847  28.819  24.952  1.00  0.00     0.145 A 
ATOM     21  C   UNL A   1      32.005  29.917  25.203  1.00  0.00     0.049 A 
ATOM     22  C   UNL A   1      32.470  27.793  24.052  1.00  0.00     0.113 A 
ATOM     23  C   UNL A   1      30.796  30.047  24.534  1.00  0.00     0.005 A 
ATOM     24  C   UNL A   1      31.295  28.023  23.302  1.00  0.00     0.004 A 
ATOM     25  N   UNL A   1      33.168  26.626  23.888  1.00  0.00    -0.243 NA
ATOM     26  C   UNL A   1      30.459  29.120  23.559  1.00  0.00     0.010 A 
ATOM     27  C   UNL A   1      30.966  27.137  22.276  1.00  0.00     0.012 A 
ATOM     28  C   UNL A   1      31.724  25.991  22.085  1.00  0.00     0.030 A 
BRANCH  20  29
ATOM     29  O   UNL A   1      34.105  28.719  25.512  1.00  0.00    -0.494 OA
ATOM     30  C   UNL A   1      34.166  28.495  26.919  1.00  0.00     0.278 C 
ENDBRANCH  20  29
ENDBRANCH  18  19
ENDBRANCH   6  18
ENDBRANCH   3   5
ENDBRANCH   2   3
ENDBRANCH   1   2
BRANCH   1  31
ATOM     31  C   UNL A   1      37.232  19.967  25.098  1.00  0.00     0.275 C 
BRANCH  31  32
ATOM     32  O   UNL A   1      38.361  20.857  25.081  1.00  0.00    -0.458 OA
BRANCH  32  33
ATOM     33  C   UNL A   1      39.233  20.704  26.099  1.00  0.00     0.338 C 
ATOM     34  O   UNL A   1      39.592  19.676  26.640  1.00  0.00    -0.246 OA
BRANCH  33  35
ATOM     35  C   UNL A   1      39.745  21.989  26.566  1.00  0.00     0.060 A 
ATOM     36  C   UNL A   1      39.195  23.169  26.082  1.00  0.00     0.016 A 
ATOM     37  C   UNL A   1      40.897  22.000  27.357  1.00  0.00     0.016 A 
ATOM     38  C   UNL A   1      39.852  24.369  26.314  1.00  0.00     0.010 A 
ATOM     39  C   UNL A   1      41.488  23.215  27.686  1.00  0.00     0.010 A 
ATOM     40  C   UNL A   1      40.986  24.407  27.145  1.00  0.00    -0.014 A 
BRANCH  40  41
ATOM     41  C   UNL A   1      41.581  25.713  27.513  1.00  0.00     0.031 A 
ATOM     42  C   UNL A   1      40.821  26.718  28.331  1.00  0.00     0.074 A 
ATOM     43  C   UNL A   1      42.817  25.993  27.055  1.00  0.00     0.049 A 
ATOM     44  N   UNL A   1      41.183  27.924  28.683  1.00  0.00    -0.248 NA
ATOM     45  C   UNL A   1      39.478  26.336  28.798  1.00  0.00     0.031 C 
ATOM     46  C   UNL A   1      43.614  25.111  26.198  1.00  0.00     0.029 A 
ATOM     47  N   UNL A   1      43.617  27.091  27.235  1.00  0.00    -0.354 N 
ATOM     48  C   UNL A   1      40.096  28.469  29.355  1.00  0.00     0.074 A 
ATOM     49  C   UNL A   1      39.062  27.457  29.374  1.00  0.00     0.031 C 
ATOM     50  C   UNL A   1      44.800  25.683  25.956  1.00  0.00     0.029 A 
ATOM     51  C   UNL A   1      44.825  26.997  26.585  1.00  0.00     0.049 A 
ATOM     52  H   UNL A   1      43.353  27.869  27.776  1.00  0.00     0.167 HD
ATOM     53  C   UNL A   1      39.980  29.697  29.912  1.00  0.00     0.034 A 
ATOM     54  C   UNL A   1      45.836  27.878  26.488  1.00  0.00     0.034 A 
ATOM     55  C   UNL A   1      41.045  30.667  29.950  1.00  0.00     0.049 A 
ATOM     56  C   UNL A   1      45.712  29.195  27.195  1.00  0.00     0.074 A 
ATOM     57  C   UNL A   1      41.057  31.905  30.569  1.00  0.00     0.029 A 
ATOM     58  N   UNL A   1      42.285  30.505  29.352  1.00  0.00    -0.354 N 
ATOM     59  N   UNL A   1      44.722  29.641  27.929  1.00  0.00    -0.248 NA
ATOM     60  C   UNL A   1      46.844  30.121  27.075  1.00  0.00     0.031 C 
ATOM     61  C   UNL A   1      42.307  32.493  30.342  1.00  0.00     0.029 A 
ATOM     62  C   UNL A   1      43.070  31.622  29.581  1.00  0.00     0.049 A 
ATOM     63  H   UNL A   1      42.565  29.714  28.839  1.00  0.00     0.167 HD
ATOM     64  C   UNL A   1      45.108  30.902  28.358  1.00  0.00     0.074 A 
ATOM     65  C   UNL A   1      46.443  31.129  27.839  1.00  0.00     0.031 C 
ATOM     66  C   UNL A   1      44.410  31.808  29.085  1.00  0.00     0.034 A 
BRANCH  53  67
ATOM     67  C   UNL A   1      38.677  30.056  30.571  1.00  0.00     0.023 A 
ATOM     68  C   UNL A   1      38.441  29.661  31.902  1.00  0.00     0.012 A 
ATOM     69  C   UNL A   1      37.724  30.854  29.906  1.00  0.00     0.148 A 
ATOM     70  C   UNL A   1      37.271  30.043  32.559  1.00  0.00     0.002 A 
ATOM     71  C   UNL A   1      36.574  31.256  30.577  1.00  0.00     0.091 A 
ATOM     72  F   UNL A   1      37.956  31.198  28.631  1.00  0.00    -0.205 F 
ATOM     73  C   UNL A   1      36.344  30.849  31.902  1.00  0.00     0.022 A 
BRANCH  71  74
ATOM     74  S   UNL A   1      35.353  32.344  29.833  1.00  0.00     0.127 S 
ATOM     75  O   UNL A   1      34.834  31.509  28.751  1.00  0.00    -0.237 OA
ATOM     76  O   UNL A   1      34.416  32.562  30.937  1.00  0.00    -0.237 OA
ATOM     77  O   UNL A   1      36.081  33.534  29.416  1.00  0.00    -0.744 OA
ENDBRANCH  71  74
ENDBRANCH  53  67
BRANCH  54  78
ATOM     78  C   UNL A   1      47.060  27.502  25.729  1.00  0.00     0.023 A 
ATOM     79  C   UNL A   1      47.134  27.787  24.353  1.00  0.00     0.012 A 
ATOM     80  C   UNL A   1      48.184  26.956  26.378  1.00  0.00     0.148 A 
ATOM     81  C   UNL A   1      48.302  27.526  23.636  1.00  0.00     0.002 A 
ATOM     82  C   UNL A   1      49.364  26.757  25.671  1.00  0.00     0.091 A 
ATOM     83  F   UNL A   1      48.094  26.670  27.686  1.00  0.00    -0.205 F 
ATOM     84  C   UNL A   1      49.422  27.027  24.298  1.00  0.00     0.022 A 
BRANCH  82  85
ATOM     85  S   UNL A   1      50.875  26.283  26.520  1.00  0.00     0.127 S 
ATOM     86  O   UNL A   1      50.533  24.961  27.037  1.00  0.00    -0.237 OA
ATOM     87  O   UNL A   1      51.863  26.284  25.441  1.00  0.00    -0.237 OA
ATOM     88  O   UNL A   1      51.082  27.333  27.510  1.00  0.00    -0.744 OA
ENDBRANCH  82  85
ENDBRANCH  54  78
BRANCH  66  89
ATOM     89  C   UNL A   1      45.071  33.133  29.337  1.00  0.00     0.023 A 
ATOM     90  C   UNL A   1      45.861  33.293  30.492  1.00  0.00     0.012 A 
ATOM     91  C   UNL A   1      44.953  34.195  28.423  1.00  0.00     0.148 A 
ATOM     92  C   UNL A   1      46.505  34.502  30.747  1.00  0.00     0.002 A 
ATOM     93  C   UNL A   1      45.627  35.386  28.666  1.00  0.00     0.091 A 
ATOM     94  F   UNL A   1      44.174  34.034  27.342  1.00  0.00    -0.205 F 
ATOM     95  C   UNL A   1      46.397  35.545  29.830  1.00  0.00     0.022 A 
BRANCH  93  96
ATOM     96  S   UNL A   1      45.589  36.740  27.485  1.00  0.00     0.127 S 
ATOM     97  O   UNL A   1      46.537  37.682  28.076  1.00  0.00    -0.237 OA
ATOM     98  O   UNL A   1      46.051  36.103  26.251  1.00  0.00    -0.237 OA
ATOM     99  O   UNL A   1      44.199  37.174  27.446  1.00  0.00    -0.744 OA
ENDBRANCH  93  96
ENDBRANCH  66  89
ENDBRANCH  40  41
ENDBRANCH  33  35
ENDBRANCH  32  33
ENDBRANCH  31  32
ENDBRANCH   1  31
TORSDOF 17
ENDMDL
MODEL 2
REMARK VINA RESULT:     -11.7      4.714      9.491
REMARK SMILES COc1cccc2ccc(C[N@@H+]3CC4(CC[NH2+]CC4)C[C@@H]3C(=O)OCCOC(=O)c3ccc(-c4c5nc(c(-c6cccc(S(=O)(=O)[O-])c6F)c6ccc([nH]6)c(-c6cccc(S(=O)(=O)[O-])c6F)c6nc(c(-c7cccc(S(=O)(=O)[O-])c7F)c7ccc4[nH]7)C=C6)C=C5)cc3)nc12
REMARK SMILES IDX 25 1 24 2 22 3 23 4 21 5 12 6 13 7 14 9 20 10 15 11 19 12
REMARK SMILES IDX 16 13 18 14 17 15 11 18 10 19 3 20 4 21 94 22 5 23 7 24
REMARK SMILES IDX 93 25 6 26 8 27 9 28 2 29 1 30 26 31 27 32 28 33 29 34 30 35
REMARK SMILES IDX 31 36 92 37 32 38 91 39 33 40 34 41 35 42 85 43 36 44 90 45
REMARK SMILES IDX 84 46 86 47 37 48 89 49 83 50 82 51 38 53 70 54 50 55 69 56
REMARK SMILES IDX 51 57 54 58 68 59 87 60 52 61 53 62 67 64 88 65 55 66 39 67
REMARK SMILES IDX 40 68 48 69 41 70 43 71 49 72 42 73 44 74 45 75 46 76 47 77
REMARK SMILES IDX 71 78 72 79 80 80 73 81 75 82 81 83 74 84 76 85 77 86 78 87
REMARK SMILES IDX 79 88 56 89 57 90 65 91 58 92 60 93 66 94 59 95 61 96 62 97
REMARK SMILES IDX 63 98 64 99
REMARK H PARENT 12 8 17 16 17 17 86 52 54 63
REMARK Flexibility Score: inf
ROOT
ATOM      1  C   UNL A   1      31.640  28.721  26.989  1.00  0.00     0.274 C 
ENDROOT
BRANCH   1   2
ATOM      2  O   UNL A   1      32.433  27.686  26.379  1.00  0.00    -0.458 OA
BRANCH   2   3
ATOM      3  C   UNL A   1      31.940  26.433  26.444  1.00  0.00     0.365 C 
ATOM      4  O   UNL A   1      30.792  26.168  26.799  1.00  0.00    -0.245 OA
BRANCH   3   5
ATOM      5  C   UNL A   1      32.879  25.335  25.973  1.00  0.00     0.296 C 
ATOM      6  N   UNL A   1      33.220  25.130  24.550  1.00  0.00    -0.318 N 
ATOM      7  C   UNL A   1      33.961  23.857  24.548  1.00  0.00     0.270 C 
ATOM      8  H   UNL A   1      33.753  25.945  24.244  1.00  0.00     0.349 HD
ATOM      9  C   UNL A   1      33.450  22.998  25.740  1.00  0.00     0.036 C 
ATOM     10  C   UNL A   1      32.531  23.958  26.507  1.00  0.00     0.091 C 
ATOM     11  C   UNL A   1      34.634  22.513  26.613  1.00  0.00     0.074 C 
ATOM     12  C   UNL A   1      32.666  21.731  25.357  1.00  0.00     0.074 C 
ATOM     13  C   UNL A   1      35.475  21.457  25.886  1.00  0.00     0.261 C 
ATOM     14  C   UNL A   1      33.537  20.716  24.623  1.00  0.00     0.261 C 
ATOM     15  N   UNL A   1      34.682  20.309  25.437  1.00  0.00    -0.346 N 
ATOM     16  H   UNL A   1      34.342  19.805  26.255  1.00  0.00     0.346 HD
ATOM     17  H   UNL A   1      35.283  19.720  24.861  1.00  0.00     0.346 HD
BRANCH   6  18
ATOM     18  C   UNL A   1      32.240  25.318  23.463  1.00  0.00     0.320 C 
BRANCH  18  19
ATOM     19  C   UNL A   1      31.620  26.686  23.194  1.00  0.00     0.095 A 
ATOM     20  C   UNL A   1      28.309  28.306  23.134  1.00  0.00     0.145 A 
ATOM     21  C   UNL A   1      27.733  29.474  22.605  1.00  0.00     0.049 A 
ATOM     22  C   UNL A   1      29.691  28.035  22.988  1.00  0.00     0.113 A 
ATOM     23  C   UNL A   1      28.519  30.421  21.963  1.00  0.00     0.005 A 
ATOM     24  C   UNL A   1      30.475  29.075  22.440  1.00  0.00     0.004 A 
ATOM     25  N   UNL A   1      30.278  26.847  23.336  1.00  0.00    -0.243 NA
ATOM     26  C   UNL A   1      29.893  30.238  21.913  1.00  0.00     0.010 A 
ATOM     27  C   UNL A   1      31.863  28.940  22.432  1.00  0.00     0.012 A 
ATOM     28  C   UNL A   1      32.442  27.751  22.849  1.00  0.00     0.030 A 
BRANCH  20  29
ATOM     29  O   UNL A   1      27.576  27.402  23.878  1.00  0.00    -0.494 OA
ATOM     30  C   UNL A   1      26.160  27.566  23.876  1.00  0.00     0.278 C 
ENDBRANCH  20  29
ENDBRANCH  18  19
ENDBRANCH   6  18
ENDBRANCH   3   5
ENDBRANCH   2   3
ENDBRANCH   1   2
BRANCH   1  31
ATOM     31  C   UNL A   1      31.599  29.945  26.084  1.00  0.00     0.275 C 
BRANCH  31  32
ATOM     32  O   UNL A   1      32.924  30.485  25.939  1.00  0.00    -0.458 OA
BRANCH  32  33
ATOM     33  C   UNL A   1      33.295  31.367  26.890  1.00  0.00     0.338 C 
ATOM     34  O   UNL A   1      32.721  32.375  27.252  1.00  0.00    -0.246 OA
BRANCH  33  35
ATOM     35  C   UNL A   1      34.574  31.002  27.492  1.00  0.00     0.060 A 
ATOM     36  C   UNL A   1      34.799  29.690  27.894  1.00  0.00     0.016 A 
ATOM     37  C   UNL A   1      35.475  32.020  27.813  1.00  0.00     0.016 A 
ATOM     38  C   UNL A   1      35.890  29.406  28.701  1.00  0.00     0.010 A 
ATOM     39  C   UNL A   1      36.630  31.711  28.524  1.00  0.00     0.010 A 
ATOM     40  C   UNL A   1      36.834  30.407  28.997  1.00  0.00    -0.014 A 
BRANCH  40  41
ATOM     41  C   UNL A   1      38.074  30.053  29.725  1.00  0.00     0.031 A 
ATOM     42  C   UNL A   1      39.098  29.130  29.127  1.00  0.00     0.074 A 
ATOM     43  C   UNL A   1      38.241  30.552  30.965  1.00  0.00     0.049 A 
ATOM     44  N   UNL A   1      40.203  28.681  29.662  1.00  0.00    -0.248 NA
ATOM     45  C   UNL A   1      38.845  28.629  27.765  1.00  0.00     0.031 C 
ATOM     46  C   UNL A   1      37.275  31.406  31.663  1.00  0.00     0.029 A 
ATOM     47  N   UNL A   1      39.269  30.415  31.860  1.00  0.00    -0.354 N 
ATOM     48  C   UNL A   1      40.745  27.798  28.736  1.00  0.00     0.074 A 
ATOM     49  C   UNL A   1      39.855  27.784  27.595  1.00  0.00     0.031 C 
ATOM     50  C   UNL A   1      37.769  31.745  32.860  1.00  0.00     0.029 A 
ATOM     51  C   UNL A   1      39.055  31.084  33.042  1.00  0.00     0.049 A 
ATOM     52  H   UNL A   1      40.079  29.890  31.676  1.00  0.00     0.167 HD
ATOM     53  C   UNL A   1      41.887  27.077  28.829  1.00  0.00     0.034 A 
ATOM     54  C   UNL A   1      39.801  31.146  34.160  1.00  0.00     0.034 A 
ATOM     55  C   UNL A   1      42.802  27.158  29.939  1.00  0.00     0.049 A 
ATOM     56  C   UNL A   1      41.105  30.408  34.194  1.00  0.00     0.074 A 
ATOM     57  C   UNL A   1      44.029  26.537  30.087  1.00  0.00     0.029 A 
ATOM     58  N   UNL A   1      42.592  27.911  31.084  1.00  0.00    -0.354 N 
ATOM     59  N   UNL A   1      41.659  29.677  33.257  1.00  0.00    -0.248 NA
ATOM     60  C   UNL A   1      41.894  30.513  35.427  1.00  0.00     0.031 C 
ATOM     61  C   UNL A   1      44.561  26.913  31.327  1.00  0.00     0.029 A 
ATOM     62  C   UNL A   1      43.664  27.767  31.948  1.00  0.00     0.049 A 
ATOM     63  H   UNL A   1      41.797  28.465  31.258  1.00  0.00     0.167 HD
ATOM     64  C   UNL A   1      42.861  29.231  33.786  1.00  0.00     0.074 A 
ATOM     65  C   UNL A   1      42.976  29.814  35.110  1.00  0.00     0.031 C 
ATOM     66  C   UNL A   1      43.772  28.387  33.244  1.00  0.00     0.034 A 
BRANCH  53  67
ATOM     67  C   UNL A   1      42.246  26.169  27.685  1.00  0.00     0.023 A 
ATOM     68  C   UNL A   1      43.095  26.643  26.665  1.00  0.00     0.012 A 
ATOM     69  C   UNL A   1      41.817  24.827  27.663  1.00  0.00     0.148 A 
ATOM     70  C   UNL A   1      43.501  25.798  25.632  1.00  0.00     0.002 A 
ATOM     71  C   UNL A   1      42.251  23.983  26.646  1.00  0.00     0.091 A 
ATOM     72  F   UNL A   1      40.990  24.404  28.628  1.00  0.00    -0.205 F 
ATOM     73  C   UNL A   1      43.089  24.467  25.628  1.00  0.00     0.022 A 
BRANCH  71  74
ATOM     74  S   UNL A   1      41.822  22.239  26.590  1.00  0.00     0.127 S 
ATOM     75  O   UNL A   1      40.364  22.297  26.491  1.00  0.00    -0.237 OA
ATOM     76  O   UNL A   1      42.497  21.790  25.372  1.00  0.00    -0.237 OA
ATOM     77  O   UNL A   1      42.346  21.661  27.819  1.00  0.00    -0.744 OA
ENDBRANCH  71  74
ENDBRANCH  53  67
BRANCH  54  78
ATOM     78  C   UNL A   1      39.335  31.980  35.301  1.00  0.00     0.023 A 
ATOM     79  C   UNL A   1      38.528  31.398  36.297  1.00  0.00     0.012 A 
ATOM     80  C   UNL A   1      39.765  33.312  35.457  1.00  0.00     0.148 A 
ATOM     81  C   UNL A   1      38.151  32.132  37.422  1.00  0.00     0.002 A 
ATOM     82  C   UNL A   1      39.437  34.016  36.610  1.00  0.00     0.091 A 
ATOM     83  F   UNL A   1      40.516  33.861  34.491  1.00  0.00    -0.205 F 
ATOM     84  C   UNL A   1      38.619  33.434  37.588  1.00  0.00     0.022 A 
BRANCH  82  85
ATOM     85  S   UNL A   1      40.161  35.627  36.940  1.00  0.00     0.127 S 
ATOM     86  O   UNL A   1      41.590  35.333  36.898  1.00  0.00    -0.237 OA
ATOM     87  O   UNL A   1      39.666  36.436  35.826  1.00  0.00    -0.237 OA
ATOM     88  O   UNL A   1      39.615  36.013  38.236  1.00  0.00    -0.744 OA
ENDBRANCH  82  85
ENDBRANCH  54  78
BRANCH  66  89
ATOM     89  C   UNL A   1      44.956  28.028  34.095  1.00  0.00     0.023 A 
ATOM     90  C   UNL A   1      46.114  28.828  34.026  1.00  0.00     0.012 A 
ATOM     91  C   UNL A   1      44.915  26.940  34.985  1.00  0.00     0.148 A 
ATOM     92  C   UNL A   1      47.224  28.535  34.816  1.00  0.00     0.002 A 
ATOM     93  C   UNL A   1      46.013  26.676  35.796  1.00  0.00     0.091 A 
ATOM     94  F   UNL A   1      43.815  26.173  35.017  1.00  0.00    -0.205 F 
ATOM     95  C   UNL A   1      47.171  27.466  35.707  1.00  0.00     0.022 A 
BRANCH  93  96
ATOM     96  S   UNL A   1      45.977  25.360  37.018  1.00  0.00     0.127 S 
ATOM     97  O   UNL A   1      44.689  25.588  37.668  1.00  0.00    -0.237 OA
ATOM     98  O   UNL A   1      46.038  24.152  36.193  1.00  0.00    -0.237 OA
ATOM     99  O   UNL A   1      47.156  25.575  37.846  1.00  0.00    -0.744 OA
ENDBRANCH  93  96
ENDBRANCH  66  89
ENDBRANCH  40  41
ENDBRANCH  33  35
ENDBRANCH  32  33
ENDBRANCH  31  32
ENDBRANCH   1  31
TORSDOF 17
ENDMDL
MODEL 3
REMARK VINA RESULT:     -11.7      1.974      3.814
REMARK SMILES COc1cccc2ccc(C[N@@H+]3CC4(CC[NH2+]CC4)C[C@@H]3C(=O)OCCOC(=O)c3ccc(-c4c5nc(c(-c6cccc(S(=O)(=O)[O-])c6F)c6ccc([nH]6)c(-c6cccc(S(=O)(=O)[O-])c6F)c6nc(c(-c7cccc(S(=O)(=O)[O-])c7F)c7ccc4[nH]7)C=C6)C=C5)cc3)nc12
REMARK SMILES IDX 25 1 24 2 22 3 23 4 21 5 12 6 13 7 14 9 20 10 15 11 19 12
REMARK SMILES IDX 16 13 18 14 17 15 11 18 10 19 3 20 4 21 94 22 5 23 7 24
REMARK SMILES IDX 93 25 6 26 8 27 9 28 2 29 1 30 26 31 27 32 28 33 29 34 30 35
REMARK SMILES IDX 31 36 92 37 32 38 91 39 33 40 34 41 35 42 85 43 36 44 90 45
REMARK SMILES IDX 84 46 86 47 37 48 89 49 83 50 82 51 38 53 70 54 50 55 69 56
REMARK SMILES IDX 51 57 54 58 68 59 87 60 52 61 53 62 67 64 88 65 55 66 39 67
REMARK SMILES IDX 40 68 48 69 41 70 43 71 49 72 42 73 44 74 45 75 46 76 47 77
REMARK SMILES IDX 71 78 72 79 80 80 73 81 75 82 81 83 74 84 76 85 77 86 78 87
REMARK SMILES IDX 79 88 56 89 57 90 65 91 58 92 60 93 66 94 59 95 61 96 62 97
REMARK SMILES IDX 63 98 64 99
REMARK H PARENT 12 8 17 16 17 17 86 52 54 63
REMARK Flexibility Score: inf
ROOT
ATOM      1  C   UNL A   1      35.757  20.697  25.026  1.00  0.00     0.274 C 
ENDROOT
BRANCH   1   2
ATOM      2  O   UNL A   1      35.744  22.067  25.464  1.00  0.00    -0.458 OA
BRANCH   2   3
ATOM      3  C   UNL A   1      34.869  22.378  26.442  1.00  0.00     0.365 C 
ATOM      4  O   UNL A   1      34.665  21.669  27.427  1.00  0.00    -0.245 OA
BRANCH   3   5
ATOM      5  C   UNL A   1      34.179  23.724  26.299  1.00  0.00     0.296 C 
ATOM      6  N   UNL A   1      32.770  23.946  26.687  1.00  0.00    -0.318 N 
ATOM      7  C   UNL A   1      32.478  25.298  26.180  1.00  0.00     0.270 C 
ATOM      8  H   UNL A   1      32.712  23.839  27.700  1.00  0.00     0.349 HD
ATOM      9  C   UNL A   1      33.381  25.556  24.939  1.00  0.00     0.036 C 
ATOM     10  C   UNL A   1      34.322  24.344  24.922  1.00  0.00     0.091 C 
ATOM     11  C   UNL A   1      34.158  26.886  25.094  1.00  0.00     0.074 C 
ATOM     12  C   UNL A   1      32.645  25.655  23.592  1.00  0.00     0.074 C 
ATOM     13  C   UNL A   1      33.228  28.099  24.982  1.00  0.00     0.261 C 
ATOM     14  C   UNL A   1      31.720  26.867  23.531  1.00  0.00     0.261 C 
ATOM     15  N   UNL A   1      32.458  28.113  23.735  1.00  0.00    -0.346 N 
ATOM     16  H   UNL A   1      33.100  28.246  22.954  1.00  0.00     0.346 HD
ATOM     17  H   UNL A   1      31.781  28.873  23.792  1.00  0.00     0.346 HD
BRANCH   6  18
ATOM     18  C   UNL A   1      31.720  22.930  26.483  1.00  0.00     0.320 C 
BRANCH  18  19
ATOM     19  C   UNL A   1      31.749  22.006  25.269  1.00  0.00     0.095 A 
ATOM     20  C   UNL A   1      32.469  18.488  24.435  1.00  0.00     0.145 A 
ATOM     21  C   UNL A   1      32.774  17.732  23.289  1.00  0.00     0.049 A 
ATOM     22  C   UNL A   1      32.193  19.874  24.352  1.00  0.00     0.113 A 
ATOM     23  C   UNL A   1      32.765  18.322  22.033  1.00  0.00     0.005 A 
ATOM     24  C   UNL A   1      32.072  20.407  23.049  1.00  0.00     0.004 A 
ATOM     25  N   UNL A   1      32.050  20.691  25.441  1.00  0.00    -0.243 NA
ATOM     26  C   UNL A   1      32.379  19.648  21.910  1.00  0.00     0.010 A 
ATOM     27  C   UNL A   1      31.630  21.721  22.898  1.00  0.00     0.012 A 
ATOM     28  C   UNL A   1      31.429  22.515  24.017  1.00  0.00     0.030 A 
BRANCH  20  29
ATOM     29  O   UNL A   1      32.356  17.908  25.684  1.00  0.00    -0.494 OA
ATOM     30  C   UNL A   1      32.512  16.493  25.752  1.00  0.00     0.278 C 
ENDBRANCH  20  29
ENDBRANCH  18  19
ENDBRANCH   6  18
ENDBRANCH   3   5
ENDBRANCH   2   3
ENDBRANCH   1   2
BRANCH   1  31
ATOM     31  C   UNL A   1      37.187  20.174  24.996  1.00  0.00     0.275 C 
BRANCH  31  32
ATOM     32  O   UNL A   1      38.106  21.264  25.185  1.00  0.00    -0.458 OA
BRANCH  32  33
ATOM     33  C   UNL A   1      39.078  21.050  26.095  1.00  0.00     0.338 C 
ATOM     34  O   UNL A   1      39.509  19.989  26.506  1.00  0.00    -0.246 OA
BRANCH  33  35
ATOM     35  C   UNL A   1      39.611  22.304  26.618  1.00  0.00     0.060 A 
ATOM     36  C   UNL A   1      39.126  23.514  26.138  1.00  0.00     0.016 A 
ATOM     37  C   UNL A   1      40.723  22.255  27.462  1.00  0.00     0.016 A 
ATOM     38  C   UNL A   1      39.812  24.684  26.432  1.00  0.00     0.010 A 
ATOM     39  C   UNL A   1      41.339  23.440  27.850  1.00  0.00     0.010 A 
ATOM     40  C   UNL A   1      40.905  24.662  27.317  1.00  0.00    -0.014 A 
BRANCH  40  41
ATOM     41  C   UNL A   1      41.527  25.937  27.745  1.00  0.00     0.031 A 
ATOM     42  C   UNL A   1      40.764  26.948  28.552  1.00  0.00     0.074 A 
ATOM     43  C   UNL A   1      42.792  26.183  27.354  1.00  0.00     0.049 A 
ATOM     44  N   UNL A   1      41.150  28.132  28.952  1.00  0.00    -0.248 NA
ATOM     45  C   UNL A   1      39.387  26.603  28.945  1.00  0.00     0.031 C 
ATOM     46  C   UNL A   1      43.599  25.293  26.513  1.00  0.00     0.029 A 
ATOM     47  N   UNL A   1      43.620  27.247  27.599  1.00  0.00    -0.354 N 
ATOM     48  C   UNL A   1      40.051  28.698  29.585  1.00  0.00     0.074 A 
ATOM     49  C   UNL A   1      38.983  27.724  29.530  1.00  0.00     0.031 C 
ATOM     50  C   UNL A   1      44.814  25.829  26.342  1.00  0.00     0.029 A 
ATOM     51  C   UNL A   1      44.854  27.126  27.005  1.00  0.00     0.049 A 
ATOM     52  H   UNL A   1      43.357  28.020  28.147  1.00  0.00     0.167 HD
ATOM     53  C   UNL A   1      39.951  29.917  30.167  1.00  0.00     0.034 A 
ATOM     54  C   UNL A   1      45.899  27.972  26.979  1.00  0.00     0.034 A 
ATOM     55  C   UNL A   1      41.045  30.847  30.281  1.00  0.00     0.049 A 
ATOM     56  C   UNL A   1      45.786  29.275  27.712  1.00  0.00     0.074 A 
ATOM     57  C   UNL A   1      41.070  32.068  30.930  1.00  0.00     0.029 A 
ATOM     58  N   UNL A   1      42.307  30.655  29.737  1.00  0.00    -0.354 N 
ATOM     59  N   UNL A   1      44.778  29.738  28.410  1.00  0.00    -0.248 NA
ATOM     60  C   UNL A   1      46.953  30.163  27.669  1.00  0.00     0.031 C 
ATOM     61  C   UNL A   1      42.349  32.617  30.778  1.00  0.00     0.029 A 
ATOM     62  C   UNL A   1      43.118  31.738  30.032  1.00  0.00     0.049 A 
ATOM     63  H   UNL A   1      42.584  29.866  29.218  1.00  0.00     0.167 HD
ATOM     64  C   UNL A   1      45.186  30.975  28.889  1.00  0.00     0.074 A 
ATOM     65  C   UNL A   1      46.552  31.166  28.439  1.00  0.00     0.031 C 
ATOM     66  C   UNL A   1      44.485  31.887  29.605  1.00  0.00     0.034 A 
BRANCH  53  67
ATOM     67  C   UNL A   1      38.631  30.306  30.773  1.00  0.00     0.023 A 
ATOM     68  C   UNL A   1      38.377  30.016  32.128  1.00  0.00     0.012 A 
ATOM     69  C   UNL A   1      37.678  31.032  30.029  1.00  0.00     0.148 A 
ATOM     70  C   UNL A   1      37.190  30.431  32.732  1.00  0.00     0.002 A 
ATOM     71  C   UNL A   1      36.510  31.467  30.646  1.00  0.00     0.091 A 
ATOM     72  F   UNL A   1      37.927  31.274  28.735  1.00  0.00    -0.205 F 
ATOM     73  C   UNL A   1      36.263  31.165  31.996  1.00  0.00     0.022 A 
BRANCH  71  74
ATOM     74  S   UNL A   1      35.286  32.470  29.796  1.00  0.00     0.127 S 
ATOM     75  O   UNL A   1      34.828  31.555  28.752  1.00  0.00    -0.237 OA
ATOM     76  O   UNL A   1      34.306  32.729  30.852  1.00  0.00    -0.237 OA
ATOM     77  O   UNL A   1      35.995  33.653  29.329  1.00  0.00    -0.744 OA
ENDBRANCH  71  74
ENDBRANCH  53  67
BRANCH  54  78
ATOM     78  C   UNL A   1      47.144  27.571  26.269  1.00  0.00     0.023 A 
ATOM     79  C   UNL A   1      48.095  26.779  26.937  1.00  0.00     0.012 A 
ATOM     80  C   UNL A   1      47.344  27.885  24.910  1.00  0.00     0.148 A 
ATOM     81  C   UNL A   1      49.228  26.315  26.268  1.00  0.00     0.002 A 
ATOM     82  C   UNL A   1      48.443  27.368  24.234  1.00  0.00     0.091 A 
ATOM     83  F   UNL A   1      46.440  28.658  24.290  1.00  0.00    -0.205 F 
ATOM     84  C   UNL A   1      49.394  26.594  24.913  1.00  0.00     0.022 A 
BRANCH  82  85
ATOM     85  S   UNL A   1      48.600  27.559  22.455  1.00  0.00     0.127 S 
ATOM     86  O   UNL A   1      48.638  26.172  22.002  1.00  0.00    -0.237 OA
ATOM     87  O   UNL A   1      47.382  28.289  22.102  1.00  0.00    -0.237 OA
ATOM     88  O   UNL A   1      49.823  28.333  22.278  1.00  0.00    -0.744 OA
ENDBRANCH  82  85
ENDBRANCH  54  78
BRANCH  66  89
ATOM     89  C   UNL A   1      45.179  33.181  29.921  1.00  0.00     0.023 A 
ATOM     90  C   UNL A   1      45.940  33.277  31.103  1.00  0.00     0.012 A 
ATOM     91  C   UNL A   1      45.120  34.277  29.042  1.00  0.00     0.148 A 
ATOM     92  C   UNL A   1      46.612  34.455  31.418  1.00  0.00     0.002 A 
ATOM     93  C   UNL A   1      45.823  35.438  29.346  1.00  0.00     0.091 A 
ATOM     94  F   UNL A   1      44.369  34.178  27.935  1.00  0.00    -0.205 F 
ATOM     95  C   UNL A   1      46.563  35.532  30.536  1.00  0.00     0.022 A 
BRANCH  93  96
ATOM     96  S   UNL A   1      45.861  36.831  28.212  1.00  0.00     0.127 S 
ATOM     97  O   UNL A   1      46.656  37.804  28.958  1.00  0.00    -0.237 OA
ATOM     98  O   UNL A   1      46.530  36.272  27.036  1.00  0.00    -0.237 OA
ATOM     99  O   UNL A   1      44.465  37.182  27.991  1.00  0.00    -0.744 OA
ENDBRANCH  93  96
ENDBRANCH  66  89
ENDBRANCH  40  41
ENDBRANCH  33  35
ENDBRANCH  32  33
ENDBRANCH  31  32
ENDBRANCH   1  31
TORSDOF 17
ENDMDL
