MODEL 1
REMARK VINA RESULT:     -12.3      0.000      0.000
REMARK SMILES Cn1c(=O)c2c(nc(Nc3cccc(Cl)c3Cl)n2CC(=O)OCCOC(=O)c2ccc(-c3c4nc(c(-c5cccc(S(=O)(=O)[O-])c5F)c5ccc([nH]5)c(-c5cccc(S(=O)(=O)[O-])c5F)c5nc(c(-c6cccc(S(=O)(=O)[O-])c6F)c6ccc3[nH]6)C=C5)C=C4)cc2)n(C)c1=O
REMARK SMILES IDX 23 1 22 2 20 3 21 4 19 5 18 6 1 7 2 8 3 9 93 10 4 11 5 12
REMARK SMILES IDX 91 13 94 14 6 15 92 16 7 17 8 18 9 19 10 21 11 22 16 23
REMARK SMILES IDX 12 24 14 25 17 26 13 27 15 28 24 29 25 30 26 31 27 32 28 33
REMARK SMILES IDX 29 34 90 35 30 36 89 37 31 38 32 39 33 40 83 41 34 42 88 43
REMARK SMILES IDX 82 44 84 45 35 46 87 47 81 48 80 49 36 51 68 52 48 53 67 54
REMARK SMILES IDX 49 55 52 56 66 57 85 58 50 59 51 60 65 62 86 63 53 64 37 65
REMARK SMILES IDX 38 66 46 67 39 68 41 69 47 70 40 71 42 72 43 73 44 74 45 75
REMARK SMILES IDX 69 76 70 77 78 78 71 79 73 80 79 81 72 82 74 83 75 84 76 85
REMARK SMILES IDX 77 86 54 87 55 88 63 89 56 90 58 91 64 92 57 93 59 94 60 95
REMARK SMILES IDX 61 96 62 97
REMARK H PARENT 9 20 84 50 52 61
REMARK Flexibility Score: inf
ROOT
ATOM      1  C   UNL A   1      32.383  29.839  25.609  1.00  0.00     0.274 C 
ENDROOT
BRANCH   1   2
ATOM      2  O   UNL A   1      31.440  28.741  25.692  1.00  0.00    -0.461 OA
BRANCH   2   3
ATOM      3  C   UNL A   1      31.851  27.669  26.421  1.00  0.00     0.326 C 
ATOM      4  O   UNL A   1      31.363  27.372  27.512  1.00  0.00    -0.250 OA
BRANCH   3   5
ATOM      5  C   UNL A   1      32.907  26.792  25.794  1.00  0.00     0.248 C 
BRANCH   5   6
ATOM      6  N   UNL A   1      32.521  25.732  24.876  1.00  0.00    -0.293 N 
ATOM      7  C   UNL A   1      34.872  21.776  26.601  1.00  0.00     0.159 C 
ATOM      8  N   UNL A   1      34.073  22.470  25.609  1.00  0.00    -0.261 N 
ATOM      9  C   UNL A   1      34.145  23.861  25.591  1.00  0.00     0.282 A 
ATOM     10  C   UNL A   1      33.425  21.719  24.622  1.00  0.00     0.332 A 
ATOM     11  O   UNL A   1      35.092  24.508  26.029  1.00  0.00    -0.267 OA
ATOM     12  C   UNL A   1      33.073  24.464  24.875  1.00  0.00     0.154 A 
ATOM     13  N   UNL A   1      32.640  22.430  23.705  1.00  0.00    -0.279 N 
ATOM     14  O   UNL A   1      33.552  20.495  24.541  1.00  0.00    -0.247 OA
ATOM     15  C   UNL A   1      32.402  23.767  23.923  1.00  0.00     0.170 A 
ATOM     16  C   UNL A   1      32.092  21.757  22.548  1.00  0.00     0.157 C 
ATOM     17  N   UNL A   1      31.583  24.575  23.211  1.00  0.00    -0.194 NA
ATOM     18  C   UNL A   1      31.712  25.779  23.746  1.00  0.00     0.210 A 
BRANCH  18  19
ATOM     19  N   UNL A   1      31.085  26.835  23.190  1.00  0.00    -0.324 N 
ATOM     20  H   UNL A   1      31.662  27.355  22.586  1.00  0.00     0.170 HD
BRANCH  19  21
ATOM     21  C   UNL A   1      29.784  27.350  23.287  1.00  0.00     0.061 A 
ATOM     22  C   UNL A   1      28.807  26.474  23.792  1.00  0.00     0.028 A 
ATOM     23  C   UNL A   1      29.370  28.607  22.797  1.00  0.00     0.083 A 
ATOM     24  C   UNL A   1      27.477  26.863  23.914  1.00  0.00     0.004 A 
ATOM     25  C   UNL A   1      28.039  29.020  22.981  1.00  0.00     0.061 A 
ATOM     26  Cl  UNL A   1      30.487  29.609  21.918  1.00  0.00    -0.080 Cl
ATOM     27  C   UNL A   1      27.100  28.148  23.542  1.00  0.00     0.022 A 
ATOM     28  Cl  UNL A   1      27.484  30.598  22.542  1.00  0.00    -0.083 Cl
ENDBRANCH  19  21
ENDBRANCH  18  19
ENDBRANCH   5   6
ENDBRANCH   3   5
ENDBRANCH   2   3
ENDBRANCH   1   2
BRANCH   1  29
ATOM     29  C   UNL A   1      31.877  31.104  26.312  1.00  0.00     0.275 C 
BRANCH  29  30
ATOM     30  O   UNL A   1      32.625  31.437  27.489  1.00  0.00    -0.458 OA
BRANCH  30  31
ATOM     31  C   UNL A   1      32.629  32.768  27.725  1.00  0.00     0.338 C 
ATOM     32  O   UNL A   1      31.870  33.583  27.240  1.00  0.00    -0.246 OA
BRANCH  31  33
ATOM     33  C   UNL A   1      33.828  33.207  28.436  1.00  0.00     0.060 A 
ATOM     34  C   UNL A   1      34.854  33.685  27.625  1.00  0.00     0.016 A 
ATOM     35  C   UNL A   1      34.078  32.649  29.691  1.00  0.00     0.016 A 
ATOM     36  C   UNL A   1      36.144  33.325  27.933  1.00  0.00     0.010 A 
ATOM     37  C   UNL A   1      35.383  32.358  30.036  1.00  0.00     0.010 A 
ATOM     38  C   UNL A   1      36.392  32.594  29.104  1.00  0.00    -0.014 A 
BRANCH  38  39
ATOM     39  C   UNL A   1      37.779  32.247  29.380  1.00  0.00     0.031 A 
ATOM     40  C   UNL A   1      38.051  30.819  29.081  1.00  0.00     0.074 A 
ATOM     41  C   UNL A   1      38.724  33.125  29.768  1.00  0.00     0.049 A 
ATOM     42  N   UNL A   1      38.384  29.885  29.908  1.00  0.00    -0.248 NA
ATOM     43  C   UNL A   1      37.667  30.336  27.743  1.00  0.00     0.031 C 
ATOM     44  C   UNL A   1      38.622  34.583  29.854  1.00  0.00     0.029 A 
ATOM     45  N   UNL A   1      40.043  32.898  30.028  1.00  0.00    -0.354 N 
ATOM     46  C   UNL A   1      38.479  28.733  29.130  1.00  0.00     0.074 A 
ATOM     47  C   UNL A   1      37.806  29.021  27.896  1.00  0.00     0.031 C 
ATOM     48  C   UNL A   1      39.866  35.114  29.860  1.00  0.00     0.029 A 
ATOM     49  C   UNL A   1      40.838  34.037  29.920  1.00  0.00     0.049 A 
ATOM     50  H   UNL A   1      40.399  32.012  30.269  1.00  0.00     0.167 HD
ATOM     51  C   UNL A   1      39.364  27.750  29.446  1.00  0.00     0.034 A 
ATOM     52  C   UNL A   1      42.188  34.065  29.790  1.00  0.00     0.034 A 
ATOM     53  C   UNL A   1      39.736  27.819  30.838  1.00  0.00     0.049 A 
ATOM     54  C   UNL A   1      42.700  32.761  30.270  1.00  0.00     0.074 A 
ATOM     55  C   UNL A   1      39.059  27.747  32.039  1.00  0.00     0.029 A 
ATOM     56  N   UNL A   1      40.958  28.374  31.124  1.00  0.00    -0.354 N 
ATOM     57  N   UNL A   1      42.637  32.371  31.510  1.00  0.00    -0.248 NA
ATOM     58  C   UNL A   1      42.914  31.711  29.288  1.00  0.00     0.031 C 
ATOM     59  C   UNL A   1      39.729  28.666  32.898  1.00  0.00     0.029 A 
ATOM     60  C   UNL A   1      40.810  29.206  32.198  1.00  0.00     0.049 A 
ATOM     61  H   UNL A   1      41.798  28.203  30.638  1.00  0.00     0.167 HD
ATOM     62  C   UNL A   1      42.333  31.020  31.426  1.00  0.00     0.074 A 
ATOM     63  C   UNL A   1      42.636  30.647  30.045  1.00  0.00     0.031 C 
ATOM     64  C   UNL A   1      41.592  30.408  32.395  1.00  0.00     0.034 A 
BRANCH  51  65
ATOM     65  C   UNL A   1      40.221  27.033  28.419  1.00  0.00     0.023 A 
ATOM     66  C   UNL A   1      40.329  25.629  28.554  1.00  0.00     0.012 A 
ATOM     67  C   UNL A   1      41.139  27.653  27.536  1.00  0.00     0.148 A 
ATOM     68  C   UNL A   1      41.349  24.905  27.928  1.00  0.00     0.002 A 
ATOM     69  C   UNL A   1      42.105  26.919  26.857  1.00  0.00     0.091 A 
ATOM     70  F   UNL A   1      41.183  28.979  27.416  1.00  0.00    -0.205 F 
ATOM     71  C   UNL A   1      42.240  25.550  27.082  1.00  0.00     0.022 A 
BRANCH  69  72
ATOM     72  S   UNL A   1      43.251  27.702  25.711  1.00  0.00     0.127 S 
ATOM     73  O   UNL A   1      44.142  26.593  25.389  1.00  0.00    -0.237 OA
ATOM     74  O   UNL A   1      42.352  28.112  24.631  1.00  0.00    -0.237 OA
ATOM     75  O   UNL A   1      43.849  28.812  26.441  1.00  0.00    -0.744 OA
ENDBRANCH  69  72
ENDBRANCH  51  65
BRANCH  52  76
ATOM     76  C   UNL A   1      43.054  34.973  28.995  1.00  0.00     0.023 A 
ATOM     77  C   UNL A   1      43.075  34.845  27.589  1.00  0.00     0.012 A 
ATOM     78  C   UNL A   1      43.591  36.150  29.561  1.00  0.00     0.148 A 
ATOM     79  C   UNL A   1      43.566  35.874  26.774  1.00  0.00     0.002 A 
ATOM     80  C   UNL A   1      44.078  37.170  28.747  1.00  0.00     0.091 A 
ATOM     81  F   UNL A   1      43.538  36.310  30.890  1.00  0.00    -0.205 F 
ATOM     82  C   UNL A   1      44.053  37.042  27.353  1.00  0.00     0.022 A 
BRANCH  80  83
ATOM     83  S   UNL A   1      44.682  38.726  29.417  1.00  0.00     0.127 S 
ATOM     84  O   UNL A   1      46.012  38.351  29.901  1.00  0.00    -0.237 OA
ATOM     85  O   UNL A   1      44.680  39.584  28.236  1.00  0.00    -0.237 OA
ATOM     86  O   UNL A   1      43.745  39.099  30.469  1.00  0.00    -0.744 OA
ENDBRANCH  80  83
ENDBRANCH  52  76
BRANCH  64  87
ATOM     87  C   UNL A   1      41.352  31.149  33.687  1.00  0.00     0.023 A 
ATOM     88  C   UNL A   1      42.304  31.192  34.728  1.00  0.00     0.012 A 
ATOM     89  C   UNL A   1      40.221  31.979  33.767  1.00  0.00     0.148 A 
ATOM     90  C   UNL A   1      42.125  32.038  35.826  1.00  0.00     0.002 A 
ATOM     91  C   UNL A   1      40.073  32.857  34.833  1.00  0.00     0.091 A 
ATOM     92  F   UNL A   1      39.323  31.920  32.772  1.00  0.00    -0.205 F 
ATOM     93  C   UNL A   1      41.019  32.884  35.869  1.00  0.00     0.022 A 
BRANCH  91  94
ATOM     94  S   UNL A   1      38.748  34.066  34.870  1.00  0.00     0.127 S 
ATOM     95  O   UNL A   1      39.123  34.896  36.012  1.00  0.00    -0.237 OA
ATOM     96  O   UNL A   1      38.882  34.720  33.567  1.00  0.00    -0.237 OA
ATOM     97  O   UNL A   1      37.514  33.305  35.027  1.00  0.00    -0.744 OA
ENDBRANCH  91  94
ENDBRANCH  64  87
ENDBRANCH  38  39
ENDBRANCH  31  33
ENDBRANCH  30  31
ENDBRANCH  29  30
ENDBRANCH   1  29
TORSDOF 17
ENDMDL
MODEL 2
REMARK VINA RESULT:     -11.9      4.602      9.134
REMARK SMILES Cn1c(=O)c2c(nc(Nc3cccc(Cl)c3Cl)n2CC(=O)OCCOC(=O)c2ccc(-c3c4nc(c(-c5cccc(S(=O)(=O)[O-])c5F)c5ccc([nH]5)c(-c5cccc(S(=O)(=O)[O-])c5F)c5nc(c(-c6cccc(S(=O)(=O)[O-])c6F)c6ccc3[nH]6)C=C5)C=C4)cc2)n(C)c1=O
REMARK SMILES IDX 23 1 22 2 20 3 21 4 19 5 18 6 1 7 2 8 3 9 93 10 4 11 5 12
REMARK SMILES IDX 91 13 94 14 6 15 92 16 7 17 8 18 9 19 10 21 11 22 16 23
REMARK SMILES IDX 12 24 14 25 17 26 13 27 15 28 24 29 25 30 26 31 27 32 28 33
REMARK SMILES IDX 29 34 90 35 30 36 89 37 31 38 32 39 33 40 83 41 34 42 88 43
REMARK SMILES IDX 82 44 84 45 35 46 87 47 81 48 80 49 36 51 68 52 48 53 67 54
REMARK SMILES IDX 49 55 52 56 66 57 85 58 50 59 51 60 65 62 86 63 53 64 37 65
REMARK SMILES IDX 38 66 46 67 39 68 41 69 47 70 40 71 42 72 43 73 44 74 45 75
REMARK SMILES IDX 69 76 70 77 78 78 71 79 73 80 79 81 72 82 74 83 75 84 76 85
REMARK SMILES IDX 77 86 54 87 55 88 63 89 56 90 58 91 64 92 57 93 59 94 60 95
REMARK SMILES IDX 61 96 62 97
REMARK H PARENT 9 20 84 50 52 61
REMARK Flexibility Score: inf
ROOT
ATOM      1  C   UNL A   1      38.755  21.642  25.865  1.00  0.00     0.274 C 
ENDROOT
BRANCH   1   2
ATOM      2  O   UNL A   1      37.717  21.978  24.910  1.00  0.00    -0.461 OA
BRANCH   2   3
ATOM      3  C   UNL A   1      36.564  22.460  25.443  1.00  0.00     0.326 C 
ATOM      4  O   UNL A   1      36.284  23.659  25.462  1.00  0.00    -0.250 OA
BRANCH   3   5
ATOM      5  C   UNL A   1      35.581  21.439  25.961  1.00  0.00     0.248 C 
BRANCH   5   6
ATOM      6  N   UNL A   1      34.581  20.874  25.068  1.00  0.00    -0.293 N 
ATOM      7  C   UNL A   1      35.487  16.046  25.198  1.00  0.00     0.159 C 
ATOM      8  N   UNL A   1      34.814  17.218  24.671  1.00  0.00    -0.261 N 
ATOM      9  C   UNL A   1      35.434  18.450  24.860  1.00  0.00     0.282 A 
ATOM     10  C   UNL A   1      33.691  17.038  23.855  1.00  0.00     0.332 A 
ATOM     11  O   UNL A   1      36.639  18.595  25.049  1.00  0.00    -0.267 OA
ATOM     12  C   UNL A   1      34.554  19.551  24.667  1.00  0.00     0.154 A 
ATOM     13  N   UNL A   1      33.056  18.198  23.394  1.00  0.00    -0.279 N 
ATOM     14  O   UNL A   1      33.288  15.918  23.532  1.00  0.00    -0.247 OA
ATOM     15  C   UNL A   1      33.442  19.418  23.901  1.00  0.00     0.170 A 
ATOM     16  C   UNL A   1      32.009  18.104  22.400  1.00  0.00     0.157 C 
ATOM     17  N   UNL A   1      32.868  20.618  23.657  1.00  0.00    -0.194 NA
ATOM     18  C   UNL A   1      33.602  21.506  24.308  1.00  0.00     0.210 A 
BRANCH  18  19
ATOM     19  N   UNL A   1      33.336  22.823  24.185  1.00  0.00    -0.324 N 
ATOM     20  H   UNL A   1      33.881  23.265  23.495  1.00  0.00     0.170 HD
BRANCH  19  21
ATOM     21  C   UNL A   1      32.448  23.696  24.829  1.00  0.00     0.061 A 
ATOM     22  C   UNL A   1      31.455  23.095  25.623  1.00  0.00     0.028 A 
ATOM     23  C   UNL A   1      32.395  25.092  24.632  1.00  0.00     0.083 A 
ATOM     24  C   UNL A   1      30.502  23.855  26.293  1.00  0.00     0.004 A 
ATOM     25  C   UNL A   1      31.472  25.862  25.360  1.00  0.00     0.061 A 
ATOM     26  Cl  UNL A   1      33.426  25.843  23.449  1.00  0.00    -0.080 Cl
ATOM     27  C   UNL A   1      30.533  25.241  26.190  1.00  0.00     0.022 A 
ATOM     28  Cl  UNL A   1      31.438  27.590  25.288  1.00  0.00    -0.083 Cl
ENDBRANCH  19  21
ENDBRANCH  18  19
ENDBRANCH   5   6
ENDBRANCH   3   5
ENDBRANCH   2   3
ENDBRANCH   1   2
BRANCH   1  29
ATOM     29  C   UNL A   1      39.378  20.266  25.599  1.00  0.00     0.275 C 
BRANCH  29  30
ATOM     30  O   UNL A   1      40.394  19.910  26.546  1.00  0.00    -0.458 OA
BRANCH  30  31
ATOM     31  C   UNL A   1      41.627  19.921  25.992  1.00  0.00     0.338 C 
ATOM     32  O   UNL A   1      42.064  19.107  25.203  1.00  0.00    -0.246 OA
BRANCH  31  33
ATOM     33  C   UNL A   1      42.523  20.879  26.637  1.00  0.00     0.060 A 
ATOM     34  C   UNL A   1      42.417  20.944  28.024  1.00  0.00     0.016 A 
ATOM     35  C   UNL A   1      42.967  21.962  25.878  1.00  0.00     0.016 A 
ATOM     36  C   UNL A   1      42.461  22.182  28.619  1.00  0.00     0.010 A 
ATOM     37  C   UNL A   1      43.087  23.194  26.493  1.00  0.00     0.010 A 
ATOM     38  C   UNL A   1      42.721  23.313  27.832  1.00  0.00    -0.014 A 
BRANCH  38  39
ATOM     39  C   UNL A   1      42.759  24.596  28.520  1.00  0.00     0.031 A 
ATOM     40  C   UNL A   1      41.550  25.406  28.226  1.00  0.00     0.074 A 
ATOM     41  C   UNL A   1      43.720  24.971  29.387  1.00  0.00     0.049 A 
ATOM     42  N   UNL A   1      41.484  26.534  27.601  1.00  0.00    -0.248 NA
ATOM     43  C   UNL A   1      40.246  24.756  28.445  1.00  0.00     0.031 C 
ATOM     44  C   UNL A   1      44.813  24.161  29.929  1.00  0.00     0.029 A 
ATOM     45  N   UNL A   1      43.829  26.135  30.088  1.00  0.00    -0.354 N 
ATOM     46  C   UNL A   1      40.126  26.843  27.561  1.00  0.00     0.074 A 
ATOM     47  C   UNL A   1      39.425  25.629  27.867  1.00  0.00     0.031 C 
ATOM     48  C   UNL A   1      45.280  24.746  31.056  1.00  0.00     0.029 A 
ATOM     49  C   UNL A   1      44.619  26.027  31.231  1.00  0.00     0.049 A 
ATOM     50  H   UNL A   1      43.389  26.972  29.814  1.00  0.00     0.167 HD
ATOM     51  C   UNL A   1      39.706  28.136  27.580  1.00  0.00     0.034 A 
ATOM     52  C   UNL A   1      44.639  26.889  32.278  1.00  0.00     0.034 A 
ATOM     53  C   UNL A   1      40.751  29.026  27.136  1.00  0.00     0.049 A 
ATOM     54  C   UNL A   1      44.079  28.173  31.798  1.00  0.00     0.074 A 
ATOM     55  C   UNL A   1      41.492  29.168  25.980  1.00  0.00     0.029 A 
ATOM     56  N   UNL A   1      41.429  29.716  28.109  1.00  0.00    -0.354 N 
ATOM     57  N   UNL A   1      44.662  28.932  30.915  1.00  0.00    -0.248 NA
ATOM     58  C   UNL A   1      42.659  28.412  31.998  1.00  0.00     0.031 C 
ATOM     59  C   UNL A   1      42.792  29.555  26.418  1.00  0.00     0.029 A 
ATOM     60  C   UNL A   1      42.761  29.682  27.808  1.00  0.00     0.049 A 
ATOM     61  H   UNL A   1      41.025  30.159  28.891  1.00  0.00     0.167 HD
ATOM     62  C   UNL A   1      43.619  29.403  30.131  1.00  0.00     0.074 A 
ATOM     63  C   UNL A   1      42.410  29.150  30.913  1.00  0.00     0.031 C 
ATOM     64  C   UNL A   1      43.809  29.678  28.807  1.00  0.00     0.034 A 
BRANCH  51  65
ATOM     65  C   UNL A   1      38.535  28.624  28.415  1.00  0.00     0.023 A 
ATOM     66  C   UNL A   1      37.507  29.307  27.724  1.00  0.00     0.012 A 
ATOM     67  C   UNL A   1      38.515  28.717  29.828  1.00  0.00     0.148 A 
ATOM     68  C   UNL A   1      36.579  30.113  28.393  1.00  0.00     0.002 A 
ATOM     69  C   UNL A   1      37.546  29.460  30.494  1.00  0.00     0.091 A 
ATOM     70  F   UNL A   1      39.495  28.193  30.562  1.00  0.00    -0.205 F 
ATOM     71  C   UNL A   1      36.601  30.193  29.779  1.00  0.00     0.022 A 
BRANCH  69  72
ATOM     72  S   UNL A   1      37.501  29.553  32.290  1.00  0.00     0.127 S 
ATOM     73  O   UNL A   1      37.517  28.141  32.655  1.00  0.00    -0.237 OA
ATOM     74  O   UNL A   1      38.737  30.283  32.578  1.00  0.00    -0.237 OA
ATOM     75  O   UNL A   1      36.286  30.286  32.622  1.00  0.00    -0.744 OA
ENDBRANCH  69  72
ENDBRANCH  51  65
BRANCH  52  76
ATOM     76  C   UNL A   1      44.790  26.624  33.732  1.00  0.00     0.023 A 
ATOM     77  C   UNL A   1      45.988  26.999  34.378  1.00  0.00     0.012 A 
ATOM     78  C   UNL A   1      43.672  26.314  34.537  1.00  0.00     0.148 A 
ATOM     79  C   UNL A   1      46.055  27.114  35.772  1.00  0.00     0.002 A 
ATOM     80  C   UNL A   1      43.744  26.430  35.923  1.00  0.00     0.091 A 
ATOM     81  F   UNL A   1      42.514  26.001  33.941  1.00  0.00    -0.205 F 
ATOM     82  C   UNL A   1      44.929  26.844  36.543  1.00  0.00     0.022 A 
BRANCH  80  83
ATOM     83  S   UNL A   1      42.320  26.142  36.984  1.00  0.00     0.127 S 
ATOM     84  O   UNL A   1      42.895  26.328  38.317  1.00  0.00    -0.237 OA
ATOM     85  O   UNL A   1      41.407  27.199  36.558  1.00  0.00    -0.237 OA
ATOM     86  O   UNL A   1      41.882  24.780  36.705  1.00  0.00    -0.744 OA
ENDBRANCH  80  83
ENDBRANCH  52  76
BRANCH  64  87
ATOM     87  C   UNL A   1      45.222  29.734  28.284  1.00  0.00     0.023 A 
ATOM     88  C   UNL A   1      46.028  30.888  28.391  1.00  0.00     0.012 A 
ATOM     89  C   UNL A   1      45.810  28.533  27.852  1.00  0.00     0.148 A 
ATOM     90  C   UNL A   1      47.388  30.844  28.065  1.00  0.00     0.002 A 
ATOM     91  C   UNL A   1      47.171  28.480  27.582  1.00  0.00     0.091 A 
ATOM     92  F   UNL A   1      45.028  27.448  27.751  1.00  0.00    -0.205 F 
ATOM     93  C   UNL A   1      47.963  29.635  27.678  1.00  0.00     0.022 A 
BRANCH  91  94
ATOM     94  S   UNL A   1      47.991  26.926  27.219  1.00  0.00     0.127 S 
ATOM     95  O   UNL A   1      47.285  25.995  28.095  1.00  0.00    -0.237 OA
ATOM     96  O   UNL A   1      47.718  26.751  25.791  1.00  0.00    -0.237 OA
ATOM     97  O   UNL A   1      49.401  27.133  27.531  1.00  0.00    -0.744 OA
ENDBRANCH  91  94
ENDBRANCH  64  87
ENDBRANCH  38  39
ENDBRANCH  31  33
ENDBRANCH  30  31
ENDBRANCH  29  30
ENDBRANCH   1  29
TORSDOF 17
ENDMDL
MODEL 3
REMARK VINA RESULT:     -11.8      4.402      9.413
REMARK SMILES Cn1c(=O)c2c(nc(Nc3cccc(Cl)c3Cl)n2CC(=O)OCCOC(=O)c2ccc(-c3c4nc(c(-c5cccc(S(=O)(=O)[O-])c5F)c5ccc([nH]5)c(-c5cccc(S(=O)(=O)[O-])c5F)c5nc(c(-c6cccc(S(=O)(=O)[O-])c6F)c6ccc3[nH]6)C=C5)C=C4)cc2)n(C)c1=O
REMARK SMILES IDX 23 1 22 2 20 3 21 4 19 5 18 6 1 7 2 8 3 9 93 10 4 11 5 12
REMARK SMILES IDX 91 13 94 14 6 15 92 16 7 17 8 18 9 19 10 21 11 22 16 23
REMARK SMILES IDX 12 24 14 25 17 26 13 27 15 28 24 29 25 30 26 31 27 32 28 33
REMARK SMILES IDX 29 34 90 35 30 36 89 37 31 38 32 39 33 40 83 41 34 42 88 43
REMARK SMILES IDX 82 44 84 45 35 46 87 47 81 48 80 49 36 51 68 52 48 53 67 54
REMARK SMILES IDX 49 55 52 56 66 57 85 58 50 59 51 60 65 62 86 63 53 64 37 65
REMARK SMILES IDX 38 66 46 67 39 68 41 69 47 70 40 71 42 72 43 73 44 74 45 75
REMARK SMILES IDX 69 76 70 77 78 78 71 79 73 80 79 81 72 82 74 83 75 84 76 85
REMARK SMILES IDX 77 86 54 87 55 88 63 89 56 90 58 91 64 92 57 93 59 94 60 95
REMARK SMILES IDX 61 96 62 97
REMARK H PARENT 9 20 84 50 52 61
REMARK Flexibility Score: inf
ROOT
ATOM      1  C   UNL A   1      37.031  20.581  24.635  1.00  0.00     0.274 C 
ENDROOT
BRANCH   1   2
ATOM      2  O   UNL A   1      37.002  21.991  24.971  1.00  0.00    -0.461 OA
BRANCH   2   3
ATOM      3  C   UNL A   1      35.798  22.472  25.378  1.00  0.00     0.326 C 
ATOM      4  O   UNL A   1      35.495  22.609  26.564  1.00  0.00    -0.250 OA
BRANCH   3   5
ATOM      5  C   UNL A   1      34.845  22.912  24.294  1.00  0.00     0.248 C 
BRANCH   5   6
ATOM      6  N   UNL A   1      33.487  23.307  24.635  1.00  0.00    -0.293 N 
ATOM      7  C   UNL A   1      33.630  28.218  24.512  1.00  0.00     0.159 C 
ATOM      8  N   UNL A   1      32.978  26.953  24.799  1.00  0.00    -0.261 N 
ATOM      9  C   UNL A   1      33.797  25.842  24.987  1.00  0.00     0.282 A 
ATOM     10  C   UNL A   1      31.601  26.948  25.050  1.00  0.00     0.332 A 
ATOM     11  O   UNL A   1      34.973  25.902  25.335  1.00  0.00    -0.267 OA
ATOM     12  C   UNL A   1      33.093  24.610  24.880  1.00  0.00     0.154 A 
ATOM     13  N   UNL A   1      31.011  25.701  25.292  1.00  0.00    -0.279 N 
ATOM     14  O   UNL A   1      30.938  27.986  25.083  1.00  0.00    -0.247 OA
ATOM     15  C   UNL A   1      31.754  24.560  25.094  1.00  0.00     0.170 A 
ATOM     16  C   UNL A   1      29.639  25.625  25.742  1.00  0.00     0.157 C 
ATOM     17  N   UNL A   1      31.318  23.282  25.168  1.00  0.00    -0.194 NA
ATOM     18  C   UNL A   1      32.384  22.525  24.960  1.00  0.00     0.210 A 
BRANCH  18  19
ATOM     19  N   UNL A   1      32.290  21.183  25.065  1.00  0.00    -0.324 N 
ATOM     20  H   UNL A   1      32.107  20.879  25.982  1.00  0.00     0.170 HD
BRANCH  19  21
ATOM     21  C   UNL A   1      32.398  20.130  24.145  1.00  0.00     0.061 A 
ATOM     22  C   UNL A   1      32.069  20.436  22.813  1.00  0.00     0.028 A 
ATOM     23  C   UNL A   1      32.672  18.787  24.477  1.00  0.00     0.083 A 
ATOM     24  C   UNL A   1      32.115  19.469  21.813  1.00  0.00     0.004 A 
ATOM     25  C   UNL A   1      32.780  17.827  23.457  1.00  0.00     0.061 A 
ATOM     26  Cl  UNL A   1      32.813  18.315  26.146  1.00  0.00    -0.080 Cl
ATOM     27  C   UNL A   1      32.506  18.172  22.130  1.00  0.00     0.022 A 
ATOM     28  Cl  UNL A   1      33.255  16.192  23.762  1.00  0.00    -0.083 Cl
ENDBRANCH  19  21
ENDBRANCH  18  19
ENDBRANCH   5   6
ENDBRANCH   3   5
ENDBRANCH   2   3
ENDBRANCH   1   2
BRANCH   1  29
ATOM     29  C   UNL A   1      38.174  19.833  25.331  1.00  0.00     0.275 C 
BRANCH  29  30
ATOM     30  O   UNL A   1      39.227  20.697  25.779  1.00  0.00    -0.458 OA
BRANCH  30  31
ATOM     31  C   UNL A   1      40.407  20.045  25.878  1.00  0.00     0.338 C 
ATOM     32  O   UNL A   1      40.588  18.859  25.685  1.00  0.00    -0.246 OA
BRANCH  31  33
ATOM     33  C   UNL A   1      41.442  20.856  26.517  1.00  0.00     0.060 A 
ATOM     34  C   UNL A   1      41.390  20.894  27.907  1.00  0.00     0.016 A 
ATOM     35  C   UNL A   1      42.004  21.893  25.770  1.00  0.00     0.016 A 
ATOM     36  C   UNL A   1      41.617  22.097  28.531  1.00  0.00     0.010 A 
ATOM     37  C   UNL A   1      42.306  23.079  26.411  1.00  0.00     0.010 A 
ATOM     38  C   UNL A   1      42.001  23.206  27.765  1.00  0.00    -0.014 A 
BRANCH  38  39
ATOM     39  C   UNL A   1      42.232  24.452  28.483  1.00  0.00     0.031 A 
ATOM     40  C   UNL A   1      41.147  25.433  28.231  1.00  0.00     0.074 A 
ATOM     41  C   UNL A   1      43.248  24.663  29.341  1.00  0.00     0.049 A 
ATOM     42  N   UNL A   1      41.233  26.576  27.634  1.00  0.00    -0.248 NA
ATOM     43  C   UNL A   1      39.767  24.970  28.457  1.00  0.00     0.031 C 
ATOM     44  C   UNL A   1      44.223  23.691  29.843  1.00  0.00     0.029 A 
ATOM     45  N   UNL A   1      43.532  25.780  30.069  1.00  0.00    -0.354 N 
ATOM     46  C   UNL A   1      39.933  27.076  27.626  1.00  0.00     0.074 A 
ATOM     47  C   UNL A   1      39.070  25.966  27.915  1.00  0.00     0.031 C 
ATOM     48  C   UNL A   1      44.784  24.174  30.976  1.00  0.00     0.029 A 
ATOM     49  C   UNL A   1      44.315  25.530  31.194  1.00  0.00     0.049 A 
ATOM     50  H   UNL A   1      43.212  26.678  29.822  1.00  0.00     0.167 HD
ATOM     51  C   UNL A   1      39.701  28.414  27.684  1.00  0.00     0.034 A 
ATOM     52  C   UNL A   1      44.473  26.353  32.261  1.00  0.00     0.034 A 
ATOM     53  C   UNL A   1      40.857  29.157  27.244  1.00  0.00     0.049 A 
ATOM     54  C   UNL A   1      44.095  27.715  31.823  1.00  0.00     0.074 A 
ATOM     55  C   UNL A   1      41.593  29.224  26.078  1.00  0.00     0.029 A 
ATOM     56  N   UNL A   1      41.640  29.718  28.221  1.00  0.00    -0.354 N 
ATOM     57  N   UNL A   1      44.767  28.407  30.949  1.00  0.00    -0.248 NA
ATOM     58  C   UNL A   1      42.727  28.149  32.054  1.00  0.00     0.031 C 
ATOM     59  C   UNL A   1      42.942  29.410  26.503  1.00  0.00     0.029 A 
ATOM     60  C   UNL A   1      42.949  29.503  27.896  1.00  0.00     0.049 A 
ATOM     61  H   UNL A   1      41.314  30.193  29.020  1.00  0.00     0.167 HD
ATOM     62  C   UNL A   1      43.792  29.043  30.195  1.00  0.00     0.074 A 
ATOM     63  C   UNL A   1      42.570  28.944  30.992  1.00  0.00     0.031 C 
ATOM     64  C   UNL A   1      43.999  29.324  28.875  1.00  0.00     0.034 A 
BRANCH  51  65
ATOM     65  C   UNL A   1      38.624  29.041  28.551  1.00  0.00     0.023 A 
ATOM     66  C   UNL A   1      37.767  29.973  27.921  1.00  0.00     0.012 A 
ATOM     67  C   UNL A   1      38.583  29.004  29.967  1.00  0.00     0.148 A 
ATOM     68  C   UNL A   1      36.995  30.878  28.657  1.00  0.00     0.002 A 
ATOM     69  C   UNL A   1      37.758  29.856  30.692  1.00  0.00     0.091 A 
ATOM     70  F   UNL A   1      39.422  28.232  30.656  1.00  0.00    -0.205 F 
ATOM     71  C   UNL A   1      36.992  30.822  30.044  1.00  0.00     0.022 A 
BRANCH  69  72
ATOM     72  S   UNL A   1      37.682  29.788  32.490  1.00  0.00     0.127 S 
ATOM     73  O   UNL A   1      37.359  28.383  32.714  1.00  0.00    -0.237 OA
ATOM     74  O   UNL A   1      39.043  30.180  32.857  1.00  0.00    -0.237 OA
ATOM     75  O   UNL A   1      36.660  30.749  32.882  1.00  0.00    -0.744 OA
ENDBRANCH  69  72
ENDBRANCH  51  65
BRANCH  52  76
ATOM     76  C   UNL A   1      44.606  26.030  33.705  1.00  0.00     0.023 A 
ATOM     77  C   UNL A   1      45.877  26.111  34.313  1.00  0.00     0.012 A 
ATOM     78  C   UNL A   1      43.472  25.965  34.545  1.00  0.00     0.148 A 
ATOM     79  C   UNL A   1      46.012  26.179  35.706  1.00  0.00     0.002 A 
ATOM     80  C   UNL A   1      43.611  26.032  35.930  1.00  0.00     0.091 A 
ATOM     81  F   UNL A   1      42.255  25.934  33.987  1.00  0.00    -0.205 F 
ATOM     82  C   UNL A   1      44.878  26.154  36.513  1.00  0.00     0.022 A 
BRANCH  80  83
ATOM     83  S   UNL A   1      42.193  26.052  37.036  1.00  0.00     0.127 S 
ATOM     84  O   UNL A   1      42.833  26.214  38.343  1.00  0.00    -0.237 OA
ATOM     85  O   UNL A   1      41.459  27.223  36.564  1.00  0.00    -0.237 OA
ATOM     86  O   UNL A   1      41.524  24.771  36.851  1.00  0.00    -0.744 OA
ENDBRANCH  80  83
ENDBRANCH  52  76
BRANCH  64  87
ATOM     87  C   UNL A   1      45.399  29.192  28.328  1.00  0.00     0.023 A 
ATOM     88  C   UNL A   1      45.894  27.987  27.785  1.00  0.00     0.012 A 
ATOM     89  C   UNL A   1      46.160  30.365  28.183  1.00  0.00     0.148 A 
ATOM     90  C   UNL A   1      47.124  27.954  27.121  1.00  0.00     0.002 A 
ATOM     91  C   UNL A   1      47.355  30.339  27.476  1.00  0.00     0.091 A 
ATOM     92  F   UNL A   1      45.677  31.500  28.710  1.00  0.00    -0.205 F 
ATOM     93  C   UNL A   1      47.845  29.134  26.950  1.00  0.00     0.022 A 
BRANCH  91  94
ATOM     94  S   UNL A   1      48.252  31.847  27.103  1.00  0.00     0.127 S 
ATOM     95  O   UNL A   1      49.472  31.333  26.486  1.00  0.00    -0.237 OA
ATOM     96  O   UNL A   1      47.343  32.535  26.183  1.00  0.00    -0.237 OA
ATOM     97  O   UNL A   1      48.435  32.532  28.378  1.00  0.00    -0.744 OA
ENDBRANCH  91  94
ENDBRANCH  64  87
ENDBRANCH  38  39
ENDBRANCH  31  33
ENDBRANCH  30  31
ENDBRANCH  29  30
ENDBRANCH   1  29
TORSDOF 17
ENDMDL
