MODEL 1
REMARK VINA RESULT:     -11.7      0.000      0.000
REMARK SMILES O=C(OCCOC(=O)c1ccc(Cl)nc1NC[C@@H]1C[N@@H+]2CCC[C@@H]2CO1)c1ccc(-c2c3nc(c(-c4cccc(S(=O)(=O)[O-])c4F)c4ccc([nH]4)c(-c4cccc(S(=O)(=O)[O-])c4F)c4nc(c(-c5cccc(S(=O)(=O)[O-])c5F)c5ccc2[nH]5)C=C4)C=C3)cc1
REMARK SMILES IDX 4 1 3 2 2 3 1 4 27 5 28 6 89 7 29 8 88 9 30 10 31 11 32 12
REMARK SMILES IDX 82 13 33 14 87 15 81 16 83 17 34 18 86 19 80 20 79 21 35 23
REMARK SMILES IDX 67 24 47 25 66 26 48 27 51 28 65 29 84 30 49 31 50 32 64 34
REMARK SMILES IDX 85 35 52 36 36 37 37 38 45 39 38 40 40 41 46 42 39 43 41 44
REMARK SMILES IDX 42 45 43 46 44 47 68 48 69 49 77 50 70 51 72 52 78 53 71 54
REMARK SMILES IDX 73 55 74 56 75 57 76 58 53 59 54 60 62 61 55 62 57 63 63 64
REMARK SMILES IDX 56 65 58 66 59 67 60 68 61 69 5 70 6 71 7 72 8 73 9 74 10 75
REMARK SMILES IDX 15 76 11 77 14 78 12 79 13 80 16 81 17 83 18 84 19 85 26 86
REMARK SMILES IDX 20 87 25 88 21 89 24 90 22 92 23 93
REMARK H PARENT 83 22 51 33 16 82 20 91
REMARK Flexibility Score: inf
ROOT
ATOM      1  C   UNL A   1      32.270  30.511  25.896  1.00  0.00     0.275 C 
ENDROOT
BRANCH   1   2
ATOM      2  O   UNL A   1      32.669  31.009  27.185  1.00  0.00    -0.458 OA
BRANCH   2   3
ATOM      3  C   UNL A   1      33.747  31.762  27.513  1.00  0.00     0.338 C 
ATOM      4  O   UNL A   1      33.766  32.948  27.190  1.00  0.00    -0.246 OA
BRANCH   3   5
ATOM      5  C   UNL A   1      34.994  31.162  28.077  1.00  0.00     0.060 A 
ATOM      6  C   UNL A   1      35.153  29.837  28.486  1.00  0.00     0.016 A 
ATOM      7  C   UNL A   1      36.093  32.024  28.197  1.00  0.00     0.016 A 
ATOM      8  C   UNL A   1      36.397  29.363  28.909  1.00  0.00     0.010 A 
ATOM      9  C   UNL A   1      37.350  31.551  28.575  1.00  0.00     0.010 A 
ATOM     10  C   UNL A   1      37.500  30.216  28.957  1.00  0.00    -0.014 A 
BRANCH  10  11
ATOM     11  C   UNL A   1      38.743  29.763  29.611  1.00  0.00     0.031 A 
ATOM     12  C   UNL A   1      39.090  30.367  30.939  1.00  0.00     0.074 A 
ATOM     13  C   UNL A   1      39.516  28.812  29.059  1.00  0.00     0.049 A 
ATOM     14  N   UNL A   1      40.052  30.047  31.758  1.00  0.00    -0.248 NA
ATOM     15  C   UNL A   1      38.218  31.453  31.425  1.00  0.00     0.031 C 
ATOM     16  C   UNL A   1      39.241  28.129  27.797  1.00  0.00     0.029 A 
ATOM     17  N   UNL A   1      40.699  28.264  29.477  1.00  0.00    -0.354 N 
ATOM     18  C   UNL A   1      39.892  30.878  32.858  1.00  0.00     0.074 A 
ATOM     19  C   UNL A   1      38.786  31.761  32.577  1.00  0.00     0.031 C 
ATOM     20  C   UNL A   1      40.263  27.308  27.503  1.00  0.00     0.029 A 
ATOM     21  C   UNL A   1      41.246  27.379  28.579  1.00  0.00     0.049 A 
ATOM     22  H   UNL A   1      41.118  28.482  30.341  1.00  0.00     0.167 HD
ATOM     23  C   UNL A   1      40.573  30.867  34.026  1.00  0.00     0.034 A 
ATOM     24  C   UNL A   1      42.404  26.693  28.633  1.00  0.00     0.034 A 
ATOM     25  C   UNL A   1      41.676  29.990  34.284  1.00  0.00     0.049 A 
ATOM     26  C   UNL A   1      43.207  26.764  29.904  1.00  0.00     0.074 A 
ATOM     27  C   UNL A   1      42.427  29.861  35.435  1.00  0.00     0.029 A 
ATOM     28  N   UNL A   1      42.205  29.107  33.352  1.00  0.00    -0.354 N 
ATOM     29  N   UNL A   1      42.949  27.437  31.002  1.00  0.00    -0.248 NA
ATOM     30  C   UNL A   1      44.414  25.930  29.979  1.00  0.00     0.031 C 
ATOM     31  C   UNL A   1      43.433  28.920  35.187  1.00  0.00     0.029 A 
ATOM     32  C   UNL A   1      43.287  28.440  33.893  1.00  0.00     0.049 A 
ATOM     33  H   UNL A   1      41.859  28.975  32.440  1.00  0.00     0.167 HD
ATOM     34  C   UNL A   1      43.920  27.058  31.920  1.00  0.00     0.074 A 
ATOM     35  C   UNL A   1      44.776  26.101  31.244  1.00  0.00     0.031 C 
ATOM     36  C   UNL A   1      44.085  27.454  33.207  1.00  0.00     0.034 A 
BRANCH  23  37
ATOM     37  C   UNL A   1      40.103  31.823  35.087  1.00  0.00     0.023 A 
ATOM     38  C   UNL A   1      40.671  33.115  35.160  1.00  0.00     0.012 A 
ATOM     39  C   UNL A   1      39.149  31.432  36.043  1.00  0.00     0.148 A 
ATOM     40  C   UNL A   1      40.339  33.979  36.202  1.00  0.00     0.002 A 
ATOM     41  C   UNL A   1      38.791  32.316  37.053  1.00  0.00     0.091 A 
ATOM     42  F   UNL A   1      38.647  30.192  35.973  1.00  0.00    -0.205 F 
ATOM     43  C   UNL A   1      39.396  33.581  37.145  1.00  0.00     0.022 A 
BRANCH  41  44
ATOM     44  S   UNL A   1      37.544  31.919  38.281  1.00  0.00     0.127 S 
ATOM     45  O   UNL A   1      38.272  32.151  39.527  1.00  0.00    -0.237 OA
ATOM     46  O   UNL A   1      36.503  32.906  37.991  1.00  0.00    -0.237 OA
ATOM     47  O   UNL A   1      37.157  30.538  38.027  1.00  0.00    -0.744 OA
ENDBRANCH  41  44
ENDBRANCH  23  37
BRANCH  24  48
ATOM     48  C   UNL A   1      42.806  25.808  27.503  1.00  0.00     0.023 A 
ATOM     49  C   UNL A   1      43.717  26.279  26.537  1.00  0.00     0.012 A 
ATOM     50  C   UNL A   1      42.317  24.490  27.399  1.00  0.00     0.148 A 
ATOM     51  C   UNL A   1      44.107  25.467  25.470  1.00  0.00     0.002 A 
ATOM     52  C   UNL A   1      42.740  23.673  26.355  1.00  0.00     0.091 A 
ATOM     53  F   UNL A   1      41.456  24.059  28.330  1.00  0.00    -0.205 F 
ATOM     54  C   UNL A   1      43.624  24.164  25.381  1.00  0.00     0.022 A 
BRANCH  52  55
ATOM     55  S   UNL A   1      42.262  21.947  26.217  1.00  0.00     0.127 S 
ATOM     56  O   UNL A   1      43.089  21.494  25.101  1.00  0.00    -0.237 OA
ATOM     57  O   UNL A   1      42.653  21.424  27.527  1.00  0.00    -0.237 OA
ATOM     58  O   UNL A   1      40.826  21.954  25.979  1.00  0.00    -0.744 OA
ENDBRANCH  52  55
ENDBRANCH  24  48
BRANCH  36  59
ATOM     59  C   UNL A   1      45.199  26.820  33.993  1.00  0.00     0.023 A 
ATOM     60  C   UNL A   1      46.482  27.398  33.988  1.00  0.00     0.012 A 
ATOM     61  C   UNL A   1      44.938  25.708  34.816  1.00  0.00     0.148 A 
ATOM     62  C   UNL A   1      47.498  26.862  34.777  1.00  0.00     0.002 A 
ATOM     63  C   UNL A   1      45.939  25.214  35.641  1.00  0.00     0.091 A 
ATOM     64  F   UNL A   1      43.713  25.161  34.785  1.00  0.00    -0.205 F 
ATOM     65  C   UNL A   1      47.223  25.782  35.614  1.00  0.00     0.022 A 
BRANCH  63  66
ATOM     66  S   UNL A   1      45.638  23.903  36.830  1.00  0.00     0.127 S 
ATOM     67  O   UNL A   1      46.944  23.780  37.475  1.00  0.00    -0.237 OA
ATOM     68  O   UNL A   1      44.592  24.483  37.674  1.00  0.00    -0.237 OA
ATOM     69  O   UNL A   1      45.211  22.747  36.053  1.00  0.00    -0.744 OA
ENDBRANCH  63  66
ENDBRANCH  36  59
ENDBRANCH  10  11
ENDBRANCH   3   5
ENDBRANCH   2   3
ENDBRANCH   1   2
BRANCH   1  70
ATOM     70  C   UNL A   1      33.104  29.344  25.354  1.00  0.00     0.275 C 
BRANCH  70  71
ATOM     71  O   UNL A   1      33.298  29.347  23.932  1.00  0.00    -0.458 OA
BRANCH  71  72
ATOM     72  C   UNL A   1      32.785  28.259  23.297  1.00  0.00     0.342 C 
ATOM     73  O   UNL A   1      33.425  27.282  22.941  1.00  0.00    -0.246 OA
BRANCH  72  74
ATOM     74  C   UNL A   1      31.316  28.363  23.180  1.00  0.00     0.102 A 
ATOM     75  C   UNL A   1      30.735  29.397  22.439  1.00  0.00     0.023 A 
ATOM     76  C   UNL A   1      30.495  27.393  23.782  1.00  0.00     0.142 A 
ATOM     77  C   UNL A   1      29.347  29.471  22.352  1.00  0.00     0.042 A 
ATOM     78  N   UNL A   1      29.151  27.500  23.730  1.00  0.00    -0.218 NA
ATOM     79  C   UNL A   1      28.612  28.526  23.037  1.00  0.00     0.131 A 
ATOM     80  Cl  UNL A   1      26.902  28.572  23.068  1.00  0.00    -0.062 Cl
BRANCH  76  81
ATOM     81  N   UNL A   1      31.033  26.330  24.479  1.00  0.00    -0.366 N 
ATOM     82  H   UNL A   1      31.525  25.646  23.971  1.00  0.00     0.162 HD
BRANCH  81  83
ATOM     83  C   UNL A   1      30.915  26.158  25.917  1.00  0.00     0.152 C 
BRANCH  83  84
ATOM     84  C   UNL A   1      32.047  25.326  26.571  1.00  0.00     0.192 C 
ATOM     85  C   UNL A   1      33.301  25.013  25.716  1.00  0.00     0.296 C 
ATOM     86  O   UNL A   1      31.548  24.131  27.205  1.00  0.00    -0.364 OA
ATOM     87  N   UNL A   1      33.338  23.761  24.960  1.00  0.00    -0.328 N 
ATOM     88  C   UNL A   1      31.176  23.158  26.228  1.00  0.00     0.225 C 
ATOM     89  C   UNL A   1      33.312  23.883  23.512  1.00  0.00     0.262 C 
ATOM     90  C   UNL A   1      32.374  22.728  25.372  1.00  0.00     0.210 C 
ATOM     91  H   UNL A   1      34.270  23.443  25.225  1.00  0.00     0.348 HD
ATOM     92  C   UNL A   1      32.975  22.477  23.057  1.00  0.00     0.068 C 
ATOM     93  C   UNL A   1      31.929  22.050  24.072  1.00  0.00     0.073 C 
ENDBRANCH  83  84
ENDBRANCH  81  83
ENDBRANCH  76  81
ENDBRANCH  72  74
ENDBRANCH  71  72
ENDBRANCH  70  71
ENDBRANCH   1  70
TORSDOF 17
ENDMDL
MODEL 2
REMARK VINA RESULT:     -11.7      1.551      2.024
REMARK SMILES O=C(OCCOC(=O)c1ccc(Cl)nc1NC[C@@H]1C[N@@H+]2CCC[C@@H]2CO1)c1ccc(-c2c3nc(c(-c4cccc(S(=O)(=O)[O-])c4F)c4ccc([nH]4)c(-c4cccc(S(=O)(=O)[O-])c4F)c4nc(c(-c5cccc(S(=O)(=O)[O-])c5F)c5ccc2[nH]5)C=C4)C=C3)cc1
REMARK SMILES IDX 4 1 3 2 2 3 1 4 27 5 28 6 89 7 29 8 88 9 30 10 31 11 32 12
REMARK SMILES IDX 82 13 33 14 87 15 81 16 83 17 34 18 86 19 80 20 79 21 35 23
REMARK SMILES IDX 67 24 47 25 66 26 48 27 51 28 65 29 84 30 49 31 50 32 64 34
REMARK SMILES IDX 85 35 52 36 36 37 37 38 45 39 38 40 40 41 46 42 39 43 41 44
REMARK SMILES IDX 42 45 43 46 44 47 68 48 69 49 77 50 70 51 72 52 78 53 71 54
REMARK SMILES IDX 73 55 74 56 75 57 76 58 53 59 54 60 62 61 55 62 57 63 63 64
REMARK SMILES IDX 56 65 58 66 59 67 60 68 61 69 5 70 6 71 7 72 8 73 9 74 10 75
REMARK SMILES IDX 15 76 11 77 14 78 12 79 13 80 16 81 17 83 18 84 19 85 26 86
REMARK SMILES IDX 20 87 25 88 21 89 24 90 22 92 23 93
REMARK H PARENT 83 22 51 33 16 82 20 91
REMARK Flexibility Score: inf
ROOT
ATOM      1  C   UNL A   1      31.726  29.960  26.756  1.00  0.00     0.275 C 
ENDROOT
BRANCH   1   2
ATOM      2  O   UNL A   1      32.998  30.601  26.557  1.00  0.00    -0.458 OA
BRANCH   2   3
ATOM      3  C   UNL A   1      33.641  31.488  27.354  1.00  0.00     0.338 C 
ATOM      4  O   UNL A   1      33.228  32.645  27.412  1.00  0.00    -0.246 OA
BRANCH   3   5
ATOM      5  C   UNL A   1      34.944  31.168  28.010  1.00  0.00     0.060 A 
ATOM      6  C   UNL A   1      36.063  32.001  28.062  1.00  0.00     0.016 A 
ATOM      7  C   UNL A   1      35.031  29.911  28.626  1.00  0.00     0.016 A 
ATOM      8  C   UNL A   1      37.197  31.631  28.788  1.00  0.00     0.010 A 
ATOM      9  C   UNL A   1      36.141  29.551  29.391  1.00  0.00     0.010 A 
ATOM     10  C   UNL A   1      37.243  30.407  29.455  1.00  0.00    -0.014 A 
BRANCH  10  11
ATOM     11  C   UNL A   1      38.519  29.937  30.027  1.00  0.00     0.031 A 
ATOM     12  C   UNL A   1      38.932  30.494  31.357  1.00  0.00     0.074 A 
ATOM     13  C   UNL A   1      39.266  29.010  29.401  1.00  0.00     0.049 A 
ATOM     14  N   UNL A   1      39.937  30.150  32.113  1.00  0.00    -0.248 NA
ATOM     15  C   UNL A   1      38.083  31.556  31.926  1.00  0.00     0.031 C 
ATOM     16  C   UNL A   1      38.929  28.372  28.132  1.00  0.00     0.029 A 
ATOM     17  N   UNL A   1      40.471  28.454  29.739  1.00  0.00    -0.354 N 
ATOM     18  C   UNL A   1      39.831  30.939  33.250  1.00  0.00     0.074 A 
ATOM     19  C   UNL A   1      38.709  31.826  33.058  1.00  0.00     0.031 C 
ATOM     20  C   UNL A   1      39.937  27.568  27.756  1.00  0.00     0.029 A 
ATOM     21  C   UNL A   1      40.974  27.605  28.781  1.00  0.00     0.049 A 
ATOM     22  H   UNL A   1      40.934  28.643  30.587  1.00  0.00     0.167 HD
ATOM     23  C   UNL A   1      40.571  30.889  34.380  1.00  0.00     0.034 A 
ATOM     24  C   UNL A   1      42.136  26.924  28.751  1.00  0.00     0.034 A 
ATOM     25  C   UNL A   1      41.689  30.009  34.548  1.00  0.00     0.049 A 
ATOM     26  C   UNL A   1      43.003  26.953  29.981  1.00  0.00     0.074 A 
ATOM     27  C   UNL A   1      42.499  29.842  35.654  1.00  0.00     0.029 A 
ATOM     28  N   UNL A   1      42.172  29.164  33.559  1.00  0.00    -0.354 N 
ATOM     29  N   UNL A   1      42.800  27.584  31.114  1.00  0.00    -0.248 NA
ATOM     30  C   UNL A   1      44.215  26.123  29.963  1.00  0.00     0.031 C 
ATOM     31  C   UNL A   1      43.494  28.917  35.320  1.00  0.00     0.029 A 
ATOM     32  C   UNL A   1      43.283  28.483  34.019  1.00  0.00     0.049 A 
ATOM     33  H   UNL A   1      41.780  29.063  32.662  1.00  0.00     0.167 HD
ATOM     34  C   UNL A   1      43.818  27.177  31.966  1.00  0.00     0.074 A 
ATOM     35  C   UNL A   1      44.642  26.250  31.213  1.00  0.00     0.031 C 
ATOM     36  C   UNL A   1      44.048  27.527  33.257  1.00  0.00     0.034 A 
BRANCH  23  37
ATOM     37  C   UNL A   1      40.153  31.804  35.497  1.00  0.00     0.023 A 
ATOM     38  C   UNL A   1      40.858  33.009  35.711  1.00  0.00     0.012 A 
ATOM     39  C   UNL A   1      39.109  31.450  36.370  1.00  0.00     0.148 A 
ATOM     40  C   UNL A   1      40.568  33.818  36.808  1.00  0.00     0.002 A 
ATOM     41  C   UNL A   1      38.796  32.284  37.436  1.00  0.00     0.091 A 
ATOM     42  F   UNL A   1      38.474  30.287  36.168  1.00  0.00    -0.205 F 
ATOM     43  C   UNL A   1      39.534  33.457  37.668  1.00  0.00     0.022 A 
BRANCH  41  44
ATOM     44  S   UNL A   1      37.446  31.936  38.565  1.00  0.00     0.127 S 
ATOM     45  O   UNL A   1      36.450  32.922  38.147  1.00  0.00    -0.237 OA
ATOM     46  O   UNL A   1      37.112  30.552  38.227  1.00  0.00    -0.237 OA
ATOM     47  O   UNL A   1      37.986  32.119  39.905  1.00  0.00    -0.744 OA
ENDBRANCH  41  44
ENDBRANCH  23  37
BRANCH  24  48
ATOM     48  C   UNL A   1      42.482  26.082  27.570  1.00  0.00     0.023 A 
ATOM     49  C   UNL A   1      43.247  26.631  26.522  1.00  0.00     0.012 A 
ATOM     50  C   UNL A   1      42.087  24.731  27.495  1.00  0.00     0.148 A 
ATOM     51  C   UNL A   1      43.582  25.861  25.406  1.00  0.00     0.002 A 
ATOM     52  C   UNL A   1      42.458  23.959  26.400  1.00  0.00     0.091 A 
ATOM     53  F   UNL A   1      41.365  24.226  28.505  1.00  0.00    -0.205 F 
ATOM     54  C   UNL A   1      43.193  24.526  25.347  1.00  0.00     0.022 A 
BRANCH  52  55
ATOM     55  S   UNL A   1      42.102  22.202  26.284  1.00  0.00     0.127 S 
ATOM     56  O   UNL A   1      40.647  22.198  26.156  1.00  0.00    -0.237 OA
ATOM     57  O   UNL A   1      42.829  21.831  25.069  1.00  0.00    -0.237 OA
ATOM     58  O   UNL A   1      42.632  21.611  27.504  1.00  0.00    -0.744 OA
ENDBRANCH  52  55
ENDBRANCH  24  48
BRANCH  36  59
ATOM     59  C   UNL A   1      45.203  26.871  33.961  1.00  0.00     0.023 A 
ATOM     60  C   UNL A   1      46.490  27.434  33.879  1.00  0.00     0.012 A 
ATOM     61  C   UNL A   1      44.983  25.751  34.787  1.00  0.00     0.148 A 
ATOM     62  C   UNL A   1      47.549  26.878  34.593  1.00  0.00     0.002 A 
ATOM     63  C   UNL A   1      46.030  25.236  35.538  1.00  0.00     0.091 A 
ATOM     64  F   UNL A   1      43.752  25.219  34.829  1.00  0.00    -0.205 F 
ATOM     65  C   UNL A   1      47.316  25.790  35.434  1.00  0.00     0.022 A 
BRANCH  63  66
ATOM     66  S   UNL A   1      45.791  23.914  36.729  1.00  0.00     0.127 S 
ATOM     67  O   UNL A   1      44.789  24.495  37.622  1.00  0.00    -0.237 OA
ATOM     68  O   UNL A   1      45.299  22.823  35.888  1.00  0.00    -0.237 OA
ATOM     69  O   UNL A   1      47.097  23.672  37.327  1.00  0.00    -0.744 OA
ENDBRANCH  63  66
ENDBRANCH  36  59
ENDBRANCH  10  11
ENDBRANCH   3   5
ENDBRANCH   2   3
ENDBRANCH   1   2
BRANCH   1  70
ATOM     70  C   UNL A   1      31.787  28.528  27.300  1.00  0.00     0.275 C 
BRANCH  70  71
ATOM     71  O   UNL A   1      31.837  27.500  26.299  1.00  0.00    -0.458 OA
BRANCH  71  72
ATOM     72  C   UNL A   1      33.079  27.273  25.795  1.00  0.00     0.342 C 
ATOM     73  O   UNL A   1      34.120  27.322  26.433  1.00  0.00    -0.246 OA
BRANCH  72  74
ATOM     74  C   UNL A   1      33.005  26.853  24.380  1.00  0.00     0.102 A 
ATOM     75  C   UNL A   1      33.662  27.588  23.387  1.00  0.00     0.023 A 
ATOM     76  C   UNL A   1      32.306  25.684  24.032  1.00  0.00     0.142 A 
ATOM     77  C   UNL A   1      33.568  27.170  22.063  1.00  0.00     0.042 A 
ATOM     78  N   UNL A   1      32.183  25.314  22.741  1.00  0.00    -0.218 NA
ATOM     79  C   UNL A   1      32.797  26.057  21.796  1.00  0.00     0.131 A 
ATOM     80  Cl  UNL A   1      32.545  25.506  20.196  1.00  0.00    -0.062 Cl
BRANCH  76  81
ATOM     81  N   UNL A   1      31.687  24.905  24.990  1.00  0.00    -0.366 N 
ATOM     82  H   UNL A   1      31.703  25.221  25.922  1.00  0.00     0.162 HD
BRANCH  81  83
ATOM     83  C   UNL A   1      31.014  23.649  24.706  1.00  0.00     0.152 C 
BRANCH  83  84
ATOM     84  C   UNL A   1      31.721  22.389  25.263  1.00  0.00     0.192 C 
ATOM     85  C   UNL A   1      32.926  22.596  26.215  1.00  0.00     0.296 C 
ATOM     86  O   UNL A   1      32.046  21.443  24.224  1.00  0.00    -0.364 OA
ATOM     87  N   UNL A   1      34.273  22.631  25.642  1.00  0.00    -0.328 N 
ATOM     88  C   UNL A   1      33.143  21.911  23.439  1.00  0.00     0.225 C 
ATOM     89  C   UNL A   1      34.968  23.906  25.711  1.00  0.00     0.262 C 
ATOM     90  C   UNL A   1      34.413  22.080  24.284  1.00  0.00     0.210 C 
ATOM     91  H   UNL A   1      34.737  21.993  26.288  1.00  0.00     0.348 HD
ATOM     92  C   UNL A   1      36.110  23.725  24.730  1.00  0.00     0.068 C 
ATOM     93  C   UNL A   1      35.443  22.977  23.589  1.00  0.00     0.073 C 
ENDBRANCH  83  84
ENDBRANCH  81  83
ENDBRANCH  76  81
ENDBRANCH  72  74
ENDBRANCH  71  72
ENDBRANCH  70  71
ENDBRANCH   1  70
TORSDOF 17
ENDMDL
MODEL 3
REMARK VINA RESULT:     -11.6      2.634      3.202
REMARK SMILES O=C(OCCOC(=O)c1ccc(Cl)nc1NC[C@@H]1C[N@@H+]2CCC[C@@H]2CO1)c1ccc(-c2c3nc(c(-c4cccc(S(=O)(=O)[O-])c4F)c4ccc([nH]4)c(-c4cccc(S(=O)(=O)[O-])c4F)c4nc(c(-c5cccc(S(=O)(=O)[O-])c5F)c5ccc2[nH]5)C=C4)C=C3)cc1
REMARK SMILES IDX 4 1 3 2 2 3 1 4 27 5 28 6 89 7 29 8 88 9 30 10 31 11 32 12
REMARK SMILES IDX 82 13 33 14 87 15 81 16 83 17 34 18 86 19 80 20 79 21 35 23
REMARK SMILES IDX 67 24 47 25 66 26 48 27 51 28 65 29 84 30 49 31 50 32 64 34
REMARK SMILES IDX 85 35 52 36 36 37 37 38 45 39 38 40 40 41 46 42 39 43 41 44
REMARK SMILES IDX 42 45 43 46 44 47 68 48 69 49 77 50 70 51 72 52 78 53 71 54
REMARK SMILES IDX 73 55 74 56 75 57 76 58 53 59 54 60 62 61 55 62 57 63 63 64
REMARK SMILES IDX 56 65 58 66 59 67 60 68 61 69 5 70 6 71 7 72 8 73 9 74 10 75
REMARK SMILES IDX 15 76 11 77 14 78 12 79 13 80 16 81 17 83 18 84 19 85 26 86
REMARK SMILES IDX 20 87 25 88 21 89 24 90 22 92 23 93
REMARK H PARENT 83 22 51 33 16 82 20 91
REMARK Flexibility Score: inf
ROOT
ATOM      1  C   UNL A   1      33.342  28.869  26.948  1.00  0.00     0.275 C 
ENDROOT
BRANCH   1   2
ATOM      2  O   UNL A   1      33.408  30.243  27.368  1.00  0.00    -0.458 OA
BRANCH   2   3
ATOM      3  C   UNL A   1      34.487  30.966  27.757  1.00  0.00     0.338 C 
ATOM      4  O   UNL A   1      34.514  32.172  27.516  1.00  0.00    -0.246 OA
BRANCH   3   5
ATOM      5  C   UNL A   1      35.725  30.322  28.288  1.00  0.00     0.060 A 
ATOM      6  C   UNL A   1      35.872  29.742  29.549  1.00  0.00     0.016 A 
ATOM      7  C   UNL A   1      36.831  30.307  27.425  1.00  0.00     0.016 A 
ATOM      8  C   UNL A   1      37.051  29.082  29.901  1.00  0.00     0.010 A 
ATOM      9  C   UNL A   1      37.997  29.613  27.749  1.00  0.00     0.010 A 
ATOM     10  C   UNL A   1      38.119  29.015  29.005  1.00  0.00    -0.014 A 
BRANCH  10  11
ATOM     11  C   UNL A   1      39.427  28.514  29.468  1.00  0.00     0.031 A 
ATOM     12  C   UNL A   1      40.066  29.209  30.633  1.00  0.00     0.074 A 
ATOM     13  C   UNL A   1      40.007  27.444  28.896  1.00  0.00     0.049 A 
ATOM     14  N   UNL A   1      41.142  28.883  31.293  1.00  0.00    -0.248 NA
ATOM     15  C   UNL A   1      39.387  30.415  31.142  1.00  0.00     0.031 C 
ATOM     16  C   UNL A   1      39.446  26.670  27.793  1.00  0.00     0.029 A 
ATOM     17  N   UNL A   1      41.205  26.831  29.151  1.00  0.00    -0.354 N 
ATOM     18  C   UNL A   1      41.258  29.828  32.301  1.00  0.00     0.074 A 
ATOM     19  C   UNL A   1      40.187  30.780  32.129  1.00  0.00     0.031 C 
ATOM     20  C   UNL A   1      40.328  25.731  27.412  1.00  0.00     0.029 A 
ATOM     21  C   UNL A   1      41.502  25.815  28.274  1.00  0.00     0.049 A 
ATOM     22  H   UNL A   1      41.797  27.093  29.893  1.00  0.00     0.167 HD
ATOM     23  C   UNL A   1      42.148  29.868  33.318  1.00  0.00     0.034 A 
ATOM     24  C   UNL A   1      42.595  25.032  28.194  1.00  0.00     0.034 A 
ATOM     25  C   UNL A   1      43.212  28.921  33.468  1.00  0.00     0.049 A 
ATOM     26  C   UNL A   1      43.631  25.151  29.280  1.00  0.00     0.074 A 
ATOM     27  C   UNL A   1      44.159  28.836  34.470  1.00  0.00     0.029 A 
ATOM     28  N   UNL A   1      43.485  27.905  32.562  1.00  0.00    -0.354 N 
ATOM     29  N   UNL A   1      43.639  25.950  30.322  1.00  0.00    -0.248 NA
ATOM     30  C   UNL A   1      44.765  24.219  29.227  1.00  0.00     0.031 C 
ATOM     31  C   UNL A   1      45.026  27.785  34.150  1.00  0.00     0.029 A 
ATOM     32  C   UNL A   1      44.599  27.196  32.968  1.00  0.00     0.049 A 
ATOM     33  H   UNL A   1      42.962  27.718  31.750  1.00  0.00     0.167 HD
ATOM     34  C   UNL A   1      44.737  25.574  31.084  1.00  0.00     0.074 A 
ATOM     35  C   UNL A   1      45.375  24.479  30.376  1.00  0.00     0.031 C 
ATOM     36  C   UNL A   1      45.175  26.077  32.265  1.00  0.00     0.034 A 
BRANCH  23  37
ATOM     37  C   UNL A   1      41.962  30.964  34.331  1.00  0.00     0.023 A 
ATOM     38  C   UNL A   1      41.140  30.738  35.458  1.00  0.00     0.012 A 
ATOM     39  C   UNL A   1      42.544  32.230  34.143  1.00  0.00     0.148 A 
ATOM     40  C   UNL A   1      40.857  31.771  36.349  1.00  0.00     0.002 A 
ATOM     41  C   UNL A   1      42.293  33.242  35.061  1.00  0.00     0.091 A 
ATOM     42  F   UNL A   1      43.295  32.432  33.051  1.00  0.00    -0.205 F 
ATOM     43  C   UNL A   1      41.437  33.021  36.153  1.00  0.00     0.022 A 
BRANCH  41  44
ATOM     44  S   UNL A   1      43.039  34.868  34.927  1.00  0.00     0.127 S 
ATOM     45  O   UNL A   1      44.464  34.542  34.948  1.00  0.00    -0.237 OA
ATOM     46  O   UNL A   1      42.539  35.330  33.632  1.00  0.00    -0.237 OA
ATOM     47  O   UNL A   1      42.552  35.627  36.070  1.00  0.00    -0.744 OA
ENDBRANCH  41  44
ENDBRANCH  23  37
BRANCH  24  48
ATOM     48  C   UNL A   1      42.707  24.006  27.118  1.00  0.00     0.023 A 
ATOM     49  C   UNL A   1      43.416  24.305  25.938  1.00  0.00     0.012 A 
ATOM     50  C   UNL A   1      42.141  22.723  27.271  1.00  0.00     0.148 A 
ATOM     51  C   UNL A   1      43.531  23.360  24.917  1.00  0.00     0.002 A 
ATOM     52  C   UNL A   1      42.295  21.773  26.267  1.00  0.00     0.091 A 
ATOM     53  F   UNL A   1      41.476  22.456  28.402  1.00  0.00    -0.205 F 
ATOM     54  C   UNL A   1      42.977  22.093  25.082  1.00  0.00     0.022 A 
BRANCH  52  55
ATOM     55  S   UNL A   1      41.714  20.081  26.433  1.00  0.00     0.127 S 
ATOM     56  O   UNL A   1      40.266  20.250  26.338  1.00  0.00    -0.237 OA
ATOM     57  O   UNL A   1      42.338  19.437  25.276  1.00  0.00    -0.237 OA
ATOM     58  O   UNL A   1      42.214  19.617  27.719  1.00  0.00    -0.744 OA
ENDBRANCH  52  55
ENDBRANCH  24  48
BRANCH  36  59
ATOM     59  C   UNL A   1      46.369  25.421  32.901  1.00  0.00     0.023 A 
ATOM     60  C   UNL A   1      47.659  25.941  32.683  1.00  0.00     0.012 A 
ATOM     61  C   UNL A   1      46.192  24.349  33.798  1.00  0.00     0.148 A 
ATOM     62  C   UNL A   1      48.760  25.388  33.332  1.00  0.00     0.002 A 
ATOM     63  C   UNL A   1      47.286  23.840  34.483  1.00  0.00     0.091 A 
ATOM     64  F   UNL A   1      44.957  23.856  33.970  1.00  0.00    -0.205 F 
ATOM     65  C   UNL A   1      48.573  24.350  34.243  1.00  0.00     0.022 A 
BRANCH  63  66
ATOM     66  S   UNL A   1      47.117  22.584  35.754  1.00  0.00     0.127 S 
ATOM     67  O   UNL A   1      46.183  23.222  36.681  1.00  0.00    -0.237 OA
ATOM     68  O   UNL A   1      46.559  21.456  35.006  1.00  0.00    -0.237 OA
ATOM     69  O   UNL A   1      48.459  22.356  36.275  1.00  0.00    -0.744 OA
ENDBRANCH  63  66
ENDBRANCH  36  59
ENDBRANCH  10  11
ENDBRANCH   3   5
ENDBRANCH   2   3
ENDBRANCH   1   2
BRANCH   1  70
ATOM     70  C   UNL A   1      32.083  28.108  27.379  1.00  0.00     0.275 C 
BRANCH  70  71
ATOM     71  O   UNL A   1      31.105  27.918  26.346  1.00  0.00    -0.458 OA
BRANCH  71  72
ATOM     72  C   UNL A   1      30.924  26.620  25.982  1.00  0.00     0.342 C 
ATOM     73  O   UNL A   1      30.410  25.757  26.676  1.00  0.00    -0.246 OA
BRANCH  72  74
ATOM     74  C   UNL A   1      31.342  26.404  24.581  1.00  0.00     0.102 A 
ATOM     75  C   UNL A   1      31.078  27.370  23.605  1.00  0.00     0.023 A 
ATOM     76  C   UNL A   1      32.047  25.238  24.233  1.00  0.00     0.142 A 
ATOM     77  C   UNL A   1      31.479  27.134  22.293  1.00  0.00     0.042 A 
ATOM     78  N   UNL A   1      32.390  24.999  22.950  1.00  0.00    -0.218 NA
ATOM     79  C   UNL A   1      32.095  25.930  22.019  1.00  0.00     0.131 A 
ATOM     80  Cl  UNL A   1      32.554  25.502  20.427  1.00  0.00    -0.062 Cl
BRANCH  76  81
ATOM     81  N   UNL A   1      32.369  24.284  25.178  1.00  0.00    -0.366 N 
ATOM     82  H   UNL A   1      32.395  24.561  26.122  1.00  0.00     0.162 HD
BRANCH  81  83
ATOM     83  C   UNL A   1      32.674  22.899  24.863  1.00  0.00     0.152 C 
BRANCH  83  84
ATOM     84  C   UNL A   1      33.255  22.074  26.039  1.00  0.00     0.192 C 
ATOM     85  C   UNL A   1      34.333  22.743  26.928  1.00  0.00     0.296 C 
ATOM     86  O   UNL A   1      33.675  20.758  25.626  1.00  0.00    -0.364 OA
ATOM     87  N   UNL A   1      35.743  22.540  26.591  1.00  0.00    -0.328 N 
ATOM     88  C   UNL A   1      34.882  20.828  24.865  1.00  0.00     0.225 C 
ATOM     89  C   UNL A   1      36.471  23.713  26.138  1.00  0.00     0.262 C 
ATOM     90  C   UNL A   1      36.037  21.415  25.688  1.00  0.00     0.210 C 
ATOM     91  H   UNL A   1      36.095  22.298  27.517  1.00  0.00     0.348 HD
ATOM     92  C   UNL A   1      37.723  23.121  25.521  1.00  0.00     0.068 C 
ATOM     93  C   UNL A   1      37.181  21.903  24.794  1.00  0.00     0.073 C 
ENDBRANCH  83  84
ENDBRANCH  81  83
ENDBRANCH  76  81
ENDBRANCH  72  74
ENDBRANCH  71  72
ENDBRANCH  70  71
ENDBRANCH   1  70
TORSDOF 17
ENDMDL
