MODEL 1
REMARK VINA RESULT:     -10.9      0.000      0.000
REMARK SMILES O=C(C[C@@H]1CSCC[NH2+]1)NC[C@H]1CC[C@@H](C(=O)OCCOC(=O)c2ccc(-c3c4nc(c(-c5cccc(S(=O)(=O)[O-])c5F)c5ccc([nH]5)c(-c5cccc(S(=O)(=O)[O-])c5F)c5nc(c(-c6cccc(S(=O)(=O)[O-])c6F)c6ccc3[nH]6)C=C5)C=C4)cc2)O1
REMARK SMILES IDX 19 1 18 2 16 3 17 4 15 5 12 6 13 7 87 8 14 9 11 10 10 11
REMARK SMILES IDX 1 12 2 13 3 15 4 16 5 17 9 18 6 19 8 20 7 23 20 24 21 25
REMARK SMILES IDX 22 26 23 27 24 28 25 29 86 30 26 31 85 32 27 33 28 34 29 35
REMARK SMILES IDX 79 36 30 37 84 38 78 39 80 40 31 41 83 42 77 43 76 44 32 46
REMARK SMILES IDX 64 47 44 48 63 49 45 50 48 51 62 52 81 53 46 54 47 55 61 57
REMARK SMILES IDX 82 58 49 59 33 60 34 61 42 62 35 63 37 64 43 65 36 66 38 67
REMARK SMILES IDX 39 68 40 69 41 70 65 71 66 72 74 73 67 74 69 75 75 76 68 77
REMARK SMILES IDX 70 78 71 79 72 80 73 81 50 82 51 83 59 84 52 85 54 86 60 87
REMARK SMILES IDX 53 88 55 89 56 90 57 91 58 92
REMARK H PARENT 10 14 9 21 9 22 80 45 48 56
REMARK Flexibility Score: inf
ROOT
ATOM      1  C   UNL A   1      36.627  22.647  23.536  1.00  0.00     0.274 C 
ENDROOT
BRANCH   1   2
ATOM      2  O   UNL A   1      35.638  23.398  24.261  1.00  0.00    -0.460 OA
BRANCH   2   3
ATOM      3  C   UNL A   1      34.646  23.948  23.507  1.00  0.00     0.335 C 
ATOM      4  O   UNL A   1      34.228  23.490  22.450  1.00  0.00    -0.249 OA
BRANCH   3   5
ATOM      5  C   UNL A   1      34.101  25.224  24.141  1.00  0.00     0.228 C 
ATOM      6  C   UNL A   1      32.165  26.146  25.090  1.00  0.00     0.138 C 
ATOM      7  C   UNL A   1      33.363  26.402  26.004  1.00  0.00     0.037 C 
ATOM      8  O   UNL A   1      32.694  25.413  23.965  1.00  0.00    -0.361 OA
ATOM      9  C   UNL A   1      34.320  25.291  25.633  1.00  0.00     0.047 C 
BRANCH   6  10
ATOM     10  C   UNL A   1      30.995  25.328  25.670  1.00  0.00     0.147 C 
BRANCH  10  11
ATOM     11  N   UNL A   1      31.023  23.926  25.292  1.00  0.00    -0.353 N 
ATOM     12  O   UNL A   1      31.833  23.187  27.299  1.00  0.00    -0.275 OA
ATOM     13  C   UNL A   1      31.448  22.952  26.157  1.00  0.00     0.226 C 
ATOM     14  H   UNL A   1      30.730  23.668  24.387  1.00  0.00     0.163 HD
BRANCH  13  15
ATOM     15  C   UNL A   1      31.569  21.563  25.574  1.00  0.00     0.165 C 
BRANCH  15  16
ATOM     16  C   UNL A   1      32.968  21.014  25.222  1.00  0.00     0.201 C 
ATOM     17  C   UNL A   1      33.242  20.543  23.778  1.00  0.00     0.135 C 
ATOM     18  N   UNL A   1      33.402  19.994  26.217  1.00  0.00    -0.342 N 
ATOM     19  S   UNL A   1      32.325  19.054  23.317  1.00  0.00    -0.150 SA
ATOM     20  C   UNL A   1      32.704  18.702  26.048  1.00  0.00     0.271 C 
ATOM     21  H   UNL A   1      33.211  20.350  27.153  1.00  0.00     0.346 HD
ATOM     22  H   UNL A   1      34.398  19.828  26.073  1.00  0.00     0.346 HD
ATOM     23  C   UNL A   1      32.902  18.020  24.690  1.00  0.00     0.131 C 
ENDBRANCH  15  16
ENDBRANCH  13  15
ENDBRANCH  10  11
ENDBRANCH   6  10
ENDBRANCH   3   5
ENDBRANCH   2   3
ENDBRANCH   1   2
BRANCH   1  24
ATOM     24  C   UNL A   1      36.792  21.291  24.214  1.00  0.00     0.275 C 
BRANCH  24  25
ATOM     25  O   UNL A   1      37.185  21.502  25.582  1.00  0.00    -0.458 OA
BRANCH  25  26
ATOM     26  C   UNL A   1      38.490  21.258  25.854  1.00  0.00     0.338 C 
ATOM     27  O   UNL A   1      39.094  20.211  25.690  1.00  0.00    -0.246 OA
BRANCH  26  28
ATOM     28  C   UNL A   1      39.113  22.460  26.438  1.00  0.00     0.060 A 
ATOM     29  C   UNL A   1      38.588  23.729  26.189  1.00  0.00     0.016 A 
ATOM     30  C   UNL A   1      40.297  22.322  27.159  1.00  0.00     0.016 A 
ATOM     31  C   UNL A   1      39.299  24.865  26.573  1.00  0.00     0.010 A 
ATOM     32  C   UNL A   1      40.952  23.460  27.636  1.00  0.00     0.010 A 
ATOM     33  C   UNL A   1      40.483  24.745  27.314  1.00  0.00    -0.014 A 
BRANCH  33  34
ATOM     34  C   UNL A   1      41.248  25.949  27.741  1.00  0.00     0.031 A 
ATOM     35  C   UNL A   1      40.580  27.013  28.574  1.00  0.00     0.074 A 
ATOM     36  C   UNL A   1      42.528  26.111  27.350  1.00  0.00     0.049 A 
ATOM     37  N   UNL A   1      41.011  28.206  28.893  1.00  0.00    -0.248 NA
ATOM     38  C   UNL A   1      39.242  26.701  29.104  1.00  0.00     0.031 C 
ATOM     39  C   UNL A   1      43.297  25.156  26.551  1.00  0.00     0.029 A 
ATOM     40  N   UNL A   1      43.405  27.148  27.560  1.00  0.00    -0.354 N 
ATOM     41  C   UNL A   1      39.976  28.811  29.596  1.00  0.00     0.074 A 
ATOM     42  C   UNL A   1      38.895  27.851  29.663  1.00  0.00     0.031 C 
ATOM     43  C   UNL A   1      44.532  25.640  26.352  1.00  0.00     0.029 A 
ATOM     44  C   UNL A   1      44.623  26.969  26.946  1.00  0.00     0.049 A 
ATOM     45  H   UNL A   1      43.183  27.942  28.096  1.00  0.00     0.167 HD
ATOM     46  C   UNL A   1      39.933  30.047  30.151  1.00  0.00     0.034 A 
ATOM     47  C   UNL A   1      45.684  27.792  26.842  1.00  0.00     0.034 A 
ATOM     48  C   UNL A   1      41.037  30.970  30.147  1.00  0.00     0.049 A 
ATOM     49  C   UNL A   1      45.613  29.156  27.471  1.00  0.00     0.074 A 
ATOM     50  C   UNL A   1      41.108  32.228  30.719  1.00  0.00     0.029 A 
ATOM     51  N   UNL A   1      42.267  30.730  29.556  1.00  0.00    -0.354 N 
ATOM     52  N   UNL A   1      44.646  29.689  28.177  1.00  0.00    -0.248 NA
ATOM     53  C   UNL A   1      46.784  30.028  27.297  1.00  0.00     0.031 C 
ATOM     54  C   UNL A   1      42.383  32.750  30.470  1.00  0.00     0.029 A 
ATOM     55  C   UNL A   1      43.107  31.814  29.749  1.00  0.00     0.049 A 
ATOM     56  H   UNL A   1      42.509  29.909  29.068  1.00  0.00     0.167 HD
ATOM     57  C   UNL A   1      45.099  30.948  28.552  1.00  0.00     0.074 A 
ATOM     58  C   UNL A   1      46.437  31.088  28.014  1.00  0.00     0.031 C 
ATOM     59  C   UNL A   1      44.456  31.912  29.256  1.00  0.00     0.034 A 
BRANCH  46  60
ATOM     60  C   UNL A   1      38.661  30.457  30.844  1.00  0.00     0.023 A 
ATOM     61  C   UNL A   1      38.482  30.154  32.208  1.00  0.00     0.012 A 
ATOM     62  C   UNL A   1      37.662  31.180  30.161  1.00  0.00     0.148 A 
ATOM     63  C   UNL A   1      37.317  30.534  32.874  1.00  0.00     0.002 A 
ATOM     64  C   UNL A   1      36.520  31.590  30.842  1.00  0.00     0.091 A 
ATOM     65  F   UNL A   1      37.835  31.438  28.857  1.00  0.00    -0.205 F 
ATOM     66  C   UNL A   1      36.341  31.259  32.194  1.00  0.00     0.022 A 
BRANCH  64  67
ATOM     67  S   UNL A   1      35.248  32.590  30.061  1.00  0.00     0.127 S 
ATOM     68  O   UNL A   1      34.333  32.832  31.174  1.00  0.00    -0.237 OA
ATOM     69  O   UNL A   1      35.998  33.768  29.622  1.00  0.00    -0.237 OA
ATOM     70  O   UNL A   1      34.722  31.777  28.973  1.00  0.00    -0.744 OA
ENDBRANCH  64  67
ENDBRANCH  46  60
BRANCH  47  71
ATOM     71  C   UNL A   1      46.917  27.328  26.146  1.00  0.00     0.023 A 
ATOM     72  C   UNL A   1      47.089  27.632  24.783  1.00  0.00     0.012 A 
ATOM     73  C   UNL A   1      47.939  26.640  26.831  1.00  0.00     0.148 A 
ATOM     74  C   UNL A   1      48.249  27.248  24.109  1.00  0.00     0.002 A 
ATOM     75  C   UNL A   1      49.116  26.311  26.168  1.00  0.00     0.091 A 
ATOM     76  F   UNL A   1      47.747  26.337  28.122  1.00  0.00    -0.205 F 
ATOM     77  C   UNL A   1      49.268  26.602  24.804  1.00  0.00     0.022 A 
BRANCH  75  78
ATOM     78  S   UNL A   1      50.530  25.608  27.025  1.00  0.00     0.127 S 
ATOM     79  O   UNL A   1      51.508  25.494  25.948  1.00  0.00    -0.237 OA
ATOM     80  O   UNL A   1      50.828  26.638  28.022  1.00  0.00    -0.237 OA
ATOM     81  O   UNL A   1      50.053  24.353  27.592  1.00  0.00    -0.744 OA
ENDBRANCH  75  78
ENDBRANCH  47  71
BRANCH  59  82
ATOM     82  C   UNL A   1      45.200  33.196  29.508  1.00  0.00     0.023 A 
ATOM     83  C   UNL A   1      45.998  33.318  30.663  1.00  0.00     0.012 A 
ATOM     84  C   UNL A   1      45.162  34.250  28.577  1.00  0.00     0.148 A 
ATOM     85  C   UNL A   1      46.728  34.481  30.899  1.00  0.00     0.002 A 
ATOM     86  C   UNL A   1      45.923  35.392  28.799  1.00  0.00     0.091 A 
ATOM     87  F   UNL A   1      44.377  34.124  27.497  1.00  0.00    -0.205 F 
ATOM     88  C   UNL A   1      46.700  35.513  29.962  1.00  0.00     0.022 A 
BRANCH  86  89
ATOM     89  S   UNL A   1      46.008  36.730  27.603  1.00  0.00     0.127 S 
ATOM     90  O   UNL A   1      46.424  36.023  26.393  1.00  0.00    -0.237 OA
ATOM     91  O   UNL A   1      44.629  37.220  27.579  1.00  0.00    -0.237 OA
ATOM     92  O   UNL A   1      46.972  37.681  28.141  1.00  0.00    -0.744 OA
ENDBRANCH  86  89
ENDBRANCH  59  82
ENDBRANCH  33  34
ENDBRANCH  26  28
ENDBRANCH  25  26
ENDBRANCH  24  25
ENDBRANCH   1  24
TORSDOF 18
ENDMDL
MODEL 2
REMARK VINA RESULT:     -10.9      5.594     10.242
REMARK SMILES O=C(C[C@@H]1CSCC[NH2+]1)NC[C@H]1CC[C@@H](C(=O)OCCOC(=O)c2ccc(-c3c4nc(c(-c5cccc(S(=O)(=O)[O-])c5F)c5ccc([nH]5)c(-c5cccc(S(=O)(=O)[O-])c5F)c5nc(c(-c6cccc(S(=O)(=O)[O-])c6F)c6ccc3[nH]6)C=C5)C=C4)cc2)O1
REMARK SMILES IDX 19 1 18 2 16 3 17 4 15 5 12 6 13 7 87 8 14 9 11 10 10 11
REMARK SMILES IDX 1 12 2 13 3 15 4 16 5 17 9 18 6 19 8 20 7 23 20 24 21 25
REMARK SMILES IDX 22 26 23 27 24 28 25 29 86 30 26 31 85 32 27 33 28 34 29 35
REMARK SMILES IDX 79 36 30 37 84 38 78 39 80 40 31 41 83 42 77 43 76 44 32 46
REMARK SMILES IDX 64 47 44 48 63 49 45 50 48 51 62 52 81 53 46 54 47 55 61 57
REMARK SMILES IDX 82 58 49 59 33 60 34 61 42 62 35 63 37 64 43 65 36 66 38 67
REMARK SMILES IDX 39 68 40 69 41 70 65 71 66 72 74 73 67 74 69 75 75 76 68 77
REMARK SMILES IDX 70 78 71 79 72 80 73 81 50 82 51 83 59 84 52 85 54 86 60 87
REMARK SMILES IDX 53 88 55 89 56 90 57 91 58 92
REMARK H PARENT 10 14 9 21 9 22 80 45 48 56
REMARK Flexibility Score: inf
ROOT
ATOM      1  C   UNL A   1      31.849  28.689  27.316  1.00  0.00     0.274 C 
ENDROOT
BRANCH   1   2
ATOM      2  O   UNL A   1      32.997  27.997  26.795  1.00  0.00    -0.460 OA
BRANCH   2   3
ATOM      3  C   UNL A   1      32.735  26.835  26.134  1.00  0.00     0.335 C 
ATOM      4  O   UNL A   1      31.994  25.947  26.537  1.00  0.00    -0.249 OA
BRANCH   3   5
ATOM      5  C   UNL A   1      33.485  26.764  24.808  1.00  0.00     0.228 C 
ATOM      6  C   UNL A   1      33.225  26.150  22.559  1.00  0.00     0.138 C 
ATOM      7  C   UNL A   1      33.853  27.541  22.648  1.00  0.00     0.037 C 
ATOM      8  O   UNL A   1      33.022  25.736  23.927  1.00  0.00    -0.361 OA
ATOM      9  C   UNL A   1      33.396  28.037  24.001  1.00  0.00     0.047 C 
BRANCH   6  10
ATOM     10  C   UNL A   1      31.871  26.031  21.831  1.00  0.00     0.147 C 
BRANCH  10  11
ATOM     11  N   UNL A   1      31.048  27.223  21.937  1.00  0.00    -0.353 N 
ATOM     12  O   UNL A   1      29.873  26.500  23.761  1.00  0.00    -0.275 OA
ATOM     13  C   UNL A   1      30.098  27.361  22.915  1.00  0.00     0.226 C 
ATOM     14  H   UNL A   1      31.176  27.953  21.287  1.00  0.00     0.163 HD
BRANCH  13  15
ATOM     15  C   UNL A   1      29.216  28.584  22.806  1.00  0.00     0.165 C 
BRANCH  15  16
ATOM     16  C   UNL A   1      29.862  29.985  22.868  1.00  0.00     0.201 C 
ATOM     17  C   UNL A   1      29.317  31.012  23.882  1.00  0.00     0.135 C 
ATOM     18  N   UNL A   1      29.975  30.575  21.505  1.00  0.00    -0.342 N 
ATOM     19  S   UNL A   1      27.643  31.583  23.504  1.00  0.00    -0.150 SA
ATOM     20  C   UNL A   1      28.676  31.048  20.980  1.00  0.00     0.271 C 
ATOM     21  H   UNL A   1      30.346  29.867  20.873  1.00  0.00     0.346 HD
ATOM     22  H   UNL A   1      30.595  31.383  21.570  1.00  0.00     0.346 HD
ATOM     23  C   UNL A   1      27.987  32.135  21.812  1.00  0.00     0.131 C 
ENDBRANCH  15  16
ENDBRANCH  13  15
ENDBRANCH  10  11
ENDBRANCH   6  10
ENDBRANCH   3   5
ENDBRANCH   2   3
ENDBRANCH   1   2
BRANCH   1  24
ATOM     24  C   UNL A   1      31.875  30.123  26.796  1.00  0.00     0.275 C 
BRANCH  24  25
ATOM     25  O   UNL A   1      33.242  30.504  26.556  1.00  0.00    -0.458 OA
BRANCH  25  26
ATOM     26  C   UNL A   1      33.719  31.485  27.360  1.00  0.00     0.338 C 
ATOM     27  O   UNL A   1      33.184  32.550  27.619  1.00  0.00    -0.246 OA
BRANCH  26  28
ATOM     28  C   UNL A   1      35.048  31.108  27.877  1.00  0.00     0.060 A 
ATOM     29  C   UNL A   1      35.312  29.798  28.281  1.00  0.00     0.016 A 
ATOM     30  C   UNL A   1      36.008  32.102  28.054  1.00  0.00     0.016 A 
ATOM     31  C   UNL A   1      36.495  29.502  28.955  1.00  0.00     0.010 A 
ATOM     32  C   UNL A   1      37.237  31.779  28.633  1.00  0.00     0.010 A 
ATOM     33  C   UNL A   1      37.479  30.485  29.128  1.00  0.00    -0.014 A 
BRANCH  33  34
ATOM     34  C   UNL A   1      38.753  30.181  29.835  1.00  0.00     0.031 A 
ATOM     35  C   UNL A   1      39.760  29.249  29.213  1.00  0.00     0.074 A 
ATOM     36  C   UNL A   1      38.993  30.707  31.054  1.00  0.00     0.049 A 
ATOM     37  N   UNL A   1      40.835  28.720  29.740  1.00  0.00    -0.248 NA
ATOM     38  C   UNL A   1      39.518  28.843  27.819  1.00  0.00     0.031 C 
ATOM     39  C   UNL A   1      38.108  31.630  31.767  1.00  0.00     0.029 A 
ATOM     40  N   UNL A   1      40.046  30.528  31.916  1.00  0.00    -0.354 N 
ATOM     41  C   UNL A   1      41.356  27.868  28.772  1.00  0.00     0.074 A 
ATOM     42  C   UNL A   1      40.481  27.953  27.622  1.00  0.00     0.031 C 
ATOM     43  C   UNL A   1      38.660  31.949  32.946  1.00  0.00     0.029 A 
ATOM     44  C   UNL A   1      39.901  31.200  33.107  1.00  0.00     0.049 A 
ATOM     45  H   UNL A   1      40.829  29.971  31.703  1.00  0.00     0.167 HD
ATOM     46  C   UNL A   1      42.468  27.097  28.828  1.00  0.00     0.034 A 
ATOM     47  C   UNL A   1      40.662  31.193  34.219  1.00  0.00     0.034 A 
ATOM     48  C   UNL A   1      43.376  27.072  29.945  1.00  0.00     0.049 A 
ATOM     49  C   UNL A   1      41.895  30.333  34.254  1.00  0.00     0.074 A 
ATOM     50  C   UNL A   1      44.553  26.358  30.081  1.00  0.00     0.029 A 
ATOM     51  N   UNL A   1      43.216  27.804  31.111  1.00  0.00    -0.354 N 
ATOM     52  N   UNL A   1      42.399  29.576  33.310  1.00  0.00    -0.248 NA
ATOM     53  C   UNL A   1      42.669  30.334  35.504  1.00  0.00     0.031 C 
ATOM     54  C   UNL A   1      45.104  26.657  31.332  1.00  0.00     0.029 A 
ATOM     55  C   UNL A   1      44.273  27.562  31.972  1.00  0.00     0.049 A 
ATOM     56  H   UNL A   1      42.461  28.408  31.299  1.00  0.00     0.167 HD
ATOM     57  C   UNL A   1      43.560  29.029  33.842  1.00  0.00     0.074 A 
ATOM     58  C   UNL A   1      43.697  29.561  35.183  1.00  0.00     0.031 C 
ATOM     59  C   UNL A   1      44.422  28.146  33.280  1.00  0.00     0.034 A 
BRANCH  46  60
ATOM     60  C   UNL A   1      42.788  26.244  27.629  1.00  0.00     0.023 A 
ATOM     61  C   UNL A   1      43.627  26.752  26.617  1.00  0.00     0.012 A 
ATOM     62  C   UNL A   1      42.296  24.928  27.521  1.00  0.00     0.148 A 
ATOM     63  C   UNL A   1      43.946  25.976  25.502  1.00  0.00     0.002 A 
ATOM     64  C   UNL A   1      42.650  24.147  26.426  1.00  0.00     0.091 A 
ATOM     65  F   UNL A   1      41.478  24.468  28.478  1.00  0.00    -0.205 F 
ATOM     66  C   UNL A   1      43.465  24.672  25.411  1.00  0.00     0.022 A 
BRANCH  64  67
ATOM     67  S   UNL A   1      42.135  22.432  26.267  1.00  0.00     0.127 S 
ATOM     68  O   UNL A   1      42.665  21.846  27.496  1.00  0.00    -0.237 OA
ATOM     69  O   UNL A   1      40.676  22.544  26.226  1.00  0.00    -0.237 OA
ATOM     70  O   UNL A   1      42.734  21.956  25.028  1.00  0.00    -0.744 OA
ENDBRANCH  64  67
ENDBRANCH  46  60
BRANCH  47  71
ATOM     71  C   UNL A   1      40.296  32.061  35.373  1.00  0.00     0.023 A 
ATOM     72  C   UNL A   1      40.974  33.282  35.552  1.00  0.00     0.012 A 
ATOM     73  C   UNL A   1      39.254  31.719  36.258  1.00  0.00     0.148 A 
ATOM     74  C   UNL A   1      40.631  34.140  36.598  1.00  0.00     0.002 A 
ATOM     75  C   UNL A   1      38.880  32.604  37.263  1.00  0.00     0.091 A 
ATOM     76  F   UNL A   1      38.637  30.541  36.088  1.00  0.00    -0.205 F 
ATOM     77  C   UNL A   1      39.576  33.809  37.444  1.00  0.00     0.022 A 
BRANCH  75  78
ATOM     78  S   UNL A   1      37.441  32.317  38.300  1.00  0.00     0.127 S 
ATOM     79  O   UNL A   1      37.853  32.926  39.561  1.00  0.00    -0.237 OA
ATOM     80  O   UNL A   1      36.393  33.042  37.579  1.00  0.00    -0.237 OA
ATOM     81  O   UNL A   1      37.259  30.871  38.317  1.00  0.00    -0.744 OA
ENDBRANCH  75  78
ENDBRANCH  47  71
BRANCH  59  82
ATOM     82  C   UNL A   1      45.606  27.717  34.104  1.00  0.00     0.023 A 
ATOM     83  C   UNL A   1      46.653  28.630  34.341  1.00  0.00     0.012 A 
ATOM     84  C   UNL A   1      45.653  26.440  34.695  1.00  0.00     0.148 A 
ATOM     85  C   UNL A   1      47.741  28.270  35.134  1.00  0.00     0.002 A 
ATOM     86  C   UNL A   1      46.722  26.102  35.517  1.00  0.00     0.091 A 
ATOM     87  F   UNL A   1      44.659  25.577  34.437  1.00  0.00    -0.205 F 
ATOM     88  C   UNL A   1      47.770  27.011  35.731  1.00  0.00     0.022 A 
BRANCH  86  89
ATOM     89  S   UNL A   1      46.795  24.533  36.390  1.00  0.00     0.127 S 
ATOM     90  O   UNL A   1      47.960  24.725  37.251  1.00  0.00    -0.237 OA
ATOM     91  O   UNL A   1      45.514  24.505  37.096  1.00  0.00    -0.237 OA
ATOM     92  O   UNL A   1      46.934  23.512  35.359  1.00  0.00    -0.744 OA
ENDBRANCH  86  89
ENDBRANCH  59  82
ENDBRANCH  33  34
ENDBRANCH  26  28
ENDBRANCH  25  26
ENDBRANCH  24  25
ENDBRANCH   1  24
TORSDOF 18
ENDMDL
MODEL 3
REMARK VINA RESULT:     -10.9      2.404      3.834
REMARK SMILES O=C(C[C@@H]1CSCC[NH2+]1)NC[C@H]1CC[C@@H](C(=O)OCCOC(=O)c2ccc(-c3c4nc(c(-c5cccc(S(=O)(=O)[O-])c5F)c5ccc([nH]5)c(-c5cccc(S(=O)(=O)[O-])c5F)c5nc(c(-c6cccc(S(=O)(=O)[O-])c6F)c6ccc3[nH]6)C=C5)C=C4)cc2)O1
REMARK SMILES IDX 19 1 18 2 16 3 17 4 15 5 12 6 13 7 87 8 14 9 11 10 10 11
REMARK SMILES IDX 1 12 2 13 3 15 4 16 5 17 9 18 6 19 8 20 7 23 20 24 21 25
REMARK SMILES IDX 22 26 23 27 24 28 25 29 86 30 26 31 85 32 27 33 28 34 29 35
REMARK SMILES IDX 79 36 30 37 84 38 78 39 80 40 31 41 83 42 77 43 76 44 32 46
REMARK SMILES IDX 64 47 44 48 63 49 45 50 48 51 62 52 81 53 46 54 47 55 61 57
REMARK SMILES IDX 82 58 49 59 33 60 34 61 42 62 35 63 37 64 43 65 36 66 38 67
REMARK SMILES IDX 39 68 40 69 41 70 65 71 66 72 74 73 67 74 69 75 75 76 68 77
REMARK SMILES IDX 70 78 71 79 72 80 73 81 50 82 51 83 59 84 52 85 54 86 60 87
REMARK SMILES IDX 53 88 55 89 56 90 57 91 58 92
REMARK H PARENT 10 14 9 21 9 22 80 45 48 56
REMARK Flexibility Score: inf
ROOT
ATOM      1  C   UNL A   1      35.168  20.731  24.794  1.00  0.00     0.274 C 
ENDROOT
BRANCH   1   2
ATOM      2  O   UNL A   1      35.031  22.153  24.964  1.00  0.00    -0.460 OA
BRANCH   2   3
ATOM      3  C   UNL A   1      33.974  22.724  24.323  1.00  0.00     0.335 C 
ATOM      4  O   UNL A   1      33.025  22.113  23.847  1.00  0.00    -0.249 OA
BRANCH   3   5
ATOM      5  C   UNL A   1      34.109  24.242  24.262  1.00  0.00     0.228 C 
ATOM      6  C   UNL A   1      32.873  26.203  23.906  1.00  0.00     0.138 C 
ATOM      7  C   UNL A   1      33.717  26.345  25.172  1.00  0.00     0.037 C 
ATOM      8  O   UNL A   1      33.162  24.882  23.401  1.00  0.00    -0.361 OA
ATOM      9  C   UNL A   1      33.930  24.912  25.603  1.00  0.00     0.047 C 
BRANCH   6  10
ATOM     10  C   UNL A   1      31.343  26.318  24.059  1.00  0.00     0.147 C 
BRANCH  10  11
ATOM     11  N   UNL A   1      30.873  27.687  24.176  1.00  0.00    -0.353 N 
ATOM     12  O   UNL A   1      30.376  27.926  21.956  1.00  0.00    -0.275 OA
ATOM     13  C   UNL A   1      30.419  28.391  23.092  1.00  0.00     0.226 C 
ATOM     14  H   UNL A   1      30.883  28.123  25.059  1.00  0.00     0.163 HD
BRANCH  13  15
ATOM     15  C   UNL A   1      30.110  29.850  23.338  1.00  0.00     0.165 C 
BRANCH  15  16
ATOM     16  C   UNL A   1      28.638  30.307  23.405  1.00  0.00     0.201 C 
ATOM     17  C   UNL A   1      27.717  30.037  22.196  1.00  0.00     0.135 C 
ATOM     18  N   UNL A   1      28.543  31.725  23.853  1.00  0.00    -0.342 N 
ATOM     19  S   UNL A   1      28.154  30.997  20.727  1.00  0.00    -0.150 SA
ATOM     20  C   UNL A   1      28.933  32.682  22.796  1.00  0.00     0.271 C 
ATOM     21  H   UNL A   1      29.158  31.854  24.656  1.00  0.00     0.346 HD
ATOM     22  H   UNL A   1      27.568  31.908  24.092  1.00  0.00     0.346 HD
ATOM     23  C   UNL A   1      28.090  32.628  21.517  1.00  0.00     0.131 C 
ENDBRANCH  15  16
ENDBRANCH  13  15
ENDBRANCH  10  11
ENDBRANCH   6  10
ENDBRANCH   3   5
ENDBRANCH   2   3
ENDBRANCH   1   2
BRANCH   1  24
ATOM     24  C   UNL A   1      36.649  20.376  24.883  1.00  0.00     0.275 C 
BRANCH  24  25
ATOM     25  O   UNL A   1      37.298  21.318  25.757  1.00  0.00    -0.458 OA
BRANCH  25  26
ATOM     26  C   UNL A   1      38.634  21.144  25.904  1.00  0.00     0.338 C 
ATOM     27  O   UNL A   1      39.277  20.135  25.665  1.00  0.00    -0.246 OA
BRANCH  26  28
ATOM     28  C   UNL A   1      39.241  22.370  26.456  1.00  0.00     0.060 A 
ATOM     29  C   UNL A   1      38.758  23.629  26.098  1.00  0.00     0.016 A 
ATOM     30  C   UNL A   1      40.373  22.257  27.260  1.00  0.00     0.016 A 
ATOM     31  C   UNL A   1      39.464  24.775  26.459  1.00  0.00     0.010 A 
ATOM     32  C   UNL A   1      41.018  23.412  27.710  1.00  0.00     0.010 A 
ATOM     33  C   UNL A   1      40.595  24.683  27.281  1.00  0.00    -0.014 A 
BRANCH  33  34
ATOM     34  C   UNL A   1      41.354  25.898  27.685  1.00  0.00     0.031 A 
ATOM     35  C   UNL A   1      40.684  26.968  28.509  1.00  0.00     0.074 A 
ATOM     36  C   UNL A   1      42.629  26.065  27.282  1.00  0.00     0.049 A 
ATOM     37  N   UNL A   1      41.109  28.169  28.808  1.00  0.00    -0.248 NA
ATOM     38  C   UNL A   1      39.354  26.653  29.055  1.00  0.00     0.031 C 
ATOM     39  C   UNL A   1      43.400  25.105  26.489  1.00  0.00     0.029 A 
ATOM     40  N   UNL A   1      43.499  27.111  27.469  1.00  0.00    -0.354 N 
ATOM     41  C   UNL A   1      40.074  28.776  29.512  1.00  0.00     0.074 A 
ATOM     42  C   UNL A   1      39.002  27.808  29.601  1.00  0.00     0.031 C 
ATOM     43  C   UNL A   1      44.629  25.596  26.273  1.00  0.00     0.029 A 
ATOM     44  C   UNL A   1      44.714  26.934  26.848  1.00  0.00     0.049 A 
ATOM     45  H   UNL A   1      43.275  27.911  27.997  1.00  0.00     0.167 HD
ATOM     46  C   UNL A   1      40.026  30.019  30.049  1.00  0.00     0.034 A 
ATOM     47  C   UNL A   1      45.767  27.764  26.723  1.00  0.00     0.034 A 
ATOM     48  C   UNL A   1      41.123  30.951  30.024  1.00  0.00     0.049 A 
ATOM     49  C   UNL A   1      45.690  29.136  27.334  1.00  0.00     0.074 A 
ATOM     50  C   UNL A   1      41.188  32.217  30.577  1.00  0.00     0.029 A 
ATOM     51  N   UNL A   1      42.350  30.712  29.425  1.00  0.00    -0.354 N 
ATOM     52  N   UNL A   1      44.725  29.671  28.041  1.00  0.00    -0.248 NA
ATOM     53  C   UNL A   1      46.853  30.015  27.137  1.00  0.00     0.031 C 
ATOM     54  C   UNL A   1      42.457  32.745  30.310  1.00  0.00     0.029 A 
ATOM     55  C   UNL A   1      43.182  31.805  29.596  1.00  0.00     0.049 A 
ATOM     56  H   UNL A   1      42.594  29.887  28.947  1.00  0.00     0.167 HD
ATOM     57  C   UNL A   1      45.171  30.939  28.394  1.00  0.00     0.074 A 
ATOM     58  C   UNL A   1      46.504  31.082  27.843  1.00  0.00     0.031 C 
ATOM     59  C   UNL A   1      44.527  31.907  29.090  1.00  0.00     0.034 A 
BRANCH  46  60
ATOM     60  C   UNL A   1      38.757  30.429  30.747  1.00  0.00     0.023 A 
ATOM     61  C   UNL A   1      38.596  30.152  32.120  1.00  0.00     0.012 A 
ATOM     62  C   UNL A   1      37.742  31.125  30.061  1.00  0.00     0.148 A 
ATOM     63  C   UNL A   1      37.433  30.531  32.790  1.00  0.00     0.002 A 
ATOM     64  C   UNL A   1      36.602  31.535  30.745  1.00  0.00     0.091 A 
ATOM     65  F   UNL A   1      37.898  31.358  28.750  1.00  0.00    -0.205 F 
ATOM     66  C   UNL A   1      36.442  31.231  32.106  1.00  0.00     0.022 A 
BRANCH  64  67
ATOM     67  S   UNL A   1      35.310  32.505  29.957  1.00  0.00     0.127 S 
ATOM     68  O   UNL A   1      36.048  33.690  29.525  1.00  0.00    -0.237 OA
ATOM     69  O   UNL A   1      34.877  31.627  28.869  1.00  0.00    -0.237 OA
ATOM     70  O   UNL A   1      34.303  32.725  30.986  1.00  0.00    -0.744 OA
ENDBRANCH  64  67
ENDBRANCH  46  60
BRANCH  47  71
ATOM     71  C   UNL A   1      46.998  27.300  26.024  1.00  0.00     0.023 A 
ATOM     72  C   UNL A   1      47.177  27.624  24.665  1.00  0.00     0.012 A 
ATOM     73  C   UNL A   1      48.012  26.593  26.700  1.00  0.00     0.148 A 
ATOM     74  C   UNL A   1      48.335  27.240  23.989  1.00  0.00     0.002 A 
ATOM     75  C   UNL A   1      49.188  26.264  26.035  1.00  0.00     0.091 A 
ATOM     76  F   UNL A   1      47.814  26.270  27.985  1.00  0.00    -0.205 F 
ATOM     77  C   UNL A   1      49.347  26.574  24.676  1.00  0.00     0.022 A 
BRANCH  75  78
ATOM     78  S   UNL A   1      50.594  25.535  26.885  1.00  0.00     0.127 S 
ATOM     79  O   UNL A   1      51.541  25.345  25.791  1.00  0.00    -0.237 OA
ATOM     80  O   UNL A   1      50.955  26.586  27.838  1.00  0.00    -0.237 OA
ATOM     81  O   UNL A   1      50.081  24.320  27.507  1.00  0.00    -0.744 OA
ENDBRANCH  75  78
ENDBRANCH  47  71
BRANCH  59  82
ATOM     82  C   UNL A   1      45.262  33.200  29.318  1.00  0.00     0.023 A 
ATOM     83  C   UNL A   1      46.098  33.332  30.445  1.00  0.00     0.012 A 
ATOM     84  C   UNL A   1      45.178  34.254  28.390  1.00  0.00     0.148 A 
ATOM     85  C   UNL A   1      46.820  34.505  30.657  1.00  0.00     0.002 A 
ATOM     86  C   UNL A   1      45.932  35.406  28.587  1.00  0.00     0.091 A 
ATOM     87  F   UNL A   1      44.359  34.119  27.337  1.00  0.00    -0.205 F 
ATOM     88  C   UNL A   1      46.746  35.536  29.723  1.00  0.00     0.022 A 
BRANCH  86  89
ATOM     89  S   UNL A   1      45.959  36.746  27.390  1.00  0.00     0.127 S 
ATOM     90  O   UNL A   1      44.533  36.962  27.152  1.00  0.00    -0.237 OA
ATOM     91  O   UNL A   1      46.622  37.818  28.133  1.00  0.00    -0.237 OA
ATOM     92  O   UNL A   1      46.719  36.245  26.253  1.00  0.00    -0.744 OA
ENDBRANCH  86  89
ENDBRANCH  59  82
ENDBRANCH  33  34
ENDBRANCH  26  28
ENDBRANCH  25  26
ENDBRANCH  24  25
ENDBRANCH   1  24
TORSDOF 18
ENDMDL
