MODEL 1
REMARK VINA RESULT:      -9.8      0.000      0.000
REMARK SMILES CC[C@@H](NC(=O)[C@H](C)C[NH2+]C)C(=O)OCCOC(=O)c1ccc(-c2c3nc(c(-c4cccc(S(=O)(=O)[O-])c4F)c4ccc([nH]4)c(-c4cccc(S(=O)(=O)[O-])c4F)c4nc(c(-c5cccc(S(=O)(=O)[O-])c5F)c5ccc2[nH]5)C=C4)C=C3)cc1
REMARK SMILES IDX 15 1 14 2 12 3 13 4 3 5 2 6 1 7 4 8 5 9 6 11 7 12 8 13 9 14
REMARK SMILES IDX 10 15 11 16 16 19 17 20 18 21 19 22 20 23 21 24 82 25 22 26
REMARK SMILES IDX 81 27 23 28 24 29 25 30 75 31 26 32 80 33 74 34 76 35 27 36
REMARK SMILES IDX 79 37 73 38 72 39 28 41 60 42 40 43 59 44 41 45 44 46 58 47
REMARK SMILES IDX 77 48 42 49 43 50 57 52 78 53 45 54 29 55 30 56 38 57 31 58
REMARK SMILES IDX 33 59 39 60 32 61 34 62 35 63 36 64 37 65 61 66 62 67 70 68
REMARK SMILES IDX 63 69 65 70 71 71 64 72 66 73 67 74 68 75 69 76 46 77 47 78
REMARK SMILES IDX 55 79 48 80 50 81 56 82 49 83 51 84 52 85 53 86 54 87
REMARK H PARENT 4 10 10 17 10 18 76 40 44 51
REMARK Flexibility Score: inf
ROOT
ATOM      1  C   UNL A   1      32.173  29.310  24.919  1.00  0.00     0.274 C 
ENDROOT
BRANCH   1   2
ATOM      2  O   UNL A   1      32.006  27.992  25.488  1.00  0.00    -0.461 OA
BRANCH   2   3
ATOM      3  C   UNL A   1      31.897  26.978  24.587  1.00  0.00     0.328 C 
ATOM      4  O   UNL A   1      31.096  26.975  23.658  1.00  0.00    -0.250 OA
BRANCH   3   5
ATOM      5  C   UNL A   1      32.824  25.780  24.863  1.00  0.00     0.192 C 
BRANCH   5   6
ATOM      6  C   UNL A   1      32.271  24.948  26.041  1.00  0.00     0.033 C 
ATOM      7  C   UNL A   1      30.906  24.328  25.757  1.00  0.00     0.007 C 
ENDBRANCH   5   6
BRANCH   5   8
ATOM      8  N   UNL A   1      33.219  24.864  23.770  1.00  0.00    -0.342 N 
ATOM      9  C   UNL A   1      33.645  23.572  23.744  1.00  0.00     0.229 C 
ATOM     10  H   UNL A   1      33.163  25.274  22.876  1.00  0.00     0.164 HD
ATOM     11  O   UNL A   1      33.200  22.862  22.837  1.00  0.00    -0.275 OA
BRANCH   9  12
ATOM     12  C   UNL A   1      34.753  23.052  24.651  1.00  0.00     0.130 C 
ATOM     13  C   UNL A   1      36.062  22.803  23.914  1.00  0.00     0.024 C 
BRANCH  12  14
ATOM     14  C   UNL A   1      34.178  21.926  25.532  1.00  0.00     0.273 C 
BRANCH  14  15
ATOM     15  N   UNL A   1      34.770  20.599  25.332  1.00  0.00    -0.348 N 
ATOM     16  C   UNL A   1      33.773  19.679  24.795  1.00  0.00     0.330 C 
ATOM     17  H   UNL A   1      35.110  20.244  26.226  1.00  0.00     0.346 HD
ATOM     18  H   UNL A   1      35.544  20.675  24.672  1.00  0.00     0.346 HD
ENDBRANCH  14  15
ENDBRANCH  12  14
ENDBRANCH   9  12
ENDBRANCH   5   8
ENDBRANCH   3   5
ENDBRANCH   2   3
ENDBRANCH   1   2
BRANCH   1  19
ATOM     19  C   UNL A   1      31.717  30.452  25.833  1.00  0.00     0.275 C 
BRANCH  19  20
ATOM     20  O   UNL A   1      32.436  30.471  27.072  1.00  0.00    -0.458 OA
BRANCH  20  21
ATOM     21  C   UNL A   1      33.124  31.614  27.301  1.00  0.00     0.338 C 
ATOM     22  O   UNL A   1      32.681  32.750  27.279  1.00  0.00    -0.246 OA
BRANCH  21  23
ATOM     23  C   UNL A   1      34.485  31.299  27.762  1.00  0.00     0.060 A 
ATOM     24  C   UNL A   1      34.775  29.962  28.061  1.00  0.00     0.016 A 
ATOM     25  C   UNL A   1      35.435  32.301  27.964  1.00  0.00     0.016 A 
ATOM     26  C   UNL A   1      36.009  29.620  28.598  1.00  0.00     0.010 A 
ATOM     27  C   UNL A   1      36.669  31.960  28.519  1.00  0.00     0.010 A 
ATOM     28  C   UNL A   1      36.943  30.625  28.866  1.00  0.00    -0.014 A 
BRANCH  28  29
ATOM     29  C   UNL A   1      38.143  30.307  29.665  1.00  0.00     0.031 A 
ATOM     30  C   UNL A   1      39.144  29.344  29.092  1.00  0.00     0.074 A 
ATOM     31  C   UNL A   1      38.321  30.861  30.875  1.00  0.00     0.049 A 
ATOM     32  N   UNL A   1      40.213  28.838  29.643  1.00  0.00    -0.248 NA
ATOM     33  C   UNL A   1      38.900  28.887  27.713  1.00  0.00     0.031 C 
ATOM     34  C   UNL A   1      37.417  31.824  31.504  1.00  0.00     0.029 A 
ATOM     35  N   UNL A   1      39.309  30.665  31.804  1.00  0.00    -0.354 N 
ATOM     36  C   UNL A   1      40.748  27.971  28.698  1.00  0.00     0.074 A 
ATOM     37  C   UNL A   1      39.886  28.020  27.537  1.00  0.00     0.031 C 
ATOM     38  C   UNL A   1      37.873  32.105  32.737  1.00  0.00     0.029 A 
ATOM     39  C   UNL A   1      39.077  31.319  32.991  1.00  0.00     0.049 A 
ATOM     40  H   UNL A   1      40.105  30.111  31.639  1.00  0.00     0.167 HD
ATOM     41  C   UNL A   1      41.863  27.211  28.789  1.00  0.00     0.034 A 
ATOM     42  C   UNL A   1      39.746  31.255  34.158  1.00  0.00     0.034 A 
ATOM     43  C   UNL A   1      42.717  27.190  29.943  1.00  0.00     0.049 A 
ATOM     44  C   UNL A   1      40.974  30.387  34.240  1.00  0.00     0.074 A 
ATOM     45  C   UNL A   1      43.888  26.481  30.137  1.00  0.00     0.029 A 
ATOM     46  N   UNL A   1      42.485  27.910  31.108  1.00  0.00    -0.354 N 
ATOM     47  N   UNL A   1      41.522  29.640  33.311  1.00  0.00    -0.248 NA
ATOM     48  C   UNL A   1      41.695  30.373  35.521  1.00  0.00     0.031 C 
ATOM     49  C   UNL A   1      44.354  26.755  31.428  1.00  0.00     0.029 A 
ATOM     50  C   UNL A   1      43.487  27.658  32.027  1.00  0.00     0.049 A 
ATOM     51  H   UNL A   1      41.720  28.510  31.256  1.00  0.00     0.167 HD
ATOM     52  C   UNL A   1      42.667  29.096  33.881  1.00  0.00     0.074 A 
ATOM     53  C   UNL A   1      42.744  29.615  35.231  1.00  0.00     0.031 C 
ATOM     54  C   UNL A   1      43.567  28.233  33.345  1.00  0.00     0.034 A 
BRANCH  41  55
ATOM     55  C   UNL A   1      42.223  26.355  27.604  1.00  0.00     0.023 A 
ATOM     56  C   UNL A   1      42.988  26.900  26.554  1.00  0.00     0.012 A 
ATOM     57  C   UNL A   1      41.836  25.002  27.547  1.00  0.00     0.148 A 
ATOM     58  C   UNL A   1      43.336  26.122  25.450  1.00  0.00     0.002 A 
ATOM     59  C   UNL A   1      42.223  24.221  26.464  1.00  0.00     0.091 A 
ATOM     60  F   UNL A   1      41.087  24.509  28.544  1.00  0.00    -0.205 F 
ATOM     61  C   UNL A   1      42.962  24.782  25.410  1.00  0.00     0.022 A 
BRANCH  59  62
ATOM     62  S   UNL A   1      41.850  22.467  26.351  1.00  0.00     0.127 S 
ATOM     63  O   UNL A   1      40.388  22.477  26.332  1.00  0.00    -0.237 OA
ATOM     64  O   UNL A   1      42.474  22.102  25.078  1.00  0.00    -0.237 OA
ATOM     65  O   UNL A   1      42.455  21.850  27.523  1.00  0.00    -0.744 OA
ENDBRANCH  59  62
ENDBRANCH  41  55
BRANCH  42  66
ATOM     66  C   UNL A   1      39.282  32.051  35.329  1.00  0.00     0.023 A 
ATOM     67  C   UNL A   1      38.414  31.464  36.270  1.00  0.00     0.012 A 
ATOM     68  C   UNL A   1      39.715  33.377  35.531  1.00  0.00     0.148 A 
ATOM     69  C   UNL A   1      37.964  32.190  37.374  1.00  0.00     0.002 A 
ATOM     70  C   UNL A   1      39.305  34.076  36.659  1.00  0.00     0.091 A 
ATOM     71  F   UNL A   1      40.525  33.926  34.616  1.00  0.00    -0.205 F 
ATOM     72  C   UNL A   1      38.417  33.490  37.574  1.00  0.00     0.022 A 
BRANCH  70  73
ATOM     73  S   UNL A   1      39.938  35.709  37.062  1.00  0.00     0.127 S 
ATOM     74  O   UNL A   1      41.355  35.435  37.284  1.00  0.00    -0.237 OA
ATOM     75  O   UNL A   1      39.639  36.461  35.842  1.00  0.00    -0.237 OA
ATOM     76  O   UNL A   1      39.186  36.143  38.232  1.00  0.00    -0.744 OA
ENDBRANCH  70  73
ENDBRANCH  42  66
BRANCH  54  77
ATOM     77  C   UNL A   1      44.735  27.826  34.203  1.00  0.00     0.023 A 
ATOM     78  C   UNL A   1      45.908  28.607  34.207  1.00  0.00     0.012 A 
ATOM     79  C   UNL A   1      44.634  26.719  35.067  1.00  0.00     0.148 A 
ATOM     80  C   UNL A   1      46.977  28.271  35.037  1.00  0.00     0.002 A 
ATOM     81  C   UNL A   1      45.684  26.421  35.927  1.00  0.00     0.091 A 
ATOM     82  F   UNL A   1      43.516  25.980  35.034  1.00  0.00    -0.205 F 
ATOM     83  C   UNL A   1      46.860  27.188  35.905  1.00  0.00     0.022 A 
BRANCH  81  84
ATOM     84  S   UNL A   1      45.581  25.106  37.148  1.00  0.00     0.127 S 
ATOM     85  O   UNL A   1      46.888  25.198  37.796  1.00  0.00    -0.237 OA
ATOM     86  O   UNL A   1      44.457  25.541  37.978  1.00  0.00    -0.237 OA
ATOM     87  O   UNL A   1      45.337  23.881  36.399  1.00  0.00    -0.744 OA
ENDBRANCH  81  84
ENDBRANCH  54  77
ENDBRANCH  28  29
ENDBRANCH  21  23
ENDBRANCH  20  21
ENDBRANCH  19  20
ENDBRANCH   1  19
TORSDOF 19
ENDMDL
MODEL 2
REMARK VINA RESULT:      -9.7      4.968     10.164
REMARK SMILES CC[C@@H](NC(=O)[C@H](C)C[NH2+]C)C(=O)OCCOC(=O)c1ccc(-c2c3nc(c(-c4cccc(S(=O)(=O)[O-])c4F)c4ccc([nH]4)c(-c4cccc(S(=O)(=O)[O-])c4F)c4nc(c(-c5cccc(S(=O)(=O)[O-])c5F)c5ccc2[nH]5)C=C4)C=C3)cc1
REMARK SMILES IDX 15 1 14 2 12 3 13 4 3 5 2 6 1 7 4 8 5 9 6 11 7 12 8 13 9 14
REMARK SMILES IDX 10 15 11 16 16 19 17 20 18 21 19 22 20 23 21 24 82 25 22 26
REMARK SMILES IDX 81 27 23 28 24 29 25 30 75 31 26 32 80 33 74 34 76 35 27 36
REMARK SMILES IDX 79 37 73 38 72 39 28 41 60 42 40 43 59 44 41 45 44 46 58 47
REMARK SMILES IDX 77 48 42 49 43 50 57 52 78 53 45 54 29 55 30 56 38 57 31 58
REMARK SMILES IDX 33 59 39 60 32 61 34 62 35 63 36 64 37 65 61 66 62 67 70 68
REMARK SMILES IDX 63 69 65 70 71 71 64 72 66 73 67 74 68 75 69 76 46 77 47 78
REMARK SMILES IDX 55 79 48 80 50 81 56 82 49 83 51 84 52 85 53 86 54 87
REMARK H PARENT 4 10 10 17 10 18 76 40 44 51
REMARK Flexibility Score: inf
ROOT
ATOM      1  C   UNL A   1      35.645  20.378  25.005  1.00  0.00     0.274 C 
ENDROOT
BRANCH   1   2
ATOM      2  O   UNL A   1      34.368  20.858  24.527  1.00  0.00    -0.461 OA
BRANCH   2   3
ATOM      3  C   UNL A   1      33.533  21.345  25.484  1.00  0.00     0.328 C 
ATOM      4  O   UNL A   1      33.196  20.714  26.480  1.00  0.00    -0.250 OA
BRANCH   3   5
ATOM      5  C   UNL A   1      32.978  22.750  25.187  1.00  0.00     0.192 C 
BRANCH   5   6
ATOM      6  C   UNL A   1      32.092  22.708  23.921  1.00  0.00     0.033 C 
ATOM      7  C   UNL A   1      32.711  23.423  22.725  1.00  0.00     0.007 C 
ENDBRANCH   5   6
BRANCH   5   8
ATOM      8  N   UNL A   1      32.278  23.523  26.238  1.00  0.00    -0.342 N 
ATOM      9  C   UNL A   1      31.524  24.655  26.215  1.00  0.00     0.229 C 
ATOM     10  H   UNL A   1      32.380  23.139  27.138  1.00  0.00     0.164 HD
ATOM     11  O   UNL A   1      30.522  24.665  26.938  1.00  0.00    -0.275 OA
BRANCH   9  12
ATOM     12  C   UNL A   1      31.966  25.927  25.501  1.00  0.00     0.130 C 
ATOM     13  C   UNL A   1      32.545  26.972  26.445  1.00  0.00     0.024 C 
BRANCH  12  14
ATOM     14  C   UNL A   1      30.855  26.352  24.523  1.00  0.00     0.273 C 
BRANCH  14  15
ATOM     15  N   UNL A   1      29.513  25.846  24.829  1.00  0.00    -0.348 N 
ATOM     16  C   UNL A   1      28.550  26.352  23.856  1.00  0.00     0.330 C 
ATOM     17  H   UNL A   1      29.242  26.153  25.764  1.00  0.00     0.346 HD
ATOM     18  H   UNL A   1      29.523  24.826  24.789  1.00  0.00     0.346 HD
ENDBRANCH  14  15
ENDBRANCH  12  14
ENDBRANCH   9  12
ENDBRANCH   5   8
ENDBRANCH   3   5
ENDBRANCH   2   3
ENDBRANCH   1   2
BRANCH   1  19
ATOM     19  C   UNL A   1      36.513  21.453  25.665  1.00  0.00     0.275 C 
BRANCH  19  20
ATOM     20  O   UNL A   1      37.788  21.586  25.024  1.00  0.00    -0.458 OA
BRANCH  20  21
ATOM     21  C   UNL A   1      38.842  21.238  25.799  1.00  0.00     0.338 C 
ATOM     22  O   UNL A   1      39.370  20.140  25.863  1.00  0.00    -0.246 OA
BRANCH  21  23
ATOM     23  C   UNL A   1      39.401  22.429  26.454  1.00  0.00     0.060 A 
ATOM     24  C   UNL A   1      38.951  23.681  26.016  1.00  0.00     0.016 A 
ATOM     25  C   UNL A   1      40.397  22.326  27.426  1.00  0.00     0.016 A 
ATOM     26  C   UNL A   1      39.517  24.843  26.525  1.00  0.00     0.010 A 
ATOM     27  C   UNL A   1      40.978  23.492  27.925  1.00  0.00     0.010 A 
ATOM     28  C   UNL A   1      40.561  24.749  27.450  1.00  0.00    -0.014 A 
BRANCH  28  29
ATOM     29  C   UNL A   1      41.335  25.958  27.798  1.00  0.00     0.031 A 
ATOM     30  C   UNL A   1      40.642  27.047  28.567  1.00  0.00     0.074 A 
ATOM     31  C   UNL A   1      42.619  26.075  27.425  1.00  0.00     0.049 A 
ATOM     32  N   UNL A   1      41.079  28.231  28.896  1.00  0.00    -0.248 NA
ATOM     33  C   UNL A   1      39.269  26.761  29.019  1.00  0.00     0.031 C 
ATOM     34  C   UNL A   1      43.382  25.060  26.698  1.00  0.00     0.029 A 
ATOM     35  N   UNL A   1      43.497  27.115  27.579  1.00  0.00    -0.354 N 
ATOM     36  C   UNL A   1      40.024  28.850  29.556  1.00  0.00     0.074 A 
ATOM     37  C   UNL A   1      38.926  27.910  29.582  1.00  0.00     0.031 C 
ATOM     38  C   UNL A   1      44.607  25.547  26.432  1.00  0.00     0.029 A 
ATOM     39  C   UNL A   1      44.698  26.913  26.940  1.00  0.00     0.049 A 
ATOM     40  H   UNL A   1      43.288  27.927  28.093  1.00  0.00     0.167 HD
ATOM     41  C   UNL A   1      39.982  30.089  30.099  1.00  0.00     0.034 A 
ATOM     42  C   UNL A   1      45.733  27.755  26.762  1.00  0.00     0.034 A 
ATOM     43  C   UNL A   1      41.091  31.002  30.081  1.00  0.00     0.049 A 
ATOM     44  C   UNL A   1      45.655  29.135  27.360  1.00  0.00     0.074 A 
ATOM     45  C   UNL A   1      41.172  32.270  30.624  1.00  0.00     0.029 A 
ATOM     46  N   UNL A   1      42.314  30.743  29.477  1.00  0.00    -0.354 N 
ATOM     47  N   UNL A   1      44.687  29.678  28.059  1.00  0.00    -0.248 NA
ATOM     48  C   UNL A   1      46.821  30.009  27.171  1.00  0.00     0.031 C 
ATOM     49  C   UNL A   1      42.438  32.788  30.331  1.00  0.00     0.029 A 
ATOM     50  C   UNL A   1      43.155  31.830  29.629  1.00  0.00     0.049 A 
ATOM     51  H   UNL A   1      42.547  29.909  29.010  1.00  0.00     0.167 HD
ATOM     52  C   UNL A   1      45.138  30.942  28.423  1.00  0.00     0.074 A 
ATOM     53  C   UNL A   1      46.476  31.075  27.881  1.00  0.00     0.031 C 
ATOM     54  C   UNL A   1      44.503  31.912  29.126  1.00  0.00     0.034 A 
BRANCH  41  55
ATOM     55  C   UNL A   1      38.702  30.515  30.766  1.00  0.00     0.023 A 
ATOM     56  C   UNL A   1      38.495  30.228  32.131  1.00  0.00     0.012 A 
ATOM     57  C   UNL A   1      37.720  31.231  30.054  1.00  0.00     0.148 A 
ATOM     58  C   UNL A   1      37.318  30.618  32.768  1.00  0.00     0.002 A 
ATOM     59  C   UNL A   1      36.568  31.653  30.707  1.00  0.00     0.091 A 
ATOM     60  F   UNL A   1      37.924  31.471  28.751  1.00  0.00    -0.205 F 
ATOM     61  C   UNL A   1      36.361  31.339  32.059  1.00  0.00     0.022 A 
BRANCH  59  62
ATOM     62  S   UNL A   1      35.306  32.646  29.901  1.00  0.00     0.127 S 
ATOM     63  O   UNL A   1      34.366  32.876  30.997  1.00  0.00    -0.237 OA
ATOM     64  O   UNL A   1      36.063  33.830  29.490  1.00  0.00    -0.237 OA
ATOM     65  O   UNL A   1      34.798  31.837  28.802  1.00  0.00    -0.744 OA
ENDBRANCH  59  62
ENDBRANCH  41  55
BRANCH  42  66
ATOM     66  C   UNL A   1      46.936  27.308  26.003  1.00  0.00     0.023 A 
ATOM     67  C   UNL A   1      47.001  27.521  24.613  1.00  0.00     0.012 A 
ATOM     68  C   UNL A   1      48.026  26.696  26.655  1.00  0.00     0.148 A 
ATOM     69  C   UNL A   1      48.116  27.108  23.881  1.00  0.00     0.002 A 
ATOM     70  C   UNL A   1      49.155  26.337  25.929  1.00  0.00     0.091 A 
ATOM     71  F   UNL A   1      47.939  26.484  27.975  1.00  0.00    -0.205 F 
ATOM     72  C   UNL A   1      49.196  26.528  24.540  1.00  0.00     0.022 A 
BRANCH  70  73
ATOM     73  S   UNL A   1      50.641  25.699  26.713  1.00  0.00     0.127 S 
ATOM     74  O   UNL A   1      50.160  24.448  27.293  1.00  0.00    -0.237 OA
ATOM     75  O   UNL A   1      51.543  25.542  25.572  1.00  0.00    -0.237 OA
ATOM     76  O   UNL A   1      51.051  26.722  27.665  1.00  0.00    -0.744 OA
ENDBRANCH  70  73
ENDBRANCH  42  66
BRANCH  54  77
ATOM     77  C   UNL A   1      45.257  33.188  29.388  1.00  0.00     0.023 A 
ATOM     78  C   UNL A   1      46.092  33.290  30.518  1.00  0.00     0.012 A 
ATOM     79  C   UNL A   1      45.202  34.252  28.467  1.00  0.00     0.148 A 
ATOM     80  C   UNL A   1      46.838  34.446  30.743  1.00  0.00     0.002 A 
ATOM     81  C   UNL A   1      45.986  35.380  28.672  1.00  0.00     0.091 A 
ATOM     82  F   UNL A   1      44.387  34.140  27.408  1.00  0.00    -0.205 F 
ATOM     83  C   UNL A   1      46.795  35.484  29.815  1.00  0.00     0.022 A 
BRANCH  81  84
ATOM     84  S   UNL A   1      46.070  36.721  27.479  1.00  0.00     0.127 S 
ATOM     85  O   UNL A   1      47.372  37.312  27.785  1.00  0.00    -0.237 OA
ATOM     86  O   UNL A   1      46.010  36.005  26.204  1.00  0.00    -0.237 OA
ATOM     87  O   UNL A   1      44.918  37.570  27.748  1.00  0.00    -0.744 OA
ENDBRANCH  81  84
ENDBRANCH  54  77
ENDBRANCH  28  29
ENDBRANCH  21  23
ENDBRANCH  20  21
ENDBRANCH  19  20
ENDBRANCH   1  19
TORSDOF 19
ENDMDL
MODEL 3
REMARK VINA RESULT:      -9.6      4.611      9.714
REMARK SMILES CC[C@@H](NC(=O)[C@H](C)C[NH2+]C)C(=O)OCCOC(=O)c1ccc(-c2c3nc(c(-c4cccc(S(=O)(=O)[O-])c4F)c4ccc([nH]4)c(-c4cccc(S(=O)(=O)[O-])c4F)c4nc(c(-c5cccc(S(=O)(=O)[O-])c5F)c5ccc2[nH]5)C=C4)C=C3)cc1
REMARK SMILES IDX 15 1 14 2 12 3 13 4 3 5 2 6 1 7 4 8 5 9 6 11 7 12 8 13 9 14
REMARK SMILES IDX 10 15 11 16 16 19 17 20 18 21 19 22 20 23 21 24 82 25 22 26
REMARK SMILES IDX 81 27 23 28 24 29 25 30 75 31 26 32 80 33 74 34 76 35 27 36
REMARK SMILES IDX 79 37 73 38 72 39 28 41 60 42 40 43 59 44 41 45 44 46 58 47
REMARK SMILES IDX 77 48 42 49 43 50 57 52 78 53 45 54 29 55 30 56 38 57 31 58
REMARK SMILES IDX 33 59 39 60 32 61 34 62 35 63 36 64 37 65 61 66 62 67 70 68
REMARK SMILES IDX 63 69 65 70 71 71 64 72 66 73 67 74 68 75 69 76 46 77 47 78
REMARK SMILES IDX 55 79 48 80 50 81 56 82 49 83 51 84 52 85 53 86 54 87
REMARK H PARENT 4 10 10 17 10 18 76 40 44 51
REMARK Flexibility Score: inf
ROOT
ATOM      1  C   UNL A   1      35.240  21.791  24.678  1.00  0.00     0.274 C 
ENDROOT
BRANCH   1   2
ATOM      2  O   UNL A   1      34.798  22.958  25.407  1.00  0.00    -0.461 OA
BRANCH   2   3
ATOM      3  C   UNL A   1      33.541  22.881  25.924  1.00  0.00     0.328 C 
ATOM      4  O   UNL A   1      33.166  21.984  26.671  1.00  0.00    -0.250 OA
BRANCH   3   5
ATOM      5  C   UNL A   1      32.587  23.988  25.440  1.00  0.00     0.192 C 
BRANCH   5   6
ATOM      6  C   UNL A   1      31.390  23.360  24.691  1.00  0.00     0.033 C 
ATOM      7  C   UNL A   1      31.660  23.121  23.209  1.00  0.00     0.007 C 
ENDBRANCH   5   6
BRANCH   5   8
ATOM      8  N   UNL A   1      32.081  25.013  26.381  1.00  0.00    -0.342 N 
ATOM      9  C   UNL A   1      32.108  26.373  26.380  1.00  0.00     0.229 C 
ATOM     10  H   UNL A   1      31.633  24.632  27.170  1.00  0.00     0.164 HD
ATOM     11  O   UNL A   1      31.083  26.945  26.765  1.00  0.00    -0.275 OA
BRANCH   9  12
ATOM     12  C   UNL A   1      33.376  27.173  26.109  1.00  0.00     0.130 C 
ATOM     13  C   UNL A   1      33.587  28.312  27.097  1.00  0.00     0.024 C 
BRANCH  12  14
ATOM     14  C   UNL A   1      33.449  27.482  24.601  1.00  0.00     0.273 C 
BRANCH  14  15
ATOM     15  N   UNL A   1      33.111  28.857  24.219  1.00  0.00    -0.348 N 
ATOM     16  C   UNL A   1      31.719  28.930  23.785  1.00  0.00     0.330 C 
ATOM     17  H   UNL A   1      33.719  29.154  23.456  1.00  0.00     0.346 HD
ATOM     18  H   UNL A   1      33.242  29.469  25.025  1.00  0.00     0.346 HD
ENDBRANCH  14  15
ENDBRANCH  12  14
ENDBRANCH   9  12
ENDBRANCH   5   8
ENDBRANCH   3   5
ENDBRANCH   2   3
ENDBRANCH   1   2
BRANCH   1  19
ATOM     19  C   UNL A   1      36.431  21.067  25.312  1.00  0.00     0.275 C 
BRANCH  19  20
ATOM     20  O   UNL A   1      37.681  21.676  24.964  1.00  0.00    -0.458 OA
BRANCH  20  21
ATOM     21  C   UNL A   1      38.723  21.294  25.738  1.00  0.00     0.338 C 
ATOM     22  O   UNL A   1      39.238  20.189  25.776  1.00  0.00    -0.246 OA
BRANCH  21  23
ATOM     23  C   UNL A   1      39.289  22.460  26.432  1.00  0.00     0.060 A 
ATOM     24  C   UNL A   1      38.835  23.727  26.046  1.00  0.00     0.016 A 
ATOM     25  C   UNL A   1      40.295  22.321  27.389  1.00  0.00     0.016 A 
ATOM     26  C   UNL A   1      39.408  24.869  26.591  1.00  0.00     0.010 A 
ATOM     27  C   UNL A   1      40.881  23.467  27.926  1.00  0.00     0.010 A 
ATOM     28  C   UNL A   1      40.461  24.740  27.502  1.00  0.00    -0.014 A 
BRANCH  28  29
ATOM     29  C   UNL A   1      41.238  25.935  27.887  1.00  0.00     0.031 A 
ATOM     30  C   UNL A   1      40.535  27.027  28.643  1.00  0.00     0.074 A 
ATOM     31  C   UNL A   1      42.536  26.038  27.558  1.00  0.00     0.049 A 
ATOM     32  N   UNL A   1      40.976  28.202  28.998  1.00  0.00    -0.248 NA
ATOM     33  C   UNL A   1      39.144  26.756  29.046  1.00  0.00     0.031 C 
ATOM     34  C   UNL A   1      43.309  25.020  26.847  1.00  0.00     0.029 A 
ATOM     35  N   UNL A   1      43.421  27.065  27.751  1.00  0.00    -0.354 N 
ATOM     36  C   UNL A   1      39.908  28.830  29.628  1.00  0.00     0.074 A 
ATOM     37  C   UNL A   1      38.797  27.905  29.608  1.00  0.00     0.031 C 
ATOM     38  C   UNL A   1      44.548  25.492  26.627  1.00  0.00     0.029 A 
ATOM     39  C   UNL A   1      44.640  26.852  27.151  1.00  0.00     0.049 A 
ATOM     40  H   UNL A   1      43.207  27.875  28.266  1.00  0.00     0.167 HD
ATOM     41  C   UNL A   1      39.864  30.064  30.180  1.00  0.00     0.034 A 
ATOM     42  C   UNL A   1      45.693  27.681  27.015  1.00  0.00     0.034 A 
ATOM     43  C   UNL A   1      40.986  30.961  30.208  1.00  0.00     0.049 A 
ATOM     44  C   UNL A   1      45.612  29.057  27.623  1.00  0.00     0.074 A 
ATOM     45  C   UNL A   1      41.065  32.224  30.765  1.00  0.00     0.029 A 
ATOM     46  N   UNL A   1      42.224  30.692  29.643  1.00  0.00    -0.354 N 
ATOM     47  N   UNL A   1      44.629  29.607  28.295  1.00  0.00    -0.248 NA
ATOM     48  C   UNL A   1      46.796  29.916  27.482  1.00  0.00     0.031 C 
ATOM     49  C   UNL A   1      42.348  32.727  30.520  1.00  0.00     0.029 A 
ATOM     50  C   UNL A   1      43.075  31.765  29.834  1.00  0.00     0.049 A 
ATOM     51  H   UNL A   1      42.462  29.859  29.176  1.00  0.00     0.167 HD
ATOM     52  C   UNL A   1      45.085  30.861  28.686  1.00  0.00     0.074 A 
ATOM     53  C   UNL A   1      46.442  30.980  28.190  1.00  0.00     0.031 C 
ATOM     54  C   UNL A   1      44.439  31.833  29.377  1.00  0.00     0.034 A 
BRANCH  41  55
ATOM     55  C   UNL A   1      38.569  30.501  30.809  1.00  0.00     0.023 A 
ATOM     56  C   UNL A   1      38.331  30.245  32.174  1.00  0.00     0.012 A 
ATOM     57  C   UNL A   1      37.602  31.198  30.059  1.00  0.00     0.148 A 
ATOM     58  C   UNL A   1      37.139  30.646  32.776  1.00  0.00     0.002 A 
ATOM     59  C   UNL A   1      36.434  31.633  30.676  1.00  0.00     0.091 A 
ATOM     60  F   UNL A   1      37.835  31.410  28.755  1.00  0.00    -0.205 F 
ATOM     61  C   UNL A   1      36.197  31.348  32.029  1.00  0.00     0.022 A 
BRANCH  59  62
ATOM     62  S   UNL A   1      35.189  32.604  29.819  1.00  0.00     0.127 S 
ATOM     63  O   UNL A   1      34.213  32.836  30.882  1.00  0.00    -0.237 OA
ATOM     64  O   UNL A   1      35.947  33.791  29.419  1.00  0.00    -0.237 OA
ATOM     65  O   UNL A   1      34.724  31.779  28.713  1.00  0.00    -0.744 OA
ENDBRANCH  59  62
ENDBRANCH  41  55
BRANCH  42  66
ATOM     66  C   UNL A   1      46.914  27.224  26.293  1.00  0.00     0.023 A 
ATOM     67  C   UNL A   1      47.044  27.480  24.915  1.00  0.00     0.012 A 
ATOM     68  C   UNL A   1      47.958  26.562  26.969  1.00  0.00     0.148 A 
ATOM     69  C   UNL A   1      48.177  27.059  24.217  1.00  0.00     0.002 A 
ATOM     70  C   UNL A   1      49.107  26.194  26.280  1.00  0.00     0.091 A 
ATOM     71  F   UNL A   1      47.810  26.311  28.277  1.00  0.00    -0.205 F 
ATOM     72  C   UNL A   1      49.212  26.428  24.900  1.00  0.00     0.022 A 
BRANCH  70  73
ATOM     73  S   UNL A   1      50.540  25.489  27.103  1.00  0.00     0.127 S 
ATOM     74  O   UNL A   1      50.897  26.549  28.042  1.00  0.00    -0.237 OA
ATOM     75  O   UNL A   1      49.977  24.286  27.717  1.00  0.00    -0.237 OA
ATOM     76  O   UNL A   1      51.508  25.226  26.047  1.00  0.00    -0.744 OA
ENDBRANCH  70  73
ENDBRANCH  42  66
BRANCH  54  77
ATOM     77  C   UNL A   1      45.202  33.097  29.676  1.00  0.00     0.023 A 
ATOM     78  C   UNL A   1      45.137  34.183  28.783  1.00  0.00     0.012 A 
ATOM     79  C   UNL A   1      45.912  33.232  30.884  1.00  0.00     0.148 A 
ATOM     80  C   UNL A   1      45.794  35.378  29.073  1.00  0.00     0.002 A 
ATOM     81  C   UNL A   1      46.523  34.442  31.191  1.00  0.00     0.091 A 
ATOM     82  F   UNL A   1      45.976  32.179  31.712  1.00  0.00    -0.205 F 
ATOM     83  C   UNL A   1      46.475  35.511  30.281  1.00  0.00     0.022 A 
BRANCH  81  84
ATOM     84  S   UNL A   1      47.335  34.736  32.766  1.00  0.00     0.127 S 
ATOM     85  O   UNL A   1      48.017  36.005  32.518  1.00  0.00    -0.237 OA
ATOM     86  O   UNL A   1      46.202  34.822  33.688  1.00  0.00    -0.237 OA
ATOM     87  O   UNL A   1      48.206  33.590  32.987  1.00  0.00    -0.744 OA
ENDBRANCH  81  84
ENDBRANCH  54  77
ENDBRANCH  28  29
ENDBRANCH  21  23
ENDBRANCH  20  21
ENDBRANCH  19  20
ENDBRANCH   1  19
TORSDOF 19
ENDMDL
