MODEL 1
REMARK VINA RESULT:     -12.6      0.000      0.000
REMARK SMILES COc1ccccc1[C@@H]1C[N@@H+](Cc2cn3cc(C)ccc3n2)C[C@H]1C(=O)OCCOC(=O)c1ccc(-c2c3nc(c(-c4cccc(S(=O)(=O)[O-])c4F)c4ccc([nH]4)c(-c4cccc(S(=O)(=O)[O-])c4F)c4nc(c(-c5cccc(S(=O)(=O)[O-])c5F)c5ccc2[nH]5)C=C4)C=C3)cc1
REMARK SMILES IDX 29 1 28 2 27 3 25 4 26 5 24 6 9 7 10 8 11 9 23 10 8 12 3 13
REMARK SMILES IDX 4 14 5 15 7 16 6 17 2 18 1 19 12 20 13 21 14 22 22 23 15 24
REMARK SMILES IDX 21 25 16 26 20 27 17 28 19 29 18 30 30 31 31 32 32 33 33 34
REMARK SMILES IDX 34 35 95 36 35 37 94 38 36 39 37 40 38 41 88 42 39 43 93 44
REMARK SMILES IDX 87 45 89 46 40 47 92 48 86 49 85 50 41 52 73 53 53 54 72 55
REMARK SMILES IDX 54 56 57 57 71 58 90 59 55 60 56 61 70 63 91 64 58 65 42 66
REMARK SMILES IDX 43 67 51 68 44 69 46 70 52 71 45 72 47 73 48 74 49 75 50 76
REMARK SMILES IDX 74 77 75 78 83 79 76 80 78 81 84 82 77 83 79 84 80 85 81 86
REMARK SMILES IDX 82 87 59 88 60 89 68 90 61 91 63 92 69 93 62 94 64 95 65 96
REMARK SMILES IDX 66 97 67 98
REMARK H PARENT 11 11 89 51 57 62
REMARK Flexibility Score: inf
ROOT
ATOM      1  C   UNL A   1      38.465  21.406  25.438  1.00  0.00     0.275 C 
ENDROOT
BRANCH   1   2
ATOM      2  C   UNL A   1      37.303  21.703  24.493  1.00  0.00     0.274 C 
BRANCH   2   3
ATOM      3  O   UNL A   1      36.831  23.063  24.575  1.00  0.00    -0.462 OA
BRANCH   3   4
ATOM      4  C   UNL A   1      35.707  23.376  23.879  1.00  0.00     0.315 C 
ATOM      5  O   UNL A   1      35.625  23.338  22.655  1.00  0.00    -0.252 OA
BRANCH   4   6
ATOM      6  C   UNL A   1      34.582  23.910  24.744  1.00  0.00     0.167 C 
ATOM      7  C   UNL A   1      33.409  24.649  24.093  1.00  0.00     0.098 C 
ATOM      8  C   UNL A   1      32.298  24.428  25.132  1.00  0.00     0.272 C 
ATOM      9  N   UNL A   1      32.487  23.072  25.664  1.00  0.00    -0.329 N 
ATOM     10  C   UNL A   1      33.917  22.755  25.506  1.00  0.00     0.278 C 
ATOM     11  H   UNL A   1      32.226  23.044  26.650  1.00  0.00     0.348 HD
BRANCH   7  12
ATOM     12  C   UNL A   1      33.498  26.116  23.699  1.00  0.00     0.004 A 
ATOM     13  C   UNL A   1      33.530  26.604  22.384  1.00  0.00     0.122 A 
ATOM     14  C   UNL A   1      33.655  27.977  22.124  1.00  0.00     0.047 A 
ATOM     15  C   UNL A   1      33.779  28.888  23.175  1.00  0.00     0.004 A 
ATOM     16  C   UNL A   1      33.667  27.058  24.738  1.00  0.00     0.008 A 
ATOM     17  C   UNL A   1      33.805  28.425  24.485  1.00  0.00     0.001 A 
BRANCH  13  18
ATOM     18  O   UNL A   1      33.654  25.740  21.328  1.00  0.00    -0.496 OA
ATOM     19  C   UNL A   1      32.449  25.586  20.588  1.00  0.00     0.278 C 
ENDBRANCH  13  18
ENDBRANCH   7  12
BRANCH   9  20
ATOM     20  C   UNL A   1      31.580  22.062  25.085  1.00  0.00     0.321 C 
BRANCH  20  21
ATOM     21  C   UNL A   1      32.186  20.701  24.920  1.00  0.00     0.114 A 
ATOM     22  C   UNL A   1      32.511  19.784  25.906  1.00  0.00     0.122 A 
ATOM     23  N   UNL A   1      32.436  20.167  23.673  1.00  0.00    -0.228 NA
ATOM     24  N   UNL A   1      32.810  18.622  25.246  1.00  0.00    -0.306 N 
ATOM     25  C   UNL A   1      32.772  18.912  23.889  1.00  0.00     0.137 A 
ATOM     26  C   UNL A   1      33.072  17.357  25.764  1.00  0.00     0.096 A 
ATOM     27  C   UNL A   1      33.037  17.837  22.997  1.00  0.00     0.048 A 
ATOM     28  C   UNL A   1      33.309  16.332  24.921  1.00  0.00    -0.034 A 
ATOM     29  C   UNL A   1      33.281  16.603  23.483  1.00  0.00     0.009 A 
ATOM     30  C   UNL A   1      33.562  14.929  25.376  1.00  0.00     0.046 C 
ENDBRANCH  20  21
ENDBRANCH   9  20
ENDBRANCH   4   6
ENDBRANCH   3   4
ENDBRANCH   2   3
ENDBRANCH   1   2
BRANCH   1  31
ATOM     31  O   UNL A   1      38.788  22.508  26.282  1.00  0.00    -0.458 OA
BRANCH  31  32
ATOM     32  C   UNL A   1      39.999  22.368  26.866  1.00  0.00     0.338 C 
ATOM     33  O   UNL A   1      40.523  21.336  27.242  1.00  0.00    -0.246 OA
BRANCH  32  34
ATOM     34  C   UNL A   1      40.550  23.670  27.203  1.00  0.00     0.060 A 
ATOM     35  C   UNL A   1      41.619  23.722  28.094  1.00  0.00     0.016 A 
ATOM     36  C   UNL A   1      39.818  24.805  26.847  1.00  0.00     0.016 A 
ATOM     37  C   UNL A   1      41.895  24.915  28.730  1.00  0.00     0.010 A 
ATOM     38  C   UNL A   1      40.110  26.003  27.464  1.00  0.00     0.010 A 
ATOM     39  C   UNL A   1      41.113  26.040  28.437  1.00  0.00    -0.014 A 
BRANCH  39  40
ATOM     40  C   UNL A   1      41.527  27.315  29.008  1.00  0.00     0.031 A 
ATOM     41  C   UNL A   1      42.861  27.759  28.525  1.00  0.00     0.074 A 
ATOM     42  C   UNL A   1      40.701  28.108  29.719  1.00  0.00     0.049 A 
ATOM     43  N   UNL A   1      43.895  28.110  29.218  1.00  0.00    -0.248 NA
ATOM     44  C   UNL A   1      43.110  27.677  27.073  1.00  0.00     0.031 C 
ATOM     45  C   UNL A   1      39.268  27.884  29.937  1.00  0.00     0.029 A 
ATOM     46  N   UNL A   1      40.912  29.356  30.241  1.00  0.00    -0.354 N 
ATOM     47  C   UNL A   1      44.830  28.532  28.272  1.00  0.00     0.074 A 
ATOM     48  C   UNL A   1      44.387  28.043  26.999  1.00  0.00     0.031 C 
ATOM     49  C   UNL A   1      38.693  29.051  30.294  1.00  0.00     0.029 A 
ATOM     50  C   UNL A   1      39.730  30.055  30.462  1.00  0.00     0.049 A 
ATOM     51  H   UNL A   1      41.805  29.720  30.440  1.00  0.00     0.167 HD
ATOM     52  C   UNL A   1      45.699  29.535  28.559  1.00  0.00     0.034 A 
ATOM     53  C   UNL A   1      39.588  31.381  30.694  1.00  0.00     0.034 A 
ATOM     54  C   UNL A   1      45.841  29.724  29.979  1.00  0.00     0.049 A 
ATOM     55  C   UNL A   1      40.883  31.933  31.140  1.00  0.00     0.074 A 
ATOM     56  C   UNL A   1      46.531  29.148  31.019  1.00  0.00     0.029 A 
ATOM     57  N   UNL A   1      44.901  30.556  30.517  1.00  0.00    -0.354 N 
ATOM     58  N   UNL A   1      41.442  31.650  32.283  1.00  0.00    -0.248 NA
ATOM     59  C   UNL A   1      41.722  32.660  30.192  1.00  0.00     0.031 C 
ATOM     60  C   UNL A   1      45.912  29.609  32.219  1.00  0.00     0.029 A 
ATOM     61  C   UNL A   1      44.856  30.451  31.880  1.00  0.00     0.049 A 
ATOM     62  H   UNL A   1      44.328  31.158  29.989  1.00  0.00     0.167 HD
ATOM     63  C   UNL A   1      42.794  31.786  32.037  1.00  0.00     0.074 A 
ATOM     64  C   UNL A   1      42.895  32.581  30.823  1.00  0.00     0.031 C 
ATOM     65  C   UNL A   1      43.702  30.942  32.603  1.00  0.00     0.034 A 
BRANCH  52  66
ATOM     66  C   UNL A   1      46.043  30.675  27.608  1.00  0.00     0.023 A 
ATOM     67  C   UNL A   1      47.407  31.047  27.541  1.00  0.00     0.012 A 
ATOM     68  C   UNL A   1      45.116  31.579  27.035  1.00  0.00     0.148 A 
ATOM     69  C   UNL A   1      47.817  32.271  27.001  1.00  0.00     0.002 A 
ATOM     70  C   UNL A   1      45.535  32.765  26.437  1.00  0.00     0.091 A 
ATOM     71  F   UNL A   1      43.803  31.382  27.167  1.00  0.00    -0.205 F 
ATOM     72  C   UNL A   1      46.880  33.132  26.446  1.00  0.00     0.022 A 
BRANCH  70  73
ATOM     73  S   UNL A   1      44.362  33.899  25.675  1.00  0.00     0.127 S 
ATOM     74  O   UNL A   1      45.245  34.967  25.216  1.00  0.00    -0.237 OA
ATOM     75  O   UNL A   1      43.789  33.069  24.615  1.00  0.00    -0.237 OA
ATOM     76  O   UNL A   1      43.419  34.252  26.728  1.00  0.00    -0.744 OA
ENDBRANCH  70  73
ENDBRANCH  52  66
BRANCH  53  77
ATOM     77  C   UNL A   1      38.427  32.266  30.446  1.00  0.00     0.023 A 
ATOM     78  C   UNL A   1      37.984  32.461  29.123  1.00  0.00     0.012 A 
ATOM     79  C   UNL A   1      37.609  32.725  31.502  1.00  0.00     0.148 A 
ATOM     80  C   UNL A   1      36.751  33.063  28.857  1.00  0.00     0.002 A 
ATOM     81  C   UNL A   1      36.390  33.340  31.231  1.00  0.00     0.091 A 
ATOM     82  F   UNL A   1      37.984  32.480  32.764  1.00  0.00    -0.205 F 
ATOM     83  C   UNL A   1      35.952  33.498  29.910  1.00  0.00     0.022 A 
BRANCH  81  84
ATOM     84  S   UNL A   1      35.306  33.934  32.537  1.00  0.00     0.127 S 
ATOM     85  O   UNL A   1      34.043  34.126  31.823  1.00  0.00    -0.237 OA
ATOM     86  O   UNL A   1      35.316  32.814  33.472  1.00  0.00    -0.237 OA
ATOM     87  O   UNL A   1      35.911  35.171  33.016  1.00  0.00    -0.744 OA
ENDBRANCH  81  84
ENDBRANCH  53  77
BRANCH  65  88
ATOM     88  C   UNL A   1      43.369  30.320  33.923  1.00  0.00     0.023 A 
ATOM     89  C   UNL A   1      43.478  31.016  35.142  1.00  0.00     0.012 A 
ATOM     90  C   UNL A   1      42.847  29.015  33.926  1.00  0.00     0.148 A 
ATOM     91  C   UNL A   1      43.095  30.409  36.342  1.00  0.00     0.002 A 
ATOM     92  C   UNL A   1      42.420  28.435  35.113  1.00  0.00     0.091 A 
ATOM     93  F   UNL A   1      42.768  28.356  32.759  1.00  0.00    -0.205 F 
ATOM     94  C   UNL A   1      42.553  29.125  36.327  1.00  0.00     0.022 A 
BRANCH  92  95
ATOM     95  S   UNL A   1      41.604  26.837  35.118  1.00  0.00     0.127 S 
ATOM     96  O   UNL A   1      41.155  26.723  36.502  1.00  0.00    -0.237 OA
ATOM     97  O   UNL A   1      40.531  27.023  34.140  1.00  0.00    -0.237 OA
ATOM     98  O   UNL A   1      42.624  25.882  34.698  1.00  0.00    -0.744 OA
ENDBRANCH  92  95
ENDBRANCH  65  88
ENDBRANCH  39  40
ENDBRANCH  32  34
ENDBRANCH  31  32
ENDBRANCH   1  31
TORSDOF 18
ENDMDL
MODEL 2
REMARK VINA RESULT:     -12.5      1.670      2.074
REMARK SMILES COc1ccccc1[C@@H]1C[N@@H+](Cc2cn3cc(C)ccc3n2)C[C@H]1C(=O)OCCOC(=O)c1ccc(-c2c3nc(c(-c4cccc(S(=O)(=O)[O-])c4F)c4ccc([nH]4)c(-c4cccc(S(=O)(=O)[O-])c4F)c4nc(c(-c5cccc(S(=O)(=O)[O-])c5F)c5ccc2[nH]5)C=C4)C=C3)cc1
REMARK SMILES IDX 29 1 28 2 27 3 25 4 26 5 24 6 9 7 10 8 11 9 23 10 8 12 3 13
REMARK SMILES IDX 4 14 5 15 7 16 6 17 2 18 1 19 12 20 13 21 14 22 22 23 15 24
REMARK SMILES IDX 21 25 16 26 20 27 17 28 19 29 18 30 30 31 31 32 32 33 33 34
REMARK SMILES IDX 34 35 95 36 35 37 94 38 36 39 37 40 38 41 88 42 39 43 93 44
REMARK SMILES IDX 87 45 89 46 40 47 92 48 86 49 85 50 41 52 73 53 53 54 72 55
REMARK SMILES IDX 54 56 57 57 71 58 90 59 55 60 56 61 70 63 91 64 58 65 42 66
REMARK SMILES IDX 43 67 51 68 44 69 46 70 52 71 45 72 47 73 48 74 49 75 50 76
REMARK SMILES IDX 74 77 75 78 83 79 76 80 78 81 84 82 77 83 79 84 80 85 81 86
REMARK SMILES IDX 82 87 59 88 60 89 68 90 61 91 63 92 69 93 62 94 64 95 65 96
REMARK SMILES IDX 66 97 67 98
REMARK H PARENT 11 11 89 51 57 62
REMARK Flexibility Score: inf
ROOT
ATOM      1  C   UNL A   1      38.687  21.481  25.640  1.00  0.00     0.275 C 
ENDROOT
BRANCH   1   2
ATOM      2  C   UNL A   1      37.455  21.643  24.754  1.00  0.00     0.274 C 
BRANCH   2   3
ATOM      3  O   UNL A   1      36.377  22.355  25.395  1.00  0.00    -0.462 OA
BRANCH   3   4
ATOM      4  C   UNL A   1      35.920  23.478  24.781  1.00  0.00     0.315 C 
ATOM      5  O   UNL A   1      36.357  23.906  23.717  1.00  0.00    -0.252 OA
BRANCH   4   6
ATOM      6  C   UNL A   1      34.898  24.247  25.597  1.00  0.00     0.167 C 
ATOM      7  C   UNL A   1      33.643  24.798  24.916  1.00  0.00     0.098 C 
ATOM      8  C   UNL A   1      32.668  24.887  26.102  1.00  0.00     0.272 C 
ATOM      9  N   UNL A   1      32.945  23.725  26.957  1.00  0.00    -0.329 N 
ATOM     10  C   UNL A   1      34.351  23.354  26.720  1.00  0.00     0.278 C 
ATOM     11  H   UNL A   1      32.805  23.973  27.937  1.00  0.00     0.348 HD
BRANCH   7  12
ATOM     12  C   UNL A   1      33.657  26.100  24.128  1.00  0.00     0.004 A 
ATOM     13  C   UNL A   1      33.521  26.210  22.735  1.00  0.00     0.122 A 
ATOM     14  C   UNL A   1      33.590  27.458  22.098  1.00  0.00     0.047 A 
ATOM     15  C   UNL A   1      33.824  28.618  22.837  1.00  0.00     0.004 A 
ATOM     16  C   UNL A   1      33.934  27.287  24.842  1.00  0.00     0.008 A 
ATOM     17  C   UNL A   1      34.016  28.531  24.210  1.00  0.00     0.001 A 
BRANCH  13  18
ATOM     18  O   UNL A   1      33.533  25.089  21.949  1.00  0.00    -0.496 OA
ATOM     19  C   UNL A   1      32.783  25.240  20.749  1.00  0.00     0.278 C 
ENDBRANCH  13  18
ENDBRANCH   7  12
BRANCH   9  20
ATOM     20  C   UNL A   1      31.992  22.610  26.790  1.00  0.00     0.321 C 
BRANCH  20  21
ATOM     21  C   UNL A   1      32.443  21.543  25.839  1.00  0.00     0.114 A 
ATOM     22  C   UNL A   1      33.305  20.488  26.084  1.00  0.00     0.122 A 
ATOM     23  N   UNL A   1      31.954  21.469  24.551  1.00  0.00    -0.228 NA
ATOM     24  N   UNL A   1      33.214  19.673  24.987  1.00  0.00    -0.306 N 
ATOM     25  C   UNL A   1      32.397  20.324  24.073  1.00  0.00     0.137 A 
ATOM     26  C   UNL A   1      33.769  18.414  24.775  1.00  0.00     0.096 A 
ATOM     27  C   UNL A   1      32.143  19.649  22.847  1.00  0.00     0.048 A 
ATOM     28  C   UNL A   1      33.518  17.765  23.621  1.00  0.00    -0.034 A 
ATOM     29  C   UNL A   1      32.664  18.424  22.633  1.00  0.00     0.009 A 
ATOM     30  C   UNL A   1      34.035  16.395  23.314  1.00  0.00     0.046 C 
ENDBRANCH  20  21
ENDBRANCH   9  20
ENDBRANCH   4   6
ENDBRANCH   3   4
ENDBRANCH   2   3
ENDBRANCH   1   2
BRANCH   1  31
ATOM     31  O   UNL A   1      38.845  22.550  26.570  1.00  0.00    -0.458 OA
BRANCH  31  32
ATOM     32  C   UNL A   1      40.117  23.006  26.613  1.00  0.00     0.338 C 
ATOM     33  O   UNL A   1      41.109  22.474  26.152  1.00  0.00    -0.246 OA
BRANCH  32  34
ATOM     34  C   UNL A   1      40.209  24.159  27.495  1.00  0.00     0.060 A 
ATOM     35  C   UNL A   1      39.242  25.154  27.382  1.00  0.00     0.016 A 
ATOM     36  C   UNL A   1      41.397  24.348  28.205  1.00  0.00     0.016 A 
ATOM     37  C   UNL A   1      39.514  26.404  27.896  1.00  0.00     0.010 A 
ATOM     38  C   UNL A   1      41.658  25.591  28.741  1.00  0.00     0.010 A 
ATOM     39  C   UNL A   1      40.738  26.625  28.541  1.00  0.00    -0.014 A 
BRANCH  39  40
ATOM     40  C   UNL A   1      40.928  27.908  29.205  1.00  0.00     0.031 A 
ATOM     41  C   UNL A   1      42.001  28.728  28.583  1.00  0.00     0.074 A 
ATOM     42  C   UNL A   1      40.081  28.390  30.136  1.00  0.00     0.049 A 
ATOM     43  N   UNL A   1      43.029  29.274  29.146  1.00  0.00    -0.248 NA
ATOM     44  C   UNL A   1      41.988  28.843  27.112  1.00  0.00     0.031 C 
ATOM     45  C   UNL A   1      38.812  27.779  30.544  1.00  0.00     0.029 A 
ATOM     46  N   UNL A   1      40.075  29.597  30.781  1.00  0.00    -0.354 N 
ATOM     47  C   UNL A   1      43.640  30.009  28.129  1.00  0.00     0.074 A 
ATOM     48  C   UNL A   1      43.101  29.537  26.888  1.00  0.00     0.031 C 
ATOM     49  C   UNL A   1      38.047  28.717  31.140  1.00  0.00     0.029 A 
ATOM     50  C   UNL A   1      38.822  29.939  31.276  1.00  0.00     0.049 A 
ATOM     51  H   UNL A   1      40.874  30.163  30.884  1.00  0.00     0.167 HD
ATOM     52  C   UNL A   1      44.278  31.176  28.408  1.00  0.00     0.034 A 
ATOM     53  C   UNL A   1      38.407  31.154  31.702  1.00  0.00     0.034 A 
ATOM     54  C   UNL A   1      44.631  31.269  29.800  1.00  0.00     0.049 A 
ATOM     55  C   UNL A   1      39.589  31.985  32.009  1.00  0.00     0.074 A 
ATOM     56  C   UNL A   1      45.620  30.803  30.633  1.00  0.00     0.029 A 
ATOM     57  N   UNL A   1      43.633  31.773  30.585  1.00  0.00    -0.354 N 
ATOM     58  N   UNL A   1      40.402  31.758  33.002  1.00  0.00    -0.248 NA
ATOM     59  C   UNL A   1      40.035  32.989  31.047  1.00  0.00     0.031 C 
ATOM     60  C   UNL A   1      45.142  30.977  31.966  1.00  0.00     0.029 A 
ATOM     61  C   UNL A   1      43.869  31.538  31.913  1.00  0.00     0.049 A 
ATOM     62  H   UNL A   1      42.844  32.248  30.239  1.00  0.00     0.167 HD
ATOM     63  C   UNL A   1      41.611  32.266  32.568  1.00  0.00     0.074 A 
ATOM     64  C   UNL A   1      41.289  33.165  31.470  1.00  0.00     0.031 C 
ATOM     65  C   UNL A   1      42.785  31.643  32.866  1.00  0.00     0.034 A 
BRANCH  52  66
ATOM     66  C   UNL A   1      44.151  32.447  27.575  1.00  0.00     0.023 A 
ATOM     67  C   UNL A   1      45.085  32.602  26.523  1.00  0.00     0.012 A 
ATOM     68  C   UNL A   1      43.412  33.599  27.936  1.00  0.00     0.148 A 
ATOM     69  C   UNL A   1      45.318  33.841  25.916  1.00  0.00     0.002 A 
ATOM     70  C   UNL A   1      43.598  34.814  27.282  1.00  0.00     0.091 A 
ATOM     71  F   UNL A   1      42.608  33.586  29.001  1.00  0.00    -0.205 F 
ATOM     72  C   UNL A   1      44.573  34.949  26.293  1.00  0.00     0.022 A 
BRANCH  70  73
ATOM     73  S   UNL A   1      42.634  36.271  27.713  1.00  0.00     0.127 S 
ATOM     74  O   UNL A   1      43.015  37.198  26.652  1.00  0.00    -0.237 OA
ATOM     75  O   UNL A   1      41.265  35.761  27.628  1.00  0.00    -0.237 OA
ATOM     76  O   UNL A   1      43.051  36.632  29.062  1.00  0.00    -0.744 OA
ENDBRANCH  70  73
ENDBRANCH  52  66
BRANCH  53  77
ATOM     77  C   UNL A   1      37.041  31.723  31.760  1.00  0.00     0.023 A 
ATOM     78  C   UNL A   1      36.458  31.979  33.017  1.00  0.00     0.012 A 
ATOM     79  C   UNL A   1      36.404  32.236  30.609  1.00  0.00     0.148 A 
ATOM     80  C   UNL A   1      35.297  32.749  33.130  1.00  0.00     0.002 A 
ATOM     81  C   UNL A   1      35.239  32.988  30.726  1.00  0.00     0.091 A 
ATOM     82  F   UNL A   1      36.988  32.062  29.415  1.00  0.00    -0.205 F 
ATOM     83  C   UNL A   1      34.691  33.258  31.986  1.00  0.00     0.022 A 
BRANCH  81  84
ATOM     84  S   UNL A   1      34.394  33.673  29.293  1.00  0.00     0.127 S 
ATOM     85  O   UNL A   1      33.260  34.365  29.909  1.00  0.00    -0.237 OA
ATOM     86  O   UNL A   1      35.414  34.551  28.731  1.00  0.00    -0.237 OA
ATOM     87  O   UNL A   1      34.016  32.526  28.476  1.00  0.00    -0.744 OA
ENDBRANCH  81  84
ENDBRANCH  53  77
BRANCH  65  88
ATOM     88  C   UNL A   1      42.864  30.841  34.128  1.00  0.00     0.023 A 
ATOM     89  C   UNL A   1      43.143  31.417  35.381  1.00  0.00     0.012 A 
ATOM     90  C   UNL A   1      42.564  29.469  34.058  1.00  0.00     0.148 A 
ATOM     91  C   UNL A   1      43.143  30.632  36.538  1.00  0.00     0.002 A 
ATOM     92  C   UNL A   1      42.516  28.704  35.216  1.00  0.00     0.091 A 
ATOM     93  F   UNL A   1      42.321  28.928  32.854  1.00  0.00    -0.205 F 
ATOM     94  C   UNL A   1      42.816  29.280  36.458  1.00  0.00     0.022 A 
BRANCH  92  95
ATOM     95  S   UNL A   1      41.978  26.993  35.168  1.00  0.00     0.127 S 
ATOM     96  O   UNL A   1      40.721  27.084  34.431  1.00  0.00    -0.237 OA
ATOM     97  O   UNL A   1      43.066  26.335  34.444  1.00  0.00    -0.237 OA
ATOM     98  O   UNL A   1      41.868  26.584  36.565  1.00  0.00    -0.744 OA
ENDBRANCH  92  95
ENDBRANCH  65  88
ENDBRANCH  39  40
ENDBRANCH  32  34
ENDBRANCH  31  32
ENDBRANCH   1  31
TORSDOF 18
ENDMDL
MODEL 3
REMARK VINA RESULT:     -12.5      3.201      9.132
REMARK SMILES COc1ccccc1[C@@H]1C[N@@H+](Cc2cn3cc(C)ccc3n2)C[C@H]1C(=O)OCCOC(=O)c1ccc(-c2c3nc(c(-c4cccc(S(=O)(=O)[O-])c4F)c4ccc([nH]4)c(-c4cccc(S(=O)(=O)[O-])c4F)c4nc(c(-c5cccc(S(=O)(=O)[O-])c5F)c5ccc2[nH]5)C=C4)C=C3)cc1
REMARK SMILES IDX 29 1 28 2 27 3 25 4 26 5 24 6 9 7 10 8 11 9 23 10 8 12 3 13
REMARK SMILES IDX 4 14 5 15 7 16 6 17 2 18 1 19 12 20 13 21 14 22 22 23 15 24
REMARK SMILES IDX 21 25 16 26 20 27 17 28 19 29 18 30 30 31 31 32 32 33 33 34
REMARK SMILES IDX 34 35 95 36 35 37 94 38 36 39 37 40 38 41 88 42 39 43 93 44
REMARK SMILES IDX 87 45 89 46 40 47 92 48 86 49 85 50 41 52 73 53 53 54 72 55
REMARK SMILES IDX 54 56 57 57 71 58 90 59 55 60 56 61 70 63 91 64 58 65 42 66
REMARK SMILES IDX 43 67 51 68 44 69 46 70 52 71 45 72 47 73 48 74 49 75 50 76
REMARK SMILES IDX 74 77 75 78 83 79 76 80 78 81 84 82 77 83 79 84 80 85 81 86
REMARK SMILES IDX 82 87 59 88 60 89 68 90 61 91 63 92 69 93 62 94 64 95 65 96
REMARK SMILES IDX 66 97 67 98
REMARK H PARENT 11 11 89 51 57 62
REMARK Flexibility Score: inf
ROOT
ATOM      1  C   UNL A   1      33.259  30.925  27.378  1.00  0.00     0.275 C 
ENDROOT
BRANCH   1   2
ATOM      2  C   UNL A   1      32.942  30.076  26.151  1.00  0.00     0.274 C 
BRANCH   2   3
ATOM      3  O   UNL A   1      33.799  28.925  26.012  1.00  0.00    -0.462 OA
BRANCH   3   4
ATOM      4  C   UNL A   1      33.209  27.701  26.045  1.00  0.00     0.315 C 
ATOM      5  O   UNL A   1      32.337  27.380  26.847  1.00  0.00    -0.252 OA
BRANCH   4   6
ATOM      6  C   UNL A   1      33.818  26.703  25.078  1.00  0.00     0.167 C 
ATOM      7  C   UNL A   1      33.188  25.317  24.921  1.00  0.00     0.098 C 
ATOM      8  C   UNL A   1      33.648  24.934  23.504  1.00  0.00     0.272 C 
ATOM      9  N   UNL A   1      33.621  26.169  22.709  1.00  0.00    -0.329 N 
ATOM     10  C   UNL A   1      33.804  27.282  23.656  1.00  0.00     0.278 C 
ATOM     11  H   UNL A   1      34.378  26.159  22.025  1.00  0.00     0.348 HD
BRANCH   7  12
ATOM     12  C   UNL A   1      33.464  24.189  25.903  1.00  0.00     0.004 A 
ATOM     13  C   UNL A   1      34.719  23.609  26.145  1.00  0.00     0.122 A 
ATOM     14  C   UNL A   1      34.862  22.542  27.044  1.00  0.00     0.047 A 
ATOM     15  C   UNL A   1      33.748  22.013  27.698  1.00  0.00     0.004 A 
ATOM     16  C   UNL A   1      32.351  23.604  26.549  1.00  0.00     0.008 A 
ATOM     17  C   UNL A   1      32.487  22.533  27.436  1.00  0.00     0.001 A 
BRANCH  13  18
ATOM     18  O   UNL A   1      35.792  23.929  25.356  1.00  0.00    -0.496 OA
ATOM     19  C   UNL A   1      36.973  23.215  25.702  1.00  0.00     0.278 C 
ENDBRANCH  13  18
ENDBRANCH   7  12
BRANCH   9  20
ATOM     20  C   UNL A   1      32.434  26.305  21.842  1.00  0.00     0.321 C 
BRANCH  20  21
ATOM     21  C   UNL A   1      31.365  27.204  22.385  1.00  0.00     0.114 A 
ATOM     22  C   UNL A   1      31.362  28.587  22.449  1.00  0.00     0.122 A 
ATOM     23  N   UNL A   1      30.166  26.704  22.848  1.00  0.00    -0.228 NA
ATOM     24  N   UNL A   1      30.087  28.938  22.804  1.00  0.00    -0.306 N 
ATOM     25  C   UNL A   1      29.403  27.757  23.057  1.00  0.00     0.137 A 
ATOM     26  C   UNL A   1      29.509  30.202  22.880  1.00  0.00     0.096 A 
ATOM     27  C   UNL A   1      28.037  27.876  23.431  1.00  0.00     0.048 A 
ATOM     28  C   UNL A   1      28.210  30.318  23.219  1.00  0.00    -0.034 A 
ATOM     29  C   UNL A   1      27.460  29.092  23.497  1.00  0.00     0.009 A 
ATOM     30  C   UNL A   1      27.487  31.626  23.290  1.00  0.00     0.046 C 
ENDBRANCH  20  21
ENDBRANCH   9  20
ENDBRANCH   4   6
ENDBRANCH   3   4
ENDBRANCH   2   3
ENDBRANCH   1   2
BRANCH   1  31
ATOM     31  O   UNL A   1      34.559  31.509  27.327  1.00  0.00    -0.458 OA
BRANCH  31  32
ATOM     32  C   UNL A   1      35.131  31.592  28.549  1.00  0.00     0.338 C 
ATOM     33  O   UNL A   1      34.708  32.182  29.525  1.00  0.00    -0.246 OA
BRANCH  32  34
ATOM     34  C   UNL A   1      36.478  31.045  28.513  1.00  0.00     0.060 A 
ATOM     35  C   UNL A   1      36.635  29.698  28.197  1.00  0.00     0.016 A 
ATOM     36  C   UNL A   1      37.511  31.810  29.061  1.00  0.00     0.016 A 
ATOM     37  C   UNL A   1      37.815  29.070  28.538  1.00  0.00     0.010 A 
ATOM     38  C   UNL A   1      38.699  31.188  29.379  1.00  0.00     0.010 A 
ATOM     39  C   UNL A   1      38.827  29.812  29.161  1.00  0.00    -0.014 A 
BRANCH  39  40
ATOM     40  C   UNL A   1      40.112  29.158  29.367  1.00  0.00     0.031 A 
ATOM     41  C   UNL A   1      40.441  28.967  30.804  1.00  0.00     0.074 A 
ATOM     42  C   UNL A   1      40.820  28.591  28.370  1.00  0.00     0.049 A 
ATOM     43  N   UNL A   1      41.508  29.323  31.443  1.00  0.00    -0.248 NA
ATOM     44  C   UNL A   1      39.377  28.420  31.668  1.00  0.00     0.031 C 
ATOM     45  C   UNL A   1      40.380  28.443  26.978  1.00  0.00     0.029 A 
ATOM     46  N   UNL A   1      41.985  27.874  28.414  1.00  0.00    -0.354 N 
ATOM     47  C   UNL A   1      41.340  28.809  32.729  1.00  0.00     0.074 A 
ATOM     48  C   UNL A   1      39.953  28.471  32.866  1.00  0.00     0.031 C 
ATOM     49  C   UNL A   1      41.113  27.476  26.389  1.00  0.00     0.029 A 
ATOM     50  C   UNL A   1      42.150  27.043  27.311  1.00  0.00     0.049 A 
ATOM     51  H   UNL A   1      42.638  27.941  29.148  1.00  0.00     0.167 HD
ATOM     52  C   UNL A   1      42.410  28.382  33.448  1.00  0.00     0.034 A 
ATOM     53  C   UNL A   1      43.021  26.016  27.175  1.00  0.00     0.034 A 
ATOM     54  C   UNL A   1      43.639  28.945  32.955  1.00  0.00     0.049 A 
ATOM     55  C   UNL A   1      44.101  26.168  28.172  1.00  0.00     0.074 A 
ATOM     56  C   UNL A   1      44.335  30.126  33.065  1.00  0.00     0.029 A 
ATOM     57  N   UNL A   1      44.199  28.229  31.936  1.00  0.00    -0.354 N 
ATOM     58  N   UNL A   1      44.996  27.116  28.140  1.00  0.00    -0.248 NA
ATOM     59  C   UNL A   1      44.071  25.371  29.395  1.00  0.00     0.031 C 
ATOM     60  C   UNL A   1      45.296  30.129  32.010  1.00  0.00     0.029 A 
ATOM     61  C   UNL A   1      45.158  28.951  31.279  1.00  0.00     0.049 A 
ATOM     62  H   UNL A   1      43.946  27.307  31.703  1.00  0.00     0.167 HD
ATOM     63  C   UNL A   1      45.337  27.298  29.466  1.00  0.00     0.074 A 
ATOM     64  C   UNL A   1      44.896  26.094  30.155  1.00  0.00     0.031 C 
ATOM     65  C   UNL A   1      45.596  28.539  29.963  1.00  0.00     0.034 A 
BRANCH  52  66
ATOM     66  C   UNL A   1      42.443  27.093  34.261  1.00  0.00     0.023 A 
ATOM     67  C   UNL A   1      41.929  27.168  35.577  1.00  0.00     0.012 A 
ATOM     68  C   UNL A   1      43.200  25.939  33.946  1.00  0.00     0.148 A 
ATOM     69  C   UNL A   1      42.209  26.192  36.540  1.00  0.00     0.002 A 
ATOM     70  C   UNL A   1      43.417  24.935  34.887  1.00  0.00     0.091 A 
ATOM     71  F   UNL A   1      43.835  25.840  32.777  1.00  0.00    -0.205 F 
ATOM     72  C   UNL A   1      42.952  25.072  36.195  1.00  0.00     0.022 A 
BRANCH  70  73
ATOM     73  S   UNL A   1      44.347  23.450  34.479  1.00  0.00     0.127 S 
ATOM     74  O   UNL A   1      44.421  22.785  35.777  1.00  0.00    -0.237 OA
ATOM     75  O   UNL A   1      43.470  22.806  33.501  1.00  0.00    -0.237 OA
ATOM     76  O   UNL A   1      45.611  23.919  33.925  1.00  0.00    -0.744 OA
ENDBRANCH  70  73
ENDBRANCH  52  66
BRANCH  53  77
ATOM     77  C   UNL A   1      42.942  24.815  26.314  1.00  0.00     0.023 A 
ATOM     78  C   UNL A   1      43.841  24.684  25.237  1.00  0.00     0.012 A 
ATOM     79  C   UNL A   1      42.165  23.694  26.678  1.00  0.00     0.148 A 
ATOM     80  C   UNL A   1      43.987  23.468  24.563  1.00  0.00     0.002 A 
ATOM     81  C   UNL A   1      42.301  22.490  25.993  1.00  0.00     0.091 A 
ATOM     82  F   UNL A   1      41.361  23.783  27.747  1.00  0.00    -0.205 F 
ATOM     83  C   UNL A   1      43.222  22.371  24.944  1.00  0.00     0.022 A 
BRANCH  81  84
ATOM     84  S   UNL A   1      41.343  21.030  26.422  1.00  0.00     0.127 S 
ATOM     85  O   UNL A   1      39.979  21.455  26.099  1.00  0.00    -0.237 OA
ATOM     86  O   UNL A   1      41.899  20.027  25.520  1.00  0.00    -0.237 OA
ATOM     87  O   UNL A   1      41.575  20.812  27.844  1.00  0.00    -0.744 OA
ENDBRANCH  81  84
ENDBRANCH  53  77
BRANCH  65  88
ATOM     88  C   UNL A   1      46.137  29.580  29.032  1.00  0.00     0.023 A 
ATOM     89  C   UNL A   1      47.507  29.700  28.739  1.00  0.00     0.012 A 
ATOM     90  C   UNL A   1      45.219  30.411  28.366  1.00  0.00     0.148 A 
ATOM     91  C   UNL A   1      47.954  30.649  27.814  1.00  0.00     0.002 A 
ATOM     92  C   UNL A   1      45.662  31.317  27.411  1.00  0.00     0.091 A 
ATOM     93  F   UNL A   1      43.917  30.299  28.671  1.00  0.00    -0.205 F 
ATOM     94  C   UNL A   1      47.032  31.447  27.140  1.00  0.00     0.022 A 
BRANCH  92  95
ATOM     95  S   UNL A   1      44.498  32.271  26.435  1.00  0.00     0.127 S 
ATOM     96  O   UNL A   1      45.336  32.761  25.345  1.00  0.00    -0.237 OA
ATOM     97  O   UNL A   1      43.509  31.265  26.043  1.00  0.00    -0.237 OA
ATOM     98  O   UNL A   1      43.975  33.287  27.342  1.00  0.00    -0.744 OA
ENDBRANCH  92  95
ENDBRANCH  65  88
ENDBRANCH  39  40
ENDBRANCH  32  34
ENDBRANCH  31  32
ENDBRANCH   1  31
TORSDOF 18
ENDMDL
