MODEL 1
REMARK VINA RESULT:     -11.7      0.000      0.000
REMARK SMILES Nc1ccc(O)c(C(=O)OCCOC(=O)c2ccc(-c3c4nc(c(-c5cccc(S(=O)(=O)[O-])c5F)c5ccc([nH]5)c(-c5cccc(S(=O)(=O)[O-])c5F)c5nc(c(-c6cccc(S(=O)(=O)[O-])c6F)c6ccc3[nH]6)C=C5)C=C4)cc2)c1
REMARK SMILES IDX 12 1 11 2 10 3 8 4 9 5 7 6 2 7 3 8 79 9 4 10 5 11 1 12 6 15
REMARK SMILES IDX 13 17 14 18 15 19 16 20 17 21 78 22 18 23 77 24 19 25 20 26
REMARK SMILES IDX 21 27 71 28 22 29 76 30 70 31 72 32 23 33 75 34 69 35 68 36
REMARK SMILES IDX 24 38 56 39 36 40 55 41 37 42 40 43 54 44 73 45 38 46 39 47
REMARK SMILES IDX 53 49 74 50 41 51 25 52 26 53 34 54 27 55 29 56 35 57 28 58
REMARK SMILES IDX 30 59 31 60 32 61 33 62 57 63 58 64 66 65 59 66 61 67 67 68
REMARK SMILES IDX 60 69 62 70 63 71 64 72 65 73 42 74 43 75 51 76 44 77 46 78
REMARK SMILES IDX 52 79 45 80 47 81 48 82 49 83 50 84
REMARK H PARENT 1 13 1 14 6 16 72 37 40 48
REMARK Flexibility Score: inf
ROOT
ATOM      1  C   UNL A   1      36.613  20.761  25.144  1.00  0.00     0.275 C 
ENDROOT
BRANCH   1   2
ATOM      2  C   UNL A   1      35.705  21.498  26.134  1.00  0.00     0.275 C 
BRANCH   2   3
ATOM      3  O   UNL A   1      34.562  22.099  25.485  1.00  0.00    -0.458 OA
BRANCH   3   4
ATOM      4  C   UNL A   1      33.353  21.647  25.897  1.00  0.00     0.342 C 
ATOM      5  O   UNL A   1      32.787  21.958  26.935  1.00  0.00    -0.246 OA
BRANCH   4   6
ATOM      6  C   UNL A   1      32.786  20.686  24.931  1.00  0.00     0.103 A 
ATOM      7  C   UNL A   1      32.067  20.216  22.658  1.00  0.00     0.032 A 
ATOM      8  C   UNL A   1      32.159  18.847  22.927  1.00  0.00     0.029 A 
ATOM      9  C   UNL A   1      32.436  21.133  23.650  1.00  0.00     0.045 A 
ATOM     10  C   UNL A   1      32.487  18.397  24.201  1.00  0.00     0.049 A 
ATOM     11  C   UNL A   1      32.754  19.317  25.206  1.00  0.00     0.130 A 
BRANCH   7  12
ATOM     12  N   UNL A   1      31.758  20.649  21.376  1.00  0.00    -0.399 N 
ATOM     13  H   UNL A   1      32.372  20.456  20.632  1.00  0.00     0.156 HD
ATOM     14  H   UNL A   1      30.926  21.149  21.212  1.00  0.00     0.156 HD
ENDBRANCH   7  12
BRANCH  11  15
ATOM     15  O   UNL A   1      32.926  18.788  26.446  1.00  0.00    -0.507 OA
ATOM     16  H   UNL A   1      33.714  18.961  26.923  1.00  0.00     0.293 HD
ENDBRANCH  11  15
ENDBRANCH   4   6
ENDBRANCH   3   4
ENDBRANCH   2   3
ENDBRANCH   1   2
BRANCH   1  17
ATOM     17  O   UNL A   1      37.835  21.479  24.894  1.00  0.00    -0.458 OA
BRANCH  17  18
ATOM     18  C   UNL A   1      38.860  21.152  25.710  1.00  0.00     0.338 C 
ATOM     19  O   UNL A   1      39.476  20.100  25.738  1.00  0.00    -0.246 OA
BRANCH  18  20
ATOM     20  C   UNL A   1      39.285  22.298  26.523  1.00  0.00     0.060 A 
ATOM     21  C   UNL A   1      38.767  23.540  26.176  1.00  0.00     0.016 A 
ATOM     22  C   UNL A   1      40.389  22.208  27.371  1.00  0.00     0.016 A 
ATOM     23  C   UNL A   1      39.458  24.692  26.524  1.00  0.00     0.010 A 
ATOM     24  C   UNL A   1      40.988  23.384  27.847  1.00  0.00     0.010 A 
ATOM     25  C   UNL A   1      40.566  24.643  27.383  1.00  0.00    -0.014 A 
BRANCH  25  26
ATOM     26  C   UNL A   1      41.269  25.907  27.761  1.00  0.00     0.031 A 
ATOM     27  C   UNL A   1      40.588  26.959  28.605  1.00  0.00     0.074 A 
ATOM     28  C   UNL A   1      42.544  26.110  27.363  1.00  0.00     0.049 A 
ATOM     29  N   UNL A   1      40.985  28.176  28.884  1.00  0.00    -0.248 NA
ATOM     30  C   UNL A   1      39.288  26.611  29.201  1.00  0.00     0.031 C 
ATOM     31  C   UNL A   1      43.336  25.179  26.556  1.00  0.00     0.029 A 
ATOM     32  N   UNL A   1      43.403  27.159  27.585  1.00  0.00    -0.354 N 
ATOM     33  C   UNL A   1      39.951  28.764  29.605  1.00  0.00     0.074 A 
ATOM     34  C   UNL A   1      38.915  27.763  29.742  1.00  0.00     0.031 C 
ATOM     35  C   UNL A   1      44.572  25.666  26.398  1.00  0.00     0.029 A 
ATOM     36  C   UNL A   1      44.635  26.994  26.993  1.00  0.00     0.049 A 
ATOM     37  H   UNL A   1      43.162  27.951  28.117  1.00  0.00     0.167 HD
ATOM     38  C   UNL A   1      39.876  30.019  30.110  1.00  0.00     0.034 A 
ATOM     39  C   UNL A   1      45.687  27.827  26.889  1.00  0.00     0.034 A 
ATOM     40  C   UNL A   1      40.949  30.979  30.059  1.00  0.00     0.049 A 
ATOM     41  C   UNL A   1      45.591  29.197  27.493  1.00  0.00     0.074 A 
ATOM     42  C   UNL A   1      40.978  32.265  30.572  1.00  0.00     0.029 A 
ATOM     43  N   UNL A   1      42.191  30.751  29.488  1.00  0.00    -0.354 N 
ATOM     44  N   UNL A   1      44.608  29.728  28.175  1.00  0.00    -0.248 NA
ATOM     45  C   UNL A   1      46.750  30.083  27.314  1.00  0.00     0.031 C 
ATOM     46  C   UNL A   1      42.237  32.815  30.308  1.00  0.00     0.029 A 
ATOM     47  C   UNL A   1      42.995  31.869  29.640  1.00  0.00     0.049 A 
ATOM     48  H   UNL A   1      42.462  29.918  29.039  1.00  0.00     0.167 HD
ATOM     49  C   UNL A   1      45.027  31.007  28.512  1.00  0.00     0.074 A 
ATOM     50  C   UNL A   1      46.372  31.158  27.993  1.00  0.00     0.031 C 
ATOM     51  C   UNL A   1      44.349  31.983  29.163  1.00  0.00     0.034 A 
BRANCH  38  52
ATOM     52  C   UNL A   1      38.599  30.436  30.795  1.00  0.00     0.023 A 
ATOM     53  C   UNL A   1      38.446  30.230  32.181  1.00  0.00     0.012 A 
ATOM     54  C   UNL A   1      37.587  31.112  30.082  1.00  0.00     0.148 A 
ATOM     55  C   UNL A   1      37.300  30.672  32.842  1.00  0.00     0.002 A 
ATOM     56  C   UNL A   1      36.465  31.583  30.754  1.00  0.00     0.091 A 
ATOM     57  F   UNL A   1      37.741  31.282  28.761  1.00  0.00    -0.205 F 
ATOM     58  C   UNL A   1      36.315  31.357  32.132  1.00  0.00     0.022 A 
BRANCH  56  59
ATOM     59  S   UNL A   1      35.180  32.542  29.941  1.00  0.00     0.127 S 
ATOM     60  O   UNL A   1      34.263  32.809  31.048  1.00  0.00    -0.237 OA
ATOM     61  O   UNL A   1      35.919  33.714  29.467  1.00  0.00    -0.237 OA
ATOM     62  O   UNL A   1      34.655  31.691  28.882  1.00  0.00    -0.744 OA
ENDBRANCH  56  59
ENDBRANCH  38  52
BRANCH  39  63
ATOM     63  C   UNL A   1      46.917  27.376  26.178  1.00  0.00     0.023 A 
ATOM     64  C   UNL A   1      47.792  26.472  26.809  1.00  0.00     0.012 A 
ATOM     65  C   UNL A   1      47.187  27.781  24.855  1.00  0.00     0.148 A 
ATOM     66  C   UNL A   1      48.918  25.990  26.139  1.00  0.00     0.002 A 
ATOM     67  C   UNL A   1      48.269  27.241  24.170  1.00  0.00     0.091 A 
ATOM     68  F   UNL A   1      46.364  28.667  24.277  1.00  0.00    -0.205 F 
ATOM     69  C   UNL A   1      49.146  26.357  24.815  1.00  0.00     0.022 A 
BRANCH  67  70
ATOM     70  S   UNL A   1      48.511  27.539  22.415  1.00  0.00     0.127 S 
ATOM     71  O   UNL A   1      49.758  28.297  22.406  1.00  0.00    -0.237 OA
ATOM     72  O   UNL A   1      48.611  26.182  21.876  1.00  0.00    -0.237 OA
ATOM     73  O   UNL A   1      47.317  28.258  21.986  1.00  0.00    -0.744 OA
ENDBRANCH  67  70
ENDBRANCH  39  63
BRANCH  51  74
ATOM     74  C   UNL A   1      45.054  33.296  29.361  1.00  0.00     0.023 A 
ATOM     75  C   UNL A   1      45.834  33.493  30.518  1.00  0.00     0.012 A 
ATOM     76  C   UNL A   1      44.988  34.310  28.387  1.00  0.00     0.148 A 
ATOM     77  C   UNL A   1      46.516  34.692  30.716  1.00  0.00     0.002 A 
ATOM     78  C   UNL A   1      45.702  35.488  28.573  1.00  0.00     0.091 A 
ATOM     79  F   UNL A   1      44.220  34.112  27.306  1.00  0.00    -0.205 F 
ATOM     80  C   UNL A   1      46.459  35.685  29.740  1.00  0.00     0.022 A 
BRANCH  78  81
ATOM     81  S   UNL A   1      45.747  36.785  27.332  1.00  0.00     0.127 S 
ATOM     82  O   UNL A   1      46.295  36.075  26.177  1.00  0.00    -0.237 OA
ATOM     83  O   UNL A   1      44.336  37.153  27.209  1.00  0.00    -0.237 OA
ATOM     84  O   UNL A   1      46.594  37.835  27.884  1.00  0.00    -0.744 OA
ENDBRANCH  78  81
ENDBRANCH  51  74
ENDBRANCH  25  26
ENDBRANCH  18  20
ENDBRANCH  17  18
ENDBRANCH   1  17
TORSDOF 16
ENDMDL
MODEL 2
REMARK VINA RESULT:     -11.7      6.131     10.833
REMARK SMILES Nc1ccc(O)c(C(=O)OCCOC(=O)c2ccc(-c3c4nc(c(-c5cccc(S(=O)(=O)[O-])c5F)c5ccc([nH]5)c(-c5cccc(S(=O)(=O)[O-])c5F)c5nc(c(-c6cccc(S(=O)(=O)[O-])c6F)c6ccc3[nH]6)C=C5)C=C4)cc2)c1
REMARK SMILES IDX 12 1 11 2 10 3 8 4 9 5 7 6 2 7 3 8 79 9 4 10 5 11 1 12 6 15
REMARK SMILES IDX 13 17 14 18 15 19 16 20 17 21 78 22 18 23 77 24 19 25 20 26
REMARK SMILES IDX 21 27 71 28 22 29 76 30 70 31 72 32 23 33 75 34 69 35 68 36
REMARK SMILES IDX 24 38 56 39 36 40 55 41 37 42 40 43 54 44 73 45 38 46 39 47
REMARK SMILES IDX 53 49 74 50 41 51 25 52 26 53 34 54 27 55 29 56 35 57 28 58
REMARK SMILES IDX 30 59 31 60 32 61 33 62 57 63 58 64 66 65 59 66 61 67 67 68
REMARK SMILES IDX 60 69 62 70 63 71 64 72 65 73 42 74 43 75 51 76 44 77 46 78
REMARK SMILES IDX 52 79 45 80 47 81 48 82 49 83 50 84
REMARK H PARENT 1 13 1 14 6 16 72 37 40 48
REMARK Flexibility Score: inf
ROOT
ATOM      1  C   UNL A   1      31.722  30.545  25.748  1.00  0.00     0.275 C 
ENDROOT
BRANCH   1   2
ATOM      2  C   UNL A   1      32.185  29.203  25.173  1.00  0.00     0.275 C 
BRANCH   2   3
ATOM      3  O   UNL A   1      32.357  29.252  23.739  1.00  0.00    -0.458 OA
BRANCH   3   4
ATOM      4  C   UNL A   1      31.903  28.172  23.059  1.00  0.00     0.342 C 
ATOM      5  O   UNL A   1      32.590  27.268  22.606  1.00  0.00    -0.246 OA
BRANCH   4   6
ATOM      6  C   UNL A   1      30.437  28.222  22.898  1.00  0.00     0.103 A 
ATOM      7  C   UNL A   1      28.257  27.340  23.508  1.00  0.00     0.032 A 
ATOM      8  C   UNL A   1      27.664  28.514  23.033  1.00  0.00     0.029 A 
ATOM      9  C   UNL A   1      29.652  27.223  23.488  1.00  0.00     0.045 A 
ATOM     10  C   UNL A   1      28.435  29.501  22.427  1.00  0.00     0.049 A 
ATOM     11  C   UNL A   1      29.809  29.329  22.324  1.00  0.00     0.130 A 
BRANCH   7  12
ATOM     12  N   UNL A   1      27.475  26.375  24.127  1.00  0.00    -0.399 N 
ATOM     13  H   UNL A   1      26.891  26.623  24.879  1.00  0.00     0.156 HD
ATOM     14  H   UNL A   1      27.507  25.441  23.815  1.00  0.00     0.156 HD
ENDBRANCH   7  12
BRANCH  11  15
ATOM     15  O   UNL A   1      30.457  30.277  21.596  1.00  0.00    -0.507 OA
ATOM     16  H   UNL A   1      30.000  30.747  20.926  1.00  0.00     0.293 HD
ENDBRANCH  11  15
ENDBRANCH   4   6
ENDBRANCH   3   4
ENDBRANCH   2   3
ENDBRANCH   1   2
BRANCH   1  17
ATOM     17  O   UNL A   1      32.189  30.745  27.094  1.00  0.00    -0.458 OA
BRANCH  17  18
ATOM     18  C   UNL A   1      32.927  31.861  27.276  1.00  0.00     0.338 C 
ATOM     19  O   UNL A   1      32.527  33.012  27.328  1.00  0.00    -0.246 OA
BRANCH  18  20
ATOM     20  C   UNL A   1      34.330  31.536  27.560  1.00  0.00     0.060 A 
ATOM     21  C   UNL A   1      34.631  30.198  27.781  1.00  0.00     0.016 A 
ATOM     22  C   UNL A   1      35.241  32.530  27.917  1.00  0.00     0.016 A 
ATOM     23  C   UNL A   1      35.756  29.862  28.522  1.00  0.00     0.010 A 
ATOM     24  C   UNL A   1      36.451  32.168  28.527  1.00  0.00     0.010 A 
ATOM     25  C   UNL A   1      36.699  30.832  28.891  1.00  0.00    -0.014 A 
BRANCH  25  26
ATOM     26  C   UNL A   1      37.915  30.430  29.663  1.00  0.00     0.031 A 
ATOM     27  C   UNL A   1      38.976  29.547  29.050  1.00  0.00     0.074 A 
ATOM     28  C   UNL A   1      38.084  30.880  30.926  1.00  0.00     0.049 A 
ATOM     29  N   UNL A   1      40.000  28.969  29.625  1.00  0.00    -0.248 NA
ATOM     30  C   UNL A   1      38.866  29.258  27.611  1.00  0.00     0.031 C 
ATOM     31  C   UNL A   1      37.152  31.751  31.646  1.00  0.00     0.029 A 
ATOM     32  N   UNL A   1      39.100  30.674  31.828  1.00  0.00    -0.354 N 
ATOM     33  C   UNL A   1      40.601  28.183  28.648  1.00  0.00     0.074 A 
ATOM     34  C   UNL A   1      39.839  28.374  27.432  1.00  0.00     0.031 C 
ATOM     35  C   UNL A   1      37.660  32.049  32.848  1.00  0.00     0.029 A 
ATOM     36  C   UNL A   1      38.898  31.305  33.035  1.00  0.00     0.049 A 
ATOM     37  H   UNL A   1      39.896  30.129  31.630  1.00  0.00     0.167 HD
ATOM     38  C   UNL A   1      41.689  27.382  28.753  1.00  0.00     0.034 A 
ATOM     39  C   UNL A   1      39.594  31.259  34.187  1.00  0.00     0.034 A 
ATOM     40  C   UNL A   1      42.504  27.272  29.935  1.00  0.00     0.049 A 
ATOM     41  C   UNL A   1      40.817  30.395  34.262  1.00  0.00     0.074 A 
ATOM     42  C   UNL A   1      43.645  26.512  30.126  1.00  0.00     0.029 A 
ATOM     43  N   UNL A   1      42.284  27.963  31.117  1.00  0.00    -0.354 N 
ATOM     44  N   UNL A   1      41.369  29.667  33.323  1.00  0.00    -0.248 NA
ATOM     45  C   UNL A   1      41.515  30.346  35.554  1.00  0.00     0.031 C 
ATOM     46  C   UNL A   1      44.114  26.740  31.424  1.00  0.00     0.029 A 
ATOM     47  C   UNL A   1      43.270  27.651  32.038  1.00  0.00     0.049 A 
ATOM     48  H   UNL A   1      41.537  28.583  31.278  1.00  0.00     0.167 HD
ATOM     49  C   UNL A   1      42.482  29.076  33.906  1.00  0.00     0.074 A 
ATOM     50  C   UNL A   1      42.548  29.564  35.270  1.00  0.00     0.031 C 
ATOM     51  C   UNL A   1      43.351  28.184  33.374  1.00  0.00     0.034 A 
BRANCH  38  52
ATOM     52  C   UNL A   1      42.095  26.571  27.548  1.00  0.00     0.023 A 
ATOM     53  C   UNL A   1      42.852  27.169  26.521  1.00  0.00     0.012 A 
ATOM     54  C   UNL A   1      41.802  25.193  27.476  1.00  0.00     0.148 A 
ATOM     55  C   UNL A   1      43.293  26.415  25.434  1.00  0.00     0.002 A 
ATOM     56  C   UNL A   1      42.278  24.439  26.409  1.00  0.00     0.091 A 
ATOM     57  F   UNL A   1      41.064  24.644  28.453  1.00  0.00    -0.205 F 
ATOM     58  C   UNL A   1      43.016  25.050  25.382  1.00  0.00     0.022 A 
BRANCH  56  59
ATOM     59  S   UNL A   1      42.037  22.662  26.294  1.00  0.00     0.127 S 
ATOM     60  O   UNL A   1      42.653  22.362  25.003  1.00  0.00    -0.237 OA
ATOM     61  O   UNL A   1      42.783  22.171  27.453  1.00  0.00    -0.237 OA
ATOM     62  O   UNL A   1      40.598  22.447  26.368  1.00  0.00    -0.744 OA
ENDBRANCH  56  59
ENDBRANCH  38  52
BRANCH  39  63
ATOM     63  C   UNL A   1      39.134  32.060  35.357  1.00  0.00     0.023 A 
ATOM     64  C   UNL A   1      38.288  31.469  36.314  1.00  0.00     0.012 A 
ATOM     65  C   UNL A   1      39.587  33.379  35.563  1.00  0.00     0.148 A 
ATOM     66  C   UNL A   1      37.894  32.180  37.448  1.00  0.00     0.002 A 
ATOM     67  C   UNL A   1      39.249  34.055  36.730  1.00  0.00     0.091 A 
ATOM     68  F   UNL A   1      40.366  33.941  34.629  1.00  0.00    -0.205 F 
ATOM     69  C   UNL A   1      38.389  33.464  37.667  1.00  0.00     0.022 A 
BRANCH  67  70
ATOM     70  S   UNL A   1      39.996  35.634  37.147  1.00  0.00     0.127 S 
ATOM     71  O   UNL A   1      39.646  36.450  35.988  1.00  0.00    -0.237 OA
ATOM     72  O   UNL A   1      39.301  35.993  38.385  1.00  0.00    -0.237 OA
ATOM     73  O   UNL A   1      41.413  35.346  37.328  1.00  0.00    -0.744 OA
ENDBRANCH  67  70
ENDBRANCH  39  63
BRANCH  51  74
ATOM     74  C   UNL A   1      44.457  27.686  34.262  1.00  0.00     0.023 A 
ATOM     75  C   UNL A   1      45.645  28.435  34.372  1.00  0.00     0.012 A 
ATOM     76  C   UNL A   1      44.303  26.512  35.024  1.00  0.00     0.148 A 
ATOM     77  C   UNL A   1      46.677  28.008  35.206  1.00  0.00     0.002 A 
ATOM     78  C   UNL A   1      45.321  26.113  35.882  1.00  0.00     0.091 A 
ATOM     79  F   UNL A   1      43.175  25.801  34.886  1.00  0.00    -0.205 F 
ATOM     80  C   UNL A   1      46.511  26.854  35.968  1.00  0.00     0.022 A 
BRANCH  78  81
ATOM     81  S   UNL A   1      45.158  24.684  36.958  1.00  0.00     0.127 S 
ATOM     82  O   UNL A   1      44.220  25.173  37.966  1.00  0.00    -0.237 OA
ATOM     83  O   UNL A   1      44.610  23.671  36.055  1.00  0.00    -0.237 OA
ATOM     84  O   UNL A   1      46.503  24.394  37.438  1.00  0.00    -0.744 OA
ENDBRANCH  78  81
ENDBRANCH  51  74
ENDBRANCH  25  26
ENDBRANCH  18  20
ENDBRANCH  17  18
ENDBRANCH   1  17
TORSDOF 16
ENDMDL
MODEL 3
REMARK VINA RESULT:     -11.6      6.549     12.415
REMARK SMILES Nc1ccc(O)c(C(=O)OCCOC(=O)c2ccc(-c3c4nc(c(-c5cccc(S(=O)(=O)[O-])c5F)c5ccc([nH]5)c(-c5cccc(S(=O)(=O)[O-])c5F)c5nc(c(-c6cccc(S(=O)(=O)[O-])c6F)c6ccc3[nH]6)C=C5)C=C4)cc2)c1
REMARK SMILES IDX 12 1 11 2 10 3 8 4 9 5 7 6 2 7 3 8 79 9 4 10 5 11 1 12 6 15
REMARK SMILES IDX 13 17 14 18 15 19 16 20 17 21 78 22 18 23 77 24 19 25 20 26
REMARK SMILES IDX 21 27 71 28 22 29 76 30 70 31 72 32 23 33 75 34 69 35 68 36
REMARK SMILES IDX 24 38 56 39 36 40 55 41 37 42 40 43 54 44 73 45 38 46 39 47
REMARK SMILES IDX 53 49 74 50 41 51 25 52 26 53 34 54 27 55 29 56 35 57 28 58
REMARK SMILES IDX 30 59 31 60 32 61 33 62 57 63 58 64 66 65 59 66 61 67 67 68
REMARK SMILES IDX 60 69 62 70 63 71 64 72 65 73 42 74 43 75 51 76 44 77 46 78
REMARK SMILES IDX 52 79 45 80 47 81 48 82 49 83 50 84
REMARK H PARENT 1 13 1 14 6 16 72 37 40 48
REMARK Flexibility Score: inf
ROOT
ATOM      1  C   UNL A   1      32.827  34.727  28.111  1.00  0.00     0.275 C 
ENDROOT
BRANCH   1   2
ATOM      2  C   UNL A   1      32.997  36.046  28.872  1.00  0.00     0.275 C 
BRANCH   2   3
ATOM      3  O   UNL A   1      32.301  36.041  30.138  1.00  0.00    -0.458 OA
BRANCH   3   4
ATOM      4  C   UNL A   1      32.960  36.621  31.169  1.00  0.00     0.342 C 
ATOM      5  O   UNL A   1      33.048  37.822  31.380  1.00  0.00    -0.246 OA
BRANCH   4   6
ATOM      6  C   UNL A   1      33.605  35.608  32.027  1.00  0.00     0.103 A 
ATOM      7  C   UNL A   1      34.693  33.444  32.214  1.00  0.00     0.032 A 
ATOM      8  C   UNL A   1      35.231  33.836  33.443  1.00  0.00     0.029 A 
ATOM      9  C   UNL A   1      33.923  34.357  31.483  1.00  0.00     0.045 A 
ATOM     10  C   UNL A   1      34.902  35.068  33.999  1.00  0.00     0.049 A 
ATOM     11  C   UNL A   1      34.057  35.926  33.309  1.00  0.00     0.130 A 
BRANCH   7  12
ATOM     12  N   UNL A   1      35.047  32.219  31.664  1.00  0.00    -0.399 N 
ATOM     13  H   UNL A   1      35.449  31.524  32.232  1.00  0.00     0.156 HD
ATOM     14  H   UNL A   1      34.898  32.048  30.706  1.00  0.00     0.156 HD
ENDBRANCH   7  12
BRANCH  11  15
ATOM     15  O   UNL A   1      33.683  37.041  33.990  1.00  0.00    -0.507 OA
ATOM     16  H   UNL A   1      32.790  37.151  34.255  1.00  0.00     0.293 HD
ENDBRANCH  11  15
ENDBRANCH   4   6
ENDBRANCH   3   4
ENDBRANCH   2   3
ENDBRANCH   1   2
BRANCH   1  17
ATOM     17  O   UNL A   1      34.092  34.117  27.796  1.00  0.00    -0.458 OA
BRANCH  17  18
ATOM     18  C   UNL A   1      34.084  32.767  27.797  1.00  0.00     0.338 C 
ATOM     19  O   UNL A   1      33.145  32.033  27.541  1.00  0.00    -0.246 OA
BRANCH  18  20
ATOM     20  C   UNL A   1      35.430  32.223  28.015  1.00  0.00     0.060 A 
ATOM     21  C   UNL A   1      35.523  30.856  28.246  1.00  0.00     0.016 A 
ATOM     22  C   UNL A   1      36.506  33.061  28.308  1.00  0.00     0.016 A 
ATOM     23  C   UNL A   1      36.618  30.351  28.936  1.00  0.00     0.010 A 
ATOM     24  C   UNL A   1      37.673  32.514  28.862  1.00  0.00     0.010 A 
ATOM     25  C   UNL A   1      37.723  31.160  29.237  1.00  0.00    -0.014 A 
BRANCH  25  26
ATOM     26  C   UNL A   1      38.897  30.576  29.954  1.00  0.00     0.031 A 
ATOM     27  C   UNL A   1      39.799  29.565  29.286  1.00  0.00     0.074 A 
ATOM     28  C   UNL A   1      39.176  30.970  31.216  1.00  0.00     0.049 A 
ATOM     29  N   UNL A   1      40.753  28.837  29.811  1.00  0.00    -0.248 NA
ATOM     30  C   UNL A   1      39.597  29.325  27.848  1.00  0.00     0.031 C 
ATOM     31  C   UNL A   1      38.404  31.948  31.986  1.00  0.00     0.029 A 
ATOM     32  N   UNL A   1      40.185  30.605  32.073  1.00  0.00    -0.354 N 
ATOM     33  C   UNL A   1      41.200  27.995  28.798  1.00  0.00     0.074 A 
ATOM     34  C   UNL A   1      40.428  28.317  27.617  1.00  0.00     0.031 C 
ATOM     35  C   UNL A   1      38.992  32.147  33.171  1.00  0.00     0.029 A 
ATOM     36  C   UNL A   1      40.119  31.233  33.297  1.00  0.00     0.049 A 
ATOM     37  H   UNL A   1      40.889  29.959  31.836  1.00  0.00     0.167 HD
ATOM     38  C   UNL A   1      42.168  27.048  28.847  1.00  0.00     0.034 A 
ATOM     39  C   UNL A   1      40.844  31.065  34.419  1.00  0.00     0.034 A 
ATOM     40  C   UNL A   1      43.003  26.800  29.994  1.00  0.00     0.049 A 
ATOM     41  C   UNL A   1      41.936  30.037  34.432  1.00  0.00     0.074 A 
ATOM     42  C   UNL A   1      44.031  25.883  30.127  1.00  0.00     0.029 A 
ATOM     43  N   UNL A   1      42.927  27.490  31.194  1.00  0.00    -0.354 N 
ATOM     44  N   UNL A   1      42.344  29.259  33.461  1.00  0.00    -0.248 NA
ATOM     45  C   UNL A   1      42.668  29.864  35.694  1.00  0.00     0.031 C 
ATOM     46  C   UNL A   1      44.575  26.017  31.409  1.00  0.00     0.029 A 
ATOM     47  C   UNL A   1      43.892  27.023  32.070  1.00  0.00     0.049 A 
ATOM     48  H   UNL A   1      42.281  28.205  31.394  1.00  0.00     0.167 HD
ATOM     49  C   UNL A   1      43.383  28.506  33.990  1.00  0.00     0.074 A 
ATOM     50  C   UNL A   1      43.569  28.950  35.358  1.00  0.00     0.031 C 
ATOM     51  C   UNL A   1      44.097  27.512  33.410  1.00  0.00     0.034 A 
BRANCH  38  52
ATOM     52  C   UNL A   1      42.409  26.213  27.614  1.00  0.00     0.023 A 
ATOM     53  C   UNL A   1      43.182  26.731  26.556  1.00  0.00     0.012 A 
ATOM     54  C   UNL A   1      41.946  24.882  27.544  1.00  0.00     0.148 A 
ATOM     55  C   UNL A   1      43.472  25.947  25.439  1.00  0.00     0.002 A 
ATOM     56  C   UNL A   1      42.272  24.094  26.446  1.00  0.00     0.091 A 
ATOM     57  F   UNL A   1      41.197  24.412  28.552  1.00  0.00    -0.205 F 
ATOM     58  C   UNL A   1      43.027  24.627  25.389  1.00  0.00     0.022 A 
BRANCH  56  59
ATOM     59  S   UNL A   1      41.809  22.361  26.325  1.00  0.00     0.127 S 
ATOM     60  O   UNL A   1      42.521  21.948  25.117  1.00  0.00    -0.237 OA
ATOM     61  O   UNL A   1      42.349  21.808  27.569  1.00  0.00    -0.237 OA
ATOM     62  O   UNL A   1      40.356  22.340  26.236  1.00  0.00    -0.744 OA
ENDBRANCH  56  59
ENDBRANCH  38  52
BRANCH  39  63
ATOM     63  C   UNL A   1      40.546  31.898  35.619  1.00  0.00     0.023 A 
ATOM     64  C   UNL A   1      41.392  32.976  35.944  1.00  0.00     0.012 A 
ATOM     65  C   UNL A   1      39.394  31.672  36.399  1.00  0.00     0.148 A 
ATOM     66  C   UNL A   1      41.099  33.806  37.028  1.00  0.00     0.002 A 
ATOM     67  C   UNL A   1      39.071  32.545  37.431  1.00  0.00     0.091 A 
ATOM     68  F   UNL A   1      38.615  30.623  36.099  1.00  0.00    -0.205 F 
ATOM     69  C   UNL A   1      39.931  33.604  37.758  1.00  0.00     0.022 A 
BRANCH  67  70
ATOM     70  S   UNL A   1      37.496  32.441  38.289  1.00  0.00     0.127 S 
ATOM     71  O   UNL A   1      37.738  33.270  39.466  1.00  0.00    -0.237 OA
ATOM     72  O   UNL A   1      36.568  33.012  37.312  1.00  0.00    -0.237 OA
ATOM     73  O   UNL A   1      37.293  31.018  38.534  1.00  0.00    -0.744 OA
ENDBRANCH  67  70
ENDBRANCH  39  63
BRANCH  51  74
ATOM     74  C   UNL A   1      45.154  26.845  34.245  1.00  0.00     0.023 A 
ATOM     75  C   UNL A   1      46.419  27.453  34.373  1.00  0.00     0.012 A 
ATOM     76  C   UNL A   1      44.884  25.652  34.942  1.00  0.00     0.148 A 
ATOM     77  C   UNL A   1      47.410  26.867  35.160  1.00  0.00     0.002 A 
ATOM     78  C   UNL A   1      45.863  25.095  35.755  1.00  0.00     0.091 A 
ATOM     79  F   UNL A   1      43.682  25.077  34.787  1.00  0.00    -0.205 F 
ATOM     80  C   UNL A   1      47.129  25.695  35.859  1.00  0.00     0.022 A 
BRANCH  78  81
ATOM     81  S   UNL A   1      45.560  23.631  36.751  1.00  0.00     0.127 S 
ATOM     82  O   UNL A   1      46.899  23.053  36.850  1.00  0.00    -0.237 OA
ATOM     83  O   UNL A   1      45.046  24.199  37.998  1.00  0.00    -0.237 OA
ATOM     84  O   UNL A   1      44.587  22.840  36.007  1.00  0.00    -0.744 OA
ENDBRANCH  78  81
ENDBRANCH  51  74
ENDBRANCH  25  26
ENDBRANCH  18  20
ENDBRANCH  17  18
ENDBRANCH   1  17
TORSDOF 16
ENDMDL
