MODEL 1
REMARK VINA RESULT:     -11.8      0.000      0.000
REMARK SMILES C[C@@H](C(=O)OCCOC(=O)c1ccc(-c2c3nc(c(-c4cccc(S(=O)(=O)[O-])c4F)c4ccc([nH]4)c(-c4cccc(S(=O)(=O)[O-])c4F)c4nc(c(-c5cccc(S(=O)(=O)[O-])c5F)c5ccc2[nH]5)C=C4)C=C3)cc1)c1ccc(C[C@H]2CCC[C@H]2O)cc1
REMARK SMILES IDX 6 1 5 2 3 3 4 4 2 5 1 6 74 7 75 8 86 9 76 10 85 11 77 12
REMARK SMILES IDX 78 13 79 14 80 15 83 16 81 17 82 18 84 19 7 21 8 22 9 23
REMARK SMILES IDX 10 24 11 25 12 26 73 27 13 28 72 29 14 30 15 31 16 32 66 33
REMARK SMILES IDX 17 34 71 35 65 36 67 37 18 38 70 39 64 40 63 41 19 43 51 44
REMARK SMILES IDX 31 45 50 46 32 47 35 48 49 49 68 50 33 51 34 52 48 54 69 55
REMARK SMILES IDX 36 56 20 57 21 58 29 59 22 60 24 61 30 62 23 63 25 64 26 65
REMARK SMILES IDX 27 66 28 67 52 68 53 69 61 70 54 71 56 72 62 73 55 74 57 75
REMARK SMILES IDX 58 76 59 77 60 78 37 79 38 80 46 81 39 82 41 83 47 84 40 85
REMARK SMILES IDX 42 86 43 87 44 88 45 89
REMARK H PARENT 84 20 67 42 35 53
REMARK Flexibility Score: inf
ROOT
ATOM      1  C   UNL A   1      31.285  28.879  24.488  1.00  0.00     0.274 C 
ENDROOT
BRANCH   1   2
ATOM      2  O   UNL A   1      31.742  27.692  25.170  1.00  0.00    -0.462 OA
BRANCH   2   3
ATOM      3  C   UNL A   1      31.782  26.548  24.430  1.00  0.00     0.313 C 
ATOM      4  O   UNL A   1      30.801  25.832  24.257  1.00  0.00    -0.252 OA
BRANCH   3   5
ATOM      5  C   UNL A   1      33.198  26.209  23.906  1.00  0.00     0.126 C 
ATOM      6  C   UNL A   1      33.376  26.628  22.440  1.00  0.00     0.025 C 
BRANCH   5   7
ATOM      7  C   UNL A   1      33.624  24.765  24.204  1.00  0.00    -0.034 A 
ATOM      8  C   UNL A   1      34.541  24.512  25.234  1.00  0.00     0.005 A 
ATOM      9  C   UNL A   1      33.142  23.646  23.504  1.00  0.00     0.005 A 
ATOM     10  C   UNL A   1      34.862  23.211  25.628  1.00  0.00     0.004 A 
ATOM     11  C   UNL A   1      33.525  22.338  23.858  1.00  0.00     0.004 A 
ATOM     12  C   UNL A   1      34.381  22.099  24.941  1.00  0.00    -0.048 A 
BRANCH  12  13
ATOM     13  C   UNL A   1      34.643  20.689  25.429  1.00  0.00     0.041 C 
BRANCH  13  14
ATOM     14  C   UNL A   1      34.013  19.486  24.705  1.00  0.00     0.022 C 
ATOM     15  C   UNL A   1      34.970  18.336  24.351  1.00  0.00     0.007 C 
ATOM     16  C   UNL A   1      32.755  18.829  25.304  1.00  0.00     0.117 C 
ATOM     17  C   UNL A   1      34.197  17.046  24.618  1.00  0.00     0.003 C 
ATOM     18  C   UNL A   1      32.728  17.456  24.641  1.00  0.00     0.032 C 
BRANCH  16  19
ATOM     19  O   UNL A   1      32.783  18.651  26.706  1.00  0.00    -0.393 OA
ATOM     20  H   UNL A   1      33.208  17.804  26.916  1.00  0.00     0.210 HD
ENDBRANCH  16  19
ENDBRANCH  13  14
ENDBRANCH  12  13
ENDBRANCH   5   7
ENDBRANCH   3   5
ENDBRANCH   2   3
ENDBRANCH   1   2
BRANCH   1  21
ATOM     21  C   UNL A   1      31.432  30.085  25.408  1.00  0.00     0.275 C 
BRANCH  21  22
ATOM     22  O   UNL A   1      32.788  30.149  25.879  1.00  0.00    -0.458 OA
BRANCH  22  23
ATOM     23  C   UNL A   1      33.052  31.087  26.813  1.00  0.00     0.338 C 
ATOM     24  O   UNL A   1      32.331  32.020  27.153  1.00  0.00    -0.246 OA
BRANCH  23  25
ATOM     25  C   UNL A   1      34.379  30.836  27.394  1.00  0.00     0.060 A 
ATOM     26  C   UNL A   1      34.808  29.526  27.580  1.00  0.00     0.016 A 
ATOM     27  C   UNL A   1      35.166  31.899  27.841  1.00  0.00     0.016 A 
ATOM     28  C   UNL A   1      35.991  29.281  28.276  1.00  0.00     0.010 A 
ATOM     29  C   UNL A   1      36.387  31.643  28.481  1.00  0.00     0.010 A 
ATOM     30  C   UNL A   1      36.797  30.325  28.747  1.00  0.00    -0.014 A 
BRANCH  30  31
ATOM     31  C   UNL A   1      38.001  30.028  29.584  1.00  0.00     0.031 A 
ATOM     32  C   UNL A   1      39.126  29.193  29.019  1.00  0.00     0.074 A 
ATOM     33  C   UNL A   1      38.139  30.540  30.824  1.00  0.00     0.049 A 
ATOM     34  N   UNL A   1      40.187  28.717  29.622  1.00  0.00    -0.248 NA
ATOM     35  C   UNL A   1      39.048  28.848  27.590  1.00  0.00     0.031 C 
ATOM     36  C   UNL A   1      37.182  31.423  31.491  1.00  0.00     0.029 A 
ATOM     37  N   UNL A   1      39.155  30.405  31.744  1.00  0.00    -0.354 N 
ATOM     38  C   UNL A   1      40.851  27.947  28.674  1.00  0.00     0.074 A 
ATOM     39  C   UNL A   1      40.091  28.043  27.446  1.00  0.00     0.031 C 
ATOM     40  C   UNL A   1      37.673  31.786  32.686  1.00  0.00     0.029 A 
ATOM     41  C   UNL A   1      38.937  31.093  32.916  1.00  0.00     0.049 A 
ATOM     42  H   UNL A   1      39.963  29.865  31.579  1.00  0.00     0.167 HD
ATOM     43  C   UNL A   1      41.991  27.229  28.805  1.00  0.00     0.034 A 
ATOM     44  C   UNL A   1      39.648  31.138  34.061  1.00  0.00     0.034 A 
ATOM     45  C   UNL A   1      42.805  27.195  29.990  1.00  0.00     0.049 A 
ATOM     46  C   UNL A   1      40.905  30.320  34.187  1.00  0.00     0.074 A 
ATOM     47  C   UNL A   1      43.983  26.498  30.203  1.00  0.00     0.029 A 
ATOM     48  N   UNL A   1      42.543  27.900  31.152  1.00  0.00    -0.354 N 
ATOM     49  N   UNL A   1      41.521  29.605  33.278  1.00  0.00    -0.248 NA
ATOM     50  C   UNL A   1      41.565  30.315  35.503  1.00  0.00     0.031 C 
ATOM     51  C   UNL A   1      44.431  26.780  31.498  1.00  0.00     0.029 A 
ATOM     52  C   UNL A   1      43.536  27.657  32.087  1.00  0.00     0.049 A 
ATOM     53  H   UNL A   1      41.767  28.489  31.293  1.00  0.00     0.167 HD
ATOM     54  C   UNL A   1      42.642  29.073  33.908  1.00  0.00     0.074 A 
ATOM     55  C   UNL A   1      42.643  29.579  35.263  1.00  0.00     0.031 C 
ATOM     56  C   UNL A   1      43.567  28.213  33.415  1.00  0.00     0.034 A 
BRANCH  43  57
ATOM     57  C   UNL A   1      42.442  26.413  27.624  1.00  0.00     0.023 A 
ATOM     58  C   UNL A   1      43.315  26.976  26.674  1.00  0.00     0.012 A 
ATOM     59  C   UNL A   1      42.045  25.068  27.492  1.00  0.00     0.148 A 
ATOM     60  C   UNL A   1      43.771  26.218  25.596  1.00  0.00     0.002 A 
ATOM     61  C   UNL A   1      42.531  24.308  26.435  1.00  0.00     0.091 A 
ATOM     62  F   UNL A   1      41.192  24.561  28.393  1.00  0.00    -0.205 F 
ATOM     63  C   UNL A   1      43.387  24.883  25.483  1.00  0.00     0.022 A 
BRANCH  61  64
ATOM     64  S   UNL A   1      42.143  22.563  26.254  1.00  0.00     0.127 S 
ATOM     65  O   UNL A   1      42.845  22.232  25.015  1.00  0.00    -0.237 OA
ATOM     66  O   UNL A   1      42.733  21.984  27.461  1.00  0.00    -0.237 OA
ATOM     67  O   UNL A   1      40.690  22.484  26.197  1.00  0.00    -0.744 OA
ENDBRANCH  61  64
ENDBRANCH  43  57
BRANCH  44  68
ATOM     68  C   UNL A   1      39.192  31.998  35.193  1.00  0.00     0.023 A 
ATOM     69  C   UNL A   1      38.264  31.484  36.119  1.00  0.00     0.012 A 
ATOM     70  C   UNL A   1      39.676  33.309  35.365  1.00  0.00     0.148 A 
ATOM     71  C   UNL A   1      37.816  32.264  37.185  1.00  0.00     0.002 A 
ATOM     72  C   UNL A   1      39.273  34.059  36.464  1.00  0.00     0.091 A 
ATOM     73  F   UNL A   1      40.525  33.802  34.452  1.00  0.00    -0.205 F 
ATOM     74  C   UNL A   1      38.331  33.546  37.367  1.00  0.00     0.022 A 
BRANCH  72  75
ATOM     75  S   UNL A   1      40.001  35.660  36.832  1.00  0.00     0.127 S 
ATOM     76  O   UNL A   1      39.397  35.976  38.123  1.00  0.00    -0.237 OA
ATOM     77  O   UNL A   1      41.430  35.349  36.882  1.00  0.00    -0.237 OA
ATOM     78  O   UNL A   1      39.618  36.517  35.718  1.00  0.00    -0.744 OA
ENDBRANCH  72  75
ENDBRANCH  44  68
BRANCH  56  79
ATOM     79  C   UNL A   1      44.671  27.765  34.335  1.00  0.00     0.023 A 
ATOM     80  C   UNL A   1      45.836  28.549  34.448  1.00  0.00     0.012 A 
ATOM     81  C   UNL A   1      44.525  26.622  35.147  1.00  0.00     0.148 A 
ATOM     82  C   UNL A   1      46.850  28.190  35.335  1.00  0.00     0.002 A 
ATOM     83  C   UNL A   1      45.523  26.293  36.059  1.00  0.00     0.091 A 
ATOM     84  F   UNL A   1      43.418  25.877  35.011  1.00  0.00    -0.205 F 
ATOM     85  C   UNL A   1      46.689  27.070  36.148  1.00  0.00     0.022 A 
BRANCH  83  86
ATOM     86  S   UNL A   1      45.356  24.917  37.203  1.00  0.00     0.127 S 
ATOM     87  O   UNL A   1      45.032  23.814  36.300  1.00  0.00    -0.237 OA
ATOM     88  O   UNL A   1      46.689  24.842  37.804  1.00  0.00    -0.237 OA
ATOM     89  O   UNL A   1      44.302  25.302  38.132  1.00  0.00    -0.744 OA
ENDBRANCH  83  86
ENDBRANCH  56  79
ENDBRANCH  30  31
ENDBRANCH  23  25
ENDBRANCH  22  23
ENDBRANCH  21  22
ENDBRANCH   1  21
TORSDOF 18
ENDMDL
MODEL 2
REMARK VINA RESULT:     -11.7      2.226      4.626
REMARK SMILES C[C@@H](C(=O)OCCOC(=O)c1ccc(-c2c3nc(c(-c4cccc(S(=O)(=O)[O-])c4F)c4ccc([nH]4)c(-c4cccc(S(=O)(=O)[O-])c4F)c4nc(c(-c5cccc(S(=O)(=O)[O-])c5F)c5ccc2[nH]5)C=C4)C=C3)cc1)c1ccc(C[C@H]2CCC[C@H]2O)cc1
REMARK SMILES IDX 6 1 5 2 3 3 4 4 2 5 1 6 74 7 75 8 86 9 76 10 85 11 77 12
REMARK SMILES IDX 78 13 79 14 80 15 83 16 81 17 82 18 84 19 7 21 8 22 9 23
REMARK SMILES IDX 10 24 11 25 12 26 73 27 13 28 72 29 14 30 15 31 16 32 66 33
REMARK SMILES IDX 17 34 71 35 65 36 67 37 18 38 70 39 64 40 63 41 19 43 51 44
REMARK SMILES IDX 31 45 50 46 32 47 35 48 49 49 68 50 33 51 34 52 48 54 69 55
REMARK SMILES IDX 36 56 20 57 21 58 29 59 22 60 24 61 30 62 23 63 25 64 26 65
REMARK SMILES IDX 27 66 28 67 52 68 53 69 61 70 54 71 56 72 62 73 55 74 57 75
REMARK SMILES IDX 58 76 59 77 60 78 37 79 38 80 46 81 39 82 41 83 47 84 40 85
REMARK SMILES IDX 42 86 43 87 44 88 45 89
REMARK H PARENT 84 20 67 42 35 53
REMARK Flexibility Score: inf
ROOT
ATOM      1  C   UNL A   1      33.078  28.740  25.007  1.00  0.00     0.274 C 
ENDROOT
BRANCH   1   2
ATOM      2  O   UNL A   1      32.524  27.440  25.303  1.00  0.00    -0.462 OA
BRANCH   2   3
ATOM      3  C   UNL A   1      32.833  26.440  24.431  1.00  0.00     0.313 C 
ATOM      4  O   UNL A   1      33.986  26.165  24.114  1.00  0.00    -0.252 OA
BRANCH   3   5
ATOM      5  C   UNL A   1      31.586  25.750  23.827  1.00  0.00     0.126 C 
ATOM      6  C   UNL A   1      31.971  24.724  22.752  1.00  0.00     0.025 C 
BRANCH   5   7
ATOM      7  C   UNL A   1      30.499  26.742  23.389  1.00  0.00    -0.034 A 
ATOM      8  C   UNL A   1      29.192  26.595  23.875  1.00  0.00     0.005 A 
ATOM      9  C   UNL A   1      30.727  27.820  22.518  1.00  0.00     0.005 A 
ATOM     10  C   UNL A   1      28.199  27.541  23.611  1.00  0.00     0.004 A 
ATOM     11  C   UNL A   1      29.704  28.732  22.195  1.00  0.00     0.004 A 
ATOM     12  C   UNL A   1      28.424  28.616  22.753  1.00  0.00    -0.048 A 
BRANCH  12  13
ATOM     13  C   UNL A   1      27.384  29.699  22.547  1.00  0.00     0.041 C 
BRANCH  13  14
ATOM     14  C   UNL A   1      27.667  31.143  22.997  1.00  0.00     0.022 C 
ATOM     15  C   UNL A   1      28.692  31.306  24.131  1.00  0.00     0.007 C 
ATOM     16  C   UNL A   1      28.028  32.199  21.935  1.00  0.00     0.117 C 
ATOM     17  C   UNL A   1      29.528  32.533  23.771  1.00  0.00     0.003 C 
ATOM     18  C   UNL A   1      28.693  33.302  22.751  1.00  0.00     0.032 C 
BRANCH  16  19
ATOM     19  O   UNL A   1      28.937  31.763  20.944  1.00  0.00    -0.393 OA
ATOM     20  H   UNL A   1      28.613  32.030  20.069  1.00  0.00     0.210 HD
ENDBRANCH  16  19
ENDBRANCH  13  14
ENDBRANCH  12  13
ENDBRANCH   5   7
ENDBRANCH   3   5
ENDBRANCH   2   3
ENDBRANCH   1   2
BRANCH   1  21
ATOM     21  C   UNL A   1      32.074  29.821  25.386  1.00  0.00     0.275 C 
BRANCH  21  22
ATOM     22  O   UNL A   1      32.218  30.123  26.783  1.00  0.00    -0.458 OA
BRANCH  22  23
ATOM     23  C   UNL A   1      32.856  31.274  27.083  1.00  0.00     0.338 C 
ATOM     24  O   UNL A   1      32.432  32.416  26.939  1.00  0.00    -0.246 OA
BRANCH  23  25
ATOM     25  C   UNL A   1      34.187  30.966  27.627  1.00  0.00     0.060 A 
ATOM     26  C   UNL A   1      34.517  29.648  27.922  1.00  0.00     0.016 A 
ATOM     27  C   UNL A   1      35.079  31.995  27.933  1.00  0.00     0.016 A 
ATOM     28  C   UNL A   1      35.711  29.369  28.586  1.00  0.00     0.010 A 
ATOM     29  C   UNL A   1      36.306  31.697  28.542  1.00  0.00     0.010 A 
ATOM     30  C   UNL A   1      36.621  30.380  28.918  1.00  0.00    -0.014 A 
BRANCH  30  31
ATOM     31  C   UNL A   1      37.839  30.061  29.726  1.00  0.00     0.031 A 
ATOM     32  C   UNL A   1      38.949  29.232  29.124  1.00  0.00     0.074 A 
ATOM     33  C   UNL A   1      38.003  30.548  30.973  1.00  0.00     0.049 A 
ATOM     34  N   UNL A   1      40.018  28.739  29.698  1.00  0.00    -0.248 NA
ATOM     35  C   UNL A   1      38.843  28.914  27.691  1.00  0.00     0.031 C 
ATOM     36  C   UNL A   1      37.063  31.423  31.674  1.00  0.00     0.029 A 
ATOM     37  N   UNL A   1      39.035  30.390  31.871  1.00  0.00    -0.354 N 
ATOM     38  C   UNL A   1      40.661  27.984  28.723  1.00  0.00     0.074 A 
ATOM     39  C   UNL A   1      39.879  28.107  27.512  1.00  0.00     0.031 C 
ATOM     40  C   UNL A   1      37.577  31.760  32.867  1.00  0.00     0.029 A 
ATOM     41  C   UNL A   1      38.842  31.057  33.060  1.00  0.00     0.049 A 
ATOM     42  H   UNL A   1      39.836  29.850  31.681  1.00  0.00     0.167 HD
ATOM     43  C   UNL A   1      41.800  27.258  28.820  1.00  0.00     0.034 A 
ATOM     44  C   UNL A   1      39.574  31.077  34.193  1.00  0.00     0.034 A 
ATOM     45  C   UNL A   1      42.635  27.197  29.989  1.00  0.00     0.049 A 
ATOM     46  C   UNL A   1      40.829  30.250  34.279  1.00  0.00     0.074 A 
ATOM     47  C   UNL A   1      43.814  26.491  30.167  1.00  0.00     0.029 A 
ATOM     48  N   UNL A   1      42.399  27.881  31.169  1.00  0.00    -0.354 N 
ATOM     49  N   UNL A   1      41.424  29.550  33.345  1.00  0.00    -0.248 NA
ATOM     50  C   UNL A   1      41.513  30.216  35.582  1.00  0.00     0.031 C 
ATOM     51  C   UNL A   1      44.286  26.746  31.459  1.00  0.00     0.029 A 
ATOM     52  C   UNL A   1      43.407  27.615  32.080  1.00  0.00     0.049 A 
ATOM     53  H   UNL A   1      41.628  28.471  31.335  1.00  0.00     0.167 HD
ATOM     54  C   UNL A   1      42.554  29.000  33.944  1.00  0.00     0.074 A 
ATOM     55  C   UNL A   1      42.583  29.480  35.308  1.00  0.00     0.031 C 
ATOM     56  C   UNL A   1      43.465  28.145  33.418  1.00  0.00     0.034 A 
BRANCH  43  57
ATOM     57  C   UNL A   1      42.224  26.463  27.615  1.00  0.00     0.023 A 
ATOM     58  C   UNL A   1      43.019  27.065  26.621  1.00  0.00     0.012 A 
ATOM     59  C   UNL A   1      41.884  25.101  27.502  1.00  0.00     0.148 A 
ATOM     60  C   UNL A   1      43.451  26.328  25.519  1.00  0.00     0.002 A 
ATOM     61  C   UNL A   1      42.348  24.364  26.420  1.00  0.00     0.091 A 
ATOM     62  F   UNL A   1      41.104  24.555  28.446  1.00  0.00    -0.205 F 
ATOM     63  C   UNL A   1      43.125  24.976  25.424  1.00  0.00     0.022 A 
BRANCH  61  64
ATOM     64  S   UNL A   1      42.032  22.602  26.256  1.00  0.00     0.127 S 
ATOM     65  O   UNL A   1      42.657  22.076  27.469  1.00  0.00    -0.237 OA
ATOM     66  O   UNL A   1      40.570  22.545  26.252  1.00  0.00    -0.237 OA
ATOM     67  O   UNL A   1      42.653  22.203  25.001  1.00  0.00    -0.744 OA
ENDBRANCH  61  64
ENDBRANCH  43  57
BRANCH  44  68
ATOM     68  C   UNL A   1      39.144  31.917  35.349  1.00  0.00     0.023 A 
ATOM     69  C   UNL A   1      38.228  31.390  36.280  1.00  0.00     0.012 A 
ATOM     70  C   UNL A   1      39.640  33.221  35.538  1.00  0.00     0.148 A 
ATOM     71  C   UNL A   1      37.804  32.152  37.369  1.00  0.00     0.002 A 
ATOM     72  C   UNL A   1      39.260  33.952  36.659  1.00  0.00     0.091 A 
ATOM     73  F   UNL A   1      40.476  33.727  34.621  1.00  0.00    -0.205 F 
ATOM     74  C   UNL A   1      38.330  33.426  37.568  1.00  0.00     0.022 A 
BRANCH  72  75
ATOM     75  S   UNL A   1      40.006  35.540  37.046  1.00  0.00     0.127 S 
ATOM     76  O   UNL A   1      41.420  35.192  37.147  1.00  0.00    -0.237 OA
ATOM     77  O   UNL A   1      39.653  36.345  35.876  1.00  0.00    -0.237 OA
ATOM     78  O   UNL A   1      39.361  35.972  38.279  1.00  0.00    -0.744 OA
ENDBRANCH  72  75
ENDBRANCH  44  68
BRANCH  56  79
ATOM     79  C   UNL A   1      44.583  27.675  34.309  1.00  0.00     0.023 A 
ATOM     80  C   UNL A   1      45.767  28.434  34.391  1.00  0.00     0.012 A 
ATOM     81  C   UNL A   1      44.436  26.535  35.124  1.00  0.00     0.148 A 
ATOM     82  C   UNL A   1      46.796  28.054  35.251  1.00  0.00     0.002 A 
ATOM     83  C   UNL A   1      45.450  26.184  36.009  1.00  0.00     0.091 A 
ATOM     84  F   UNL A   1      43.310  25.812  35.017  1.00  0.00    -0.205 F 
ATOM     85  C   UNL A   1      46.633  26.937  36.068  1.00  0.00     0.022 A 
BRANCH  83  86
ATOM     86  S   UNL A   1      45.285  24.812  37.158  1.00  0.00     0.127 S 
ATOM     87  O   UNL A   1      45.153  23.675  36.248  1.00  0.00    -0.237 OA
ATOM     88  O   UNL A   1      46.550  24.860  37.892  1.00  0.00    -0.237 OA
ATOM     89  O   UNL A   1      44.112  25.112  37.966  1.00  0.00    -0.744 OA
ENDBRANCH  83  86
ENDBRANCH  56  79
ENDBRANCH  30  31
ENDBRANCH  23  25
ENDBRANCH  22  23
ENDBRANCH  21  22
ENDBRANCH   1  21
TORSDOF 18
ENDMDL
MODEL 3
REMARK VINA RESULT:     -11.4      1.832      7.940
REMARK SMILES C[C@@H](C(=O)OCCOC(=O)c1ccc(-c2c3nc(c(-c4cccc(S(=O)(=O)[O-])c4F)c4ccc([nH]4)c(-c4cccc(S(=O)(=O)[O-])c4F)c4nc(c(-c5cccc(S(=O)(=O)[O-])c5F)c5ccc2[nH]5)C=C4)C=C3)cc1)c1ccc(C[C@H]2CCC[C@H]2O)cc1
REMARK SMILES IDX 6 1 5 2 3 3 4 4 2 5 1 6 74 7 75 8 86 9 76 10 85 11 77 12
REMARK SMILES IDX 78 13 79 14 80 15 83 16 81 17 82 18 84 19 7 21 8 22 9 23
REMARK SMILES IDX 10 24 11 25 12 26 73 27 13 28 72 29 14 30 15 31 16 32 66 33
REMARK SMILES IDX 17 34 71 35 65 36 67 37 18 38 70 39 64 40 63 41 19 43 51 44
REMARK SMILES IDX 31 45 50 46 32 47 35 48 49 49 68 50 33 51 34 52 48 54 69 55
REMARK SMILES IDX 36 56 20 57 21 58 29 59 22 60 24 61 30 62 23 63 25 64 26 65
REMARK SMILES IDX 27 66 28 67 52 68 53 69 61 70 54 71 56 72 62 73 55 74 57 75
REMARK SMILES IDX 58 76 59 77 60 78 37 79 38 80 46 81 39 82 41 83 47 84 40 85
REMARK SMILES IDX 42 86 43 87 44 88 45 89
REMARK H PARENT 84 20 67 42 35 53
REMARK Flexibility Score: inf
ROOT
ATOM      1  C   UNL A   1      31.381  30.495  25.285  1.00  0.00     0.274 C 
ENDROOT
BRANCH   1   2
ATOM      2  O   UNL A   1      32.752  30.048  25.331  1.00  0.00    -0.462 OA
BRANCH   2   3
ATOM      3  C   UNL A   1      32.946  28.708  25.495  1.00  0.00     0.313 C 
ATOM      4  O   UNL A   1      33.968  28.134  25.133  1.00  0.00    -0.252 OA
BRANCH   3   5
ATOM      5  C   UNL A   1      31.719  27.985  26.101  1.00  0.00     0.126 C 
ATOM      6  C   UNL A   1      31.753  28.001  27.636  1.00  0.00     0.025 C 
BRANCH   5   7
ATOM      7  C   UNL A   1      31.473  26.597  25.491  1.00  0.00    -0.034 A 
ATOM      8  C   UNL A   1      31.209  26.482  24.119  1.00  0.00     0.005 A 
ATOM      9  C   UNL A   1      31.501  25.402  26.228  1.00  0.00     0.005 A 
ATOM     10  C   UNL A   1      31.105  25.237  23.494  1.00  0.00     0.004 A 
ATOM     11  C   UNL A   1      31.323  24.152  25.607  1.00  0.00     0.004 A 
ATOM     12  C   UNL A   1      31.139  24.049  24.221  1.00  0.00    -0.048 A 
BRANCH  12  13
ATOM     13  C   UNL A   1      31.132  22.697  23.536  1.00  0.00     0.041 C 
BRANCH  13  14
ATOM     14  C   UNL A   1      32.381  21.800  23.574  1.00  0.00     0.022 C 
ATOM     15  C   UNL A   1      33.711  22.509  23.875  1.00  0.00     0.007 C 
ATOM     16  C   UNL A   1      32.363  20.532  24.450  1.00  0.00     0.117 C 
ATOM     17  C   UNL A   1      34.488  21.575  24.800  1.00  0.00     0.003 C 
ATOM     18  C   UNL A   1      33.842  20.205  24.623  1.00  0.00     0.032 C 
BRANCH  16  19
ATOM     19  O   UNL A   1      31.787  20.698  25.731  1.00  0.00    -0.393 OA
ATOM     20  H   UNL A   1      30.878  21.026  25.637  1.00  0.00     0.210 HD
ENDBRANCH  16  19
ENDBRANCH  13  14
ENDBRANCH  12  13
ENDBRANCH   5   7
ENDBRANCH   3   5
ENDBRANCH   2   3
ENDBRANCH   1   2
BRANCH   1  21
ATOM     21  C   UNL A   1      31.233  31.772  26.103  1.00  0.00     0.275 C 
BRANCH  21  22
ATOM     22  O   UNL A   1      32.003  31.646  27.309  1.00  0.00    -0.458 OA
BRANCH  22  23
ATOM     23  C   UNL A   1      32.827  32.675  27.602  1.00  0.00     0.338 C 
ATOM     24  O   UNL A   1      32.572  33.872  27.530  1.00  0.00    -0.246 OA
BRANCH  23  25
ATOM     25  C   UNL A   1      34.129  32.147  28.035  1.00  0.00     0.060 A 
ATOM     26  C   UNL A   1      34.302  30.774  28.169  1.00  0.00     0.016 A 
ATOM     27  C   UNL A   1      35.158  33.019  28.398  1.00  0.00     0.016 A 
ATOM     28  C   UNL A   1      35.477  30.278  28.732  1.00  0.00     0.010 A 
ATOM     29  C   UNL A   1      36.361  32.507  28.902  1.00  0.00     0.010 A 
ATOM     30  C   UNL A   1      36.522  31.127  29.118  1.00  0.00    -0.014 A 
BRANCH  30  31
ATOM     31  C   UNL A   1      37.722  30.573  29.818  1.00  0.00     0.031 A 
ATOM     32  C   UNL A   1      37.964  30.897  31.273  1.00  0.00     0.074 A 
ATOM     33  C   UNL A   1      38.574  29.733  29.195  1.00  0.00     0.049 A 
ATOM     34  N   UNL A   1      39.006  30.625  32.019  1.00  0.00    -0.248 NA
ATOM     35  C   UNL A   1      36.897  31.622  31.982  1.00  0.00     0.031 C 
ATOM     36  C   UNL A   1      38.446  29.260  27.816  1.00  0.00     0.029 A 
ATOM     37  N   UNL A   1      39.714  29.109  29.649  1.00  0.00    -0.354 N 
ATOM     38  C   UNL A   1      38.758  31.220  33.251  1.00  0.00     0.074 A 
ATOM     39  C   UNL A   1      37.454  31.842  33.164  1.00  0.00     0.031 C 
ATOM     40  C   UNL A   1      39.434  28.391  27.552  1.00  0.00     0.029 A 
ATOM     41  C   UNL A   1      40.322  28.309  28.708  1.00  0.00     0.049 A 
ATOM     42  H   UNL A   1      40.063  29.225  30.564  1.00  0.00     0.167 HD
ATOM     43  C   UNL A   1      39.537  31.245  34.358  1.00  0.00     0.034 A 
ATOM     44  C   UNL A   1      41.478  27.615  28.749  1.00  0.00     0.034 A 
ATOM     45  C   UNL A   1      40.793  30.557  34.491  1.00  0.00     0.049 A 
ATOM     46  C   UNL A   1      42.332  27.670  29.987  1.00  0.00     0.074 A 
ATOM     47  C   UNL A   1      41.643  30.524  35.585  1.00  0.00     0.029 A 
ATOM     48  N   UNL A   1      41.372  29.767  33.513  1.00  0.00    -0.354 N 
ATOM     49  N   UNL A   1      42.078  28.231  31.144  1.00  0.00    -0.248 NA
ATOM     50  C   UNL A   1      43.639  26.995  29.922  1.00  0.00     0.031 C 
ATOM     51  C   UNL A   1      42.738  29.714  35.264  1.00  0.00     0.029 A 
ATOM     52  C   UNL A   1      42.566  29.240  33.975  1.00  0.00     0.049 A 
ATOM     53  H   UNL A   1      40.989  29.603  32.620  1.00  0.00     0.167 HD
ATOM     54  C   UNL A   1      43.186  27.971  31.944  1.00  0.00     0.074 A 
ATOM     55  C   UNL A   1      44.095  27.168  31.156  1.00  0.00     0.031 C 
ATOM     56  C   UNL A   1      43.440  28.390  33.209  1.00  0.00     0.034 A 
BRANCH  43  57
ATOM     57  C   UNL A   1      39.050  32.044  35.536  1.00  0.00     0.023 A 
ATOM     58  C   UNL A   1      39.222  33.441  35.556  1.00  0.00     0.012 A 
ATOM     59  C   UNL A   1      38.368  31.412  36.595  1.00  0.00     0.148 A 
ATOM     60  C   UNL A   1      38.739  34.197  36.625  1.00  0.00     0.002 A 
ATOM     61  C   UNL A   1      37.860  32.176  37.638  1.00  0.00     0.091 A 
ATOM     62  F   UNL A   1      38.240  30.078  36.569  1.00  0.00    -0.205 F 
ATOM     63  C   UNL A   1      38.050  33.566  37.659  1.00  0.00     0.022 A 
BRANCH  61  64
ATOM     64  S   UNL A   1      36.900  31.452  38.974  1.00  0.00     0.127 S 
ATOM     65  O   UNL A   1      35.708  32.299  38.975  1.00  0.00    -0.237 OA
ATOM     66  O   UNL A   1      36.677  30.087  38.495  1.00  0.00    -0.237 OA
ATOM     67  O   UNL A   1      37.740  31.543  40.160  1.00  0.00    -0.744 OA
ENDBRANCH  61  64
ENDBRANCH  43  57
BRANCH  44  68
ATOM     68  C   UNL A   1      41.902  26.796  27.576  1.00  0.00     0.023 A 
ATOM     69  C   UNL A   1      42.566  27.421  26.503  1.00  0.00     0.012 A 
ATOM     70  C   UNL A   1      41.665  25.409  27.521  1.00  0.00     0.148 A 
ATOM     71  C   UNL A   1      42.972  26.682  25.391  1.00  0.00     0.002 A 
ATOM     72  C   UNL A   1      42.126  24.669  26.437  1.00  0.00     0.091 A 
ATOM     73  F   UNL A   1      40.992  24.835  28.528  1.00  0.00    -0.205 F 
ATOM     74  C   UNL A   1      42.766  25.305  25.364  1.00  0.00     0.022 A 
BRANCH  72  75
ATOM     75  S   UNL A   1      42.017  22.875  26.405  1.00  0.00     0.127 S 
ATOM     76  O   UNL A   1      40.574  22.661  26.464  1.00  0.00    -0.237 OA
ATOM     77  O   UNL A   1      42.635  22.548  25.120  1.00  0.00    -0.237 OA
ATOM     78  O   UNL A   1      42.780  22.428  27.563  1.00  0.00    -0.744 OA
ENDBRANCH  72  75
ENDBRANCH  44  68
BRANCH  56  79
ATOM     79  C   UNL A   1      44.748  27.985  33.833  1.00  0.00     0.023 A 
ATOM     80  C   UNL A   1      45.858  28.847  33.731  1.00  0.00     0.012 A 
ATOM     81  C   UNL A   1      44.860  26.800  34.587  1.00  0.00     0.148 A 
ATOM     82  C   UNL A   1      47.066  28.526  34.348  1.00  0.00     0.002 A 
ATOM     83  C   UNL A   1      46.056  26.505  35.233  1.00  0.00     0.091 A 
ATOM     84  F   UNL A   1      43.799  25.982  34.656  1.00  0.00    -0.205 F 
ATOM     85  C   UNL A   1      47.162  27.362  35.108  1.00  0.00     0.022 A 
BRANCH  83  86
ATOM     86  S   UNL A   1      46.237  25.072  36.303  1.00  0.00     0.127 S 
ATOM     87  O   UNL A   1      47.649  25.152  36.674  1.00  0.00    -0.237 OA
ATOM     88  O   UNL A   1      45.304  25.369  37.390  1.00  0.00    -0.237 OA
ATOM     89  O   UNL A   1      45.863  23.923  35.490  1.00  0.00    -0.744 OA
ENDBRANCH  83  86
ENDBRANCH  56  79
ENDBRANCH  30  31
ENDBRANCH  23  25
ENDBRANCH  22  23
ENDBRANCH  21  22
ENDBRANCH   1  21
TORSDOF 18
ENDMDL
