MODEL 1
REMARK VINA RESULT:     -11.2      0.000      0.000
REMARK SMILES CCc1[nH]nc(-n2cccc2)c1C(=O)OCCOC(=O)c1ccc(-c2c3nc(c(-c4cccc(S(=O)(=O)[O-])c4F)c4ccc([nH]4)c(-c4cccc(S(=O)(=O)[O-])c4F)c4nc(c(-c5cccc(S(=O)(=O)[O-])c5F)c5ccc2[nH]5)C=C4)C=C3)cc1
REMARK SMILES IDX 17 1 16 2 15 3 13 4 14 5 12 6 3 7 4 8 5 9 6 11 2 12 1 13
REMARK SMILES IDX 7 14 8 15 11 16 9 17 10 18 18 19 19 20 20 21 21 22 22 23
REMARK SMILES IDX 83 24 23 25 82 26 24 27 25 28 26 29 76 30 27 31 81 32 75 33
REMARK SMILES IDX 77 34 28 35 80 36 74 37 73 38 29 40 61 41 41 42 60 43 42 44
REMARK SMILES IDX 45 45 59 46 78 47 43 48 44 49 58 51 79 52 46 53 30 54 31 55
REMARK SMILES IDX 39 56 32 57 34 58 40 59 33 60 35 61 36 62 37 63 38 64 62 65
REMARK SMILES IDX 63 66 71 67 64 68 66 69 72 70 65 71 67 72 68 73 69 74 70 75
REMARK SMILES IDX 47 76 48 77 56 78 49 79 51 80 57 81 50 82 52 83 53 84 54 85
REMARK SMILES IDX 55 86
REMARK H PARENT 4 10 77 39 45 50
REMARK Flexibility Score: inf
ROOT
ATOM      1  C   UNL A   1      35.992  32.088  28.015  1.00  0.00     0.275 C 
ENDROOT
BRANCH   1   2
ATOM      2  C   UNL A   1      36.290  33.138  29.092  1.00  0.00     0.275 C 
BRANCH   2   3
ATOM      3  O   UNL A   1      35.135  33.908  29.491  1.00  0.00    -0.458 OA
BRANCH   3   4
ATOM      4  C   UNL A   1      34.626  33.690  30.743  1.00  0.00     0.343 C 
ATOM      5  O   UNL A   1      34.379  32.570  31.181  1.00  0.00    -0.246 OA
BRANCH   4   6
ATOM      6  C   UNL A   1      34.427  34.911  31.523  1.00  0.00     0.125 A 
ATOM      7  C   UNL A   1      33.655  36.037  31.221  1.00  0.00     0.052 A 
ATOM      8  N   UNL A   1      33.867  36.926  32.245  1.00  0.00    -0.280 N 
ATOM      9  N   UNL A   1      34.770  36.525  33.142  1.00  0.00    -0.156 NA
ATOM     10  H   UNL A   1      33.395  37.787  32.311  1.00  0.00     0.190 HD
ATOM     11  C   UNL A   1      35.082  35.292  32.729  1.00  0.00     0.173 A 
BRANCH   7  12
ATOM     12  C   UNL A   1      32.745  36.380  30.084  1.00  0.00     0.053 C 
ATOM     13  C   UNL A   1      33.483  36.809  28.822  1.00  0.00     0.011 C 
ENDBRANCH   7  12
BRANCH  11  14
ATOM     14  N   UNL A   1      36.059  34.585  33.480  1.00  0.00    -0.306 N 
ATOM     15  C   UNL A   1      35.790  33.646  34.456  1.00  0.00     0.093 A 
ATOM     16  C   UNL A   1      37.425  34.630  33.305  1.00  0.00     0.093 A 
ATOM     17  C   UNL A   1      36.981  33.215  34.997  1.00  0.00     0.020 A 
ATOM     18  C   UNL A   1      38.017  33.796  34.231  1.00  0.00     0.020 A 
ENDBRANCH  11  14
ENDBRANCH   4   6
ENDBRANCH   3   4
ENDBRANCH   2   3
ENDBRANCH   1   2
BRANCH   1  19
ATOM     19  O   UNL A   1      35.758  30.782  28.546  1.00  0.00    -0.458 OA
BRANCH  19  20
ATOM     20  C   UNL A   1      36.368  29.822  27.821  1.00  0.00     0.338 C 
ATOM     21  O   UNL A   1      35.862  29.158  26.925  1.00  0.00    -0.246 OA
BRANCH  20  22
ATOM     22  C   UNL A   1      37.696  29.485  28.317  1.00  0.00     0.060 A 
ATOM     23  C   UNL A   1      38.712  29.509  27.357  1.00  0.00     0.016 A 
ATOM     24  C   UNL A   1      37.850  28.841  29.546  1.00  0.00     0.016 A 
ATOM     25  C   UNL A   1      39.853  28.770  27.571  1.00  0.00     0.010 A 
ATOM     26  C   UNL A   1      38.985  28.074  29.747  1.00  0.00     0.010 A 
ATOM     27  C   UNL A   1      39.965  28.021  28.748  1.00  0.00    -0.014 A 
BRANCH  27  28
ATOM     28  C   UNL A   1      41.271  27.391  28.995  1.00  0.00     0.031 A 
ATOM     29  C   UNL A   1      41.172  25.894  28.581  1.00  0.00     0.074 A 
ATOM     30  C   UNL A   1      42.231  28.175  29.595  1.00  0.00     0.049 A 
ATOM     31  N   UNL A   1      41.736  24.846  29.101  1.00  0.00    -0.248 NA
ATOM     32  C   UNL A   1      40.188  25.472  27.533  1.00  0.00     0.031 C 
ATOM     33  C   UNL A   1      42.111  29.633  29.868  1.00  0.00     0.029 A 
ATOM     34  N   UNL A   1      43.497  27.936  30.098  1.00  0.00    -0.354 N 
ATOM     35  C   UNL A   1      41.437  23.749  28.249  1.00  0.00     0.074 A 
ATOM     36  C   UNL A   1      40.328  24.146  27.450  1.00  0.00     0.031 C 
ATOM     37  C   UNL A   1      43.192  30.108  30.538  1.00  0.00     0.029 A 
ATOM     38  C   UNL A   1      44.151  29.035  30.740  1.00  0.00     0.049 A 
ATOM     39  H   UNL A   1      43.926  27.054  30.019  1.00  0.00     0.167 HD
ATOM     40  C   UNL A   1      42.285  22.686  28.098  1.00  0.00     0.034 A 
ATOM     41  C   UNL A   1      45.371  29.054  31.384  1.00  0.00     0.034 A 
ATOM     42  C   UNL A   1      43.429  22.916  28.916  1.00  0.00     0.049 A 
ATOM     43  C   UNL A   1      45.986  27.790  30.986  1.00  0.00     0.074 A 
ATOM     44  C   UNL A   1      43.595  22.943  30.275  1.00  0.00     0.029 A 
ATOM     45  N   UNL A   1      44.438  23.616  28.292  1.00  0.00    -0.354 N 
ATOM     46  N   UNL A   1      46.451  27.564  29.796  1.00  0.00    -0.248 NA
ATOM     47  C   UNL A   1      46.044  26.685  31.948  1.00  0.00     0.031 C 
ATOM     48  C   UNL A   1      44.404  24.079  30.445  1.00  0.00     0.029 A 
ATOM     49  C   UNL A   1      44.955  24.473  29.216  1.00  0.00     0.049 A 
ATOM     50  H   UNL A   1      44.730  23.515  27.357  1.00  0.00     0.167 HD
ATOM     51  C   UNL A   1      46.445  26.198  29.765  1.00  0.00     0.074 A 
ATOM     52  C   UNL A   1      46.550  25.754  31.143  1.00  0.00     0.031 C 
ATOM     53  C   UNL A   1      45.746  25.587  28.769  1.00  0.00     0.034 A 
BRANCH  40  54
ATOM     54  C   UNL A   1      42.449  21.589  27.071  1.00  0.00     0.023 A 
ATOM     55  C   UNL A   1      41.765  20.375  27.383  1.00  0.00     0.012 A 
ATOM     56  C   UNL A   1      43.443  21.530  26.081  1.00  0.00     0.148 A 
ATOM     57  C   UNL A   1      42.159  19.141  26.873  1.00  0.00     0.002 A 
ATOM     58  C   UNL A   1      43.792  20.295  25.524  1.00  0.00     0.091 A 
ATOM     59  F   UNL A   1      44.102  22.640  25.738  1.00  0.00    -0.205 F 
ATOM     60  C   UNL A   1      43.189  19.101  25.954  1.00  0.00     0.022 A 
BRANCH  58  61
ATOM     61  S   UNL A   1      45.040  20.112  24.246  1.00  0.00     0.127 S 
ATOM     62  O   UNL A   1      46.248  20.557  24.935  1.00  0.00    -0.237 OA
ATOM     63  O   UNL A   1      44.986  18.672  23.985  1.00  0.00    -0.237 OA
ATOM     64  O   UNL A   1      44.590  20.935  23.131  1.00  0.00    -0.744 OA
ENDBRANCH  58  61
ENDBRANCH  40  54
BRANCH  41  65
ATOM     65  C   UNL A   1      46.258  29.881  32.313  1.00  0.00     0.023 A 
ATOM     66  C   UNL A   1      46.130  29.945  33.704  1.00  0.00     0.012 A 
ATOM     67  C   UNL A   1      47.437  30.514  31.775  1.00  0.00     0.148 A 
ATOM     68  C   UNL A   1      47.157  30.509  34.502  1.00  0.00     0.002 A 
ATOM     69  C   UNL A   1      48.506  30.921  32.563  1.00  0.00     0.091 A 
ATOM     70  F   UNL A   1      47.525  30.756  30.462  1.00  0.00    -0.205 F 
ATOM     71  C   UNL A   1      48.364  30.941  33.942  1.00  0.00     0.022 A 
BRANCH  69  72
ATOM     72  S   UNL A   1      50.141  31.252  31.856  1.00  0.00     0.127 S 
ATOM     73  O   UNL A   1      49.951  32.553  31.220  1.00  0.00    -0.237 OA
ATOM     74  O   UNL A   1      50.976  31.273  33.058  1.00  0.00    -0.237 OA
ATOM     75  O   UNL A   1      50.427  30.156  30.940  1.00  0.00    -0.744 OA
ENDBRANCH  69  72
ENDBRANCH  41  65
BRANCH  53  76
ATOM     76  C   UNL A   1      45.664  26.371  27.446  1.00  0.00     0.023 A 
ATOM     77  C   UNL A   1      44.383  26.856  27.090  1.00  0.00     0.012 A 
ATOM     78  C   UNL A   1      46.697  26.572  26.497  1.00  0.00     0.148 A 
ATOM     79  C   UNL A   1      44.121  27.461  25.857  1.00  0.00     0.002 A 
ATOM     80  C   UNL A   1      46.432  27.171  25.251  1.00  0.00     0.091 A 
ATOM     81  F   UNL A   1      47.935  26.183  26.802  1.00  0.00    -0.205 F 
ATOM     82  C   UNL A   1      45.143  27.614  24.935  1.00  0.00     0.022 A 
BRANCH  80  83
ATOM     83  S   UNL A   1      47.654  27.397  23.937  1.00  0.00     0.127 S 
ATOM     84  O   UNL A   1      47.904  26.022  23.495  1.00  0.00    -0.237 OA
ATOM     85  O   UNL A   1      46.923  28.208  22.966  1.00  0.00    -0.237 OA
ATOM     86  O   UNL A   1      48.804  28.046  24.551  1.00  0.00    -0.744 OA
ENDBRANCH  80  83
ENDBRANCH  53  76
ENDBRANCH  27  28
ENDBRANCH  20  22
ENDBRANCH  19  20
ENDBRANCH   1  19
TORSDOF 16
ENDMDL
MODEL 2
REMARK VINA RESULT:     -10.8      4.236     12.235
REMARK SMILES CCc1[nH]nc(-n2cccc2)c1C(=O)OCCOC(=O)c1ccc(-c2c3nc(c(-c4cccc(S(=O)(=O)[O-])c4F)c4ccc([nH]4)c(-c4cccc(S(=O)(=O)[O-])c4F)c4nc(c(-c5cccc(S(=O)(=O)[O-])c5F)c5ccc2[nH]5)C=C4)C=C3)cc1
REMARK SMILES IDX 17 1 16 2 15 3 13 4 14 5 12 6 3 7 4 8 5 9 6 11 2 12 1 13
REMARK SMILES IDX 7 14 8 15 11 16 9 17 10 18 18 19 19 20 20 21 21 22 22 23
REMARK SMILES IDX 83 24 23 25 82 26 24 27 25 28 26 29 76 30 27 31 81 32 75 33
REMARK SMILES IDX 77 34 28 35 80 36 74 37 73 38 29 40 61 41 41 42 60 43 42 44
REMARK SMILES IDX 45 45 59 46 78 47 43 48 44 49 58 51 79 52 46 53 30 54 31 55
REMARK SMILES IDX 39 56 32 57 34 58 40 59 33 60 35 61 36 62 37 63 38 64 62 65
REMARK SMILES IDX 63 66 71 67 64 68 66 69 72 70 65 71 67 72 68 73 69 74 70 75
REMARK SMILES IDX 47 76 48 77 56 78 49 79 51 80 57 81 50 82 52 83 53 84 54 85
REMARK SMILES IDX 55 86
REMARK H PARENT 4 10 77 39 45 50
REMARK Flexibility Score: inf
ROOT
ATOM      1  C   UNL A   1      40.154  22.468  26.709  1.00  0.00     0.275 C 
ENDROOT
BRANCH   1   2
ATOM      2  C   UNL A   1      41.538  22.693  26.090  1.00  0.00     0.275 C 
BRANCH   2   3
ATOM      3  O   UNL A   1      42.589  21.922  26.712  1.00  0.00    -0.458 OA
BRANCH   3   4
ATOM      4  C   UNL A   1      43.788  22.542  26.935  1.00  0.00     0.343 C 
ATOM      5  O   UNL A   1      44.160  22.904  28.047  1.00  0.00    -0.246 OA
BRANCH   4   6
ATOM      6  C   UNL A   1      44.600  22.712  25.730  1.00  0.00     0.125 A 
ATOM      7  C   UNL A   1      45.348  21.763  25.028  1.00  0.00     0.052 A 
ATOM      8  N   UNL A   1      45.979  22.449  24.020  1.00  0.00    -0.280 N 
ATOM      9  N   UNL A   1      45.784  23.768  24.049  1.00  0.00    -0.156 NA
ATOM     10  H   UNL A   1      46.529  22.006  23.335  1.00  0.00     0.190 HD
ATOM     11  C   UNL A   1      44.921  23.926  25.058  1.00  0.00     0.173 A 
BRANCH   7  12
ATOM     12  C   UNL A   1      45.545  20.289  25.192  1.00  0.00     0.053 C 
ATOM     13  C   UNL A   1      44.374  19.457  24.680  1.00  0.00     0.011 C 
ENDBRANCH   7  12
BRANCH  11  14
ATOM     14  N   UNL A   1      44.521  25.254  25.367  1.00  0.00    -0.306 N 
ATOM     15  C   UNL A   1      43.344  25.848  24.958  1.00  0.00     0.093 A 
ATOM     16  C   UNL A   1      45.172  26.139  26.200  1.00  0.00     0.093 A 
ATOM     17  C   UNL A   1      43.326  27.152  25.404  1.00  0.00     0.020 A 
ATOM     18  C   UNL A   1      44.456  27.319  26.236  1.00  0.00     0.020 A 
ENDBRANCH  11  14
ENDBRANCH   4   6
ENDBRANCH   3   4
ENDBRANCH   2   3
ENDBRANCH   1   2
BRANCH   1  19
ATOM     19  O   UNL A   1      39.885  23.321  27.824  1.00  0.00    -0.458 OA
BRANCH  19  20
ATOM     20  C   UNL A   1      39.185  24.418  27.466  1.00  0.00     0.338 C 
ATOM     21  O   UNL A   1      38.284  24.465  26.638  1.00  0.00    -0.246 OA
BRANCH  20  22
ATOM     22  C   UNL A   1      39.718  25.649  28.036  1.00  0.00     0.060 A 
ATOM     23  C   UNL A   1      39.298  25.930  29.340  1.00  0.00     0.016 A 
ATOM     24  C   UNL A   1      40.285  26.623  27.212  1.00  0.00     0.016 A 
ATOM     25  C   UNL A   1      39.324  27.231  29.786  1.00  0.00     0.010 A 
ATOM     26  C   UNL A   1      40.283  27.936  27.652  1.00  0.00     0.010 A 
ATOM     27  C   UNL A   1      39.777  28.235  28.923  1.00  0.00    -0.014 A 
BRANCH  27  28
ATOM     28  C   UNL A   1      39.939  29.573  29.513  1.00  0.00     0.031 A 
ATOM     29  C   UNL A   1      38.685  30.419  29.146  1.00  0.00     0.074 A 
ATOM     30  C   UNL A   1      41.135  29.827  30.147  1.00  0.00     0.049 A 
ATOM     31  N   UNL A   1      38.581  31.685  28.884  1.00  0.00    -0.248 NA
ATOM     32  C   UNL A   1      37.376  29.738  28.883  1.00  0.00     0.031 C 
ATOM     33  C   UNL A   1      42.199  28.824  30.420  1.00  0.00     0.029 A 
ATOM     34  N   UNL A   1      41.714  30.955  30.698  1.00  0.00    -0.354 N 
ATOM     35  C   UNL A   1      37.194  31.973  28.769  1.00  0.00     0.074 A 
ATOM     36  C   UNL A   1      36.538  30.727  28.561  1.00  0.00     0.031 C 
ATOM     37  C   UNL A   1      43.290  29.395  30.993  1.00  0.00     0.029 A 
ATOM     38  C   UNL A   1      43.049  30.813  31.196  1.00  0.00     0.049 A 
ATOM     39  H   UNL A   1      41.234  31.813  30.743  1.00  0.00     0.167 HD
ATOM     40  C   UNL A   1      36.668  33.192  29.099  1.00  0.00     0.034 A 
ATOM     41  C   UNL A   1      43.879  31.782  31.723  1.00  0.00     0.034 A 
ATOM     42  C   UNL A   1      37.734  34.025  29.544  1.00  0.00     0.049 A 
ATOM     43  C   UNL A   1      42.981  32.911  31.954  1.00  0.00     0.074 A 
ATOM     44  C   UNL A   1      38.797  34.586  28.888  1.00  0.00     0.029 A 
ATOM     45  N   UNL A   1      37.992  33.940  30.895  1.00  0.00    -0.354 N 
ATOM     46  N   UNL A   1      42.098  32.941  32.904  1.00  0.00    -0.248 NA
ATOM     47  C   UNL A   1      43.025  34.060  31.045  1.00  0.00     0.031 C 
ATOM     48  C   UNL A   1      39.850  34.349  29.786  1.00  0.00     0.029 A 
ATOM     49  C   UNL A   1      39.345  33.982  31.043  1.00  0.00     0.049 A 
ATOM     50  H   UNL A   1      37.325  33.864  31.615  1.00  0.00     0.167 HD
ATOM     51  C   UNL A   1      41.232  33.885  32.430  1.00  0.00     0.074 A 
ATOM     52  C   UNL A   1      42.002  34.745  31.551  1.00  0.00     0.031 C 
ATOM     53  C   UNL A   1      39.926  33.532  32.278  1.00  0.00     0.034 A 
BRANCH  40  54
ATOM     54  C   UNL A   1      35.283  33.704  29.424  1.00  0.00     0.023 A 
ATOM     55  C   UNL A   1      34.493  34.046  28.285  1.00  0.00     0.012 A 
ATOM     56  C   UNL A   1      34.856  34.189  30.670  1.00  0.00     0.148 A 
ATOM     57  C   UNL A   1      33.443  34.957  28.348  1.00  0.00     0.002 A 
ATOM     58  C   UNL A   1      33.759  35.054  30.737  1.00  0.00     0.091 A 
ATOM     59  F   UNL A   1      35.549  33.883  31.771  1.00  0.00    -0.205 F 
ATOM     60  C   UNL A   1      33.088  35.476  29.578  1.00  0.00     0.022 A 
BRANCH  58  61
ATOM     61  S   UNL A   1      33.127  35.719  32.281  1.00  0.00     0.127 S 
ATOM     62  O   UNL A   1      32.130  36.679  31.812  1.00  0.00    -0.237 OA
ATOM     63  O   UNL A   1      32.565  34.522  32.910  1.00  0.00    -0.237 OA
ATOM     64  O   UNL A   1      34.280  36.271  32.978  1.00  0.00    -0.744 OA
ENDBRANCH  58  61
ENDBRANCH  40  54
BRANCH  41  65
ATOM     65  C   UNL A   1      45.322  32.075  32.128  1.00  0.00     0.023 A 
ATOM     66  C   UNL A   1      45.821  32.016  33.433  1.00  0.00     0.012 A 
ATOM     67  C   UNL A   1      46.315  32.255  31.098  1.00  0.00     0.148 A 
ATOM     68  C   UNL A   1      47.218  32.031  33.676  1.00  0.00     0.002 A 
ATOM     69  C   UNL A   1      47.679  32.112  31.325  1.00  0.00     0.091 A 
ATOM     70  F   UNL A   1      45.940  32.600  29.861  1.00  0.00    -0.205 F 
ATOM     71  C   UNL A   1      48.143  32.018  32.627  1.00  0.00     0.022 A 
BRANCH  69  72
ATOM     72  S   UNL A   1      48.850  31.857  29.967  1.00  0.00     0.127 S 
ATOM     73  O   UNL A   1      50.097  31.578  30.676  1.00  0.00    -0.237 OA
ATOM     74  O   UNL A   1      48.259  30.703  29.289  1.00  0.00    -0.237 OA
ATOM     75  O   UNL A   1      48.851  33.084  29.183  1.00  0.00    -0.744 OA
ENDBRANCH  69  72
ENDBRANCH  41  65
BRANCH  53  76
ATOM     76  C   UNL A   1      39.413  32.467  33.265  1.00  0.00     0.023 A 
ATOM     77  C   UNL A   1      39.102  31.203  32.709  1.00  0.00     0.012 A 
ATOM     78  C   UNL A   1      39.118  32.636  34.641  1.00  0.00     0.148 A 
ATOM     79  C   UNL A   1      38.497  30.182  33.446  1.00  0.00     0.002 A 
ATOM     80  C   UNL A   1      38.497  31.613  35.382  1.00  0.00     0.091 A 
ATOM     81  F   UNL A   1      39.438  33.788  35.230  1.00  0.00    -0.205 F 
ATOM     82  C   UNL A   1      38.188  30.387  34.781  1.00  0.00     0.022 A 
BRANCH  80  83
ATOM     83  S   UNL A   1      37.999  31.753  37.115  1.00  0.00     0.127 S 
ATOM     84  O   UNL A   1      39.262  32.083  37.783  1.00  0.00    -0.237 OA
ATOM     85  O   UNL A   1      37.042  32.857  37.077  1.00  0.00    -0.237 OA
ATOM     86  O   UNL A   1      37.444  30.461  37.490  1.00  0.00    -0.744 OA
ENDBRANCH  80  83
ENDBRANCH  53  76
ENDBRANCH  27  28
ENDBRANCH  20  22
ENDBRANCH  19  20
ENDBRANCH   1  19
TORSDOF 16
ENDMDL
MODEL 3
REMARK VINA RESULT:     -10.7      1.640      2.586
REMARK SMILES CCc1[nH]nc(-n2cccc2)c1C(=O)OCCOC(=O)c1ccc(-c2c3nc(c(-c4cccc(S(=O)(=O)[O-])c4F)c4ccc([nH]4)c(-c4cccc(S(=O)(=O)[O-])c4F)c4nc(c(-c5cccc(S(=O)(=O)[O-])c5F)c5ccc2[nH]5)C=C4)C=C3)cc1
REMARK SMILES IDX 17 1 16 2 15 3 13 4 14 5 12 6 3 7 4 8 5 9 6 11 2 12 1 13
REMARK SMILES IDX 7 14 8 15 11 16 9 17 10 18 18 19 19 20 20 21 21 22 22 23
REMARK SMILES IDX 83 24 23 25 82 26 24 27 25 28 26 29 76 30 27 31 81 32 75 33
REMARK SMILES IDX 77 34 28 35 80 36 74 37 73 38 29 40 61 41 41 42 60 43 42 44
REMARK SMILES IDX 45 45 59 46 78 47 43 48 44 49 58 51 79 52 46 53 30 54 31 55
REMARK SMILES IDX 39 56 32 57 34 58 40 59 33 60 35 61 36 62 37 63 38 64 62 65
REMARK SMILES IDX 63 66 71 67 64 68 66 69 72 70 65 71 67 72 68 73 69 74 70 75
REMARK SMILES IDX 47 76 48 77 56 78 49 79 51 80 57 81 50 82 52 83 53 84 54 85
REMARK SMILES IDX 55 86
REMARK H PARENT 4 10 77 39 45 50
REMARK Flexibility Score: inf
ROOT
ATOM      1  C   UNL A   1      36.050  32.063  27.924  1.00  0.00     0.275 C 
ENDROOT
BRANCH   1   2
ATOM      2  C   UNL A   1      36.807  33.000  28.873  1.00  0.00     0.275 C 
BRANCH   2   3
ATOM      3  O   UNL A   1      35.952  33.900  29.610  1.00  0.00    -0.458 OA
BRANCH   3   4
ATOM      4  C   UNL A   1      35.325  33.413  30.725  1.00  0.00     0.343 C 
ATOM      5  O   UNL A   1      34.374  32.639  30.676  1.00  0.00    -0.246 OA
BRANCH   4   6
ATOM      6  C   UNL A   1      35.910  33.876  31.984  1.00  0.00     0.125 A 
ATOM      7  C   UNL A   1      37.001  33.366  32.692  1.00  0.00     0.052 A 
ATOM      8  N   UNL A   1      37.090  34.114  33.839  1.00  0.00    -0.280 N 
ATOM      9  N   UNL A   1      36.111  35.007  33.990  1.00  0.00    -0.156 NA
ATOM     10  H   UNL A   1      37.814  34.001  34.496  1.00  0.00     0.190 HD
ATOM     11  C   UNL A   1      35.417  34.892  32.852  1.00  0.00     0.173 A 
BRANCH   7  12
ATOM     12  C   UNL A   1      37.969  32.257  32.423  1.00  0.00     0.053 C 
ATOM     13  C   UNL A   1      37.401  30.871  32.710  1.00  0.00     0.011 C 
ENDBRANCH   7  12
BRANCH  11  14
ATOM     14  N   UNL A   1      34.268  35.715  32.708  1.00  0.00    -0.306 N 
ATOM     15  C   UNL A   1      34.285  37.076  32.481  1.00  0.00     0.093 A 
ATOM     16  C   UNL A   1      32.954  35.297  32.666  1.00  0.00     0.093 A 
ATOM     17  C   UNL A   1      32.986  37.537  32.449  1.00  0.00     0.020 A 
ATOM     18  C   UNL A   1      32.144  36.403  32.511  1.00  0.00     0.020 A 
ENDBRANCH  11  14
ENDBRANCH   4   6
ENDBRANCH   3   4
ENDBRANCH   2   3
ENDBRANCH   1   2
BRANCH   1  19
ATOM     19  O   UNL A   1      35.805  30.769  28.481  1.00  0.00    -0.458 OA
BRANCH  19  20
ATOM     20  C   UNL A   1      36.396  29.789  27.767  1.00  0.00     0.338 C 
ATOM     21  O   UNL A   1      35.874  29.120  26.884  1.00  0.00    -0.246 OA
BRANCH  20  22
ATOM     22  C   UNL A   1      37.720  29.437  28.262  1.00  0.00     0.060 A 
ATOM     23  C   UNL A   1      38.734  29.443  27.299  1.00  0.00     0.016 A 
ATOM     24  C   UNL A   1      37.869  28.797  29.494  1.00  0.00     0.016 A 
ATOM     25  C   UNL A   1      39.866  28.690  27.514  1.00  0.00     0.010 A 
ATOM     26  C   UNL A   1      38.994  28.015  29.695  1.00  0.00     0.010 A 
ATOM     27  C   UNL A   1      39.971  27.945  28.694  1.00  0.00    -0.014 A 
BRANCH  27  28
ATOM     28  C   UNL A   1      41.270  27.299  28.940  1.00  0.00     0.031 A 
ATOM     29  C   UNL A   1      41.157  25.807  28.510  1.00  0.00     0.074 A 
ATOM     30  C   UNL A   1      42.234  28.067  29.554  1.00  0.00     0.049 A 
ATOM     31  N   UNL A   1      41.707  24.749  29.021  1.00  0.00    -0.248 NA
ATOM     32  C   UNL A   1      40.174  25.407  27.452  1.00  0.00     0.031 C 
ATOM     33  C   UNL A   1      42.128  29.522  29.841  1.00  0.00     0.029 A 
ATOM     34  N   UNL A   1      43.495  27.809  30.059  1.00  0.00    -0.354 N 
ATOM     35  C   UNL A   1      41.402  23.663  28.155  1.00  0.00     0.074 A 
ATOM     36  C   UNL A   1      40.301  24.081  27.356  1.00  0.00     0.031 C 
ATOM     37  C   UNL A   1      43.210  29.979  30.522  1.00  0.00     0.029 A 
ATOM     38  C   UNL A   1      44.157  28.895  30.717  1.00  0.00     0.049 A 
ATOM     39  H   UNL A   1      43.915  26.923  29.973  1.00  0.00     0.167 HD
ATOM     40  C   UNL A   1      42.240  22.594  27.997  1.00  0.00     0.034 A 
ATOM     41  C   UNL A   1      45.374  28.894  31.367  1.00  0.00     0.034 A 
ATOM     42  C   UNL A   1      43.381  22.803  28.823  1.00  0.00     0.049 A 
ATOM     43  C   UNL A   1      45.978  27.628  30.958  1.00  0.00     0.074 A 
ATOM     44  C   UNL A   1      43.542  22.814  30.183  1.00  0.00     0.029 A 
ATOM     45  N   UNL A   1      44.401  23.500  28.211  1.00  0.00    -0.354 N 
ATOM     46  N   UNL A   1      46.447  27.410  29.769  1.00  0.00    -0.248 NA
ATOM     47  C   UNL A   1      46.020  26.513  31.909  1.00  0.00     0.031 C 
ATOM     48  C   UNL A   1      44.361  23.939  30.370  1.00  0.00     0.029 A 
ATOM     49  C   UNL A   1      44.922  24.341  29.147  1.00  0.00     0.049 A 
ATOM     50  H   UNL A   1      44.697  23.406  27.277  1.00  0.00     0.167 HD
ATOM     51  C   UNL A   1      46.426  26.044  29.723  1.00  0.00     0.074 A 
ATOM     52  C   UNL A   1      46.521  25.585  31.096  1.00  0.00     0.031 C 
ATOM     53  C   UNL A   1      45.726  25.452  28.717  1.00  0.00     0.034 A 
BRANCH  40  54
ATOM     54  C   UNL A   1      42.398  21.506  26.959  1.00  0.00     0.023 A 
ATOM     55  C   UNL A   1      41.683  20.304  27.244  1.00  0.00     0.012 A 
ATOM     56  C   UNL A   1      43.407  21.438  25.985  1.00  0.00     0.148 A 
ATOM     57  C   UNL A   1      42.059  19.068  26.725  1.00  0.00     0.002 A 
ATOM     58  C   UNL A   1      43.739  20.203  25.418  1.00  0.00     0.091 A 
ATOM     59  F   UNL A   1      44.094  22.538  25.667  1.00  0.00    -0.205 F 
ATOM     60  C   UNL A   1      43.103  19.017  25.823  1.00  0.00     0.022 A 
BRANCH  58  61
ATOM     61  S   UNL A   1      45.004  20.010  24.158  1.00  0.00     0.127 S 
ATOM     62  O   UNL A   1      44.830  18.614  23.764  1.00  0.00    -0.237 OA
ATOM     63  O   UNL A   1      44.569  20.982  23.152  1.00  0.00    -0.237 OA
ATOM     64  O   UNL A   1      46.264  20.348  24.805  1.00  0.00    -0.744 OA
ENDBRANCH  58  61
ENDBRANCH  40  54
BRANCH  41  65
ATOM     65  C   UNL A   1      46.264  29.701  32.310  1.00  0.00     0.023 A 
ATOM     66  C   UNL A   1      47.625  29.956  32.113  1.00  0.00     0.012 A 
ATOM     67  C   UNL A   1      45.655  30.423  33.400  1.00  0.00     0.148 A 
ATOM     68  C   UNL A   1      48.298  30.937  32.885  1.00  0.00     0.002 A 
ATOM     69  C   UNL A   1      46.274  31.488  34.045  1.00  0.00     0.091 A 
ATOM     70  F   UNL A   1      44.450  30.059  33.852  1.00  0.00    -0.205 F 
ATOM     71  C   UNL A   1      47.615  31.741  33.803  1.00  0.00     0.022 A 
BRANCH  69  72
ATOM     72  S   UNL A   1      45.337  32.670  35.048  1.00  0.00     0.127 S 
ATOM     73  O   UNL A   1      45.015  31.886  36.239  1.00  0.00    -0.237 OA
ATOM     74  O   UNL A   1      46.330  33.723  35.257  1.00  0.00    -0.237 OA
ATOM     75  O   UNL A   1      44.187  33.073  34.249  1.00  0.00    -0.744 OA
ENDBRANCH  69  72
ENDBRANCH  41  65
BRANCH  53  76
ATOM     76  C   UNL A   1      45.659  26.251  27.402  1.00  0.00     0.023 A 
ATOM     77  C   UNL A   1      44.373  26.689  27.007  1.00  0.00     0.012 A 
ATOM     78  C   UNL A   1      46.716  26.506  26.492  1.00  0.00     0.148 A 
ATOM     79  C   UNL A   1      44.130  27.301  25.773  1.00  0.00     0.002 A 
ATOM     80  C   UNL A   1      46.470  27.112  25.246  1.00  0.00     0.091 A 
ATOM     81  F   UNL A   1      47.957  26.162  26.836  1.00  0.00    -0.205 F 
ATOM     82  C   UNL A   1      45.176  27.508  24.890  1.00  0.00     0.022 A 
BRANCH  80  83
ATOM     83  S   UNL A   1      47.728  27.406  23.978  1.00  0.00     0.127 S 
ATOM     84  O   UNL A   1      46.992  28.180  22.974  1.00  0.00    -0.237 OA
ATOM     85  O   UNL A   1      48.730  28.180  24.707  1.00  0.00    -0.237 OA
ATOM     86  O   UNL A   1      48.165  26.095  23.521  1.00  0.00    -0.744 OA
ENDBRANCH  80  83
ENDBRANCH  53  76
ENDBRANCH  27  28
ENDBRANCH  20  22
ENDBRANCH  19  20
ENDBRANCH   1  19
TORSDOF 16
ENDMDL
