MODEL 1
REMARK VINA RESULT:     -12.8      0.000      0.000
REMARK SMILES Nc1ccc(-c2cc(Cl)cc3c2O[C@H](C(F)(F)F)C(C(=O)OCCOC(=O)c2ccc(-c4c5nc(c(-c6cccc(S(=O)(=O)[O-])c6F)c6ccc([nH]6)c(-c6cccc(S(=O)(=O)[O-])c6F)c6nc(c(-c7cccc(S(=O)(=O)[O-])c7F)c7ccc4[nH]7)C=C6)C=C5)cc2)=C3)cc1
REMARK SMILES IDX 24 1 23 2 22 3 20 4 21 5 19 6 6 7 7 8 12 9 8 10 11 11 13 12
REMARK SMILES IDX 9 13 10 14 91 15 14 16 5 17 2 18 3 19 93 20 4 21 92 22 1 23
REMARK SMILES IDX 15 26 16 27 17 28 18 29 25 30 26 31 27 32 28 33 29 34 90 35
REMARK SMILES IDX 30 36 89 37 31 38 32 39 33 40 83 41 34 42 88 43 82 44 84 45
REMARK SMILES IDX 35 46 87 47 81 48 80 49 36 51 68 52 48 53 67 54 49 55 52 56
REMARK SMILES IDX 66 57 85 58 50 59 51 60 65 62 86 63 53 64 37 65 38 66 46 67
REMARK SMILES IDX 39 68 41 69 47 70 40 71 42 72 43 73 44 74 45 75 69 76 70 77
REMARK SMILES IDX 78 78 71 79 73 80 79 81 72 82 74 83 75 84 76 85 77 86 54 87
REMARK SMILES IDX 55 88 63 89 56 90 58 91 64 92 57 93 59 94 60 95 61 96 62 97
REMARK H PARENT 1 24 1 25 84 50 52 61
REMARK Flexibility Score: inf
ROOT
ATOM      1  C   UNL A   1      36.084  20.648  25.023  1.00  0.00     0.275 C 
ENDROOT
BRANCH   1   2
ATOM      2  C   UNL A   1      34.616  20.820  25.415  1.00  0.00     0.275 C 
BRANCH   2   3
ATOM      3  O   UNL A   1      34.199  22.198  25.304  1.00  0.00    -0.459 OA
BRANCH   3   4
ATOM      4  C   UNL A   1      33.751  22.580  24.084  1.00  0.00     0.338 C 
ATOM      5  O   UNL A   1      33.640  21.873  23.096  1.00  0.00    -0.246 OA
BRANCH   4   6
ATOM      6  C   UNL A   1      33.378  24.009  24.098  1.00  0.00     0.087 C 
ATOM      7  C   UNL A   1      32.017  27.966  24.404  1.00  0.00     0.026 A 
ATOM      8  C   UNL A   1      32.606  28.803  25.369  1.00  0.00     0.033 A 
ATOM      9  C   UNL A   1      32.511  26.654  24.255  1.00  0.00     0.135 A 
ATOM     10  C   UNL A   1      33.657  28.347  26.161  1.00  0.00     0.042 A 
ATOM     11  C   UNL A   1      33.537  26.195  25.081  1.00  0.00     0.019 A 
ATOM     12  O   UNL A   1      31.973  25.882  23.257  1.00  0.00    -0.475 OA
ATOM     13  Cl  UNL A   1      34.361  29.391  27.330  1.00  0.00    -0.084 Cl
ATOM     14  C   UNL A   1      34.124  27.046  26.024  1.00  0.00     0.032 A 
ATOM     15  C   UNL A   1      33.969  24.815  24.986  1.00  0.00     0.027 C 
ATOM     16  C   UNL A   1      32.261  24.462  23.207  1.00  0.00     0.316 C 
BRANCH   7  17
ATOM     17  C   UNL A   1      30.888  28.456  23.601  1.00  0.00    -0.014 A 
ATOM     18  C   UNL A   1      28.720  29.451  22.082  1.00  0.00     0.031 A 
ATOM     19  C   UNL A   1      30.017  29.903  21.845  1.00  0.00     0.026 A 
ATOM     20  C   UNL A   1      28.509  28.521  23.102  1.00  0.00     0.026 A 
ATOM     21  C   UNL A   1      31.092  29.398  22.581  1.00  0.00     0.011 A 
ATOM     22  C   UNL A   1      29.581  28.018  23.846  1.00  0.00     0.011 A 
BRANCH  18  23
ATOM     23  N   UNL A   1      27.647  30.015  21.411  1.00  0.00    -0.399 N 
ATOM     24  H   UNL A   1      26.761  30.048  21.839  1.00  0.00     0.156 HD
ATOM     25  H   UNL A   1      27.770  30.384  20.507  1.00  0.00     0.156 HD
ENDBRANCH  18  23
ENDBRANCH   7  17
BRANCH  16  26
ATOM     26  C   UNL A   1      30.965  23.689  23.500  1.00  0.00     0.430 C 
ATOM     27  F   UNL A   1      30.866  23.365  24.812  1.00  0.00    -0.167 F 
ATOM     28  F   UNL A   1      29.866  24.425  23.204  1.00  0.00    -0.167 F 
ATOM     29  F   UNL A   1      30.883  22.538  22.795  1.00  0.00    -0.167 F 
ENDBRANCH  16  26
ENDBRANCH   4   6
ENDBRANCH   3   4
ENDBRANCH   2   3
ENDBRANCH   1   2
BRANCH   1  30
ATOM     30  O   UNL A   1      36.886  21.682  25.621  1.00  0.00    -0.458 OA
BRANCH  30  31
ATOM     31  C   UNL A   1      38.191  21.374  25.793  1.00  0.00     0.338 C 
ATOM     32  O   UNL A   1      38.771  20.368  25.426  1.00  0.00    -0.246 OA
BRANCH  31  33
ATOM     33  C   UNL A   1      38.874  22.514  26.419  1.00  0.00     0.060 A 
ATOM     34  C   UNL A   1      40.049  22.360  27.142  1.00  0.00     0.016 A 
ATOM     35  C   UNL A   1      38.385  23.786  26.154  1.00  0.00     0.016 A 
ATOM     36  C   UNL A   1      40.709  23.503  27.613  1.00  0.00     0.010 A 
ATOM     37  C   UNL A   1      39.126  24.915  26.475  1.00  0.00     0.010 A 
ATOM     38  C   UNL A   1      40.277  24.798  27.257  1.00  0.00    -0.014 A 
BRANCH  38  39
ATOM     39  C   UNL A   1      41.003  26.022  27.704  1.00  0.00     0.031 A 
ATOM     40  C   UNL A   1      42.421  26.303  27.250  1.00  0.00     0.074 A 
ATOM     41  C   UNL A   1      40.406  26.873  28.566  1.00  0.00     0.049 A 
ATOM     42  N   UNL A   1      43.183  27.333  27.527  1.00  0.00    -0.248 NA
ATOM     43  C   UNL A   1      43.093  25.289  26.416  1.00  0.00     0.031 C 
ATOM     44  C   UNL A   1      39.099  26.661  29.195  1.00  0.00     0.029 A 
ATOM     45  N   UNL A   1      40.811  28.091  29.054  1.00  0.00    -0.354 N 
ATOM     46  C   UNL A   1      44.419  27.064  26.950  1.00  0.00     0.074 A 
ATOM     47  C   UNL A   1      44.332  25.755  26.350  1.00  0.00     0.031 C 
ATOM     48  C   UNL A   1      38.779  27.743  29.922  1.00  0.00     0.029 A 
ATOM     49  C   UNL A   1      39.867  28.711  29.838  1.00  0.00     0.049 A 
ATOM     50  H   UNL A   1      41.693  28.483  28.860  1.00  0.00     0.167 HD
ATOM     51  C   UNL A   1      45.515  27.855  26.870  1.00  0.00     0.034 A 
ATOM     52  C   UNL A   1      39.860  29.934  30.406  1.00  0.00     0.034 A 
ATOM     53  C   UNL A   1      45.568  29.202  27.361  1.00  0.00     0.049 A 
ATOM     54  C   UNL A   1      41.035  30.846  30.199  1.00  0.00     0.074 A 
ATOM     55  C   UNL A   1      46.584  30.129  27.215  1.00  0.00     0.029 A 
ATOM     56  N   UNL A   1      44.554  29.821  28.073  1.00  0.00    -0.354 N 
ATOM     57  N   UNL A   1      42.134  30.623  29.520  1.00  0.00    -0.248 NA
ATOM     58  C   UNL A   1      40.961  32.183  30.806  1.00  0.00     0.031 C 
ATOM     59  C   UNL A   1      46.183  31.313  27.839  1.00  0.00     0.029 A 
ATOM     60  C   UNL A   1      44.916  31.121  28.367  1.00  0.00     0.049 A 
ATOM     61  H   UNL A   1      43.704  29.397  28.331  1.00  0.00     0.167 HD
ATOM     62  C   UNL A   1      42.877  31.794  29.605  1.00  0.00     0.074 A 
ATOM     63  C   UNL A   1      42.095  32.731  30.384  1.00  0.00     0.031 C 
ATOM     64  C   UNL A   1      44.104  32.058  29.099  1.00  0.00     0.034 A 
BRANCH  51  65
ATOM     65  C   UNL A   1      46.717  27.335  26.124  1.00  0.00     0.023 A 
ATOM     66  C   UNL A   1      46.813  27.569  24.738  1.00  0.00     0.012 A 
ATOM     67  C   UNL A   1      47.785  26.713  26.799  1.00  0.00     0.148 A 
ATOM     68  C   UNL A   1      47.946  27.175  24.027  1.00  0.00     0.002 A 
ATOM     69  C   UNL A   1      48.927  26.355  26.090  1.00  0.00     0.091 A 
ATOM     70  F   UNL A   1      47.668  26.495  28.116  1.00  0.00    -0.205 F 
ATOM     71  C   UNL A   1      49.006  26.579  24.705  1.00  0.00     0.022 A 
BRANCH  69  72
ATOM     72  S   UNL A   1      50.378  25.637  26.869  1.00  0.00     0.127 S 
ATOM     73  O   UNL A   1      51.279  25.477  25.727  1.00  0.00    -0.237 OA
ATOM     74  O   UNL A   1      50.767  26.686  27.811  1.00  0.00    -0.237 OA
ATOM     75  O   UNL A   1      49.934  24.394  27.484  1.00  0.00    -0.744 OA
ENDBRANCH  69  72
ENDBRANCH  51  65
BRANCH  52  76
ATOM     76  C   UNL A   1      38.639  30.394  31.124  1.00  0.00     0.023 A 
ATOM     77  C   UNL A   1      38.546  30.186  32.514  1.00  0.00     0.012 A 
ATOM     78  C   UNL A   1      37.624  31.111  30.463  1.00  0.00     0.148 A 
ATOM     79  C   UNL A   1      37.459  30.679  33.235  1.00  0.00     0.002 A 
ATOM     80  C   UNL A   1      36.563  31.635  31.193  1.00  0.00     0.091 A 
ATOM     81  F   UNL A   1      37.739  31.295  29.141  1.00  0.00    -0.205 F 
ATOM     82  C   UNL A   1      36.473  31.412  32.577  1.00  0.00     0.022 A 
BRANCH  80  83
ATOM     83  S   UNL A   1      35.302  32.682  30.459  1.00  0.00     0.127 S 
ATOM     84  O   UNL A   1      34.365  32.843  31.569  1.00  0.00    -0.237 OA
ATOM     85  O   UNL A   1      36.071  33.881  30.122  1.00  0.00    -0.237 OA
ATOM     86  O   UNL A   1      34.793  31.946  29.311  1.00  0.00    -0.744 OA
ENDBRANCH  80  83
ENDBRANCH  52  76
BRANCH  64  87
ATOM     87  C   UNL A   1      44.699  33.414  29.349  1.00  0.00     0.023 A 
ATOM     88  C   UNL A   1      45.472  33.620  30.507  1.00  0.00     0.012 A 
ATOM     89  C   UNL A   1      44.616  34.425  28.372  1.00  0.00     0.148 A 
ATOM     90  C   UNL A   1      46.153  34.821  30.693  1.00  0.00     0.002 A 
ATOM     91  C   UNL A   1      45.325  35.606  28.548  1.00  0.00     0.091 A 
ATOM     92  F   UNL A   1      43.867  34.199  27.283  1.00  0.00    -0.205 F 
ATOM     93  C   UNL A   1      46.091  35.807  29.709  1.00  0.00     0.022 A 
BRANCH  91  94
ATOM     94  S   UNL A   1      45.372  36.901  27.305  1.00  0.00     0.127 S 
ATOM     95  O   UNL A   1      46.156  37.933  27.982  1.00  0.00    -0.237 OA
ATOM     96  O   UNL A   1      46.060  36.240  26.196  1.00  0.00    -0.237 OA
ATOM     97  O   UNL A   1      43.985  37.256  27.037  1.00  0.00    -0.744 OA
ENDBRANCH  91  94
ENDBRANCH  64  87
ENDBRANCH  38  39
ENDBRANCH  31  33
ENDBRANCH  30  31
ENDBRANCH   1  30
TORSDOF 17
ENDMDL
MODEL 2
REMARK VINA RESULT:     -12.8      6.042     12.005
REMARK SMILES Nc1ccc(-c2cc(Cl)cc3c2O[C@H](C(F)(F)F)C(C(=O)OCCOC(=O)c2ccc(-c4c5nc(c(-c6cccc(S(=O)(=O)[O-])c6F)c6ccc([nH]6)c(-c6cccc(S(=O)(=O)[O-])c6F)c6nc(c(-c7cccc(S(=O)(=O)[O-])c7F)c7ccc4[nH]7)C=C6)C=C5)cc2)=C3)cc1
REMARK SMILES IDX 24 1 23 2 22 3 20 4 21 5 19 6 6 7 7 8 12 9 8 10 11 11 13 12
REMARK SMILES IDX 9 13 10 14 91 15 14 16 5 17 2 18 3 19 93 20 4 21 92 22 1 23
REMARK SMILES IDX 15 26 16 27 17 28 18 29 25 30 26 31 27 32 28 33 29 34 90 35
REMARK SMILES IDX 30 36 89 37 31 38 32 39 33 40 83 41 34 42 88 43 82 44 84 45
REMARK SMILES IDX 35 46 87 47 81 48 80 49 36 51 68 52 48 53 67 54 49 55 52 56
REMARK SMILES IDX 66 57 85 58 50 59 51 60 65 62 86 63 53 64 37 65 38 66 46 67
REMARK SMILES IDX 39 68 41 69 47 70 40 71 42 72 43 73 44 74 45 75 69 76 70 77
REMARK SMILES IDX 78 78 71 79 73 80 79 81 72 82 74 83 75 84 76 85 77 86 54 87
REMARK SMILES IDX 55 88 63 89 56 90 58 91 64 92 57 93 59 94 60 95 61 96 62 97
REMARK H PARENT 1 24 1 25 84 50 52 61
REMARK Flexibility Score: inf
ROOT
ATOM      1  C   UNL A   1      33.885  33.756  28.139  1.00  0.00     0.275 C 
ENDROOT
BRANCH   1   2
ATOM      2  C   UNL A   1      34.588  34.884  28.896  1.00  0.00     0.275 C 
BRANCH   2   3
ATOM      3  O   UNL A   1      34.293  34.833  30.309  1.00  0.00    -0.459 OA
BRANCH   3   4
ATOM      4  C   UNL A   1      34.799  33.768  30.977  1.00  0.00     0.338 C 
ATOM      5  O   UNL A   1      34.326  32.645  31.020  1.00  0.00    -0.246 OA
BRANCH   4   6
ATOM      6  C   UNL A   1      36.054  34.140  31.660  1.00  0.00     0.087 C 
ATOM      7  C   UNL A   1      39.649  34.797  33.722  1.00  0.00     0.026 A 
ATOM      8  C   UNL A   1      40.858  34.681  33.013  1.00  0.00     0.033 A 
ATOM      9  C   UNL A   1      38.436  34.637  33.022  1.00  0.00     0.135 A 
ATOM     10  C   UNL A   1      40.859  34.415  31.646  1.00  0.00     0.042 A 
ATOM     11  C   UNL A   1      38.449  34.331  31.661  1.00  0.00     0.019 A 
ATOM     12  O   UNL A   1      37.270  34.830  33.718  1.00  0.00    -0.475 OA
ATOM     13  Cl  UNL A   1      42.350  34.281  30.802  1.00  0.00    -0.084 Cl
ATOM     14  C   UNL A   1      39.660  34.236  30.966  1.00  0.00     0.032 A 
ATOM     15  C   UNL A   1      37.200  34.071  30.973  1.00  0.00     0.027 C 
ATOM     16  C   UNL A   1      36.002  34.448  33.126  1.00  0.00     0.316 C 
BRANCH   7  17
ATOM     17  C   UNL A   1      39.671  35.047  35.170  1.00  0.00    -0.014 A 
ATOM     18  C   UNL A   1      39.655  35.544  37.954  1.00  0.00     0.031 A 
ATOM     19  C   UNL A   1      38.979  34.445  37.428  1.00  0.00     0.026 A 
ATOM     20  C   UNL A   1      40.314  36.410  37.079  1.00  0.00     0.026 A 
ATOM     21  C   UNL A   1      39.002  34.187  36.055  1.00  0.00     0.011 A 
ATOM     22  C   UNL A   1      40.334  36.159  35.703  1.00  0.00     0.011 A 
BRANCH  18  23
ATOM     23  N   UNL A   1      39.560  35.846  39.303  1.00  0.00    -0.399 N 
ATOM     24  H   UNL A   1      40.344  36.195  39.786  1.00  0.00     0.156 HD
ATOM     25  H   UNL A   1      38.709  35.713  39.778  1.00  0.00     0.156 HD
ENDBRANCH  18  23
ENDBRANCH   7  17
BRANCH  16  26
ATOM     26  C   UNL A   1      35.425  33.269  33.924  1.00  0.00     0.430 C 
ATOM     27  F   UNL A   1      35.755  33.347  35.236  1.00  0.00    -0.167 F 
ATOM     28  F   UNL A   1      34.071  33.244  33.873  1.00  0.00    -0.167 F 
ATOM     29  F   UNL A   1      35.869  32.075  33.469  1.00  0.00    -0.167 F 
ENDBRANCH  16  26
ENDBRANCH   4   6
ENDBRANCH   3   4
ENDBRANCH   2   3
ENDBRANCH   1   2
BRANCH   1  30
ATOM     30  O   UNL A   1      34.851  32.863  27.560  1.00  0.00    -0.458 OA
BRANCH  30  31
ATOM     31  C   UNL A   1      34.638  31.549  27.794  1.00  0.00     0.338 C 
ATOM     32  O   UNL A   1      33.681  30.878  27.448  1.00  0.00    -0.246 OA
BRANCH  31  33
ATOM     33  C   UNL A   1      35.817  30.983  28.465  1.00  0.00     0.060 A 
ATOM     34  C   UNL A   1      35.785  29.742  29.085  1.00  0.00     0.016 A 
ATOM     35  C   UNL A   1      37.019  31.668  28.345  1.00  0.00     0.016 A 
ATOM     36  C   UNL A   1      36.975  29.213  29.603  1.00  0.00     0.010 A 
ATOM     37  C   UNL A   1      38.218  31.069  28.707  1.00  0.00     0.010 A 
ATOM     38  C   UNL A   1      38.215  29.853  29.390  1.00  0.00    -0.014 A 
BRANCH  38  39
ATOM     39  C   UNL A   1      39.496  29.271  29.887  1.00  0.00     0.031 A 
ATOM     40  C   UNL A   1      40.144  29.774  31.161  1.00  0.00     0.074 A 
ATOM     41  C   UNL A   1      40.115  28.312  29.166  1.00  0.00     0.049 A 
ATOM     42  N   UNL A   1      41.242  29.359  31.742  1.00  0.00    -0.248 NA
ATOM     43  C   UNL A   1      39.513  30.912  31.854  1.00  0.00     0.031 C 
ATOM     44  C   UNL A   1      39.681  27.827  27.853  1.00  0.00     0.029 A 
ATOM     45  N   UNL A   1      41.233  27.563  29.439  1.00  0.00    -0.354 N 
ATOM     46  C   UNL A   1      41.453  30.209  32.822  1.00  0.00     0.074 A 
ATOM     47  C   UNL A   1      40.402  31.198  32.794  1.00  0.00     0.031 C 
ATOM     48  C   UNL A   1      40.476  26.815  27.471  1.00  0.00     0.029 A 
ATOM     49  C   UNL A   1      41.494  26.598  28.493  1.00  0.00     0.049 A 
ATOM     50  H   UNL A   1      41.795  27.703  30.234  1.00  0.00     0.167 HD
ATOM     51  C   UNL A   1      42.397  30.144  33.790  1.00  0.00     0.034 A 
ATOM     52  C   UNL A   1      42.428  25.628  28.460  1.00  0.00     0.034 A 
ATOM     53  C   UNL A   1      43.371  29.095  33.889  1.00  0.00     0.049 A 
ATOM     54  C   UNL A   1      43.388  25.494  29.608  1.00  0.00     0.074 A 
ATOM     55  C   UNL A   1      44.286  28.868  34.901  1.00  0.00     0.029 A 
ATOM     56  N   UNL A   1      43.540  28.088  32.955  1.00  0.00    -0.354 N 
ATOM     57  N   UNL A   1      43.470  26.222  30.695  1.00  0.00    -0.248 NA
ATOM     58  C   UNL A   1      44.361  24.394  29.543  1.00  0.00     0.031 C 
ATOM     59  C   UNL A   1      45.011  27.717  34.579  1.00  0.00     0.029 A 
ATOM     60  C   UNL A   1      44.541  27.229  33.369  1.00  0.00     0.049 A 
ATOM     61  H   UNL A   1      43.026  27.997  32.121  1.00  0.00     0.167 HD
ATOM     62  C   UNL A   1      44.492  25.662  31.451  1.00  0.00     0.074 A 
ATOM     63  C   UNL A   1      44.987  24.521  30.707  1.00  0.00     0.031 C 
ATOM     64  C   UNL A   1      44.987  26.070  32.643  1.00  0.00     0.034 A 
BRANCH  51  65
ATOM     65  C   UNL A   1      42.358  31.170  34.894  1.00  0.00     0.023 A 
ATOM     66  C   UNL A   1      41.652  30.873  36.077  1.00  0.00     0.012 A 
ATOM     67  C   UNL A   1      43.094  32.367  34.807  1.00  0.00     0.148 A 
ATOM     68  C   UNL A   1      41.660  31.761  37.151  1.00  0.00     0.002 A 
ATOM     69  C   UNL A   1      43.126  33.232  35.896  1.00  0.00     0.091 A 
ATOM     70  F   UNL A   1      43.752  32.631  33.670  1.00  0.00    -0.205 F 
ATOM     71  C   UNL A   1      42.405  32.933  37.064  1.00  0.00     0.022 A 
BRANCH  69  72
ATOM     72  S   UNL A   1      44.102  34.740  35.920  1.00  0.00     0.127 S 
ATOM     73  O   UNL A   1      43.836  35.243  37.268  1.00  0.00    -0.237 OA
ATOM     74  O   UNL A   1      45.457  34.229  35.716  1.00  0.00    -0.237 OA
ATOM     75  O   UNL A   1      43.590  35.571  34.840  1.00  0.00    -0.744 OA
ENDBRANCH  69  72
ENDBRANCH  51  65
BRANCH  52  76
ATOM     76  C   UNL A   1      42.409  24.639  27.347  1.00  0.00     0.023 A 
ATOM     77  C   UNL A   1      43.292  24.815  26.264  1.00  0.00     0.012 A 
ATOM     78  C   UNL A   1      41.599  23.489  27.399  1.00  0.00     0.148 A 
ATOM     79  C   UNL A   1      43.365  23.865  25.245  1.00  0.00     0.002 A 
ATOM     80  C   UNL A   1      41.705  22.526  26.401  1.00  0.00     0.091 A 
ATOM     81  F   UNL A   1      40.769  23.346  28.441  1.00  0.00    -0.205 F 
ATOM     82  C   UNL A   1      42.580  22.716  25.319  1.00  0.00     0.022 A 
BRANCH  80  83
ATOM     83  S   UNL A   1      40.819  20.965  26.460  1.00  0.00     0.127 S 
ATOM     84  O   UNL A   1      41.667  20.109  25.633  1.00  0.00    -0.237 OA
ATOM     85  O   UNL A   1      40.846  20.662  27.891  1.00  0.00    -0.237 OA
ATOM     86  O   UNL A   1      39.493  21.240  25.923  1.00  0.00    -0.744 OA
ENDBRANCH  80  83
ENDBRANCH  52  76
BRANCH  64  87
ATOM     87  C   UNL A   1      46.118  25.289  33.247  1.00  0.00     0.023 A 
ATOM     88  C   UNL A   1      47.435  25.763  33.096  1.00  0.00     0.012 A 
ATOM     89  C   UNL A   1      45.862  24.184  34.081  1.00  0.00     0.148 A 
ATOM     90  C   UNL A   1      48.487  25.141  33.765  1.00  0.00     0.002 A 
ATOM     91  C   UNL A   1      46.911  23.590  34.771  1.00  0.00     0.091 A 
ATOM     92  F   UNL A   1      44.598  23.753  34.200  1.00  0.00    -0.205 F 
ATOM     93  C   UNL A   1      48.224  24.065  34.612  1.00  0.00     0.022 A 
BRANCH  91  94
ATOM     94  S   UNL A   1      46.664  22.252  35.943  1.00  0.00     0.127 S 
ATOM     95  O   UNL A   1      46.518  21.101  35.053  1.00  0.00    -0.237 OA
ATOM     96  O   UNL A   1      47.911  22.277  36.708  1.00  0.00    -0.237 OA
ATOM     97  O   UNL A   1      45.474  22.598  36.707  1.00  0.00    -0.744 OA
ENDBRANCH  91  94
ENDBRANCH  64  87
ENDBRANCH  38  39
ENDBRANCH  31  33
ENDBRANCH  30  31
ENDBRANCH   1  30
TORSDOF 17
ENDMDL
MODEL 3
REMARK VINA RESULT:     -12.6      4.805      9.904
REMARK SMILES Nc1ccc(-c2cc(Cl)cc3c2O[C@H](C(F)(F)F)C(C(=O)OCCOC(=O)c2ccc(-c4c5nc(c(-c6cccc(S(=O)(=O)[O-])c6F)c6ccc([nH]6)c(-c6cccc(S(=O)(=O)[O-])c6F)c6nc(c(-c7cccc(S(=O)(=O)[O-])c7F)c7ccc4[nH]7)C=C6)C=C5)cc2)=C3)cc1
REMARK SMILES IDX 24 1 23 2 22 3 20 4 21 5 19 6 6 7 7 8 12 9 8 10 11 11 13 12
REMARK SMILES IDX 9 13 10 14 91 15 14 16 5 17 2 18 3 19 93 20 4 21 92 22 1 23
REMARK SMILES IDX 15 26 16 27 17 28 18 29 25 30 26 31 27 32 28 33 29 34 90 35
REMARK SMILES IDX 30 36 89 37 31 38 32 39 33 40 83 41 34 42 88 43 82 44 84 45
REMARK SMILES IDX 35 46 87 47 81 48 80 49 36 51 68 52 48 53 67 54 49 55 52 56
REMARK SMILES IDX 66 57 85 58 50 59 51 60 65 62 86 63 53 64 37 65 38 66 46 67
REMARK SMILES IDX 39 68 41 69 47 70 40 71 42 72 43 73 44 74 45 75 69 76 70 77
REMARK SMILES IDX 78 78 71 79 73 80 79 81 72 82 74 83 75 84 76 85 77 86 54 87
REMARK SMILES IDX 55 88 63 89 56 90 58 91 64 92 57 93 59 94 60 95 61 96 62 97
REMARK H PARENT 1 24 1 25 84 50 52 61
REMARK Flexibility Score: inf
ROOT
ATOM      1  C   UNL A   1      31.750  30.059  25.659  1.00  0.00     0.275 C 
ENDROOT
BRANCH   1   2
ATOM      2  C   UNL A   1      32.376  28.806  25.046  1.00  0.00     0.275 C 
BRANCH   2   3
ATOM      3  O   UNL A   1      31.414  27.734  24.945  1.00  0.00    -0.459 OA
BRANCH   3   4
ATOM      4  C   UNL A   1      31.316  26.928  26.030  1.00  0.00     0.338 C 
ATOM      5  O   UNL A   1      30.675  27.149  27.045  1.00  0.00    -0.246 OA
BRANCH   4   6
ATOM      6  C   UNL A   1      32.093  25.690  25.823  1.00  0.00     0.087 C 
ATOM      7  C   UNL A   1      34.342  22.288  24.836  1.00  0.00     0.026 A 
ATOM      8  C   UNL A   1      35.738  22.337  25.006  1.00  0.00     0.033 A 
ATOM      9  C   UNL A   1      33.575  23.406  25.223  1.00  0.00     0.135 A 
ATOM     10  C   UNL A   1      36.351  23.465  25.544  1.00  0.00     0.042 A 
ATOM     11  C   UNL A   1      34.203  24.546  25.725  1.00  0.00     0.019 A 
ATOM     12  O   UNL A   1      32.211  23.306  25.120  1.00  0.00    -0.475 OA
ATOM     13  Cl  UNL A   1      38.057  23.498  25.743  1.00  0.00    -0.084 Cl
ATOM     14  C   UNL A   1      35.591  24.572  25.902  1.00  0.00     0.032 A 
ATOM     15  C   UNL A   1      33.414  25.724  26.025  1.00  0.00     0.027 C 
ATOM     16  C   UNL A   1      31.386  24.490  25.269  1.00  0.00     0.316 C 
BRANCH   7  17
ATOM     17  C   UNL A   1      33.718  21.100  24.236  1.00  0.00    -0.014 A 
ATOM     18  C   UNL A   1      32.467  18.827  23.111  1.00  0.00     0.031 A 
ATOM     19  C   UNL A   1      32.108  20.110  22.699  1.00  0.00     0.026 A 
ATOM     20  C   UNL A   1      33.434  18.689  24.109  1.00  0.00     0.026 A 
ATOM     21  C   UNL A   1      32.738  21.233  23.240  1.00  0.00     0.011 A 
ATOM     22  C   UNL A   1      34.063  19.811  24.658  1.00  0.00     0.011 A 
BRANCH  18  23
ATOM     23  N   UNL A   1      31.781  17.721  22.637  1.00  0.00    -0.399 N 
ATOM     24  H   UNL A   1      31.501  17.011  23.259  1.00  0.00     0.156 HD
ATOM     25  H   UNL A   1      31.573  17.644  21.678  1.00  0.00     0.156 HD
ENDBRANCH  18  23
ENDBRANCH   7  17
BRANCH  16  26
ATOM     26  C   UNL A   1      30.731  24.804  23.914  1.00  0.00     0.430 C 
ATOM     27  F   UNL A   1      29.620  25.565  24.064  1.00  0.00    -0.167 F 
ATOM     28  F   UNL A   1      31.565  25.502  23.105  1.00  0.00    -0.167 F 
ATOM     29  F   UNL A   1      30.365  23.685  23.249  1.00  0.00    -0.167 F 
ENDBRANCH  16  26
ENDBRANCH   4   6
ENDBRANCH   3   4
ENDBRANCH   2   3
ENDBRANCH   1   2
BRANCH   1  30
ATOM     30  O   UNL A   1      32.283  30.294  26.974  1.00  0.00    -0.458 OA
BRANCH  30  31
ATOM     31  C   UNL A   1      32.927  31.471  27.136  1.00  0.00     0.338 C 
ATOM     32  O   UNL A   1      32.479  32.592  26.969  1.00  0.00    -0.246 OA
BRANCH  31  33
ATOM     33  C   UNL A   1      34.274  31.213  27.665  1.00  0.00     0.060 A 
ATOM     34  C   UNL A   1      35.142  32.244  27.999  1.00  0.00     0.016 A 
ATOM     35  C   UNL A   1      34.614  29.898  27.954  1.00  0.00     0.016 A 
ATOM     36  C   UNL A   1      36.365  31.928  28.606  1.00  0.00     0.010 A 
ATOM     37  C   UNL A   1      35.745  29.604  28.703  1.00  0.00     0.010 A 
ATOM     38  C   UNL A   1      36.669  30.607  28.999  1.00  0.00    -0.014 A 
BRANCH  38  39
ATOM     39  C   UNL A   1      37.943  30.267  29.698  1.00  0.00     0.031 A 
ATOM     40  C   UNL A   1      38.210  30.732  31.114  1.00  0.00     0.074 A 
ATOM     41  C   UNL A   1      38.895  29.570  29.042  1.00  0.00     0.049 A 
ATOM     42  N   UNL A   1      39.253  30.501  31.872  1.00  0.00    -0.248 NA
ATOM     43  C   UNL A   1      37.207  31.603  31.756  1.00  0.00     0.031 C 
ATOM     44  C   UNL A   1      38.836  29.175  27.631  1.00  0.00     0.029 A 
ATOM     45  N   UNL A   1      40.095  29.060  29.474  1.00  0.00    -0.354 N 
ATOM     46  C   UNL A   1      39.053  31.229  33.039  1.00  0.00     0.074 A 
ATOM     47  C   UNL A   1      37.816  31.955  32.878  1.00  0.00     0.031 C 
ATOM     48  C   UNL A   1      39.908  28.423  27.338  1.00  0.00     0.029 A 
ATOM     49  C   UNL A   1      40.748  28.308  28.525  1.00  0.00     0.049 A 
ATOM     50  H   UNL A   1      40.454  29.218  30.377  1.00  0.00     0.167 HD
ATOM     51  C   UNL A   1      39.795  31.253  34.170  1.00  0.00     0.034 A 
ATOM     52  C   UNL A   1      41.880  27.582  28.604  1.00  0.00     0.034 A 
ATOM     53  C   UNL A   1      40.961  30.442  34.380  1.00  0.00     0.049 A 
ATOM     54  C   UNL A   1      42.622  27.519  29.909  1.00  0.00     0.074 A 
ATOM     55  C   UNL A   1      41.708  30.296  35.535  1.00  0.00     0.029 A 
ATOM     56  N   UNL A   1      41.536  29.627  33.419  1.00  0.00    -0.354 N 
ATOM     57  N   UNL A   1      42.328  28.100  31.046  1.00  0.00    -0.248 NA
ATOM     58  C   UNL A   1      43.830  26.681  29.953  1.00  0.00     0.031 C 
ATOM     59  C   UNL A   1      42.736  29.387  35.273  1.00  0.00     0.029 A 
ATOM     60  C   UNL A   1      42.624  28.967  33.957  1.00  0.00     0.049 A 
ATOM     61  H   UNL A   1      41.218  29.533  32.493  1.00  0.00     0.167 HD
ATOM     62  C   UNL A   1      43.304  27.689  31.946  1.00  0.00     0.074 A 
ATOM     63  C   UNL A   1      44.186  26.793  31.227  1.00  0.00     0.031 C 
ATOM     64  C   UNL A   1      43.462  28.039  33.244  1.00  0.00     0.034 A 
BRANCH  51  65
ATOM     65  C   UNL A   1      39.311  32.092  35.324  1.00  0.00     0.023 A 
ATOM     66  C   UNL A   1      38.446  31.513  36.275  1.00  0.00     0.012 A 
ATOM     67  C   UNL A   1      39.783  33.404  35.524  1.00  0.00     0.148 A 
ATOM     68  C   UNL A   1      38.041  32.231  37.398  1.00  0.00     0.002 A 
ATOM     69  C   UNL A   1      39.403  34.102  36.666  1.00  0.00     0.091 A 
ATOM     70  F   UNL A   1      40.598  33.936  34.604  1.00  0.00    -0.205 F 
ATOM     71  C   UNL A   1      38.528  33.520  37.598  1.00  0.00     0.022 A 
BRANCH  69  72
ATOM     72  S   UNL A   1      40.017  35.744  37.058  1.00  0.00     0.127 S 
ATOM     73  O   UNL A   1      39.324  36.026  38.316  1.00  0.00    -0.237 OA
ATOM     74  O   UNL A   1      41.453  35.508  37.193  1.00  0.00    -0.237 OA
ATOM     75  O   UNL A   1      39.637  36.596  35.941  1.00  0.00    -0.744 OA
ENDBRANCH  69  72
ENDBRANCH  51  65
BRANCH  52  76
ATOM     76  C   UNL A   1      42.303  26.766  27.432  1.00  0.00     0.023 A 
ATOM     77  C   UNL A   1      43.064  27.375  26.416  1.00  0.00     0.012 A 
ATOM     78  C   UNL A   1      42.039  25.385  27.365  1.00  0.00     0.148 A 
ATOM     79  C   UNL A   1      43.551  26.624  25.346  1.00  0.00     0.002 A 
ATOM     80  C   UNL A   1      42.561  24.634  26.317  1.00  0.00     0.091 A 
ATOM     81  F   UNL A   1      41.314  24.831  28.345  1.00  0.00    -0.205 F 
ATOM     82  C   UNL A   1      43.309  25.253  25.302  1.00  0.00     0.022 A 
BRANCH  80  83
ATOM     83  S   UNL A   1      42.398  22.848  26.227  1.00  0.00     0.127 S 
ATOM     84  O   UNL A   1      42.703  22.591  24.821  1.00  0.00    -0.237 OA
ATOM     85  O   UNL A   1      43.426  22.408  27.171  1.00  0.00    -0.237 OA
ATOM     86  O   UNL A   1      41.033  22.552  26.636  1.00  0.00    -0.744 OA
ENDBRANCH  80  83
ENDBRANCH  52  76
BRANCH  64  87
ATOM     87  C   UNL A   1      44.622  27.459  34.000  1.00  0.00     0.023 A 
ATOM     88  C   UNL A   1      45.845  28.155  34.018  1.00  0.00     0.012 A 
ATOM     89  C   UNL A   1      44.454  26.315  34.804  1.00  0.00     0.148 A 
ATOM     90  C   UNL A   1      46.892  27.716  34.826  1.00  0.00     0.002 A 
ATOM     91  C   UNL A   1      45.489  25.904  35.633  1.00  0.00     0.091 A 
ATOM     92  F   UNL A   1      43.278  25.672  34.760  1.00  0.00    -0.205 F 
ATOM     93  C   UNL A   1      46.710  26.601  35.642  1.00  0.00     0.022 A 
BRANCH  91  94
ATOM     94  S   UNL A   1      45.326  24.529  36.776  1.00  0.00     0.127 S 
ATOM     95  O   UNL A   1      44.078  24.859  37.461  1.00  0.00    -0.237 OA
ATOM     96  O   UNL A   1      45.242  23.382  35.872  1.00  0.00    -0.237 OA
ATOM     97  O   UNL A   1      46.517  24.557  37.615  1.00  0.00    -0.744 OA
ENDBRANCH  91  94
ENDBRANCH  64  87
ENDBRANCH  38  39
ENDBRANCH  31  33
ENDBRANCH  30  31
ENDBRANCH   1  30
TORSDOF 17
ENDMDL
