MODEL 1
REMARK VINA RESULT:      -9.5      0.000      0.000
REMARK SMILES O=C(OCCOC(=O)[C@H](Cc1cccc(Br)c1)CC1CCC1)c1ccc(-c2c3nc(c(-c4cccc(S(=O)(=O)[O-])c4F)c4ccc([nH]4)c(-c4cccc(S(=O)(=O)[O-])c4F)c4nc(c(-c5cccc(S(=O)(=O)[O-])c5F)c5ccc2[nH]5)C=C4)C=C3)cc1
REMARK SMILES IDX 4 1 3 2 2 3 1 4 23 5 24 6 85 7 25 8 84 9 26 10 27 11 28 12
REMARK SMILES IDX 78 13 29 14 83 15 77 16 79 17 30 18 82 19 76 20 75 21 31 23
REMARK SMILES IDX 63 24 43 25 62 26 44 27 47 28 61 29 80 30 45 31 46 32 60 34
REMARK SMILES IDX 81 35 48 36 32 37 33 38 41 39 34 40 36 41 42 42 35 43 37 44
REMARK SMILES IDX 38 45 39 46 40 47 64 48 65 49 73 50 66 51 68 52 74 53 67 54
REMARK SMILES IDX 69 55 70 56 71 57 72 58 49 59 50 60 58 61 51 62 53 63 59 64
REMARK SMILES IDX 52 65 54 66 55 67 56 68 57 69 5 70 6 71 7 72 8 73 9 74 18 75
REMARK SMILES IDX 19 76 20 77 22 78 21 79 10 80 11 81 12 82 17 83 13 84 15 85
REMARK SMILES IDX 14 86 16 87
REMARK H PARENT 79 22 47 33
REMARK Flexibility Score: inf
ROOT
ATOM      1  C   UNL A   1      33.368  33.139  27.735  1.00  0.00     0.275 C 
ENDROOT
BRANCH   1   2
ATOM      2  O   UNL A   1      33.956  32.000  28.385  1.00  0.00    -0.458 OA
BRANCH   2   3
ATOM      3  C   UNL A   1      34.595  30.936  27.842  1.00  0.00     0.338 C 
ATOM      4  O   UNL A   1      34.035  30.314  26.939  1.00  0.00    -0.246 OA
BRANCH   3   5
ATOM      5  C   UNL A   1      35.875  30.380  28.383  1.00  0.00     0.060 A 
ATOM      6  C   UNL A   1      36.042  29.666  29.571  1.00  0.00     0.016 A 
ATOM      7  C   UNL A   1      37.008  30.576  27.583  1.00  0.00     0.016 A 
ATOM      8  C   UNL A   1      37.267  29.066  29.883  1.00  0.00     0.010 A 
ATOM      9  C   UNL A   1      38.207  29.915  27.840  1.00  0.00     0.010 A 
ATOM     10  C   UNL A   1      38.353  29.172  29.013  1.00  0.00    -0.014 A 
BRANCH  10  11
ATOM     11  C   UNL A   1      39.687  28.676  29.416  1.00  0.00     0.031 A 
ATOM     12  C   UNL A   1      40.453  29.464  30.444  1.00  0.00     0.074 A 
ATOM     13  C   UNL A   1      40.198  27.545  28.890  1.00  0.00     0.049 A 
ATOM     14  N   UNL A   1      41.593  29.182  31.013  1.00  0.00    -0.248 NA
ATOM     15  C   UNL A   1      39.851  30.730  30.907  1.00  0.00     0.031 C 
ATOM     16  C   UNL A   1      39.547  26.700  27.887  1.00  0.00     0.029 A 
ATOM     17  N   UNL A   1      41.404  26.928  29.104  1.00  0.00    -0.354 N 
ATOM     18  C   UNL A   1      41.827  30.215  31.910  1.00  0.00     0.074 A 
ATOM     19  C   UNL A   1      40.768  31.180  31.745  1.00  0.00     0.031 C 
ATOM     20  C   UNL A   1      40.391  25.719  27.520  1.00  0.00     0.029 A 
ATOM     21  C   UNL A   1      41.627  25.848  28.281  1.00  0.00     0.049 A 
ATOM     22  H   UNL A   1      42.050  27.231  29.782  1.00  0.00     0.167 HD
ATOM     23  C   UNL A   1      42.798  30.318  32.843  1.00  0.00     0.034 A 
ATOM     24  C   UNL A   1      42.708  25.051  28.167  1.00  0.00     0.034 A 
ATOM     25  C   UNL A   1      43.842  29.353  33.003  1.00  0.00     0.049 A 
ATOM     26  C   UNL A   1      43.828  25.233  29.160  1.00  0.00     0.074 A 
ATOM     27  C   UNL A   1      44.852  29.320  33.943  1.00  0.00     0.029 A 
ATOM     28  N   UNL A   1      44.019  28.253  32.175  1.00  0.00    -0.354 N 
ATOM     29  N   UNL A   1      43.935  26.111  30.129  1.00  0.00    -0.248 NA
ATOM     30  C   UNL A   1      44.932  24.265  29.101  1.00  0.00     0.031 C 
ATOM     31  C   UNL A   1      45.663  28.216  33.662  1.00  0.00     0.029 A 
ATOM     32  C   UNL A   1      45.135  27.543  32.569  1.00  0.00     0.049 A 
ATOM     33  H   UNL A   1      43.435  28.016  31.419  1.00  0.00     0.167 HD
ATOM     34  C   UNL A   1      45.079  25.762  30.835  1.00  0.00     0.074 A 
ATOM     35  C   UNL A   1      45.629  24.590  30.182  1.00  0.00     0.031 C 
ATOM     36  C   UNL A   1      45.626  26.350  31.928  1.00  0.00     0.034 A 
BRANCH  23  37
ATOM     37  C   UNL A   1      42.719  31.491  33.782  1.00  0.00     0.023 A 
ATOM     38  C   UNL A   1      43.260  32.734  33.383  1.00  0.00     0.012 A 
ATOM     39  C   UNL A   1      42.129  31.368  35.051  1.00  0.00     0.148 A 
ATOM     40  C   UNL A   1      43.252  33.824  34.252  1.00  0.00     0.002 A 
ATOM     41  C   UNL A   1      42.087  32.471  35.894  1.00  0.00     0.091 A 
ATOM     42  F   UNL A   1      41.647  30.172  35.417  1.00  0.00    -0.205 F 
ATOM     43  C   UNL A   1      42.659  33.693  35.504  1.00  0.00     0.022 A 
BRANCH  41  44
ATOM     44  S   UNL A   1      41.296  32.429  37.505  1.00  0.00     0.127 S 
ATOM     45  O   UNL A   1      41.349  33.838  37.896  1.00  0.00    -0.237 OA
ATOM     46  O   UNL A   1      39.959  31.939  37.173  1.00  0.00    -0.237 OA
ATOM     47  O   UNL A   1      42.093  31.528  38.325  1.00  0.00    -0.744 OA
ENDBRANCH  41  44
ENDBRANCH  23  37
BRANCH  24  48
ATOM     48  C   UNL A   1      42.750  23.961  27.149  1.00  0.00     0.023 A 
ATOM     49  C   UNL A   1      43.371  24.190  25.906  1.00  0.00     0.012 A 
ATOM     50  C   UNL A   1      42.164  22.705  27.400  1.00  0.00     0.148 A 
ATOM     51  C   UNL A   1      43.365  23.207  24.914  1.00  0.00     0.002 A 
ATOM     52  C   UNL A   1      42.196  21.716  26.422  1.00  0.00     0.091 A 
ATOM     53  F   UNL A   1      41.575  22.506  28.588  1.00  0.00    -0.205 F 
ATOM     54  C   UNL A   1      42.781  21.971  25.172  1.00  0.00     0.022 A 
BRANCH  52  55
ATOM     55  S   UNL A   1      41.549  20.062  26.694  1.00  0.00     0.127 S 
ATOM     56  O   UNL A   1      40.127  20.330  26.911  1.00  0.00    -0.237 OA
ATOM     57  O   UNL A   1      41.861  19.405  25.422  1.00  0.00    -0.237 OA
ATOM     58  O   UNL A   1      42.274  19.537  27.837  1.00  0.00    -0.744 OA
ENDBRANCH  52  55
ENDBRANCH  24  48
BRANCH  36  59
ATOM     59  C   UNL A   1      46.849  25.711  32.524  1.00  0.00     0.023 A 
ATOM     60  C   UNL A   1      48.130  26.128  32.116  1.00  0.00     0.012 A 
ATOM     61  C   UNL A   1      46.721  24.761  33.557  1.00  0.00     0.148 A 
ATOM     62  C   UNL A   1      49.270  25.583  32.706  1.00  0.00     0.002 A 
ATOM     63  C   UNL A   1      47.859  24.268  34.180  1.00  0.00     0.091 A 
ATOM     64  F   UNL A   1      45.491  24.366  33.915  1.00  0.00    -0.205 F 
ATOM     65  C   UNL A   1      49.134  24.666  33.747  1.00  0.00     0.022 A 
BRANCH  63  66
ATOM     66  S   UNL A   1      47.774  23.174  35.601  1.00  0.00     0.127 S 
ATOM     67  O   UNL A   1      47.393  24.099  36.667  1.00  0.00    -0.237 OA
ATOM     68  O   UNL A   1      46.726  22.234  35.205  1.00  0.00    -0.237 OA
ATOM     69  O   UNL A   1      49.098  22.581  35.732  1.00  0.00    -0.744 OA
ENDBRANCH  63  66
ENDBRANCH  36  59
ENDBRANCH  10  11
ENDBRANCH   3   5
ENDBRANCH   2   3
ENDBRANCH   1   2
BRANCH   1  70
ATOM     70  C   UNL A   1      33.406  34.439  28.544  1.00  0.00     0.274 C 
BRANCH  70  71
ATOM     71  O   UNL A   1      34.617  34.596  29.305  1.00  0.00    -0.462 OA
BRANCH  71  72
ATOM     72  C   UNL A   1      34.525  34.343  30.643  1.00  0.00     0.309 C 
ATOM     73  O   UNL A   1      33.541  34.607  31.325  1.00  0.00    -0.252 OA
BRANCH  72  74
ATOM     74  C   UNL A   1      35.812  33.719  31.193  1.00  0.00     0.104 C 
BRANCH  74  75
ATOM     75  C   UNL A   1      35.450  32.286  31.641  1.00  0.00     0.019 C 
BRANCH  75  76
ATOM     76  C   UNL A   1      35.844  31.950  33.077  1.00  0.00    -0.010 C 
ATOM     77  C   UNL A   1      37.213  31.208  33.188  1.00  0.00     0.003 C 
ATOM     78  C   UNL A   1      36.464  33.011  34.012  1.00  0.00     0.003 C 
ATOM     79  C   UNL A   1      37.426  31.931  34.528  1.00  0.00     0.001 C 
ENDBRANCH  75  76
ENDBRANCH  74  75
BRANCH  74  80
ATOM     80  C   UNL A   1      36.880  33.804  30.062  1.00  0.00     0.050 C 
BRANCH  80  81
ATOM     81  C   UNL A   1      38.305  34.148  30.446  1.00  0.00    -0.046 A 
ATOM     82  C   UNL A   1      38.698  34.187  31.787  1.00  0.00     0.004 A 
ATOM     83  C   UNL A   1      39.246  34.536  29.483  1.00  0.00     0.019 A 
ATOM     84  C   UNL A   1      40.022  34.457  32.154  1.00  0.00     0.001 A 
ATOM     85  C   UNL A   1      40.566  34.820  29.845  1.00  0.00     0.018 A 
ATOM     86  C   UNL A   1      40.966  34.757  31.177  1.00  0.00     0.016 A 
ATOM     87  Br  UNL A   1      41.817  35.304  28.513  1.00  0.00    -0.051 Br
ENDBRANCH  80  81
ENDBRANCH  74  80
ENDBRANCH  72  74
ENDBRANCH  71  72
ENDBRANCH  70  71
ENDBRANCH   1  70
TORSDOF 18
ENDMDL
MODEL 2
REMARK VINA RESULT:      -9.4      4.588     11.456
REMARK SMILES O=C(OCCOC(=O)[C@H](Cc1cccc(Br)c1)CC1CCC1)c1ccc(-c2c3nc(c(-c4cccc(S(=O)(=O)[O-])c4F)c4ccc([nH]4)c(-c4cccc(S(=O)(=O)[O-])c4F)c4nc(c(-c5cccc(S(=O)(=O)[O-])c5F)c5ccc2[nH]5)C=C4)C=C3)cc1
REMARK SMILES IDX 4 1 3 2 2 3 1 4 23 5 24 6 85 7 25 8 84 9 26 10 27 11 28 12
REMARK SMILES IDX 78 13 29 14 83 15 77 16 79 17 30 18 82 19 76 20 75 21 31 23
REMARK SMILES IDX 63 24 43 25 62 26 44 27 47 28 61 29 80 30 45 31 46 32 60 34
REMARK SMILES IDX 81 35 48 36 32 37 33 38 41 39 34 40 36 41 42 42 35 43 37 44
REMARK SMILES IDX 38 45 39 46 40 47 64 48 65 49 73 50 66 51 68 52 74 53 67 54
REMARK SMILES IDX 69 55 70 56 71 57 72 58 49 59 50 60 58 61 51 62 53 63 59 64
REMARK SMILES IDX 52 65 54 66 55 67 56 68 57 69 5 70 6 71 7 72 8 73 9 74 18 75
REMARK SMILES IDX 19 76 20 77 22 78 21 79 10 80 11 81 12 82 17 83 13 84 15 85
REMARK SMILES IDX 14 86 16 87
REMARK H PARENT 79 22 47 33
REMARK Flexibility Score: inf
ROOT
ATOM      1  C   UNL A   1      40.639  20.718  26.501  1.00  0.00     0.275 C 
ENDROOT
BRANCH   1   2
ATOM      2  O   UNL A   1      40.189  21.955  25.924  1.00  0.00    -0.458 OA
BRANCH   2   3
ATOM      3  C   UNL A   1      39.237  22.812  26.364  1.00  0.00     0.338 C 
ATOM      4  O   UNL A   1      38.057  22.549  26.127  1.00  0.00    -0.246 OA
BRANCH   3   5
ATOM      5  C   UNL A   1      39.546  24.138  26.985  1.00  0.00     0.060 A 
ATOM      6  C   UNL A   1      39.411  24.484  28.331  1.00  0.00     0.016 A 
ATOM      7  C   UNL A   1      40.056  25.111  26.116  1.00  0.00     0.016 A 
ATOM      8  C   UNL A   1      39.885  25.711  28.808  1.00  0.00     0.010 A 
ATOM      9  C   UNL A   1      40.607  26.299  26.591  1.00  0.00     0.010 A 
ATOM     10  C   UNL A   1      40.501  26.620  27.946  1.00  0.00    -0.014 A 
BRANCH  10  11
ATOM     11  C   UNL A   1      40.855  27.977  28.417  1.00  0.00     0.031 A 
ATOM     12  C   UNL A   1      42.314  28.331  28.521  1.00  0.00     0.074 A 
ATOM     13  C   UNL A   1      39.901  28.876  28.730  1.00  0.00     0.049 A 
ATOM     14  N   UNL A   1      42.861  29.476  28.824  1.00  0.00    -0.248 NA
ATOM     15  C   UNL A   1      43.288  27.261  28.234  1.00  0.00     0.031 C 
ATOM     16  C   UNL A   1      38.457  28.646  28.667  1.00  0.00     0.029 A 
ATOM     17  N   UNL A   1      40.006  30.161  29.198  1.00  0.00    -0.354 N 
ATOM     18  C   UNL A   1      44.231  29.268  28.738  1.00  0.00     0.074 A 
ATOM     19  C   UNL A   1      44.440  27.870  28.453  1.00  0.00     0.031 C 
ATOM     20  C   UNL A   1      37.815  29.724  29.150  1.00  0.00     0.029 A 
ATOM     21  C   UNL A   1      38.798  30.731  29.528  1.00  0.00     0.049 A 
ATOM     22  H   UNL A   1      40.866  30.631  29.289  1.00  0.00     0.167 HD
ATOM     23  C   UNL A   1      45.228  30.175  28.815  1.00  0.00     0.034 A 
ATOM     24  C   UNL A   1      38.524  31.935  30.067  1.00  0.00     0.034 A 
ATOM     25  C   UNL A   1      45.011  31.563  29.093  1.00  0.00     0.049 A 
ATOM     26  C   UNL A   1      39.661  32.911  30.232  1.00  0.00     0.074 A 
ATOM     27  C   UNL A   1      45.934  32.589  29.146  1.00  0.00     0.029 A 
ATOM     28  N   UNL A   1      43.772  32.112  29.389  1.00  0.00    -0.354 N 
ATOM     29  N   UNL A   1      40.934  32.746  29.961  1.00  0.00    -0.248 NA
ATOM     30  C   UNL A   1      39.315  34.263  30.693  1.00  0.00     0.031 C 
ATOM     31  C   UNL A   1      45.256  33.756  29.510  1.00  0.00     0.029 A 
ATOM     32  C   UNL A   1      43.907  33.462  29.646  1.00  0.00     0.049 A 
ATOM     33  H   UNL A   1      42.924  31.614  29.412  1.00  0.00     0.167 HD
ATOM     34  C   UNL A   1      41.529  33.986  30.153  1.00  0.00     0.074 A 
ATOM     35  C   UNL A   1      40.475  34.894  30.562  1.00  0.00     0.031 C 
ATOM     36  C   UNL A   1      42.827  34.349  30.000  1.00  0.00     0.034 A 
BRANCH  23  37
ATOM     37  C   UNL A   1      46.622  29.682  28.537  1.00  0.00     0.023 A 
ATOM     38  C   UNL A   1      47.187  29.888  27.259  1.00  0.00     0.012 A 
ATOM     39  C   UNL A   1      47.364  29.010  29.522  1.00  0.00     0.148 A 
ATOM     40  C   UNL A   1      48.454  29.394  26.954  1.00  0.00     0.002 A 
ATOM     41  C   UNL A   1      48.644  28.558  29.224  1.00  0.00     0.091 A 
ATOM     42  F   UNL A   1      46.797  28.802  30.719  1.00  0.00    -0.205 F 
ATOM     43  C   UNL A   1      49.185  28.736  27.939  1.00  0.00     0.022 A 
BRANCH  41  44
ATOM     44  S   UNL A   1      49.693  27.750  30.435  1.00  0.00     0.127 S 
ATOM     45  O   UNL A   1      50.908  27.508  29.658  1.00  0.00    -0.237 OA
ATOM     46  O   UNL A   1      49.822  28.784  31.462  1.00  0.00    -0.237 OA
ATOM     47  O   UNL A   1      48.978  26.553  30.857  1.00  0.00    -0.744 OA
ENDBRANCH  41  44
ENDBRANCH  23  37
BRANCH  24  48
ATOM     48  C   UNL A   1      37.122  32.322  30.400  1.00  0.00     0.023 A 
ATOM     49  C   UNL A   1      36.599  32.024  31.674  1.00  0.00     0.012 A 
ATOM     50  C   UNL A   1      36.299  32.970  29.457  1.00  0.00     0.148 A 
ATOM     51  C   UNL A   1      35.269  32.318  31.985  1.00  0.00     0.002 A 
ATOM     52  C   UNL A   1      34.988  33.296  29.787  1.00  0.00     0.091 A 
ATOM     53  F   UNL A   1      36.814  33.244  28.250  1.00  0.00    -0.205 F 
ATOM     54  C   UNL A   1      34.466  32.955  31.044  1.00  0.00     0.022 A 
BRANCH  52  55
ATOM     55  S   UNL A   1      33.903  34.197  28.674  1.00  0.00     0.127 S 
ATOM     56  O   UNL A   1      33.546  33.163  27.703  1.00  0.00    -0.237 OA
ATOM     57  O   UNL A   1      32.816  34.595  29.572  1.00  0.00    -0.237 OA
ATOM     58  O   UNL A   1      34.693  35.301  28.159  1.00  0.00    -0.744 OA
ENDBRANCH  52  55
ENDBRANCH  24  48
BRANCH  36  59
ATOM     59  C   UNL A   1      43.177  35.793  30.222  1.00  0.00     0.023 A 
ATOM     60  C   UNL A   1      43.711  36.207  31.457  1.00  0.00     0.012 A 
ATOM     61  C   UNL A   1      43.061  36.721  29.167  1.00  0.00     0.148 A 
ATOM     62  C   UNL A   1      44.095  37.533  31.650  1.00  0.00     0.002 A 
ATOM     63  C   UNL A   1      43.501  38.024  29.349  1.00  0.00     0.091 A 
ATOM     64  F   UNL A   1      42.533  36.307  28.006  1.00  0.00    -0.205 F 
ATOM     65  C   UNL A   1      44.003  38.437  30.593  1.00  0.00     0.022 A 
BRANCH  63  66
ATOM     66  S   UNL A   1      43.527  39.221  28.010  1.00  0.00     0.127 S 
ATOM     67  O   UNL A   1      44.350  38.536  27.015  1.00  0.00    -0.237 OA
ATOM     68  O   UNL A   1      42.110  39.327  27.663  1.00  0.00    -0.237 OA
ATOM     69  O   UNL A   1      44.103  40.436  28.569  1.00  0.00    -0.744 OA
ENDBRANCH  63  66
ENDBRANCH  36  59
ENDBRANCH  10  11
ENDBRANCH   3   5
ENDBRANCH   2   3
ENDBRANCH   1   2
BRANCH   1  70
ATOM     70  C   UNL A   1      42.069  20.312  26.133  1.00  0.00     0.274 C 
BRANCH  70  71
ATOM     71  O   UNL A   1      42.677  21.194  25.173  1.00  0.00    -0.462 OA
BRANCH  71  72
ATOM     72  C   UNL A   1      43.946  21.609  25.456  1.00  0.00     0.309 C 
ATOM     73  O   UNL A   1      44.880  20.850  25.689  1.00  0.00    -0.252 OA
BRANCH  72  74
ATOM     74  C   UNL A   1      44.055  23.137  25.475  1.00  0.00     0.104 C 
BRANCH  74  75
ATOM     75  C   UNL A   1      43.226  23.622  26.685  1.00  0.00     0.019 C 
BRANCH  75  76
ATOM     76  C   UNL A   1      43.603  22.974  28.015  1.00  0.00    -0.010 C 
ATOM     77  C   UNL A   1      44.442  23.907  28.944  1.00  0.00     0.003 C 
ATOM     78  C   UNL A   1      42.598  22.891  29.184  1.00  0.00     0.003 C 
ATOM     79  C   UNL A   1      43.748  23.234  30.141  1.00  0.00     0.001 C 
ENDBRANCH  75  76
ENDBRANCH  74  75
BRANCH  74  80
ATOM     80  C   UNL A   1      45.572  23.487  25.536  1.00  0.00     0.050 C 
BRANCH  80  81
ATOM     81  C   UNL A   1      45.996  24.904  25.207  1.00  0.00    -0.046 A 
ATOM     82  C   UNL A   1      45.062  25.944  25.182  1.00  0.00     0.004 A 
ATOM     83  C   UNL A   1      47.308  25.201  24.819  1.00  0.00     0.019 A 
ATOM     84  C   UNL A   1      45.447  27.266  24.926  1.00  0.00     0.001 A 
ATOM     85  C   UNL A   1      47.695  26.517  24.550  1.00  0.00     0.018 A 
ATOM     86  C   UNL A   1      46.774  27.557  24.626  1.00  0.00     0.016 A 
ATOM     87  Br  UNL A   1      49.485  26.884  24.066  1.00  0.00    -0.051 Br
ENDBRANCH  80  81
ENDBRANCH  74  80
ENDBRANCH  72  74
ENDBRANCH  71  72
ENDBRANCH  70  71
ENDBRANCH   1  70
TORSDOF 18
ENDMDL
MODEL 3
REMARK VINA RESULT:      -9.4      3.482      5.611
REMARK SMILES O=C(OCCOC(=O)[C@H](Cc1cccc(Br)c1)CC1CCC1)c1ccc(-c2c3nc(c(-c4cccc(S(=O)(=O)[O-])c4F)c4ccc([nH]4)c(-c4cccc(S(=O)(=O)[O-])c4F)c4nc(c(-c5cccc(S(=O)(=O)[O-])c5F)c5ccc2[nH]5)C=C4)C=C3)cc1
REMARK SMILES IDX 4 1 3 2 2 3 1 4 23 5 24 6 85 7 25 8 84 9 26 10 27 11 28 12
REMARK SMILES IDX 78 13 29 14 83 15 77 16 79 17 30 18 82 19 76 20 75 21 31 23
REMARK SMILES IDX 63 24 43 25 62 26 44 27 47 28 61 29 80 30 45 31 46 32 60 34
REMARK SMILES IDX 81 35 48 36 32 37 33 38 41 39 34 40 36 41 42 42 35 43 37 44
REMARK SMILES IDX 38 45 39 46 40 47 64 48 65 49 73 50 66 51 68 52 74 53 67 54
REMARK SMILES IDX 69 55 70 56 71 57 72 58 49 59 50 60 58 61 51 62 53 63 59 64
REMARK SMILES IDX 52 65 54 66 55 67 56 68 57 69 5 70 6 71 7 72 8 73 9 74 18 75
REMARK SMILES IDX 19 76 20 77 22 78 21 79 10 80 11 81 12 82 17 83 13 84 15 85
REMARK SMILES IDX 14 86 16 87
REMARK H PARENT 79 22 47 33
REMARK Flexibility Score: inf
ROOT
ATOM      1  C   UNL A   1      33.243  29.906  26.088  1.00  0.00     0.275 C 
ENDROOT
BRANCH   1   2
ATOM      2  O   UNL A   1      33.536  30.479  27.374  1.00  0.00    -0.458 OA
BRANCH   2   3
ATOM      3  C   UNL A   1      34.622  31.183  27.772  1.00  0.00     0.338 C 
ATOM      4  O   UNL A   1      34.672  32.384  27.505  1.00  0.00    -0.246 OA
BRANCH   3   5
ATOM      5  C   UNL A   1      35.834  30.551  28.382  1.00  0.00     0.060 A 
ATOM      6  C   UNL A   1      35.881  29.770  29.537  1.00  0.00     0.016 A 
ATOM      7  C   UNL A   1      37.035  30.748  27.686  1.00  0.00     0.016 A 
ATOM      8  C   UNL A   1      37.056  29.108  29.911  1.00  0.00     0.010 A 
ATOM      9  C   UNL A   1      38.187  30.030  28.000  1.00  0.00     0.010 A 
ATOM     10  C   UNL A   1      38.212  29.220  29.137  1.00  0.00    -0.014 A 
BRANCH  10  11
ATOM     11  C   UNL A   1      39.492  28.655  29.617  1.00  0.00     0.031 A 
ATOM     12  C   UNL A   1      40.169  29.326  30.781  1.00  0.00     0.074 A 
ATOM     13  C   UNL A   1      40.031  27.563  29.039  1.00  0.00     0.049 A 
ATOM     14  N   UNL A   1      41.244  28.963  31.426  1.00  0.00    -0.248 NA
ATOM     15  C   UNL A   1      39.549  30.560  31.300  1.00  0.00     0.031 C 
ATOM     16  C   UNL A   1      39.465  26.829  27.906  1.00  0.00     0.029 A 
ATOM     17  N   UNL A   1      41.199  26.897  29.307  1.00  0.00    -0.354 N 
ATOM     18  C   UNL A   1      41.410  29.904  32.433  1.00  0.00     0.074 A 
ATOM     19  C   UNL A   1      40.389  30.908  32.259  1.00  0.00     0.031 C 
ATOM     20  C   UNL A   1      40.322  25.863  27.530  1.00  0.00     0.029 A 
ATOM     21  C   UNL A   1      41.481  25.890  28.414  1.00  0.00     0.049 A 
ATOM     22  H   UNL A   1      41.782  27.119  30.069  1.00  0.00     0.167 HD
ATOM     23  C   UNL A   1      42.288  29.897  33.459  1.00  0.00     0.034 A 
ATOM     24  C   UNL A   1      42.553  25.078  28.329  1.00  0.00     0.034 A 
ATOM     25  C   UNL A   1      43.295  28.893  33.626  1.00  0.00     0.049 A 
ATOM     26  C   UNL A   1      43.575  25.139  29.434  1.00  0.00     0.074 A 
ATOM     27  C   UNL A   1      44.209  28.748  34.651  1.00  0.00     0.029 A 
ATOM     28  N   UNL A   1      43.530  27.869  32.720  1.00  0.00    -0.354 N 
ATOM     29  N   UNL A   1      43.605  25.923  30.486  1.00  0.00    -0.248 NA
ATOM     30  C   UNL A   1      44.662  24.151  29.391  1.00  0.00     0.031 C 
ATOM     31  C   UNL A   1      45.023  27.653  34.346  1.00  0.00     0.029 A 
ATOM     32  C   UNL A   1      44.590  27.096  33.151  1.00  0.00     0.049 A 
ATOM     33  H   UNL A   1      43.018  27.716  31.894  1.00  0.00     0.167 HD
ATOM     34  C   UNL A   1      44.669  25.481  31.262  1.00  0.00     0.074 A 
ATOM     35  C   UNL A   1      45.258  24.358  30.558  1.00  0.00     0.031 C 
ATOM     36  C   UNL A   1      45.119  25.952  32.451  1.00  0.00     0.034 A 
BRANCH  23  37
ATOM     37  C   UNL A   1      42.141  30.982  34.490  1.00  0.00     0.023 A 
ATOM     38  C   UNL A   1      41.261  30.788  35.578  1.00  0.00     0.012 A 
ATOM     39  C   UNL A   1      42.854  32.187  34.383  1.00  0.00     0.148 A 
ATOM     40  C   UNL A   1      41.061  31.797  36.519  1.00  0.00     0.002 A 
ATOM     41  C   UNL A   1      42.683  33.171  35.349  1.00  0.00     0.091 A 
ATOM     42  F   UNL A   1      43.663  32.359  33.328  1.00  0.00    -0.205 F 
ATOM     43  C   UNL A   1      41.778  32.984  36.408  1.00  0.00     0.022 A 
BRANCH  41  44
ATOM     44  S   UNL A   1      43.599  34.714  35.334  1.00  0.00     0.127 S 
ATOM     45  O   UNL A   1      44.982  34.237  35.359  1.00  0.00    -0.237 OA
ATOM     46  O   UNL A   1      43.180  35.303  34.063  1.00  0.00    -0.237 OA
ATOM     47  O   UNL A   1      43.176  35.448  36.519  1.00  0.00    -0.744 OA
ENDBRANCH  41  44
ENDBRANCH  23  37
BRANCH  24  48
ATOM     48  C   UNL A   1      42.674  24.083  27.223  1.00  0.00     0.023 A 
ATOM     49  C   UNL A   1      43.331  24.441  26.029  1.00  0.00     0.012 A 
ATOM     50  C   UNL A   1      42.125  22.790  27.341  1.00  0.00     0.148 A 
ATOM     51  C   UNL A   1      43.398  23.549  24.957  1.00  0.00     0.002 A 
ATOM     52  C   UNL A   1      42.230  21.892  26.283  1.00  0.00     0.091 A 
ATOM     53  F   UNL A   1      41.501  22.468  28.482  1.00  0.00    -0.205 F 
ATOM     54  C   UNL A   1      42.851  22.276  25.084  1.00  0.00     0.022 A 
BRANCH  52  55
ATOM     55  S   UNL A   1      41.636  20.200  26.385  1.00  0.00     0.127 S 
ATOM     56  O   UNL A   1      42.101  19.800  27.713  1.00  0.00    -0.237 OA
ATOM     57  O   UNL A   1      40.186  20.385  26.274  1.00  0.00    -0.237 OA
ATOM     58  O   UNL A   1      42.241  19.500  25.266  1.00  0.00    -0.744 OA
ENDBRANCH  52  55
ENDBRANCH  24  48
BRANCH  36  59
ATOM     59  C   UNL A   1      46.267  25.230  33.098  1.00  0.00     0.023 A 
ATOM     60  C   UNL A   1      47.582  25.702  32.926  1.00  0.00     0.012 A 
ATOM     61  C   UNL A   1      46.026  24.135  33.951  1.00  0.00     0.148 A 
ATOM     62  C   UNL A   1      48.646  25.074  33.571  1.00  0.00     0.002 A 
ATOM     63  C   UNL A   1      47.083  23.552  34.636  1.00  0.00     0.091 A 
ATOM     64  F   UNL A   1      44.767  23.691  34.084  1.00  0.00    -0.205 F 
ATOM     65  C   UNL A   1      48.395  24.010  34.436  1.00  0.00     0.022 A 
BRANCH  63  66
ATOM     66  S   UNL A   1      46.837  22.256  35.854  1.00  0.00     0.127 S 
ATOM     67  O   UNL A   1      46.181  21.221  35.058  1.00  0.00    -0.237 OA
ATOM     68  O   UNL A   1      48.209  21.943  36.253  1.00  0.00    -0.237 OA
ATOM     69  O   UNL A   1      46.022  22.845  36.908  1.00  0.00    -0.744 OA
ENDBRANCH  63  66
ENDBRANCH  36  59
ENDBRANCH  10  11
ENDBRANCH   3   5
ENDBRANCH   2   3
ENDBRANCH   1   2
BRANCH   1  70
ATOM     70  C   UNL A   1      31.772  29.545  25.859  1.00  0.00     0.274 C 
BRANCH  70  71
ATOM     71  O   UNL A   1      31.576  28.161  25.520  1.00  0.00    -0.462 OA
BRANCH  71  72
ATOM     72  C   UNL A   1      31.527  27.285  26.565  1.00  0.00     0.309 C 
ATOM     73  O   UNL A   1      31.143  27.581  27.691  1.00  0.00    -0.252 OA
BRANCH  72  74
ATOM     74  C   UNL A   1      32.040  25.897  26.169  1.00  0.00     0.104 C 
BRANCH  74  75
ATOM     75  C   UNL A   1      30.808  24.968  26.121  1.00  0.00     0.019 C 
BRANCH  75  76
ATOM     76  C   UNL A   1      31.077  23.530  26.559  1.00  0.00    -0.010 C 
ATOM     77  C   UNL A   1      31.369  22.564  25.368  1.00  0.00     0.003 C 
ATOM     78  C   UNL A   1      32.454  23.100  27.107  1.00  0.00     0.003 C 
ATOM     79  C   UNL A   1      32.319  21.798  26.304  1.00  0.00     0.001 C 
ENDBRANCH  75  76
ENDBRANCH  74  75
BRANCH  74  80
ATOM     80  C   UNL A   1      32.793  26.058  24.814  1.00  0.00     0.050 C 
BRANCH  80  81
ATOM     81  C   UNL A   1      33.859  25.041  24.459  1.00  0.00    -0.046 A 
ATOM     82  C   UNL A   1      33.710  24.205  23.348  1.00  0.00     0.004 A 
ATOM     83  C   UNL A   1      34.971  24.833  25.284  1.00  0.00     0.019 A 
ATOM     84  C   UNL A   1      34.707  23.292  22.982  1.00  0.00     0.001 A 
ATOM     85  C   UNL A   1      35.964  23.914  24.929  1.00  0.00     0.018 A 
ATOM     86  C   UNL A   1      35.849  23.159  23.766  1.00  0.00     0.016 A 
ATOM     87  Br  UNL A   1      37.471  23.688  26.048  1.00  0.00    -0.051 Br
ENDBRANCH  80  81
ENDBRANCH  74  80
ENDBRANCH  72  74
ENDBRANCH  71  72
ENDBRANCH  70  71
ENDBRANCH   1  70
TORSDOF 18
ENDMDL
