MODEL 1
REMARK VINA RESULT:     -12.8      0.000      0.000
REMARK SMILES Cc1ccccc1Nc1nc2c(c(=O)[nH]c(=O)n2C)n1CC(=O)OCCOC(=O)c1ccc(-c2c3nc(c(-c4cccc(S(=O)(=O)[O-])c4F)c4ccc([nH]4)c(-c4cccc(S(=O)(=O)[O-])c4F)c4nc(c(-c5cccc(S(=O)(=O)[O-])c5F)c5ccc2[nH]5)C=C4)C=C3)cc1
REMARK SMILES IDX 25 1 24 2 22 3 23 4 21 5 20 6 9 7 10 8 11 9 12 10 18 11
REMARK SMILES IDX 13 12 16 13 19 14 14 15 15 16 17 17 8 19 7 21 1 22 2 23 3 24
REMARK SMILES IDX 4 25 6 26 5 27 26 28 27 29 28 30 29 31 30 32 31 33 92 34
REMARK SMILES IDX 32 35 91 36 33 37 34 38 35 39 85 40 36 41 90 42 84 43 86 44
REMARK SMILES IDX 37 45 89 46 83 47 82 48 38 50 70 51 50 52 69 53 51 54 54 55
REMARK SMILES IDX 68 56 87 57 52 58 53 59 67 61 88 62 55 63 39 64 40 65 48 66
REMARK SMILES IDX 41 67 43 68 49 69 42 70 44 71 45 72 46 73 47 74 71 75 72 76
REMARK SMILES IDX 80 77 73 78 75 79 81 80 74 81 76 82 77 83 78 84 79 85 56 86
REMARK SMILES IDX 57 87 65 88 58 89 60 90 66 91 59 92 61 93 62 94 63 95 64 96
REMARK H PARENT 15 18 8 20 86 49 54 60
REMARK Flexibility Score: inf
ROOT
ATOM      1  C   UNL A   1      32.770  30.017  26.021  1.00  0.00     0.274 C 
ENDROOT
BRANCH   1   2
ATOM      2  O   UNL A   1      31.620  29.181  26.068  1.00  0.00    -0.461 OA
BRANCH   2   3
ATOM      3  C   UNL A   1      31.721  27.853  26.288  1.00  0.00     0.326 C 
ATOM      4  O   UNL A   1      31.402  27.307  27.331  1.00  0.00    -0.250 OA
BRANCH   3   5
ATOM      5  C   UNL A   1      32.070  27.209  24.981  1.00  0.00     0.248 C 
BRANCH   5   6
ATOM      6  N   UNL A   1      31.031  26.940  24.003  1.00  0.00    -0.293 N 
ATOM      7  C   UNL A   1      29.912  26.126  24.044  1.00  0.00     0.210 A 
ATOM      8  N   UNL A   1      28.878  26.810  23.571  1.00  0.00    -0.194 NA
ATOM      9  C   UNL A   1      29.424  27.935  23.022  1.00  0.00     0.170 A 
ATOM     10  C   UNL A   1      30.777  27.897  23.051  1.00  0.00     0.154 A 
ATOM     11  N   UNL A   1      28.771  29.060  22.571  1.00  0.00    -0.279 N 
ATOM     12  C   UNL A   1      31.621  28.893  22.486  1.00  0.00     0.279 A 
ATOM     13  C   UNL A   1      29.524  30.114  22.047  1.00  0.00     0.329 A 
ATOM     14  C   UNL A   1      27.351  29.202  22.792  1.00  0.00     0.157 C 
ATOM     15  O   UNL A   1      32.833  28.879  22.510  1.00  0.00    -0.267 OA
ATOM     16  N   UNL A   1      30.891  29.935  21.959  1.00  0.00    -0.272 N 
ATOM     17  O   UNL A   1      29.037  31.188  21.691  1.00  0.00    -0.248 OA
ATOM     18  H   UNL A   1      31.396  30.624  21.470  1.00  0.00     0.175 HD
BRANCH   7  19
ATOM     19  N   UNL A   1      30.019  24.773  24.100  1.00  0.00    -0.325 N 
ATOM     20  H   UNL A   1      29.410  24.269  23.513  1.00  0.00     0.170 HD
BRANCH  19  21
ATOM     21  C   UNL A   1      30.898  23.996  24.895  1.00  0.00     0.044 A 
ATOM     22  C   UNL A   1      32.382  23.323  22.890  1.00  0.00     0.046 C 
ATOM     23  C   UNL A   1      32.088  23.443  24.363  1.00  0.00    -0.027 A 
ATOM     24  C   UNL A   1      33.112  23.021  25.240  1.00  0.00     0.005 A 
ATOM     25  C   UNL A   1      32.949  23.078  26.621  1.00  0.00     0.000 A 
ATOM     26  C   UNL A   1      30.710  23.901  26.280  1.00  0.00     0.026 A 
ATOM     27  C   UNL A   1      31.727  23.477  27.140  1.00  0.00     0.002 A 
ENDBRANCH  19  21
ENDBRANCH   7  19
ENDBRANCH   5   6
ENDBRANCH   3   5
ENDBRANCH   2   3
ENDBRANCH   1   2
BRANCH   1  28
ATOM     28  C   UNL A   1      33.355  30.381  27.406  1.00  0.00     0.275 C 
BRANCH  28  29
ATOM     29  O   UNL A   1      34.601  31.135  27.470  1.00  0.00    -0.458 OA
BRANCH  29  30
ATOM     30  C   UNL A   1      34.868  32.286  28.153  1.00  0.00     0.338 C 
ATOM     31  O   UNL A   1      34.095  33.226  28.263  1.00  0.00    -0.246 OA
BRANCH  30  32
ATOM     32  C   UNL A   1      36.062  32.186  28.989  1.00  0.00     0.060 A 
ATOM     33  C   UNL A   1      37.277  32.840  28.721  1.00  0.00     0.016 A 
ATOM     34  C   UNL A   1      35.928  31.370  30.092  1.00  0.00     0.016 A 
ATOM     35  C   UNL A   1      38.373  32.580  29.548  1.00  0.00     0.010 A 
ATOM     36  C   UNL A   1      36.861  31.433  31.088  1.00  0.00     0.010 A 
ATOM     37  C   UNL A   1      38.153  31.800  30.685  1.00  0.00    -0.014 A 
BRANCH  37  38
ATOM     38  C   UNL A   1      39.075  30.741  31.124  1.00  0.00     0.031 A 
ATOM     39  C   UNL A   1      39.288  29.553  30.306  1.00  0.00     0.074 A 
ATOM     40  C   UNL A   1      40.139  31.362  31.698  1.00  0.00     0.049 A 
ATOM     41  N   UNL A   1      40.221  28.701  30.537  1.00  0.00    -0.248 NA
ATOM     42  C   UNL A   1      38.472  29.245  29.145  1.00  0.00     0.031 C 
ATOM     43  C   UNL A   1      41.545  31.320  31.315  1.00  0.00     0.029 A 
ATOM     44  N   UNL A   1      40.072  32.477  32.527  1.00  0.00    -0.354 N 
ATOM     45  C   UNL A   1      40.356  27.949  29.392  1.00  0.00     0.074 A 
ATOM     46  C   UNL A   1      39.133  28.189  28.659  1.00  0.00     0.031 C 
ATOM     47  C   UNL A   1      42.219  32.219  32.062  1.00  0.00     0.029 A 
ATOM     48  C   UNL A   1      41.310  32.733  33.080  1.00  0.00     0.049 A 
ATOM     49  H   UNL A   1      39.259  33.006  32.695  1.00  0.00     0.167 HD
ATOM     50  C   UNL A   1      41.571  27.386  29.122  1.00  0.00     0.034 A 
ATOM     51  C   UNL A   1      41.454  32.708  34.435  1.00  0.00     0.034 A 
ATOM     52  C   UNL A   1      42.571  27.781  30.158  1.00  0.00     0.049 A 
ATOM     53  C   UNL A   1      42.183  31.425  34.806  1.00  0.00     0.074 A 
ATOM     54  C   UNL A   1      43.657  28.645  30.142  1.00  0.00     0.029 A 
ATOM     55  N   UNL A   1      42.342  27.502  31.509  1.00  0.00    -0.354 N 
ATOM     56  N   UNL A   1      42.833  30.648  33.975  1.00  0.00    -0.248 NA
ATOM     57  C   UNL A   1      42.139  30.870  36.155  1.00  0.00     0.031 C 
ATOM     58  C   UNL A   1      43.983  28.981  31.493  1.00  0.00     0.029 A 
ATOM     59  C   UNL A   1      43.129  28.298  32.344  1.00  0.00     0.049 A 
ATOM     60  H   UNL A   1      41.703  26.828  31.832  1.00  0.00     0.167 HD
ATOM     61  C   UNL A   1      42.883  29.395  34.528  1.00  0.00     0.074 A 
ATOM     62  C   UNL A   1      42.632  29.640  35.942  1.00  0.00     0.031 C 
ATOM     63  C   UNL A   1      42.942  28.233  33.802  1.00  0.00     0.034 A 
BRANCH  50  64
ATOM     64  C   UNL A   1      41.985  26.711  27.808  1.00  0.00     0.023 A 
ATOM     65  C   UNL A   1      42.167  27.552  26.687  1.00  0.00     0.012 A 
ATOM     66  C   UNL A   1      42.206  25.331  27.562  1.00  0.00     0.148 A 
ATOM     67  C   UNL A   1      42.481  27.063  25.410  1.00  0.00     0.002 A 
ATOM     68  C   UNL A   1      42.505  24.834  26.288  1.00  0.00     0.091 A 
ATOM     69  F   UNL A   1      42.172  24.452  28.557  1.00  0.00    -0.205 F 
ATOM     70  C   UNL A   1      42.638  25.700  25.205  1.00  0.00     0.022 A 
BRANCH  68  71
ATOM     71  S   UNL A   1      42.719  23.071  25.954  1.00  0.00     0.127 S 
ATOM     72  O   UNL A   1      43.786  22.710  26.890  1.00  0.00    -0.237 OA
ATOM     73  O   UNL A   1      41.404  22.527  26.292  1.00  0.00    -0.237 OA
ATOM     74  O   UNL A   1      43.093  22.954  24.549  1.00  0.00    -0.744 OA
ENDBRANCH  68  71
ENDBRANCH  50  64
BRANCH  51  75
ATOM     75  C   UNL A   1      40.208  33.243  35.123  1.00  0.00     0.023 A 
ATOM     76  C   UNL A   1      39.142  32.325  35.319  1.00  0.00     0.012 A 
ATOM     77  C   UNL A   1      40.283  34.358  35.986  1.00  0.00     0.148 A 
ATOM     78  C   UNL A   1      38.264  32.452  36.406  1.00  0.00     0.002 A 
ATOM     79  C   UNL A   1      39.437  34.445  37.095  1.00  0.00     0.091 A 
ATOM     80  F   UNL A   1      41.283  35.235  35.824  1.00  0.00    -0.205 F 
ATOM     81  C   UNL A   1      38.436  33.491  37.314  1.00  0.00     0.022 A 
BRANCH  79  82
ATOM     82  S   UNL A   1      39.812  35.618  38.411  1.00  0.00     0.127 S 
ATOM     83  O   UNL A   1      38.812  35.297  39.433  1.00  0.00    -0.237 OA
ATOM     84  O   UNL A   1      41.172  35.273  38.798  1.00  0.00    -0.237 OA
ATOM     85  O   UNL A   1      39.619  36.897  37.738  1.00  0.00    -0.744 OA
ENDBRANCH  79  82
ENDBRANCH  51  75
BRANCH  63  86
ATOM     86  C   UNL A   1      42.753  26.883  34.460  1.00  0.00     0.023 A 
ATOM     87  C   UNL A   1      41.507  26.456  34.961  1.00  0.00     0.012 A 
ATOM     88  C   UNL A   1      43.811  25.949  34.482  1.00  0.00     0.148 A 
ATOM     89  C   UNL A   1      41.350  25.212  35.578  1.00  0.00     0.002 A 
ATOM     90  C   UNL A   1      43.614  24.664  34.978  1.00  0.00     0.091 A 
ATOM     91  F   UNL A   1      45.023  26.307  34.029  1.00  0.00    -0.205 F 
ATOM     92  C   UNL A   1      42.402  24.307  35.573  1.00  0.00     0.022 A 
BRANCH  90  93
ATOM     93  S   UNL A   1      44.861  23.400  34.716  1.00  0.00     0.127 S 
ATOM     94  O   UNL A   1      45.845  23.716  35.748  1.00  0.00    -0.237 OA
ATOM     95  O   UNL A   1      44.118  22.159  34.944  1.00  0.00    -0.237 OA
ATOM     96  O   UNL A   1      45.286  23.592  33.335  1.00  0.00    -0.744 OA
ENDBRANCH  90  93
ENDBRANCH  63  86
ENDBRANCH  37  38
ENDBRANCH  30  32
ENDBRANCH  29  30
ENDBRANCH  28  29
ENDBRANCH   1  28
TORSDOF 17
ENDMDL
MODEL 2
REMARK VINA RESULT:     -12.5      4.849     10.396
REMARK SMILES Cc1ccccc1Nc1nc2c(c(=O)[nH]c(=O)n2C)n1CC(=O)OCCOC(=O)c1ccc(-c2c3nc(c(-c4cccc(S(=O)(=O)[O-])c4F)c4ccc([nH]4)c(-c4cccc(S(=O)(=O)[O-])c4F)c4nc(c(-c5cccc(S(=O)(=O)[O-])c5F)c5ccc2[nH]5)C=C4)C=C3)cc1
REMARK SMILES IDX 25 1 24 2 22 3 23 4 21 5 20 6 9 7 10 8 11 9 12 10 18 11
REMARK SMILES IDX 13 12 16 13 19 14 14 15 15 16 17 17 8 19 7 21 1 22 2 23 3 24
REMARK SMILES IDX 4 25 6 26 5 27 26 28 27 29 28 30 29 31 30 32 31 33 92 34
REMARK SMILES IDX 32 35 91 36 33 37 34 38 35 39 85 40 36 41 90 42 84 43 86 44
REMARK SMILES IDX 37 45 89 46 83 47 82 48 38 50 70 51 50 52 69 53 51 54 54 55
REMARK SMILES IDX 68 56 87 57 52 58 53 59 67 61 88 62 55 63 39 64 40 65 48 66
REMARK SMILES IDX 41 67 43 68 49 69 42 70 44 71 45 72 46 73 47 74 71 75 72 76
REMARK SMILES IDX 80 77 73 78 75 79 81 80 74 81 76 82 77 83 78 84 79 85 56 86
REMARK SMILES IDX 57 87 65 88 58 89 60 90 66 91 59 92 61 93 62 94 63 95 64 96
REMARK H PARENT 15 18 8 20 86 49 54 60
REMARK Flexibility Score: inf
ROOT
ATOM      1  C   UNL A   1      36.965  22.292  25.529  1.00  0.00     0.274 C 
ENDROOT
BRANCH   1   2
ATOM      2  O   UNL A   1      36.920  23.165  24.407  1.00  0.00    -0.461 OA
BRANCH   2   3
ATOM      3  C   UNL A   1      35.839  23.223  23.600  1.00  0.00     0.326 C 
ATOM      4  O   UNL A   1      35.870  23.011  22.399  1.00  0.00    -0.250 OA
BRANCH   3   5
ATOM      5  C   UNL A   1      34.633  23.368  24.477  1.00  0.00     0.248 C 
BRANCH   5   6
ATOM      6  N   UNL A   1      33.388  22.716  24.114  1.00  0.00    -0.293 N 
ATOM      7  C   UNL A   1      32.699  22.643  22.916  1.00  0.00     0.210 A 
ATOM      8  N   UNL A   1      32.328  21.385  22.721  1.00  0.00    -0.194 NA
ATOM      9  C   UNL A   1      32.575  20.758  23.908  1.00  0.00     0.170 A 
ATOM     10  C   UNL A   1      32.984  21.634  24.857  1.00  0.00     0.154 A 
ATOM     11  N   UNL A   1      32.548  19.408  24.176  1.00  0.00    -0.279 N 
ATOM     12  C   UNL A   1      33.246  21.287  26.212  1.00  0.00     0.279 A 
ATOM     13  C   UNL A   1      32.843  18.970  25.469  1.00  0.00     0.329 A 
ATOM     14  C   UNL A   1      32.376  18.466  23.095  1.00  0.00     0.157 C 
ATOM     15  O   UNL A   1      33.619  22.056  27.071  1.00  0.00    -0.267 OA
ATOM     16  N   UNL A   1      33.093  19.935  26.426  1.00  0.00    -0.272 N 
ATOM     17  O   UNL A   1      32.920  17.781  25.785  1.00  0.00    -0.248 OA
ATOM     18  H   UNL A   1      33.169  19.624  27.357  1.00  0.00     0.175 HD
BRANCH   7  19
ATOM     19  N   UNL A   1      32.128  23.742  22.355  1.00  0.00    -0.325 N 
ATOM     20  H   UNL A   1      32.073  23.744  21.372  1.00  0.00     0.170 HD
BRANCH  19  21
ATOM     21  C   UNL A   1      31.600  24.883  23.009  1.00  0.00     0.044 A 
ATOM     22  C   UNL A   1      33.594  26.388  22.348  1.00  0.00     0.046 C 
ATOM     23  C   UNL A   1      32.203  26.158  22.880  1.00  0.00    -0.027 A 
ATOM     24  C   UNL A   1      31.461  27.315  23.205  1.00  0.00     0.005 A 
ATOM     25  C   UNL A   1      30.168  27.225  23.712  1.00  0.00     0.000 A 
ATOM     26  C   UNL A   1      30.359  24.823  23.657  1.00  0.00     0.026 A 
ATOM     27  C   UNL A   1      29.634  25.974  23.980  1.00  0.00     0.002 A 
ENDBRANCH  19  21
ENDBRANCH   7  19
ENDBRANCH   5   6
ENDBRANCH   3   5
ENDBRANCH   2   3
ENDBRANCH   1   2
BRANCH   1  28
ATOM     28  C   UNL A   1      38.320  21.572  25.726  1.00  0.00     0.275 C 
BRANCH  28  29
ATOM     29  O   UNL A   1      39.425  22.303  26.336  1.00  0.00    -0.458 OA
BRANCH  29  30
ATOM     30  C   UNL A   1      40.708  21.889  26.548  1.00  0.00     0.338 C 
ATOM     31  O   UNL A   1      41.175  20.835  26.145  1.00  0.00    -0.246 OA
BRANCH  30  32
ATOM     32  C   UNL A   1      41.569  22.951  27.064  1.00  0.00     0.060 A 
ATOM     33  C   UNL A   1      41.931  23.095  28.415  1.00  0.00     0.016 A 
ATOM     34  C   UNL A   1      42.012  23.848  26.115  1.00  0.00     0.016 A 
ATOM     35  C   UNL A   1      42.680  24.214  28.790  1.00  0.00     0.010 A 
ATOM     36  C   UNL A   1      43.042  24.690  26.420  1.00  0.00     0.010 A 
ATOM     37  C   UNL A   1      43.154  25.044  27.772  1.00  0.00    -0.014 A 
BRANCH  37  38
ATOM     38  C   UNL A   1      43.122  26.513  27.854  1.00  0.00     0.031 A 
ATOM     39  C   UNL A   1      41.865  27.219  28.069  1.00  0.00     0.074 A 
ATOM     40  C   UNL A   1      44.233  26.891  28.541  1.00  0.00     0.049 A 
ATOM     41  N   UNL A   1      41.804  28.472  28.347  1.00  0.00    -0.248 NA
ATOM     42  C   UNL A   1      40.574  26.557  28.008  1.00  0.00     0.031 C 
ATOM     43  C   UNL A   1      44.332  27.622  29.798  1.00  0.00     0.029 A 
ATOM     44  N   UNL A   1      45.496  26.328  28.403  1.00  0.00    -0.354 N 
ATOM     45  C   UNL A   1      40.539  28.702  28.839  1.00  0.00     0.074 A 
ATOM     46  C   UNL A   1      39.775  27.548  28.416  1.00  0.00     0.031 C 
ATOM     47  C   UNL A   1      45.623  27.627  30.189  1.00  0.00     0.029 A 
ATOM     48  C   UNL A   1      46.425  27.067  29.108  1.00  0.00     0.049 A 
ATOM     49  H   UNL A   1      45.700  25.519  27.879  1.00  0.00     0.167 HD
ATOM     50  C   UNL A   1      40.357  29.738  29.710  1.00  0.00     0.034 A 
ATOM     51  C   UNL A   1      47.466  27.640  28.441  1.00  0.00     0.034 A 
ATOM     52  C   UNL A   1      41.660  30.403  30.009  1.00  0.00     0.049 A 
ATOM     53  C   UNL A   1      47.194  29.134  28.339  1.00  0.00     0.074 A 
ATOM     54  C   UNL A   1      42.479  30.413  31.129  1.00  0.00     0.029 A 
ATOM     55  N   UNL A   1      42.438  30.938  28.978  1.00  0.00    -0.354 N 
ATOM     56  N   UNL A   1      46.299  29.796  29.030  1.00  0.00    -0.248 NA
ATOM     57  C   UNL A   1      47.861  29.979  27.353  1.00  0.00     0.031 C 
ATOM     58  C   UNL A   1      43.786  30.830  30.725  1.00  0.00     0.029 A 
ATOM     59  C   UNL A   1      43.767  31.115  29.370  1.00  0.00     0.049 A 
ATOM     60  H   UNL A   1      42.092  31.161  28.085  1.00  0.00     0.167 HD
ATOM     61  C   UNL A   1      45.983  30.928  28.326  1.00  0.00     0.074 A 
ATOM     62  C   UNL A   1      47.113  31.091  27.422  1.00  0.00     0.031 C 
ATOM     63  C   UNL A   1      44.764  31.557  28.383  1.00  0.00     0.034 A 
BRANCH  50  64
ATOM     64  C   UNL A   1      39.093  30.019  30.532  1.00  0.00     0.023 A 
ATOM     65  C   UNL A   1      38.818  29.140  31.604  1.00  0.00     0.012 A 
ATOM     66  C   UNL A   1      38.141  31.057  30.352  1.00  0.00     0.148 A 
ATOM     67  C   UNL A   1      37.665  29.240  32.396  1.00  0.00     0.002 A 
ATOM     68  C   UNL A   1      36.981  31.154  31.129  1.00  0.00     0.091 A 
ATOM     69  F   UNL A   1      38.341  32.009  29.449  1.00  0.00    -0.205 F 
ATOM     70  C   UNL A   1      36.736  30.241  32.152  1.00  0.00     0.022 A 
BRANCH  68  71
ATOM     71  S   UNL A   1      35.731  32.432  30.861  1.00  0.00     0.127 S 
ATOM     72  O   UNL A   1      35.192  32.061  29.550  1.00  0.00    -0.237 OA
ATOM     73  O   UNL A   1      34.814  32.212  31.978  1.00  0.00    -0.237 OA
ATOM     74  O   UNL A   1      36.431  33.711  30.878  1.00  0.00    -0.744 OA
ENDBRANCH  68  71
ENDBRANCH  50  64
BRANCH  51  75
ATOM     75  C   UNL A   1      47.936  26.751  27.300  1.00  0.00     0.023 A 
ATOM     76  C   UNL A   1      47.181  26.802  26.097  1.00  0.00     0.012 A 
ATOM     77  C   UNL A   1      49.284  26.339  27.214  1.00  0.00     0.148 A 
ATOM     78  C   UNL A   1      47.782  26.570  24.852  1.00  0.00     0.002 A 
ATOM     79  C   UNL A   1      49.885  26.164  25.964  1.00  0.00     0.091 A 
ATOM     80  F   UNL A   1      50.018  26.289  28.333  1.00  0.00    -0.205 F 
ATOM     81  C   UNL A   1      49.142  26.288  24.783  1.00  0.00     0.022 A 
BRANCH  79  82
ATOM     82  S   UNL A   1      51.680  26.064  25.846  1.00  0.00     0.127 S 
ATOM     83  O   UNL A   1      51.922  26.169  24.405  1.00  0.00    -0.237 OA
ATOM     84  O   UNL A   1      52.137  27.222  26.600  1.00  0.00    -0.237 OA
ATOM     85  O   UNL A   1      51.947  24.751  26.423  1.00  0.00    -0.744 OA
ENDBRANCH  79  82
ENDBRANCH  51  75
BRANCH  63  86
ATOM     86  C   UNL A   1      44.399  32.654  27.407  1.00  0.00     0.023 A 
ATOM     87  C   UNL A   1      44.179  32.403  26.037  1.00  0.00     0.012 A 
ATOM     88  C   UNL A   1      44.145  33.962  27.871  1.00  0.00     0.148 A 
ATOM     89  C   UNL A   1      43.854  33.428  25.145  1.00  0.00     0.002 A 
ATOM     90  C   UNL A   1      43.693  34.950  27.001  1.00  0.00     0.091 A 
ATOM     91  F   UNL A   1      44.349  34.260  29.164  1.00  0.00    -0.205 F 
ATOM     92  C   UNL A   1      43.596  34.702  25.631  1.00  0.00     0.022 A 
BRANCH  90  93
ATOM     93  S   UNL A   1      43.079  36.506  27.651  1.00  0.00     0.127 S 
ATOM     94  O   UNL A   1      44.297  37.133  28.159  1.00  0.00    -0.237 OA
ATOM     95  O   UNL A   1      42.513  37.152  26.465  1.00  0.00    -0.237 OA
ATOM     96  O   UNL A   1      42.087  36.117  28.646  1.00  0.00    -0.744 OA
ENDBRANCH  90  93
ENDBRANCH  63  86
ENDBRANCH  37  38
ENDBRANCH  30  32
ENDBRANCH  29  30
ENDBRANCH  28  29
ENDBRANCH   1  28
TORSDOF 17
ENDMDL
MODEL 3
REMARK VINA RESULT:     -12.3      1.237      3.346
REMARK SMILES Cc1ccccc1Nc1nc2c(c(=O)[nH]c(=O)n2C)n1CC(=O)OCCOC(=O)c1ccc(-c2c3nc(c(-c4cccc(S(=O)(=O)[O-])c4F)c4ccc([nH]4)c(-c4cccc(S(=O)(=O)[O-])c4F)c4nc(c(-c5cccc(S(=O)(=O)[O-])c5F)c5ccc2[nH]5)C=C4)C=C3)cc1
REMARK SMILES IDX 25 1 24 2 22 3 23 4 21 5 20 6 9 7 10 8 11 9 12 10 18 11
REMARK SMILES IDX 13 12 16 13 19 14 14 15 15 16 17 17 8 19 7 21 1 22 2 23 3 24
REMARK SMILES IDX 4 25 6 26 5 27 26 28 27 29 28 30 29 31 30 32 31 33 92 34
REMARK SMILES IDX 32 35 91 36 33 37 34 38 35 39 85 40 36 41 90 42 84 43 86 44
REMARK SMILES IDX 37 45 89 46 83 47 82 48 38 50 70 51 50 52 69 53 51 54 54 55
REMARK SMILES IDX 68 56 87 57 52 58 53 59 67 61 88 62 55 63 39 64 40 65 48 66
REMARK SMILES IDX 41 67 43 68 49 69 42 70 44 71 45 72 46 73 47 74 71 75 72 76
REMARK SMILES IDX 80 77 73 78 75 79 81 80 74 81 76 82 77 83 78 84 79 85 56 86
REMARK SMILES IDX 57 87 65 88 58 89 60 90 66 91 59 92 61 93 62 94 63 95 64 96
REMARK H PARENT 15 18 8 20 86 49 54 60
REMARK Flexibility Score: inf
ROOT
ATOM      1  C   UNL A   1      32.929  28.736  27.286  1.00  0.00     0.274 C 
ENDROOT
BRANCH   1   2
ATOM      2  O   UNL A   1      32.791  28.078  26.033  1.00  0.00    -0.461 OA
BRANCH   2   3
ATOM      3  C   UNL A   1      32.973  26.746  25.911  1.00  0.00     0.326 C 
ATOM      4  O   UNL A   1      34.043  26.224  25.643  1.00  0.00    -0.250 OA
BRANCH   3   5
ATOM      5  C   UNL A   1      31.713  26.079  26.370  1.00  0.00     0.248 C 
BRANCH   5   6
ATOM      6  N   UNL A   1      30.925  25.294  25.436  1.00  0.00    -0.293 N 
ATOM      7  C   UNL A   1      30.375  25.603  24.204  1.00  0.00     0.210 A 
ATOM      8  N   UNL A   1      30.641  24.610  23.365  1.00  0.00    -0.194 NA
ATOM      9  C   UNL A   1      31.129  23.607  24.152  1.00  0.00     0.170 A 
ATOM     10  C   UNL A   1      31.060  23.927  25.466  1.00  0.00     0.154 A 
ATOM     11  N   UNL A   1      31.732  22.435  23.754  1.00  0.00    -0.279 N 
ATOM     12  C   UNL A   1      31.427  23.052  26.526  1.00  0.00     0.279 A 
ATOM     13  C   UNL A   1      32.172  21.536  24.729  1.00  0.00     0.329 A 
ATOM     14  C   UNL A   1      32.043  22.226  22.359  1.00  0.00     0.157 C 
ATOM     15  O   UNL A   1      31.380  23.325  27.706  1.00  0.00    -0.267 OA
ATOM     16  N   UNL A   1      31.921  21.858  26.049  1.00  0.00    -0.272 N 
ATOM     17  O   UNL A   1      32.790  20.502  24.473  1.00  0.00    -0.248 OA
ATOM     18  H   UNL A   1      32.115  21.162  26.718  1.00  0.00     0.175 HD
BRANCH   7  19
ATOM     19  N   UNL A   1      29.368  26.506  24.081  1.00  0.00    -0.325 N 
ATOM     20  H   UNL A   1      28.578  26.351  24.650  1.00  0.00     0.170 HD
BRANCH  19  21
ATOM     21  C   UNL A   1      29.311  27.645  23.240  1.00  0.00     0.044 A 
ATOM     22  C   UNL A   1      26.771  27.975  23.580  1.00  0.00     0.046 C 
ATOM     23  C   UNL A   1      28.135  28.424  23.123  1.00  0.00    -0.027 A 
ATOM     24  C   UNL A   1      28.218  29.737  22.606  1.00  0.00     0.005 A 
ATOM     25  C   UNL A   1      29.424  30.257  22.146  1.00  0.00     0.000 A 
ATOM     26  C   UNL A   1      30.473  28.143  22.636  1.00  0.00     0.026 A 
ATOM     27  C   UNL A   1      30.544  29.441  22.120  1.00  0.00     0.002 A 
ENDBRANCH  19  21
ENDBRANCH   7  19
ENDBRANCH   5   6
ENDBRANCH   3   5
ENDBRANCH   2   3
ENDBRANCH   1   2
BRANCH   1  28
ATOM     28  C   UNL A   1      33.157  30.263  27.187  1.00  0.00     0.275 C 
BRANCH  28  29
ATOM     29  O   UNL A   1      34.461  30.807  27.547  1.00  0.00    -0.458 OA
BRANCH  29  30
ATOM     30  C   UNL A   1      34.751  31.981  28.180  1.00  0.00     0.338 C 
ATOM     31  O   UNL A   1      33.981  32.924  28.284  1.00  0.00    -0.246 OA
BRANCH  30  32
ATOM     32  C   UNL A   1      35.973  31.909  28.977  1.00  0.00     0.060 A 
ATOM     33  C   UNL A   1      37.178  32.553  28.643  1.00  0.00     0.016 A 
ATOM     34  C   UNL A   1      35.879  31.132  30.112  1.00  0.00     0.016 A 
ATOM     35  C   UNL A   1      38.302  32.321  29.440  1.00  0.00     0.010 A 
ATOM     36  C   UNL A   1      36.846  31.230  31.071  1.00  0.00     0.010 A 
ATOM     37  C   UNL A   1      38.123  31.582  30.611  1.00  0.00    -0.014 A 
BRANCH  37  38
ATOM     38  C   UNL A   1      39.060  30.538  31.053  1.00  0.00     0.031 A 
ATOM     39  C   UNL A   1      39.279  29.343  30.247  1.00  0.00     0.074 A 
ATOM     40  C   UNL A   1      40.123  31.178  31.610  1.00  0.00     0.049 A 
ATOM     41  N   UNL A   1      40.224  28.504  30.479  1.00  0.00    -0.248 NA
ATOM     42  C   UNL A   1      38.456  29.012  29.097  1.00  0.00     0.031 C 
ATOM     43  C   UNL A   1      41.526  31.146  31.214  1.00  0.00     0.029 A 
ATOM     44  N   UNL A   1      40.051  32.301  32.426  1.00  0.00    -0.354 N 
ATOM     45  C   UNL A   1      40.357  27.740  29.342  1.00  0.00     0.074 A 
ATOM     46  C   UNL A   1      39.124  27.958  28.618  1.00  0.00     0.031 C 
ATOM     47  C   UNL A   1      42.197  32.061  31.944  1.00  0.00     0.029 A 
ATOM     48  C   UNL A   1      41.291  32.578  32.964  1.00  0.00     0.049 A 
ATOM     49  H   UNL A   1      39.234  32.823  32.596  1.00  0.00     0.167 HD
ATOM     50  C   UNL A   1      41.575  27.187  29.067  1.00  0.00     0.034 A 
ATOM     51  C   UNL A   1      41.448  32.570  34.318  1.00  0.00     0.034 A 
ATOM     52  C   UNL A   1      42.580  27.605  30.090  1.00  0.00     0.049 A 
ATOM     53  C   UNL A   1      42.194  31.299  34.698  1.00  0.00     0.074 A 
ATOM     54  C   UNL A   1      43.656  28.480  30.053  1.00  0.00     0.029 A 
ATOM     55  N   UNL A   1      42.366  27.340  31.446  1.00  0.00    -0.354 N 
ATOM     56  N   UNL A   1      42.845  30.520  33.870  1.00  0.00    -0.248 NA
ATOM     57  C   UNL A   1      42.169  30.760  36.054  1.00  0.00     0.031 C 
ATOM     58  C   UNL A   1      43.991  28.836  31.397  1.00  0.00     0.029 A 
ATOM     59  C   UNL A   1      43.153  28.154  32.264  1.00  0.00     0.049 A 
ATOM     60  H   UNL A   1      41.738  26.662  31.783  1.00  0.00     0.167 HD
ATOM     61  C   UNL A   1      42.915  29.274  34.437  1.00  0.00     0.074 A 
ATOM     62  C   UNL A   1      42.673  29.533  35.850  1.00  0.00     0.031 C 
ATOM     63  C   UNL A   1      42.980  28.104  33.724  1.00  0.00     0.034 A 
BRANCH  50  64
ATOM     64  C   UNL A   1      41.985  26.501  27.758  1.00  0.00     0.023 A 
ATOM     65  C   UNL A   1      42.176  27.334  26.632  1.00  0.00     0.012 A 
ATOM     66  C   UNL A   1      42.193  25.117  27.519  1.00  0.00     0.148 A 
ATOM     67  C   UNL A   1      42.488  26.835  25.359  1.00  0.00     0.002 A 
ATOM     68  C   UNL A   1      42.488  24.611  26.248  1.00  0.00     0.091 A 
ATOM     69  F   UNL A   1      42.149  24.244  28.519  1.00  0.00    -0.205 F 
ATOM     70  C   UNL A   1      42.632  25.470  25.161  1.00  0.00     0.022 A 
BRANCH  68  71
ATOM     71  S   UNL A   1      42.686  22.844  25.924  1.00  0.00     0.127 S 
ATOM     72  O   UNL A   1      43.081  22.835  24.513  1.00  0.00    -0.237 OA
ATOM     73  O   UNL A   1      43.751  22.473  26.855  1.00  0.00    -0.237 OA
ATOM     74  O   UNL A   1      41.393  22.223  26.186  1.00  0.00    -0.744 OA
ENDBRANCH  68  71
ENDBRANCH  50  64
BRANCH  51  75
ATOM     75  C   UNL A   1      40.202  33.099  35.011  1.00  0.00     0.023 A 
ATOM     76  C   UNL A   1      39.157  32.167  35.247  1.00  0.00     0.012 A 
ATOM     77  C   UNL A   1      40.269  34.238  35.844  1.00  0.00     0.148 A 
ATOM     78  C   UNL A   1      38.293  32.306  36.343  1.00  0.00     0.002 A 
ATOM     79  C   UNL A   1      39.439  34.337  36.964  1.00  0.00     0.091 A 
ATOM     80  F   UNL A   1      41.250  35.128  35.646  1.00  0.00    -0.205 F 
ATOM     81  C   UNL A   1      38.458  33.371  37.222  1.00  0.00     0.022 A 
BRANCH  79  82
ATOM     82  S   UNL A   1      39.811  35.550  38.244  1.00  0.00     0.127 S 
ATOM     83  O   UNL A   1      38.807  35.262  39.272  1.00  0.00    -0.237 OA
ATOM     84  O   UNL A   1      41.169  35.216  38.646  1.00  0.00    -0.237 OA
ATOM     85  O   UNL A   1      39.621  36.807  37.531  1.00  0.00    -0.744 OA
ENDBRANCH  79  82
ENDBRANCH  51  75
BRANCH  63  86
ATOM     86  C   UNL A   1      42.811  26.761  34.400  1.00  0.00     0.023 A 
ATOM     87  C   UNL A   1      41.601  26.366  35.004  1.00  0.00     0.012 A 
ATOM     88  C   UNL A   1      43.843  25.799  34.336  1.00  0.00     0.148 A 
ATOM     89  C   UNL A   1      41.464  25.128  35.636  1.00  0.00     0.002 A 
ATOM     90  C   UNL A   1      43.655  24.520  34.851  1.00  0.00     0.091 A 
ATOM     91  F   UNL A   1      45.022  26.125  33.782  1.00  0.00    -0.205 F 
ATOM     92  C   UNL A   1      42.489  24.196  35.546  1.00  0.00     0.022 A 
BRANCH  90  93
ATOM     93  S   UNL A   1      44.843  23.224  34.489  1.00  0.00     0.127 S 
ATOM     94  O   UNL A   1      44.216  22.051  35.091  1.00  0.00    -0.237 OA
ATOM     95  O   UNL A   1      44.876  23.212  33.025  1.00  0.00    -0.237 OA
ATOM     96  O   UNL A   1      46.081  23.685  35.107  1.00  0.00    -0.744 OA
ENDBRANCH  90  93
ENDBRANCH  63  86
ENDBRANCH  37  38
ENDBRANCH  30  32
ENDBRANCH  29  30
ENDBRANCH  28  29
ENDBRANCH   1  28
TORSDOF 17
ENDMDL
