MODEL 1
REMARK VINA RESULT:     -10.8      0.000      0.000
REMARK SMILES C[NH+](C)CCNC(=O)NC1(CC(=O)OCCOC(=O)c2ccc(-c3c4nc(c(-c5cccc(S(=O)(=O)[O-])c5F)c5ccc([nH]5)c(-c5cccc(S(=O)(=O)[O-])c5F)c5nc(c(-c6cccc(S(=O)(=O)[O-])c6F)c6ccc3[nH]6)C=C5)C=C4)cc2)CCC1
REMARK SMILES IDX 15 1 14 2 12 3 13 4 11 5 10 6 83 7 85 8 84 9 9 10 6 11 7 12
REMARK SMILES IDX 8 14 5 16 4 17 2 18 1 19 3 20 16 22 17 23 18 24 19 25 20 26
REMARK SMILES IDX 21 27 82 28 22 29 81 30 23 31 24 32 25 33 75 34 26 35 80 36
REMARK SMILES IDX 74 37 76 38 27 39 79 40 73 41 72 42 28 44 60 45 40 46 59 47
REMARK SMILES IDX 41 48 44 49 58 50 77 51 42 52 43 53 57 55 78 56 45 57 29 58
REMARK SMILES IDX 30 59 38 60 31 61 33 62 39 63 32 64 34 65 35 66 36 67 37 68
REMARK SMILES IDX 61 69 62 70 70 71 63 72 65 73 71 74 64 75 66 76 67 77 68 78
REMARK SMILES IDX 69 79 46 80 47 81 55 82 48 83 50 84 56 85 49 86 51 87 52 88
REMARK SMILES IDX 53 89 54 90
REMARK H PARENT 6 13 9 15 2 21 76 43 44 54
REMARK Flexibility Score: inf
ROOT
ATOM      1  C   UNL A   1      35.273  21.020  25.394  1.00  0.00     0.274 C 
ENDROOT
BRANCH   1   2
ATOM      2  O   UNL A   1      35.064  22.355  25.922  1.00  0.00    -0.462 OA
BRANCH   2   3
ATOM      3  C   UNL A   1      34.029  22.462  26.782  1.00  0.00     0.308 C 
ATOM      4  O   UNL A   1      34.173  22.464  28.003  1.00  0.00    -0.252 OA
BRANCH   3   5
ATOM      5  C   UNL A   1      32.671  22.692  26.177  1.00  0.00     0.151 C 
BRANCH   5   6
ATOM      6  C   UNL A   1      32.326  23.686  25.051  1.00  0.00     0.052 C 
ATOM      7  C   UNL A   1      32.409  25.150  25.681  1.00  0.00     0.029 C 
ATOM      8  C   UNL A   1      30.834  24.104  24.725  1.00  0.00     0.029 C 
ATOM      9  C   UNL A   1      30.889  25.106  25.885  1.00  0.00     0.005 C 
BRANCH   6  10
ATOM     10  N   UNL A   1      33.221  23.639  23.878  1.00  0.00    -0.332 N 
ATOM     11  N   UNL A   1      32.612  21.708  22.648  1.00  0.00    -0.332 N 
ATOM     12  C   UNL A   1      33.170  22.923  22.737  1.00  0.00     0.315 C 
ATOM     13  H   UNL A   1      32.475  21.408  21.720  1.00  0.00     0.165 HD
ATOM     14  O   UNL A   1      33.643  23.420  21.715  1.00  0.00    -0.249 OA
ATOM     15  H   UNL A   1      33.998  24.239  23.942  1.00  0.00     0.165 HD
BRANCH  11  16
ATOM     16  C   UNL A   1      32.172  20.747  23.636  1.00  0.00     0.179 C 
BRANCH  16  17
ATOM     17  C   UNL A   1      32.339  19.290  23.162  1.00  0.00     0.283 C 
BRANCH  17  18
ATOM     18  N   UNL A   1      33.257  18.450  23.955  1.00  0.00    -0.338 N 
ATOM     19  C   UNL A   1      32.728  18.155  25.287  1.00  0.00     0.332 C 
ATOM     20  C   UNL A   1      33.619  17.222  23.249  1.00  0.00     0.332 C 
ATOM     21  H   UNL A   1      34.109  18.995  24.082  1.00  0.00     0.347 HD
ENDBRANCH  17  18
ENDBRANCH  16  17
ENDBRANCH  11  16
ENDBRANCH   6  10
ENDBRANCH   5   6
ENDBRANCH   3   5
ENDBRANCH   2   3
ENDBRANCH   1   2
BRANCH   1  22
ATOM     22  C   UNL A   1      36.729  20.832  24.975  1.00  0.00     0.275 C 
BRANCH  22  23
ATOM     23  O   UNL A   1      37.498  21.823  25.662  1.00  0.00    -0.458 OA
BRANCH  23  24
ATOM     24  C   UNL A   1      38.751  21.427  25.980  1.00  0.00     0.338 C 
ATOM     25  O   UNL A   1      39.272  20.353  25.769  1.00  0.00    -0.246 OA
BRANCH  24  26
ATOM     26  C   UNL A   1      39.430  22.592  26.542  1.00  0.00     0.060 A 
ATOM     27  C   UNL A   1      40.446  22.401  27.488  1.00  0.00     0.016 A 
ATOM     28  C   UNL A   1      39.072  23.858  26.095  1.00  0.00     0.016 A 
ATOM     29  C   UNL A   1      41.120  23.505  27.997  1.00  0.00     0.010 A 
ATOM     30  C   UNL A   1      39.769  24.956  26.582  1.00  0.00     0.010 A 
ATOM     31  C   UNL A   1      40.794  24.785  27.531  1.00  0.00    -0.014 A 
BRANCH  31  32
ATOM     32  C   UNL A   1      41.544  25.977  27.973  1.00  0.00     0.031 A 
ATOM     33  C   UNL A   1      40.831  27.051  28.735  1.00  0.00     0.074 A 
ATOM     34  C   UNL A   1      42.814  26.125  27.551  1.00  0.00     0.049 A 
ATOM     35  N   UNL A   1      41.231  28.258  29.026  1.00  0.00    -0.248 NA
ATOM     36  C   UNL A   1      39.474  26.733  29.208  1.00  0.00     0.031 C 
ATOM     37  C   UNL A   1      43.563  25.135  26.774  1.00  0.00     0.029 A 
ATOM     38  N   UNL A   1      43.677  27.182  27.665  1.00  0.00    -0.354 N 
ATOM     39  C   UNL A   1      40.159  28.865  29.668  1.00  0.00     0.074 A 
ATOM     40  C   UNL A   1      39.091  27.890  29.730  1.00  0.00     0.031 C 
ATOM     41  C   UNL A   1      44.762  25.643  26.452  1.00  0.00     0.029 A 
ATOM     42  C   UNL A   1      44.845  27.007  26.959  1.00  0.00     0.049 A 
ATOM     43  H   UNL A   1      43.482  27.986  28.198  1.00  0.00     0.167 HD
ATOM     44  C   UNL A   1      40.082  30.124  30.161  1.00  0.00     0.034 A 
ATOM     45  C   UNL A   1      45.849  27.869  26.717  1.00  0.00     0.034 A 
ATOM     46  C   UNL A   1      41.171  31.062  30.095  1.00  0.00     0.049 A 
ATOM     47  C   UNL A   1      45.751  29.249  27.303  1.00  0.00     0.074 A 
ATOM     48  C   UNL A   1      41.240  32.346  30.605  1.00  0.00     0.029 A 
ATOM     49  N   UNL A   1      42.386  30.813  29.468  1.00  0.00    -0.354 N 
ATOM     50  N   UNL A   1      44.777  29.776  28.006  1.00  0.00    -0.248 NA
ATOM     51  C   UNL A   1      46.896  30.143  27.091  1.00  0.00     0.031 C 
ATOM     52  C   UNL A   1      42.489  32.879  30.269  1.00  0.00     0.029 A 
ATOM     53  C   UNL A   1      43.210  31.920  29.574  1.00  0.00     0.049 A 
ATOM     54  H   UNL A   1      42.626  29.973  29.015  1.00  0.00     0.167 HD
ATOM     55  C   UNL A   1      45.200  31.053  28.348  1.00  0.00     0.074 A 
ATOM     56  C   UNL A   1      46.531  31.209  27.791  1.00  0.00     0.031 C 
ATOM     57  C   UNL A   1      44.547  32.018  29.042  1.00  0.00     0.034 A 
BRANCH  44  58
ATOM     58  C   UNL A   1      38.794  30.544  30.823  1.00  0.00     0.023 A 
ATOM     59  C   UNL A   1      38.615  30.322  32.204  1.00  0.00     0.012 A 
ATOM     60  C   UNL A   1      37.774  31.184  30.091  1.00  0.00     0.148 A 
ATOM     61  C   UNL A   1      37.429  30.695  32.838  1.00  0.00     0.002 A 
ATOM     62  C   UNL A   1      36.612  31.591  30.738  1.00  0.00     0.091 A 
ATOM     63  F   UNL A   1      37.951  31.368  28.775  1.00  0.00    -0.205 F 
ATOM     64  C   UNL A   1      36.432  31.337  32.107  1.00  0.00     0.022 A 
BRANCH  62  65
ATOM     65  S   UNL A   1      35.297  32.487  29.903  1.00  0.00     0.127 S 
ATOM     66  O   UNL A   1      36.005  33.672  29.421  1.00  0.00    -0.237 OA
ATOM     67  O   UNL A   1      34.901  31.544  28.855  1.00  0.00    -0.237 OA
ATOM     68  O   UNL A   1      34.277  32.737  30.911  1.00  0.00    -0.744 OA
ENDBRANCH  62  65
ENDBRANCH  44  58
BRANCH  45  69
ATOM     69  C   UNL A   1      47.038  27.426  25.934  1.00  0.00     0.023 A 
ATOM     70  C   UNL A   1      47.976  26.566  26.538  1.00  0.00     0.012 A 
ATOM     71  C   UNL A   1      47.214  27.790  24.584  1.00  0.00     0.148 A 
ATOM     72  C   UNL A   1      49.077  26.096  25.821  1.00  0.00     0.002 A 
ATOM     73  C   UNL A   1      48.282  27.275  23.859  1.00  0.00     0.091 A 
ATOM     74  F   UNL A   1      46.317  28.617  24.027  1.00  0.00    -0.205 F 
ATOM     75  C   UNL A   1      49.224  26.440  24.481  1.00  0.00     0.022 A 
BRANCH  73  76
ATOM     76  S   UNL A   1      48.473  27.552  22.093  1.00  0.00     0.127 S 
ATOM     77  O   UNL A   1      49.622  28.452  22.054  1.00  0.00    -0.237 OA
ATOM     78  O   UNL A   1      48.733  26.199  21.599  1.00  0.00    -0.237 OA
ATOM     79  O   UNL A   1      47.207  28.117  21.649  1.00  0.00    -0.744 OA
ENDBRANCH  73  76
ENDBRANCH  45  69
BRANCH  57  80
ATOM     80  C   UNL A   1      45.280  33.313  29.264  1.00  0.00     0.023 A 
ATOM     81  C   UNL A   1      46.067  33.481  30.420  1.00  0.00     0.012 A 
ATOM     82  C   UNL A   1      45.240  34.331  28.293  1.00  0.00     0.148 A 
ATOM     83  C   UNL A   1      46.780  34.661  30.620  1.00  0.00     0.002 A 
ATOM     84  C   UNL A   1      45.994  35.482  28.476  1.00  0.00     0.091 A 
ATOM     85  F   UNL A   1      44.465  34.155  27.212  1.00  0.00    -0.205 F 
ATOM     86  C   UNL A   1      46.754  35.656  29.644  1.00  0.00     0.022 A 
BRANCH  84  87
ATOM     87  S   UNL A   1      46.096  36.766  27.225  1.00  0.00     0.127 S 
ATOM     88  O   UNL A   1      47.051  37.694  27.829  1.00  0.00    -0.237 OA
ATOM     89  O   UNL A   1      46.609  36.032  26.067  1.00  0.00    -0.237 OA
ATOM     90  O   UNL A   1      44.742  37.278  27.064  1.00  0.00    -0.744 OA
ENDBRANCH  84  87
ENDBRANCH  57  80
ENDBRANCH  31  32
ENDBRANCH  24  26
ENDBRANCH  23  24
ENDBRANCH  22  23
ENDBRANCH   1  22
TORSDOF 19
ENDMDL
MODEL 2
REMARK VINA RESULT:     -10.7      1.250      2.683
REMARK SMILES C[NH+](C)CCNC(=O)NC1(CC(=O)OCCOC(=O)c2ccc(-c3c4nc(c(-c5cccc(S(=O)(=O)[O-])c5F)c5ccc([nH]5)c(-c5cccc(S(=O)(=O)[O-])c5F)c5nc(c(-c6cccc(S(=O)(=O)[O-])c6F)c6ccc3[nH]6)C=C5)C=C4)cc2)CCC1
REMARK SMILES IDX 15 1 14 2 12 3 13 4 11 5 10 6 83 7 85 8 84 9 9 10 6 11 7 12
REMARK SMILES IDX 8 14 5 16 4 17 2 18 1 19 3 20 16 22 17 23 18 24 19 25 20 26
REMARK SMILES IDX 21 27 82 28 22 29 81 30 23 31 24 32 25 33 75 34 26 35 80 36
REMARK SMILES IDX 74 37 76 38 27 39 79 40 73 41 72 42 28 44 60 45 40 46 59 47
REMARK SMILES IDX 41 48 44 49 58 50 77 51 42 52 43 53 57 55 78 56 45 57 29 58
REMARK SMILES IDX 30 59 38 60 31 61 33 62 39 63 32 64 34 65 35 66 36 67 37 68
REMARK SMILES IDX 61 69 62 70 70 71 63 72 65 73 71 74 64 75 66 76 67 77 68 78
REMARK SMILES IDX 69 79 46 80 47 81 55 82 48 83 50 84 56 85 49 86 51 87 52 88
REMARK SMILES IDX 53 89 54 90
REMARK H PARENT 6 13 9 15 2 21 76 43 44 54
REMARK Flexibility Score: inf
ROOT
ATOM      1  C   UNL A   1      35.825  20.817  25.365  1.00  0.00     0.274 C 
ENDROOT
BRANCH   1   2
ATOM      2  O   UNL A   1      35.719  21.728  26.489  1.00  0.00    -0.462 OA
BRANCH   2   3
ATOM      3  C   UNL A   1      34.486  22.244  26.678  1.00  0.00     0.308 C 
ATOM      4  O   UNL A   1      34.021  22.471  27.793  1.00  0.00    -0.252 OA
BRANCH   3   5
ATOM      5  C   UNL A   1      33.725  22.639  25.442  1.00  0.00     0.151 C 
BRANCH   5   6
ATOM      6  C   UNL A   1      32.242  22.342  25.144  1.00  0.00     0.052 C 
ATOM      7  C   UNL A   1      32.187  20.915  24.433  1.00  0.00     0.029 C 
ATOM      8  C   UNL A   1      31.535  22.834  23.817  1.00  0.00     0.029 C 
ATOM      9  C   UNL A   1      32.145  21.636  23.079  1.00  0.00     0.005 C 
BRANCH   6  10
ATOM     10  N   UNL A   1      31.363  22.300  26.329  1.00  0.00    -0.332 N 
ATOM     11  N   UNL A   1      30.642  24.524  26.710  1.00  0.00    -0.332 N 
ATOM     12  C   UNL A   1      30.497  23.198  26.838  1.00  0.00     0.315 C 
ATOM     13  H   UNL A   1      29.835  25.031  26.956  1.00  0.00     0.165 HD
ATOM     14  O   UNL A   1      29.506  22.779  27.438  1.00  0.00    -0.249 OA
ATOM     15  H   UNL A   1      31.421  21.462  26.842  1.00  0.00     0.165 HD
BRANCH  11  16
ATOM     16  C   UNL A   1      31.743  25.362  26.285  1.00  0.00     0.179 C 
BRANCH  16  17
ATOM     17  C   UNL A   1      31.561  26.835  26.698  1.00  0.00     0.283 C 
BRANCH  17  18
ATOM     18  N   UNL A   1      32.315  27.829  25.911  1.00  0.00    -0.338 N 
ATOM     19  C   UNL A   1      33.741  27.509  25.834  1.00  0.00     0.332 C 
ATOM     20  C   UNL A   1      31.746  28.013  24.577  1.00  0.00     0.332 C 
ATOM     21  H   UNL A   1      32.231  28.715  26.408  1.00  0.00     0.347 HD
ENDBRANCH  17  18
ENDBRANCH  16  17
ENDBRANCH  11  16
ENDBRANCH   6  10
ENDBRANCH   5   6
ENDBRANCH   3   5
ENDBRANCH   2   3
ENDBRANCH   1   2
BRANCH   1  22
ATOM     22  C   UNL A   1      37.204  20.922  24.719  1.00  0.00     0.275 C 
BRANCH  22  23
ATOM     23  O   UNL A   1      37.914  21.957  25.405  1.00  0.00    -0.458 OA
BRANCH  23  24
ATOM     24  C   UNL A   1      39.034  21.534  26.034  1.00  0.00     0.338 C 
ATOM     25  O   UNL A   1      39.505  20.418  26.054  1.00  0.00    -0.246 OA
BRANCH  24  26
ATOM     26  C   UNL A   1      39.663  22.718  26.614  1.00  0.00     0.060 A 
ATOM     27  C   UNL A   1      40.640  22.558  27.606  1.00  0.00     0.016 A 
ATOM     28  C   UNL A   1      39.298  23.973  26.140  1.00  0.00     0.016 A 
ATOM     29  C   UNL A   1      41.267  23.681  28.134  1.00  0.00     0.010 A 
ATOM     30  C   UNL A   1      39.949  25.090  26.647  1.00  0.00     0.010 A 
ATOM     31  C   UNL A   1      40.934  24.949  27.641  1.00  0.00    -0.014 A 
BRANCH  31  32
ATOM     32  C   UNL A   1      41.639  26.161  28.105  1.00  0.00     0.031 A 
ATOM     33  C   UNL A   1      40.871  27.223  28.829  1.00  0.00     0.074 A 
ATOM     34  C   UNL A   1      42.921  26.336  27.733  1.00  0.00     0.049 A 
ATOM     35  N   UNL A   1      41.232  28.441  29.128  1.00  0.00    -0.248 NA
ATOM     36  C   UNL A   1      39.504  26.876  29.250  1.00  0.00     0.031 C 
ATOM     37  C   UNL A   1      43.723  25.359  26.994  1.00  0.00     0.029 A 
ATOM     38  N   UNL A   1      43.754  27.413  27.875  1.00  0.00    -0.354 N 
ATOM     39  C   UNL A   1      40.121  29.027  29.722  1.00  0.00     0.074 A 
ATOM     40  C   UNL A   1      39.074  28.028  29.747  1.00  0.00     0.031 C 
ATOM     41  C   UNL A   1      44.922  25.892  26.717  1.00  0.00     0.029 A 
ATOM     42  C   UNL A   1      44.953  27.260  27.217  1.00  0.00     0.049 A 
ATOM     43  H   UNL A   1      43.520  28.216  28.394  1.00  0.00     0.167 HD
ATOM     44  C   UNL A   1      39.995  30.287  30.202  1.00  0.00     0.034 A 
ATOM     45  C   UNL A   1      45.947  28.144  27.010  1.00  0.00     0.034 A 
ATOM     46  C   UNL A   1      41.064  31.249  30.174  1.00  0.00     0.049 A 
ATOM     47  C   UNL A   1      45.794  29.525  27.581  1.00  0.00     0.074 A 
ATOM     48  C   UNL A   1      41.083  32.537  30.676  1.00  0.00     0.029 A 
ATOM     49  N   UNL A   1      42.309  31.025  29.598  1.00  0.00    -0.354 N 
ATOM     50  N   UNL A   1      44.780  30.034  28.241  1.00  0.00    -0.248 NA
ATOM     51  C   UNL A   1      46.926  30.444  27.409  1.00  0.00     0.031 C 
ATOM     52  C   UNL A   1      42.333  33.097  30.387  1.00  0.00     0.029 A 
ATOM     53  C   UNL A   1      43.103  32.150  29.729  1.00  0.00     0.049 A 
ATOM     54  H   UNL A   1      42.586  30.187  29.161  1.00  0.00     0.167 HD
ATOM     55  C   UNL A   1      45.159  31.323  28.590  1.00  0.00     0.074 A 
ATOM     56  C   UNL A   1      46.508  31.506  28.086  1.00  0.00     0.031 C 
ATOM     57  C   UNL A   1      44.458  32.276  29.251  1.00  0.00     0.034 A 
BRANCH  44  58
ATOM     58  C   UNL A   1      38.673  30.681  30.808  1.00  0.00     0.023 A 
ATOM     59  C   UNL A   1      38.440  30.458  32.182  1.00  0.00     0.012 A 
ATOM     60  C   UNL A   1      37.671  31.298  30.033  1.00  0.00     0.148 A 
ATOM     61  C   UNL A   1      37.222  30.808  32.764  1.00  0.00     0.002 A 
ATOM     62  C   UNL A   1      36.475  31.682  30.630  1.00  0.00     0.091 A 
ATOM     63  F   UNL A   1      37.899  31.484  28.725  1.00  0.00    -0.205 F 
ATOM     64  C   UNL A   1      36.243  31.427  31.991  1.00  0.00     0.022 A 
BRANCH  62  65
ATOM     65  S   UNL A   1      35.177  32.549  29.739  1.00  0.00     0.127 S 
ATOM     66  O   UNL A   1      34.740  31.529  28.786  1.00  0.00    -0.237 OA
ATOM     67  O   UNL A   1      34.216  32.841  30.803  1.00  0.00    -0.237 OA
ATOM     68  O   UNL A   1      35.807  33.723  29.151  1.00  0.00    -0.744 OA
ENDBRANCH  62  65
ENDBRANCH  44  58
BRANCH  45  69
ATOM     69  C   UNL A   1      47.176  27.723  26.279  1.00  0.00     0.023 A 
ATOM     70  C   UNL A   1      48.180  27.020  26.972  1.00  0.00     0.012 A 
ATOM     71  C   UNL A   1      47.331  27.952  24.897  1.00  0.00     0.148 A 
ATOM     72  C   UNL A   1      49.324  26.572  26.309  1.00  0.00     0.002 A 
ATOM     73  C   UNL A   1      48.446  27.456  24.231  1.00  0.00     0.091 A 
ATOM     74  F   UNL A   1      46.370  28.631  24.253  1.00  0.00    -0.205 F 
ATOM     75  C   UNL A   1      49.451  26.779  24.939  1.00  0.00     0.022 A 
BRANCH  73  76
ATOM     76  S   UNL A   1      48.626  27.554  22.445  1.00  0.00     0.127 S 
ATOM     77  O   UNL A   1      48.646  26.144  22.068  1.00  0.00    -0.237 OA
ATOM     78  O   UNL A   1      47.415  28.278  22.056  1.00  0.00    -0.237 OA
ATOM     79  O   UNL A   1      49.862  28.291  22.218  1.00  0.00    -0.744 OA
ENDBRANCH  73  76
ENDBRANCH  45  69
BRANCH  57  80
ATOM     80  C   UNL A   1      45.151  33.589  29.492  1.00  0.00     0.023 A 
ATOM     81  C   UNL A   1      45.928  33.766  30.654  1.00  0.00     0.012 A 
ATOM     82  C   UNL A   1      45.086  34.618  28.534  1.00  0.00     0.148 A 
ATOM     83  C   UNL A   1      46.605  34.964  30.872  1.00  0.00     0.002 A 
ATOM     84  C   UNL A   1      45.805  35.788  28.735  1.00  0.00     0.091 A 
ATOM     85  F   UNL A   1      44.322  34.433  27.447  1.00  0.00    -0.205 F 
ATOM     86  C   UNL A   1      46.554  35.969  29.909  1.00  0.00     0.022 A 
BRANCH  84  87
ATOM     87  S   UNL A   1      45.875  37.091  27.501  1.00  0.00     0.127 S 
ATOM     88  O   UNL A   1      46.757  38.063  28.145  1.00  0.00    -0.237 OA
ATOM     89  O   UNL A   1      46.465  36.400  26.354  1.00  0.00    -0.237 OA
ATOM     90  O   UNL A   1      44.501  37.528  27.300  1.00  0.00    -0.744 OA
ENDBRANCH  84  87
ENDBRANCH  57  80
ENDBRANCH  31  32
ENDBRANCH  24  26
ENDBRANCH  23  24
ENDBRANCH  22  23
ENDBRANCH   1  22
TORSDOF 19
ENDMDL
MODEL 3
REMARK VINA RESULT:     -10.7      5.517     10.460
REMARK SMILES C[NH+](C)CCNC(=O)NC1(CC(=O)OCCOC(=O)c2ccc(-c3c4nc(c(-c5cccc(S(=O)(=O)[O-])c5F)c5ccc([nH]5)c(-c5cccc(S(=O)(=O)[O-])c5F)c5nc(c(-c6cccc(S(=O)(=O)[O-])c6F)c6ccc3[nH]6)C=C5)C=C4)cc2)CCC1
REMARK SMILES IDX 15 1 14 2 12 3 13 4 11 5 10 6 83 7 85 8 84 9 9 10 6 11 7 12
REMARK SMILES IDX 8 14 5 16 4 17 2 18 1 19 3 20 16 22 17 23 18 24 19 25 20 26
REMARK SMILES IDX 21 27 82 28 22 29 81 30 23 31 24 32 25 33 75 34 26 35 80 36
REMARK SMILES IDX 74 37 76 38 27 39 79 40 73 41 72 42 28 44 60 45 40 46 59 47
REMARK SMILES IDX 41 48 44 49 58 50 77 51 42 52 43 53 57 55 78 56 45 57 29 58
REMARK SMILES IDX 30 59 38 60 31 61 33 62 39 63 32 64 34 65 35 66 36 67 37 68
REMARK SMILES IDX 61 69 62 70 70 71 63 72 65 73 71 74 64 75 66 76 67 77 68 78
REMARK SMILES IDX 69 79 46 80 47 81 55 82 48 83 50 84 56 85 49 86 51 87 52 88
REMARK SMILES IDX 53 89 54 90
REMARK H PARENT 6 13 9 15 2 21 76 43 44 54
REMARK Flexibility Score: inf
ROOT
ATOM      1  C   UNL A   1      31.778  28.364  27.317  1.00  0.00     0.274 C 
ENDROOT
BRANCH   1   2
ATOM      2  O   UNL A   1      32.934  27.615  26.860  1.00  0.00    -0.462 OA
BRANCH   2   3
ATOM      3  C   UNL A   1      32.656  26.659  25.948  1.00  0.00     0.308 C 
ATOM      4  O   UNL A   1      31.513  26.405  25.574  1.00  0.00    -0.252 OA
BRANCH   3   5
ATOM      5  C   UNL A   1      33.834  25.971  25.314  1.00  0.00     0.151 C 
BRANCH   5   6
ATOM      6  C   UNL A   1      33.915  24.490  24.896  1.00  0.00     0.052 C 
ATOM      7  C   UNL A   1      34.561  23.696  26.119  1.00  0.00     0.029 C 
ATOM      8  C   UNL A   1      35.149  23.907  24.096  1.00  0.00     0.029 C 
ATOM      9  C   UNL A   1      35.921  23.798  25.417  1.00  0.00     0.005 C 
BRANCH   6  10
ATOM     10  N   UNL A   1      32.620  23.860  24.572  1.00  0.00    -0.332 N 
ATOM     11  N   UNL A   1      32.181  24.361  22.298  1.00  0.00    -0.332 N 
ATOM     12  C   UNL A   1      32.012  23.610  23.395  1.00  0.00     0.315 C 
ATOM     13  H   UNL A   1      31.835  23.938  21.479  1.00  0.00     0.165 HD
ATOM     14  O   UNL A   1      31.274  22.626  23.316  1.00  0.00    -0.249 OA
ATOM     15  H   UNL A   1      32.105  23.571  25.359  1.00  0.00     0.165 HD
BRANCH  11  16
ATOM     16  C   UNL A   1      32.768  25.664  22.072  1.00  0.00     0.179 C 
BRANCH  16  17
ATOM     17  C   UNL A   1      31.715  26.788  22.028  1.00  0.00     0.283 C 
BRANCH  17  18
ATOM     18  N   UNL A   1      32.230  28.166  22.143  1.00  0.00    -0.338 N 
ATOM     19  C   UNL A   1      31.521  28.940  23.162  1.00  0.00     0.332 C 
ATOM     20  C   UNL A   1      33.674  28.191  22.374  1.00  0.00     0.332 C 
ATOM     21  H   UNL A   1      32.053  28.616  21.245  1.00  0.00     0.347 HD
ENDBRANCH  17  18
ENDBRANCH  16  17
ENDBRANCH  11  16
ENDBRANCH   6  10
ENDBRANCH   5   6
ENDBRANCH   3   5
ENDBRANCH   2   3
ENDBRANCH   1   2
BRANCH   1  22
ATOM     22  C   UNL A   1      31.779  29.768  26.720  1.00  0.00     0.275 C 
BRANCH  22  23
ATOM     23  O   UNL A   1      33.146  30.161  26.566  1.00  0.00    -0.458 OA
BRANCH  23  24
ATOM     24  C   UNL A   1      33.479  31.280  27.249  1.00  0.00     0.338 C 
ATOM     25  O   UNL A   1      32.812  32.277  27.421  1.00  0.00    -0.246 OA
BRANCH  24  26
ATOM     26  C   UNL A   1      34.780  31.027  27.862  1.00  0.00     0.060 A 
ATOM     27  C   UNL A   1      35.703  32.076  27.965  1.00  0.00     0.016 A 
ATOM     28  C   UNL A   1      35.055  29.757  28.357  1.00  0.00     0.016 A 
ATOM     29  C   UNL A   1      36.929  31.849  28.581  1.00  0.00     0.010 A 
ATOM     30  C   UNL A   1      36.267  29.542  28.999  1.00  0.00     0.010 A 
ATOM     31  C   UNL A   1      37.205  30.584  29.115  1.00  0.00    -0.014 A 
BRANCH  31  32
ATOM     32  C   UNL A   1      38.454  30.321  29.858  1.00  0.00     0.031 A 
ATOM     33  C   UNL A   1      39.447  29.348  29.302  1.00  0.00     0.074 A 
ATOM     34  C   UNL A   1      38.593  30.859  31.084  1.00  0.00     0.049 A 
ATOM     35  N   UNL A   1      40.487  28.813  29.880  1.00  0.00    -0.248 NA
ATOM     36  C   UNL A   1      39.223  28.896  27.919  1.00  0.00     0.031 C 
ATOM     37  C   UNL A   1      37.647  31.789  31.707  1.00  0.00     0.029 A 
ATOM     38  N   UNL A   1      39.546  30.660  32.046  1.00  0.00    -0.354 N 
ATOM     39  C   UNL A   1      41.012  27.919  28.954  1.00  0.00     0.074 A 
ATOM     40  C   UNL A   1      40.179  27.989  27.773  1.00  0.00     0.031 C 
ATOM     41  C   UNL A   1      38.050  32.055  32.958  1.00  0.00     0.029 A 
ATOM     42  C   UNL A   1      39.251  31.279  33.239  1.00  0.00     0.049 A 
ATOM     43  H   UNL A   1      40.361  30.127  31.900  1.00  0.00     0.167 HD
ATOM     44  C   UNL A   1      42.095  27.116  29.087  1.00  0.00     0.034 A 
ATOM     45  C   UNL A   1      39.863  31.194  34.435  1.00  0.00     0.034 A 
ATOM     46  C   UNL A   1      42.909  27.085  30.273  1.00  0.00     0.049 A 
ATOM     47  C   UNL A   1      41.080  30.321  34.544  1.00  0.00     0.074 A 
ATOM     48  C   UNL A   1      44.062  26.359  30.512  1.00  0.00     0.029 A 
ATOM     49  N   UNL A   1      42.646  27.811  31.428  1.00  0.00    -0.354 N 
ATOM     50  N   UNL A   1      41.635  29.565  33.625  1.00  0.00    -0.248 NA
ATOM     51  C   UNL A   1      41.775  30.309  35.837  1.00  0.00     0.031 C 
ATOM     52  C   UNL A   1      44.484  26.633  31.818  1.00  0.00     0.029 A 
ATOM     53  C   UNL A   1      43.610  27.550  32.384  1.00  0.00     0.049 A 
ATOM     54  H   UNL A   1      41.884  28.423  31.548  1.00  0.00     0.167 HD
ATOM     55  C   UNL A   1      42.760  29.008  34.217  1.00  0.00     0.074 A 
ATOM     56  C   UNL A   1      42.818  29.535  35.569  1.00  0.00     0.031 C 
ATOM     57  C   UNL A   1      43.656  28.130  33.704  1.00  0.00     0.034 A 
BRANCH  44  58
ATOM     58  C   UNL A   1      42.463  26.233  27.923  1.00  0.00     0.023 A 
ATOM     59  C   UNL A   1      43.350  26.712  26.936  1.00  0.00     0.012 A 
ATOM     60  C   UNL A   1      41.961  24.921  27.817  1.00  0.00     0.148 A 
ATOM     61  C   UNL A   1      43.701  25.915  25.846  1.00  0.00     0.002 A 
ATOM     62  C   UNL A   1      42.347  24.118  26.749  1.00  0.00     0.091 A 
ATOM     63  F   UNL A   1      41.102  24.488  28.751  1.00  0.00    -0.205 F 
ATOM     64  C   UNL A   1      43.206  24.616  25.757  1.00  0.00     0.022 A 
BRANCH  62  65
ATOM     65  S   UNL A   1      41.822  22.407  26.578  1.00  0.00     0.127 S 
ATOM     66  O   UNL A   1      42.509  22.009  25.350  1.00  0.00    -0.237 OA
ATOM     67  O   UNL A   1      42.355  21.799  27.798  1.00  0.00    -0.237 OA
ATOM     68  O   UNL A   1      40.369  22.438  26.499  1.00  0.00    -0.744 OA
ENDBRANCH  62  65
ENDBRANCH  44  58
BRANCH  45  69
ATOM     69  C   UNL A   1      39.360  31.996  35.586  1.00  0.00     0.023 A 
ATOM     70  C   UNL A   1      39.563  33.390  35.593  1.00  0.00     0.012 A 
ATOM     71  C   UNL A   1      38.627  31.406  36.636  1.00  0.00     0.148 A 
ATOM     72  C   UNL A   1      39.068  34.177  36.634  1.00  0.00     0.002 A 
ATOM     73  C   UNL A   1      38.089  32.203  37.640  1.00  0.00     0.091 A 
ATOM     74  F   UNL A   1      38.450  30.077  36.619  1.00  0.00    -0.205 F 
ATOM     75  C   UNL A   1      38.321  33.587  37.649  1.00  0.00     0.022 A 
BRANCH  73  76
ATOM     76  S   UNL A   1      36.999  31.547  38.911  1.00  0.00     0.127 S 
ATOM     77  O   UNL A   1      37.840  31.636  40.101  1.00  0.00    -0.237 OA
ATOM     78  O   UNL A   1      35.883  32.494  38.873  1.00  0.00    -0.237 OA
ATOM     79  O   UNL A   1      36.655  30.202  38.473  1.00  0.00    -0.744 OA
ENDBRANCH  73  76
ENDBRANCH  45  69
BRANCH  57  80
ATOM     80  C   UNL A   1      44.792  27.712  34.597  1.00  0.00     0.023 A 
ATOM     81  C   UNL A   1      45.969  28.484  34.638  1.00  0.00     0.012 A 
ATOM     82  C   UNL A   1      44.660  26.596  35.445  1.00  0.00     0.148 A 
ATOM     83  C   UNL A   1      47.014  28.129  35.489  1.00  0.00     0.002 A 
ATOM     84  C   UNL A   1      45.685  26.279  36.325  1.00  0.00     0.091 A 
ATOM     85  F   UNL A   1      43.538  25.865  35.371  1.00  0.00    -0.205 F 
ATOM     86  C   UNL A   1      46.868  27.036  36.340  1.00  0.00     0.022 A 
BRANCH  84  87
ATOM     87  S   UNL A   1      45.539  24.951  37.525  1.00  0.00     0.127 S 
ATOM     88  O   UNL A   1      46.718  25.173  38.360  1.00  0.00    -0.237 OA
ATOM     89  O   UNL A   1      44.265  25.260  38.175  1.00  0.00    -0.237 OA
ATOM     90  O   UNL A   1      45.540  23.715  36.756  1.00  0.00    -0.744 OA
ENDBRANCH  84  87
ENDBRANCH  57  80
ENDBRANCH  31  32
ENDBRANCH  24  26
ENDBRANCH  23  24
ENDBRANCH  22  23
ENDBRANCH   1  22
TORSDOF 19
ENDMDL
