MODEL 1
REMARK VINA RESULT:     -12.2      0.000      0.000
REMARK SMILES NS(=O)(=O)c1ccc(N2N=C(C(=O)OCCOC(=O)c3ccc(-c4c5nc(c(-c6cccc(S(=O)(=O)[O-])c6F)c6ccc([nH]6)c(-c6cccc(S(=O)(=O)[O-])c6F)c6nc(c(-c7cccc(S(=O)(=O)[O-])c7F)c7ccc4[nH]7)C=C6)C=C5)cc3)C[C@H]2c2cccs2)cc1
REMARK SMILES IDX 15 1 14 2 12 3 13 4 11 5 9 6 10 7 84 8 83 9 8 10 5 11 6 12
REMARK SMILES IDX 91 13 7 14 90 15 2 16 3 17 4 18 1 19 85 22 86 23 89 24 87 25
REMARK SMILES IDX 88 26 16 27 17 28 18 29 19 30 20 31 21 32 82 33 22 34 81 35
REMARK SMILES IDX 23 36 24 37 25 38 75 39 26 40 80 41 74 42 76 43 27 44 79 45
REMARK SMILES IDX 73 46 72 47 28 49 60 50 40 51 59 52 41 53 44 54 58 55 77 56
REMARK SMILES IDX 42 57 43 58 57 60 78 61 45 62 29 63 30 64 38 65 31 66 33 67
REMARK SMILES IDX 39 68 32 69 34 70 35 71 36 72 37 73 61 74 62 75 70 76 63 77
REMARK SMILES IDX 65 78 71 79 64 80 66 81 67 82 68 83 69 84 46 85 47 86 55 87
REMARK SMILES IDX 48 88 50 89 56 90 49 91 51 92 52 93 53 94 54 95
REMARK H PARENT 1 20 1 21 76 48 44 59
REMARK Flexibility Score: inf
ROOT
ATOM      1  C   UNL A   1      35.272  23.155  24.445  1.00  0.00     0.275 C 
ENDROOT
BRANCH   1   2
ATOM      2  O   UNL A   1      33.914  22.925  24.020  1.00  0.00    -0.458 OA
BRANCH   2   3
ATOM      3  C   UNL A   1      33.461  23.749  23.054  1.00  0.00     0.354 C 
ATOM      4  O   UNL A   1      33.745  23.730  21.871  1.00  0.00    -0.245 OA
BRANCH   3   5
ATOM      5  C   UNL A   1      32.441  24.706  23.618  1.00  0.00     0.148 C 
ATOM      6  N   UNL A   1      31.115  26.343  23.761  1.00  0.00    -0.256 N 
ATOM      7  N   UNL A   1      32.010  25.733  22.948  1.00  0.00    -0.169 NA
ATOM      8  C   UNL A   1      31.268  25.926  25.158  1.00  0.00     0.154 C 
ATOM      9  C   UNL A   1      31.817  24.499  24.961  1.00  0.00     0.099 C 
BRANCH   6  10
ATOM     10  C   UNL A   1      30.407  27.440  23.304  1.00  0.00     0.060 A 
ATOM     11  C   UNL A   1      28.935  29.667  22.417  1.00  0.00     0.082 A 
ATOM     12  C   UNL A   1      28.281  28.626  23.076  1.00  0.00     0.024 A 
ATOM     13  C   UNL A   1      30.305  29.591  22.162  1.00  0.00     0.024 A 
ATOM     14  C   UNL A   1      29.020  27.518  23.512  1.00  0.00     0.029 A 
ATOM     15  C   UNL A   1      31.028  28.477  22.600  1.00  0.00     0.029 A 
BRANCH  11  16
ATOM     16  S   UNL A   1      28.035  31.097  21.889  1.00  0.00     0.238 S 
ATOM     17  O   UNL A   1      27.074  31.446  22.906  1.00  0.00    -0.207 OA
ATOM     18  O   UNL A   1      27.652  30.888  20.508  1.00  0.00    -0.207 OA
BRANCH  16  19
ATOM     19  N   UNL A   1      29.182  32.315  21.893  1.00  0.00    -0.225 NA
ATOM     20  H   UNL A   1      30.005  32.005  22.411  1.00  0.00     0.137 HD
ATOM     21  H   UNL A   1      28.794  33.147  22.337  1.00  0.00     0.137 HD
ENDBRANCH  16  19
ENDBRANCH  11  16
ENDBRANCH   6  10
BRANCH   8  22
ATOM     22  C   UNL A   1      32.168  26.836  25.989  1.00  0.00     0.030 A 
ATOM     23  C   UNL A   1      31.757  27.760  26.936  1.00  0.00     0.017 A 
ATOM     24  S   UNL A   1      33.872  26.915  25.770  1.00  0.00    -0.147 S 
ATOM     25  C   UNL A   1      32.829  28.551  27.438  1.00  0.00     0.012 A 
ATOM     26  C   UNL A   1      34.038  28.184  26.895  1.00  0.00     0.065 A 
ENDBRANCH   8  22
ENDBRANCH   3   5
ENDBRANCH   2   3
ENDBRANCH   1   2
BRANCH   1  27
ATOM     27  C   UNL A   1      36.004  21.824  24.648  1.00  0.00     0.275 C 
BRANCH  27  28
ATOM     28  O   UNL A   1      36.703  21.794  25.907  1.00  0.00    -0.458 OA
BRANCH  28  29
ATOM     29  C   UNL A   1      38.031  21.545  25.817  1.00  0.00     0.338 C 
ATOM     30  O   UNL A   1      38.566  20.610  25.244  1.00  0.00    -0.246 OA
BRANCH  29  31
ATOM     31  C   UNL A   1      38.784  22.663  26.404  1.00  0.00     0.060 A 
ATOM     32  C   UNL A   1      38.327  23.950  26.142  1.00  0.00     0.016 A 
ATOM     33  C   UNL A   1      39.970  22.470  27.107  1.00  0.00     0.016 A 
ATOM     34  C   UNL A   1      39.065  25.061  26.520  1.00  0.00     0.010 A 
ATOM     35  C   UNL A   1      40.691  23.591  27.541  1.00  0.00     0.010 A 
ATOM     36  C   UNL A   1      40.254  24.894  27.233  1.00  0.00    -0.014 A 
BRANCH  36  37
ATOM     37  C   UNL A   1      41.031  26.088  27.644  1.00  0.00     0.031 A 
ATOM     38  C   UNL A   1      40.379  27.168  28.460  1.00  0.00     0.074 A 
ATOM     39  C   UNL A   1      42.324  26.198  27.282  1.00  0.00     0.049 A 
ATOM     40  N   UNL A   1      40.855  28.330  28.821  1.00  0.00    -0.248 NA
ATOM     41  C   UNL A   1      39.006  26.909  28.926  1.00  0.00     0.031 C 
ATOM     42  C   UNL A   1      43.074  25.200  26.516  1.00  0.00     0.029 A 
ATOM     43  N   UNL A   1      43.232  27.205  27.494  1.00  0.00    -0.354 N 
ATOM     44  C   UNL A   1      39.827  28.966  29.505  1.00  0.00     0.074 A 
ATOM     45  C   UNL A   1      38.701  28.057  29.516  1.00  0.00     0.031 C 
ATOM     46  C   UNL A   1      44.322  25.646  26.314  1.00  0.00     0.029 A 
ATOM     47  C   UNL A   1      44.445  26.984  26.882  1.00  0.00     0.049 A 
ATOM     48  H   UNL A   1      43.035  28.007  28.030  1.00  0.00     0.167 HD
ATOM     49  C   UNL A   1      39.828  30.192  30.078  1.00  0.00     0.034 A 
ATOM     50  C   UNL A   1      45.522  27.783  26.760  1.00  0.00     0.034 A 
ATOM     51  C   UNL A   1      40.968  31.069  30.102  1.00  0.00     0.049 A 
ATOM     52  C   UNL A   1      45.487  29.149  27.388  1.00  0.00     0.074 A 
ATOM     53  C   UNL A   1      41.086  32.311  30.700  1.00  0.00     0.029 A 
ATOM     54  N   UNL A   1      42.186  30.799  29.497  1.00  0.00    -0.354 N 
ATOM     55  N   UNL A   1      44.537  29.704  28.100  1.00  0.00    -0.248 NA
ATOM     56  C   UNL A   1      46.677  29.992  27.211  1.00  0.00     0.031 C 
ATOM     57  C   UNL A   1      42.370  32.802  30.439  1.00  0.00     0.029 A 
ATOM     58  C   UNL A   1      43.059  31.855  29.698  1.00  0.00     0.049 A 
ATOM     59  H   UNL A   1      42.400  29.978  28.997  1.00  0.00     0.167 HD
ATOM     60  C   UNL A   1      45.021  30.951  28.477  1.00  0.00     0.074 A 
ATOM     61  C   UNL A   1      46.360  31.058  27.935  1.00  0.00     0.031 C 
ATOM     62  C   UNL A   1      44.407  31.924  29.193  1.00  0.00     0.034 A 
BRANCH  49  63
ATOM     63  C   UNL A   1      38.560  30.655  30.747  1.00  0.00     0.023 A 
ATOM     64  C   UNL A   1      38.374  30.432  32.126  1.00  0.00     0.012 A 
ATOM     65  C   UNL A   1      37.579  31.360  30.022  1.00  0.00     0.148 A 
ATOM     66  C   UNL A   1      37.217  30.878  32.767  1.00  0.00     0.002 A 
ATOM     67  C   UNL A   1      36.448  31.836  30.675  1.00  0.00     0.091 A 
ATOM     68  F   UNL A   1      37.763  31.543  28.706  1.00  0.00    -0.205 F 
ATOM     69  C   UNL A   1      36.261  31.587  32.044  1.00  0.00     0.022 A 
BRANCH  67  70
ATOM     70  S   UNL A   1      35.194  32.821  29.848  1.00  0.00     0.127 S 
ATOM     71  O   UNL A   1      34.277  33.115  30.948  1.00  0.00    -0.237 OA
ATOM     72  O   UNL A   1      35.967  33.971  29.375  1.00  0.00    -0.237 OA
ATOM     73  O   UNL A   1      34.654  31.978  28.791  1.00  0.00    -0.744 OA
ENDBRANCH  67  70
ENDBRANCH  49  63
BRANCH  50  74
ATOM     74  C   UNL A   1      46.724  27.303  26.022  1.00  0.00     0.023 A 
ATOM     75  C   UNL A   1      46.803  27.493  24.629  1.00  0.00     0.012 A 
ATOM     76  C   UNL A   1      47.803  26.694  26.694  1.00  0.00     0.148 A 
ATOM     77  C   UNL A   1      47.926  27.067  23.917  1.00  0.00     0.002 A 
ATOM     78  C   UNL A   1      48.940  26.324  25.988  1.00  0.00     0.091 A 
ATOM     79  F   UNL A   1      47.700  26.502  28.017  1.00  0.00    -0.205 F 
ATOM     80  C   UNL A   1      48.999  26.495  24.597  1.00  0.00     0.022 A 
BRANCH  78  81
ATOM     81  S   UNL A   1      50.416  25.699  26.802  1.00  0.00     0.127 S 
ATOM     82  O   UNL A   1      49.929  24.454  27.390  1.00  0.00    -0.237 OA
ATOM     83  O   UNL A   1      51.336  25.531  25.677  1.00  0.00    -0.237 OA
ATOM     84  O   UNL A   1      50.809  26.735  27.747  1.00  0.00    -0.744 OA
ENDBRANCH  78  81
ENDBRANCH  50  74
BRANCH  62  85
ATOM     85  C   UNL A   1      45.182  33.188  29.456  1.00  0.00     0.023 A 
ATOM     86  C   UNL A   1      46.063  33.250  30.554  1.00  0.00     0.012 A 
ATOM     87  C   UNL A   1      45.099  34.280  28.571  1.00  0.00     0.148 A 
ATOM     88  C   UNL A   1      46.832  34.390  30.781  1.00  0.00     0.002 A 
ATOM     89  C   UNL A   1      45.904  35.394  28.776  1.00  0.00     0.091 A 
ATOM     90  F   UNL A   1      44.241  34.205  27.543  1.00  0.00    -0.205 F 
ATOM     91  C   UNL A   1      46.762  35.455  29.886  1.00  0.00     0.022 A 
BRANCH  89  92
ATOM     92  S   UNL A   1      45.952  36.772  27.624  1.00  0.00     0.127 S 
ATOM     93  O   UNL A   1      46.378  36.115  26.390  1.00  0.00    -0.237 OA
ATOM     94  O   UNL A   1      44.560  37.225  27.626  1.00  0.00    -0.237 OA
ATOM     95  O   UNL A   1      46.898  37.729  28.182  1.00  0.00    -0.744 OA
ENDBRANCH  89  92
ENDBRANCH  62  85
ENDBRANCH  36  37
ENDBRANCH  29  31
ENDBRANCH  28  29
ENDBRANCH  27  28
ENDBRANCH   1  27
TORSDOF 18
ENDMDL
MODEL 2
REMARK VINA RESULT:     -11.7      5.741     10.832
REMARK SMILES NS(=O)(=O)c1ccc(N2N=C(C(=O)OCCOC(=O)c3ccc(-c4c5nc(c(-c6cccc(S(=O)(=O)[O-])c6F)c6ccc([nH]6)c(-c6cccc(S(=O)(=O)[O-])c6F)c6nc(c(-c7cccc(S(=O)(=O)[O-])c7F)c7ccc4[nH]7)C=C6)C=C5)cc3)C[C@H]2c2cccs2)cc1
REMARK SMILES IDX 15 1 14 2 12 3 13 4 11 5 9 6 10 7 84 8 83 9 8 10 5 11 6 12
REMARK SMILES IDX 91 13 7 14 90 15 2 16 3 17 4 18 1 19 85 22 86 23 89 24 87 25
REMARK SMILES IDX 88 26 16 27 17 28 18 29 19 30 20 31 21 32 82 33 22 34 81 35
REMARK SMILES IDX 23 36 24 37 25 38 75 39 26 40 80 41 74 42 76 43 27 44 79 45
REMARK SMILES IDX 73 46 72 47 28 49 60 50 40 51 59 52 41 53 44 54 58 55 77 56
REMARK SMILES IDX 42 57 43 58 57 60 78 61 45 62 29 63 30 64 38 65 31 66 33 67
REMARK SMILES IDX 39 68 32 69 34 70 35 71 36 72 37 73 61 74 62 75 70 76 63 77
REMARK SMILES IDX 65 78 71 79 64 80 66 81 67 82 68 83 69 84 46 85 47 86 55 87
REMARK SMILES IDX 48 88 50 89 56 90 49 91 51 92 52 93 53 94 54 95
REMARK H PARENT 1 20 1 21 76 48 44 59
REMARK Flexibility Score: inf
ROOT
ATOM      1  C   UNL A   1      33.747  31.985  27.939  1.00  0.00     0.275 C 
ENDROOT
BRANCH   1   2
ATOM      2  O   UNL A   1      33.402  30.944  27.004  1.00  0.00    -0.458 OA
BRANCH   2   3
ATOM      3  C   UNL A   1      34.119  29.807  27.108  1.00  0.00     0.354 C 
ATOM      4  O   UNL A   1      35.288  29.696  27.426  1.00  0.00    -0.245 OA
BRANCH   3   5
ATOM      5  C   UNL A   1      33.241  28.608  26.850  1.00  0.00     0.148 C 
ATOM      6  N   UNL A   1      32.658  26.633  26.386  1.00  0.00    -0.256 N 
ATOM      7  N   UNL A   1      33.730  27.448  26.529  1.00  0.00    -0.169 NA
ATOM      8  C   UNL A   1      31.413  27.387  26.215  1.00  0.00     0.154 C 
ATOM      9  C   UNL A   1      31.755  28.665  27.006  1.00  0.00     0.099 C 
BRANCH   6  10
ATOM     10  C   UNL A   1      32.847  25.288  26.120  1.00  0.00     0.060 A 
ATOM     11  C   UNL A   1      33.180  22.549  25.575  1.00  0.00     0.082 A 
ATOM     12  C   UNL A   1      32.066  22.979  26.297  1.00  0.00     0.024 A 
ATOM     13  C   UNL A   1      34.146  23.464  25.157  1.00  0.00     0.024 A 
ATOM     14  C   UNL A   1      31.909  24.344  26.568  1.00  0.00     0.029 A 
ATOM     15  C   UNL A   1      33.977  24.823  25.438  1.00  0.00     0.029 A 
BRANCH  11  16
ATOM     16  S   UNL A   1      33.385  20.834  25.185  1.00  0.00     0.238 S 
ATOM     17  O   UNL A   1      34.733  20.619  24.720  1.00  0.00    -0.207 OA
ATOM     18  O   UNL A   1      32.230  20.418  24.417  1.00  0.00    -0.207 OA
BRANCH  16  19
ATOM     19  N   UNL A   1      33.276  20.072  26.671  1.00  0.00    -0.225 NA
ATOM     20  H   UNL A   1      32.736  20.652  27.312  1.00  0.00     0.137 HD
ATOM     21  H   UNL A   1      34.213  19.928  27.049  1.00  0.00     0.137 HD
ENDBRANCH  16  19
ENDBRANCH  11  16
ENDBRANCH   6  10
BRANCH   8  22
ATOM     22  C   UNL A   1      31.025  27.634  24.760  1.00  0.00     0.030 A 
ATOM     23  C   UNL A   1      30.842  26.670  23.781  1.00  0.00     0.017 A 
ATOM     24  S   UNL A   1      30.863  29.210  24.092  1.00  0.00    -0.147 S 
ATOM     25  C   UNL A   1      30.618  27.229  22.490  1.00  0.00     0.012 A 
ATOM     26  C   UNL A   1      30.591  28.603  22.523  1.00  0.00     0.065 A 
ENDBRANCH   8  22
ENDBRANCH   3   5
ENDBRANCH   2   3
ENDBRANCH   1   2
BRANCH   1  27
ATOM     27  C   UNL A   1      33.102  33.312  27.528  1.00  0.00     0.275 C 
BRANCH  27  28
ATOM     28  O   UNL A   1      32.480  33.964  28.651  1.00  0.00    -0.458 OA
BRANCH  28  29
ATOM     29  C   UNL A   1      33.179  35.002  29.168  1.00  0.00     0.338 C 
ATOM     30  O   UNL A   1      32.880  36.185  29.124  1.00  0.00    -0.246 OA
BRANCH  29  31
ATOM     31  C   UNL A   1      34.322  34.492  29.940  1.00  0.00     0.060 A 
ATOM     32  C   UNL A   1      35.593  34.703  29.415  1.00  0.00     0.016 A 
ATOM     33  C   UNL A   1      34.158  33.733  31.094  1.00  0.00     0.016 A 
ATOM     34  C   UNL A   1      36.709  34.119  29.992  1.00  0.00     0.010 A 
ATOM     35  C   UNL A   1      35.290  33.187  31.714  1.00  0.00     0.010 A 
ATOM     36  C   UNL A   1      36.572  33.359  31.156  1.00  0.00    -0.014 A 
BRANCH  36  37
ATOM     37  C   UNL A   1      37.774  32.747  31.773  1.00  0.00     0.031 A 
ATOM     38  C   UNL A   1      38.477  31.611  31.086  1.00  0.00     0.074 A 
ATOM     39  C   UNL A   1      38.230  33.216  32.950  1.00  0.00     0.049 A 
ATOM     40  N   UNL A   1      39.470  30.877  31.514  1.00  0.00    -0.248 NA
ATOM     41  C   UNL A   1      37.996  31.248  29.743  1.00  0.00     0.031 C 
ATOM     42  C   UNL A   1      37.649  34.335  33.696  1.00  0.00     0.029 A 
ATOM     43  N   UNL A   1      39.276  32.802  33.735  1.00  0.00    -0.354 N 
ATOM     44  C   UNL A   1      39.697  29.930  30.524  1.00  0.00     0.074 A 
ATOM     45  C   UNL A   1      38.742  30.186  29.467  1.00  0.00     0.031 C 
ATOM     46  C   UNL A   1      38.337  34.512  34.832  1.00  0.00     0.029 A 
ATOM     47  C   UNL A   1      39.370  33.486  34.926  1.00  0.00     0.049 A 
ATOM     48  H   UNL A   1      39.898  32.085  33.474  1.00  0.00     0.167 HD
ATOM     49  C   UNL A   1      40.623  28.943  30.496  1.00  0.00     0.034 A 
ATOM     50  C   UNL A   1      40.171  33.286  35.990  1.00  0.00     0.034 A 
ATOM     51  C   UNL A   1      41.599  28.727  31.531  1.00  0.00     0.049 A 
ATOM     52  C   UNL A   1      41.176  32.169  35.940  1.00  0.00     0.074 A 
ATOM     53  C   UNL A   1      42.612  27.786  31.575  1.00  0.00     0.029 A 
ATOM     54  N   UNL A   1      41.680  29.457  32.708  1.00  0.00    -0.354 N 
ATOM     55  N   UNL A   1      41.432  31.334  34.964  1.00  0.00    -0.248 NA
ATOM     56  C   UNL A   1      42.014  31.977  37.132  1.00  0.00     0.031 C 
ATOM     57  C   UNL A   1      43.294  27.933  32.788  1.00  0.00     0.029 A 
ATOM     58  C   UNL A   1      42.720  28.982  33.489  1.00  0.00     0.049 A 
ATOM     59  H   UNL A   1      41.086  30.204  32.952  1.00  0.00     0.167 HD
ATOM     60  C   UNL A   1      42.476  30.532  35.411  1.00  0.00     0.074 A 
ATOM     61  C   UNL A   1      42.821  31.001  36.738  1.00  0.00     0.031 C 
ATOM     62  C   UNL A   1      43.081  29.492  34.787  1.00  0.00     0.034 A 
BRANCH  49  63
ATOM     63  C   UNL A   1      40.642  28.031  29.299  1.00  0.00     0.023 A 
ATOM     64  C   UNL A   1      39.745  26.945  29.232  1.00  0.00     0.012 A 
ATOM     65  C   UNL A   1      41.507  28.280  28.216  1.00  0.00     0.148 A 
ATOM     66  C   UNL A   1      39.730  26.105  28.117  1.00  0.00     0.002 A 
ATOM     67  C   UNL A   1      41.459  27.463  27.092  1.00  0.00     0.091 A 
ATOM     68  F   UNL A   1      42.369  29.305  28.307  1.00  0.00    -0.205 F 
ATOM     69  C   UNL A   1      40.579  26.370  27.045  1.00  0.00     0.022 A 
BRANCH  67  70
ATOM     70  S   UNL A   1      42.461  27.765  25.631  1.00  0.00     0.127 S 
ATOM     71  O   UNL A   1      41.954  29.063  25.190  1.00  0.00    -0.237 OA
ATOM     72  O   UNL A   1      43.815  27.795  26.186  1.00  0.00    -0.237 OA
ATOM     73  O   UNL A   1      42.200  26.652  24.730  1.00  0.00    -0.744 OA
ENDBRANCH  67  70
ENDBRANCH  49  63
BRANCH  50  74
ATOM     74  C   UNL A   1      40.059  34.173  37.181  1.00  0.00     0.023 A 
ATOM     75  C   UNL A   1      40.617  35.464  37.140  1.00  0.00     0.012 A 
ATOM     76  C   UNL A   1      39.370  33.761  38.341  1.00  0.00     0.148 A 
ATOM     77  C   UNL A   1      40.512  36.321  38.237  1.00  0.00     0.002 A 
ATOM     78  C   UNL A   1      39.220  34.638  39.407  1.00  0.00     0.091 A 
ATOM     79  F   UNL A   1      38.863  32.520  38.371  1.00  0.00    -0.205 F 
ATOM     80  C   UNL A   1      39.803  35.913  39.364  1.00  0.00     0.022 A 
BRANCH  78  81
ATOM     81  S   UNL A   1      38.214  34.241  40.843  1.00  0.00     0.127 S 
ATOM     82  O   UNL A   1      37.129  33.468  40.244  1.00  0.00    -0.237 OA
ATOM     83  O   UNL A   1      39.145  33.464  41.662  1.00  0.00    -0.237 OA
ATOM     84  O   UNL A   1      37.835  35.523  41.421  1.00  0.00    -0.744 OA
ENDBRANCH  78  81
ENDBRANCH  50  74
BRANCH  62  85
ATOM     85  C   UNL A   1      44.200  28.799  35.518  1.00  0.00     0.023 A 
ATOM     86  C   UNL A   1      45.522  29.265  35.374  1.00  0.00     0.012 A 
ATOM     87  C   UNL A   1      43.931  27.742  36.408  1.00  0.00     0.148 A 
ATOM     88  C   UNL A   1      46.563  28.672  36.086  1.00  0.00     0.002 A 
ATOM     89  C   UNL A   1      44.966  27.187  37.152  1.00  0.00     0.091 A 
ATOM     90  F   UNL A   1      42.668  27.303  36.516  1.00  0.00    -0.205 F 
ATOM     91  C   UNL A   1      46.283  27.644  36.984  1.00  0.00     0.022 A 
BRANCH  89  92
ATOM     92  S   UNL A   1      44.687  25.926  38.399  1.00  0.00     0.127 S 
ATOM     93  O   UNL A   1      46.048  25.650  38.854  1.00  0.00    -0.237 OA
ATOM     94  O   UNL A   1      43.849  26.631  39.370  1.00  0.00    -0.237 OA
ATOM     95  O   UNL A   1      44.022  24.825  37.715  1.00  0.00    -0.744 OA
ENDBRANCH  89  92
ENDBRANCH  62  85
ENDBRANCH  36  37
ENDBRANCH  29  31
ENDBRANCH  28  29
ENDBRANCH  27  28
ENDBRANCH   1  27
TORSDOF 18
ENDMDL
MODEL 3
REMARK VINA RESULT:     -11.5      2.706      8.281
REMARK SMILES NS(=O)(=O)c1ccc(N2N=C(C(=O)OCCOC(=O)c3ccc(-c4c5nc(c(-c6cccc(S(=O)(=O)[O-])c6F)c6ccc([nH]6)c(-c6cccc(S(=O)(=O)[O-])c6F)c6nc(c(-c7cccc(S(=O)(=O)[O-])c7F)c7ccc4[nH]7)C=C6)C=C5)cc3)C[C@H]2c2cccs2)cc1
REMARK SMILES IDX 15 1 14 2 12 3 13 4 11 5 9 6 10 7 84 8 83 9 8 10 5 11 6 12
REMARK SMILES IDX 91 13 7 14 90 15 2 16 3 17 4 18 1 19 85 22 86 23 89 24 87 25
REMARK SMILES IDX 88 26 16 27 17 28 18 29 19 30 20 31 21 32 82 33 22 34 81 35
REMARK SMILES IDX 23 36 24 37 25 38 75 39 26 40 80 41 74 42 76 43 27 44 79 45
REMARK SMILES IDX 73 46 72 47 28 49 60 50 40 51 59 52 41 53 44 54 58 55 77 56
REMARK SMILES IDX 42 57 43 58 57 60 78 61 45 62 29 63 30 64 38 65 31 66 33 67
REMARK SMILES IDX 39 68 32 69 34 70 35 71 36 72 37 73 61 74 62 75 70 76 63 77
REMARK SMILES IDX 65 78 71 79 64 80 66 81 67 82 68 83 69 84 46 85 47 86 55 87
REMARK SMILES IDX 48 88 50 89 56 90 49 91 51 92 52 93 53 94 54 95
REMARK H PARENT 1 20 1 21 76 48 44 59
REMARK Flexibility Score: inf
ROOT
ATOM      1  C   UNL A   1      39.402  21.441  26.239  1.00  0.00     0.275 C 
ENDROOT
BRANCH   1   2
ATOM      2  O   UNL A   1      38.116  21.794  25.692  1.00  0.00    -0.458 OA
BRANCH   2   3
ATOM      3  C   UNL A   1      37.789  23.099  25.773  1.00  0.00     0.354 C 
ATOM      4  O   UNL A   1      38.354  23.967  26.412  1.00  0.00    -0.245 OA
BRANCH   3   5
ATOM      5  C   UNL A   1      36.621  23.403  24.867  1.00  0.00     0.148 C 
ATOM      6  N   UNL A   1      34.944  24.389  24.047  1.00  0.00    -0.256 N 
ATOM      7  N   UNL A   1      35.864  24.445  25.039  1.00  0.00    -0.169 NA
ATOM      8  C   UNL A   1      34.857  23.051  23.453  1.00  0.00     0.154 C 
ATOM      9  C   UNL A   1      36.299  22.557  23.677  1.00  0.00     0.099 C 
BRANCH   6  10
ATOM     10  C   UNL A   1      34.026  25.413  23.901  1.00  0.00     0.060 A 
ATOM     11  C   UNL A   1      32.138  27.471  23.564  1.00  0.00     0.082 A 
ATOM     12  C   UNL A   1      32.617  26.784  22.448  1.00  0.00     0.024 A 
ATOM     13  C   UNL A   1      32.618  27.169  24.839  1.00  0.00     0.024 A 
ATOM     14  C   UNL A   1      33.560  25.763  22.623  1.00  0.00     0.029 A 
ATOM     15  C   UNL A   1      33.563  26.150  24.997  1.00  0.00     0.029 A 
BRANCH  11  16
ATOM     16  S   UNL A   1      30.917  28.740  23.378  1.00  0.00     0.238 S 
ATOM     17  O   UNL A   1      31.034  29.665  24.478  1.00  0.00    -0.207 OA
ATOM     18  O   UNL A   1      29.664  28.097  23.043  1.00  0.00    -0.207 OA
BRANCH  16  19
ATOM     19  N   UNL A   1      31.413  29.572  22.014  1.00  0.00    -0.225 NA
ATOM     20  H   UNL A   1      32.103  29.017  21.508  1.00  0.00     0.137 HD
ATOM     21  H   UNL A   1      31.829  30.462  22.290  1.00  0.00     0.137 HD
ENDBRANCH  16  19
ENDBRANCH  11  16
ENDBRANCH   6  10
BRANCH   8  22
ATOM     22  C   UNL A   1      33.784  22.160  24.071  1.00  0.00     0.030 A 
ATOM     23  C   UNL A   1      32.455  22.493  24.278  1.00  0.00     0.017 A 
ATOM     24  S   UNL A   1      34.123  20.603  24.717  1.00  0.00    -0.147 S 
ATOM     25  C   UNL A   1      31.741  21.495  25.001  1.00  0.00     0.012 A 
ATOM     26  C   UNL A   1      32.530  20.406  25.289  1.00  0.00     0.065 A 
ENDBRANCH   8  22
ENDBRANCH   3   5
ENDBRANCH   2   3
ENDBRANCH   1   2
BRANCH   1  27
ATOM     27  C   UNL A   1      39.856  20.078  25.708  1.00  0.00     0.275 C 
BRANCH  27  28
ATOM     28  O   UNL A   1      40.787  19.447  26.608  1.00  0.00    -0.458 OA
BRANCH  28  29
ATOM     29  C   UNL A   1      42.076  19.452  26.191  1.00  0.00     0.338 C 
ATOM     30  O   UNL A   1      42.684  18.530  25.672  1.00  0.00    -0.246 OA
BRANCH  29  31
ATOM     31  C   UNL A   1      42.633  20.806  26.324  1.00  0.00     0.060 A 
ATOM     32  C   UNL A   1      42.706  21.344  27.605  1.00  0.00     0.016 A 
ATOM     33  C   UNL A   1      42.979  21.578  25.219  1.00  0.00     0.016 A 
ATOM     34  C   UNL A   1      43.066  22.668  27.803  1.00  0.00     0.010 A 
ATOM     35  C   UNL A   1      43.398  22.900  25.419  1.00  0.00     0.010 A 
ATOM     36  C   UNL A   1      43.426  23.461  26.712  1.00  0.00    -0.014 A 
BRANCH  36  37
ATOM     37  C   UNL A   1      43.820  24.873  26.935  1.00  0.00     0.031 A 
ATOM     38  C   UNL A   1      45.234  25.309  26.674  1.00  0.00     0.074 A 
ATOM     39  C   UNL A   1      42.905  25.759  27.370  1.00  0.00     0.049 A 
ATOM     40  N   UNL A   1      45.797  26.465  26.911  1.00  0.00    -0.248 NA
ATOM     41  C   UNL A   1      46.137  24.313  26.073  1.00  0.00     0.031 C 
ATOM     42  C   UNL A   1      41.494  25.459  27.628  1.00  0.00     0.029 A 
ATOM     43  N   UNL A   1      43.025  27.088  27.690  1.00  0.00    -0.354 N 
ATOM     44  C   UNL A   1      47.129  26.321  26.545  1.00  0.00     0.074 A 
ATOM     45  C   UNL A   1      47.291  24.966  26.062  1.00  0.00     0.031 C 
ATOM     46  C   UNL A   1      40.883  26.565  28.075  1.00  0.00     0.029 A 
ATOM     47  C   UNL A   1      41.866  27.636  28.191  1.00  0.00     0.049 A 
ATOM     48  H   UNL A   1      43.858  27.599  27.573  1.00  0.00     0.167 HD
ATOM     49  C   UNL A   1      48.122  27.239  26.600  1.00  0.00     0.034 A 
ATOM     50  C   UNL A   1      41.630  28.852  28.720  1.00  0.00     0.034 A 
ATOM     51  C   UNL A   1      47.940  28.597  27.038  1.00  0.00     0.049 A 
ATOM     52  C   UNL A   1      42.758  29.844  28.788  1.00  0.00     0.074 A 
ATOM     53  C   UNL A   1      48.872  29.618  27.083  1.00  0.00     0.029 A 
ATOM     54  N   UNL A   1      46.747  29.123  27.511  1.00  0.00    -0.354 N 
ATOM     55  N   UNL A   1      43.992  29.720  28.364  1.00  0.00    -0.248 NA
ATOM     56  C   UNL A   1      42.458  31.150  29.392  1.00  0.00     0.031 C 
ATOM     57  C   UNL A   1      48.247  30.757  27.604  1.00  0.00     0.029 A 
ATOM     58  C   UNL A   1      46.920  30.451  27.861  1.00  0.00     0.049 A 
ATOM     59  H   UNL A   1      45.901  28.625  27.588  1.00  0.00     0.167 HD
ATOM     60  C   UNL A   1      44.610  30.936  28.626  1.00  0.00     0.074 A 
ATOM     61  C   UNL A   1      43.606  31.793  29.223  1.00  0.00     0.031 C 
ATOM     62  C   UNL A   1      45.896  31.304  28.408  1.00  0.00     0.034 A 
BRANCH  49  63
ATOM     63  C   UNL A   1      49.497  26.813  26.157  1.00  0.00     0.023 A 
ATOM     64  C   UNL A   1      50.283  26.000  26.997  1.00  0.00     0.012 A 
ATOM     65  C   UNL A   1      49.987  27.170  24.885  1.00  0.00     0.148 A 
ATOM     66  C   UNL A   1      51.548  25.573  26.592  1.00  0.00     0.002 A 
ATOM     67  C   UNL A   1      51.232  26.709  24.471  1.00  0.00     0.091 A 
ATOM     68  F   UNL A   1      49.234  27.963  24.108  1.00  0.00    -0.205 F 
ATOM     69  C   UNL A   1      52.017  25.919  25.327  1.00  0.00     0.022 A 
BRANCH  67  70
ATOM     70  S   UNL A   1      51.892  27.040  22.834  1.00  0.00     0.127 S 
ATOM     71  O   UNL A   1      52.275  28.447  22.950  1.00  0.00    -0.237 OA
ATOM     72  O   UNL A   1      53.017  26.107  22.760  1.00  0.00    -0.237 OA
ATOM     73  O   UNL A   1      50.811  26.761  21.901  1.00  0.00    -0.744 OA
ENDBRANCH  67  70
ENDBRANCH  49  63
BRANCH  50  74
ATOM     74  C   UNL A   1      40.268  29.196  29.214  1.00  0.00     0.023 A 
ATOM     75  C   UNL A   1      39.302  29.673  28.308  1.00  0.00     0.012 A 
ATOM     76  C   UNL A   1      39.910  29.016  30.567  1.00  0.00     0.148 A 
ATOM     77  C   UNL A   1      38.014  29.987  28.742  1.00  0.00     0.002 A 
ATOM     78  C   UNL A   1      38.611  29.277  30.981  1.00  0.00     0.091 A 
ATOM     79  F   UNL A   1      40.849  28.581  31.419  1.00  0.00    -0.205 F 
ATOM     80  C   UNL A   1      37.664  29.777  30.074  1.00  0.00     0.022 A 
BRANCH  78  81
ATOM     81  S   UNL A   1      38.042  28.913  32.646  1.00  0.00     0.127 S 
ATOM     82  O   UNL A   1      38.938  29.736  33.455  1.00  0.00    -0.237 OA
ATOM     83  O   UNL A   1      36.654  29.374  32.602  1.00  0.00    -0.237 OA
ATOM     84  O   UNL A   1      38.189  27.473  32.804  1.00  0.00    -0.744 OA
ENDBRANCH  78  81
ENDBRANCH  50  74
BRANCH  62  85
ATOM     85  C   UNL A   1      46.293  32.705  28.793  1.00  0.00     0.023 A 
ATOM     86  C   UNL A   1      46.831  32.951  30.072  1.00  0.00     0.012 A 
ATOM     87  C   UNL A   1      46.210  33.757  27.861  1.00  0.00     0.148 A 
ATOM     88  C   UNL A   1      47.257  34.230  30.426  1.00  0.00     0.002 A 
ATOM     89  C   UNL A   1      46.682  35.019  28.205  1.00  0.00     0.091 A 
ATOM     90  F   UNL A   1      45.679  33.504  26.657  1.00  0.00    -0.205 F 
ATOM     91  C   UNL A   1      47.195  35.259  29.490  1.00  0.00     0.022 A 
BRANCH  89  92
ATOM     92  S   UNL A   1      46.729  36.380  27.034  1.00  0.00     0.127 S 
ATOM     93  O   UNL A   1      45.375  36.919  27.148  1.00  0.00    -0.237 OA
ATOM     94  O   UNL A   1      47.776  37.235  27.596  1.00  0.00    -0.237 OA
ATOM     95  O   UNL A   1      47.061  35.790  25.744  1.00  0.00    -0.744 OA
ENDBRANCH  89  92
ENDBRANCH  62  85
ENDBRANCH  36  37
ENDBRANCH  29  31
ENDBRANCH  28  29
ENDBRANCH  27  28
ENDBRANCH   1  27
TORSDOF 18
ENDMDL
