MODEL 1
REMARK VINA RESULT:     -14.7      0.000      0.000
REMARK SMILES Cc1ccc(NC(=O)C[C@@H](C(=O)OCCOC(=O)c2ccc(-c3c4nc(c(-c5cccc(S(=O)(=O)[O-])c5F)c5ccc([nH]5)c(-c5cccc(S(=O)(=O)[O-])c5F)c5nc(c(-c6cccc(S(=O)(=O)[O-])c6F)c6ccc3[nH]6)C=C5)C=C4)cc2)[NH+]2CCOCC2)cc1
REMARK SMILES IDX 14 1 13 2 11 3 12 4 10 5 9 6 7 7 6 8 8 10 5 11 1 12 2 13
REMARK SMILES IDX 3 14 89 15 4 16 88 17 82 18 83 19 87 20 84 22 86 23 85 24
REMARK SMILES IDX 15 25 16 26 17 27 18 28 19 29 20 30 81 31 21 32 80 33 22 34
REMARK SMILES IDX 23 35 24 36 74 37 25 38 79 39 73 40 75 41 26 42 78 43 72 44
REMARK SMILES IDX 71 45 27 47 59 48 39 49 58 50 40 51 43 52 57 53 76 54 41 55
REMARK SMILES IDX 42 56 56 58 77 59 44 60 28 61 29 62 37 63 30 64 32 65 38 66
REMARK SMILES IDX 31 67 33 68 34 69 35 70 36 71 60 72 61 73 69 74 62 75 64 76
REMARK SMILES IDX 70 77 63 78 65 79 66 80 67 81 68 82 45 83 46 84 54 85 47 86
REMARK SMILES IDX 49 87 55 88 48 89 50 90 51 91 52 92 53 93
REMARK H PARENT 6 9 82 21 75 46 43 57
REMARK Flexibility Score: inf
ROOT
ATOM      1  C   UNL A   1      34.249  30.340  27.186  1.00  0.00     0.274 C 
ENDROOT
BRANCH   1   2
ATOM      2  O   UNL A   1      32.598  29.565  26.942  1.00  0.00    -0.458 OA
BRANCH   2   3
ATOM      3  C   UNL A   1      32.035  28.244  27.077  1.00  0.00     0.365 C 
ATOM      4  O   UNL A   1      31.350  27.833  28.018  1.00  0.00    -0.245 OA
BRANCH   3   5
ATOM      5  C   UNL A   1      31.747  27.413  25.860  1.00  0.00     0.304 C 
BRANCH   5   6
ATOM      6  C   UNL A   1      31.625  26.039  26.647  1.00  0.00     0.177 C 
BRANCH   6   7
ATOM      7  C   UNL A   1      30.469  25.075  26.219  1.00  0.00     0.231 C 
ATOM      8  N   UNL A   1      30.516  23.824  25.634  1.00  0.00    -0.326 N 
ATOM      9  H   UNL A   1      29.646  23.576  25.244  1.00  0.00     0.169 HD
ATOM     10  O   UNL A   1      29.307  25.488  26.387  1.00  0.00    -0.274 OA
BRANCH   8  11
ATOM     11  C   UNL A   1      31.484  22.798  25.444  1.00  0.00     0.041 A 
ATOM     12  C   UNL A   1      36.282  20.948  25.116  1.00  0.00     0.044 C 
ATOM     13  C   UNL A   1      35.023  21.766  25.380  1.00  0.00    -0.051 A 
ATOM     14  C   UNL A   1      34.160  22.157  23.928  1.00  0.00     0.005 A 
ATOM     15  C   UNL A   1      34.138  21.856  26.807  1.00  0.00     0.005 A 
ATOM     16  C   UNL A   1      32.308  22.625  23.891  1.00  0.00     0.026 A 
ATOM     17  C   UNL A   1      32.435  22.317  26.869  1.00  0.00     0.026 A 
ENDBRANCH   8  11
ENDBRANCH   6   7
ENDBRANCH   5   6
BRANCH   5  18
ATOM     18  N   UNL A   1      32.892  27.468  24.667  1.00  0.00    -0.319 N 
ATOM     19  C   UNL A   1      32.757  26.325  23.701  1.00  0.00     0.291 C 
ATOM     20  C   UNL A   1      32.992  28.678  23.763  1.00  0.00     0.291 C 
ATOM     21  H   UNL A   1      33.717  27.461  25.266  1.00  0.00     0.348 HD
ATOM     22  C   UNL A   1      33.704  26.202  22.471  1.00  0.00     0.221 C 
ATOM     23  C   UNL A   1      33.980  28.537  22.536  1.00  0.00     0.221 C 
ATOM     24  O   UNL A   1      33.742  27.404  21.707  1.00  0.00    -0.370 OA
ENDBRANCH   5  18
ENDBRANCH   3   5
ENDBRANCH   2   3
ENDBRANCH   1   2
BRANCH   1  25
ATOM     25  C   UNL A   1      34.657  31.892  28.690  1.00  0.00     0.275 C 
BRANCH  25  26
ATOM     26  O   UNL A   1      35.870  31.311  30.050  1.00  0.00    -0.458 OA
BRANCH  26  27
ATOM     27  C   UNL A   1      36.609  29.832  30.352  1.00  0.00     0.338 C 
ATOM     28  O   UNL A   1      36.285  29.336  31.430  1.00  0.00    -0.246 OA
BRANCH  27  29
ATOM     29  C   UNL A   1      37.780  28.986  29.294  1.00  0.00     0.060 A 
ATOM     30  C   UNL A   1      38.317  29.349  28.048  1.00  0.00     0.016 A 
ATOM     31  C   UNL A   1      38.520  27.912  29.731  1.00  0.00     0.016 A 
ATOM     32  C   UNL A   1      39.660  28.965  27.610  1.00  0.00     0.010 A 
ATOM     33  C   UNL A   1      39.904  28.056  29.680  1.00  0.00     0.010 A 
ATOM     34  C   UNL A   1      40.505  28.370  28.500  1.00  0.00    -0.014 A 
BRANCH  34  35
ATOM     35  C   UNL A   1      41.820  27.723  28.316  1.00  0.00     0.031 A 
ATOM     36  C   UNL A   1      41.848  26.306  27.813  1.00  0.00     0.074 A 
ATOM     37  C   UNL A   1      42.827  28.580  28.717  1.00  0.00     0.049 A 
ATOM     38  N   UNL A   1      42.294  25.298  28.486  1.00  0.00    -0.248 NA
ATOM     39  C   UNL A   1      41.232  25.829  26.552  1.00  0.00     0.031 C 
ATOM     40  C   UNL A   1      44.278  28.626  28.705  1.00  0.00     0.029 A 
ATOM     41  N   UNL A   1      42.569  29.813  29.381  1.00  0.00    -0.354 N 
ATOM     42  C   UNL A   1      42.551  24.298  27.550  1.00  0.00     0.074 A 
ATOM     43  C   UNL A   1      41.619  24.537  26.484  1.00  0.00     0.031 C 
ATOM     44  C   UNL A   1      44.704  29.558  29.605  1.00  0.00     0.029 A 
ATOM     45  C   UNL A   1      43.551  30.166  30.261  1.00  0.00     0.049 A 
ATOM     46  H   UNL A   1      41.763  30.355  29.221  1.00  0.00     0.167 HD
ATOM     47  C   UNL A   1      43.783  23.695  27.552  1.00  0.00     0.034 A 
ATOM     48  C   UNL A   1      43.160  30.221  31.566  1.00  0.00     0.034 A 
ATOM     49  C   UNL A   1      44.617  24.428  28.528  1.00  0.00     0.049 A 
ATOM     50  C   UNL A   1      43.625  28.948  32.231  1.00  0.00     0.074 A 
ATOM     51  C   UNL A   1      45.530  25.457  28.373  1.00  0.00     0.029 A 
ATOM     52  N   UNL A   1      44.239  24.456  29.861  1.00  0.00    -0.354 N 
ATOM     53  N   UNL A   1      44.148  27.932  31.606  1.00  0.00    -0.248 NA
ATOM     54  C   UNL A   1      43.391  28.703  33.639  1.00  0.00     0.031 C 
ATOM     55  C   UNL A   1      45.716  26.076  29.644  1.00  0.00     0.029 A 
ATOM     56  C   UNL A   1      44.882  25.465  30.566  1.00  0.00     0.049 A 
ATOM     57  H   UNL A   1      43.591  23.833  30.262  1.00  0.00     0.167 HD
ATOM     58  C   UNL A   1      44.196  26.852  32.442  1.00  0.00     0.074 A 
ATOM     59  C   UNL A   1      43.708  27.403  33.707  1.00  0.00     0.031 C 
ATOM     60  C   UNL A   1      44.594  25.612  32.000  1.00  0.00     0.034 A 
BRANCH  47  61
ATOM     61  C   UNL A   1      44.424  22.749  26.519  1.00  0.00     0.023 A 
ATOM     62  C   UNL A   1      45.619  23.216  25.905  1.00  0.00     0.012 A 
ATOM     63  C   UNL A   1      44.026  21.436  26.151  1.00  0.00     0.148 A 
ATOM     64  C   UNL A   1      46.355  22.480  24.971  1.00  0.00     0.002 A 
ATOM     65  C   UNL A   1      44.774  20.688  25.208  1.00  0.00     0.091 A 
ATOM     66  F   UNL A   1      42.944  20.896  26.730  1.00  0.00    -0.205 F 
ATOM     67  C   UNL A   1      45.932  21.216  24.620  1.00  0.00     0.022 A 
BRANCH  65  68
ATOM     68  S   UNL A   1      44.349  19.024  24.638  1.00  0.00     0.127 S 
ATOM     69  O   UNL A   1      45.026  18.179  25.627  1.00  0.00    -0.237 OA
ATOM     70  O   UNL A   1      42.890  19.010  24.741  1.00  0.00    -0.237 OA
ATOM     71  O   UNL A   1      44.882  18.910  23.288  1.00  0.00    -0.744 OA
ENDBRANCH  65  68
ENDBRANCH  47  61
BRANCH  48  72
ATOM     72  C   UNL A   1      41.742  30.754  31.802  1.00  0.00     0.023 A 
ATOM     73  C   UNL A   1      40.693  29.897  32.227  1.00  0.00     0.012 A 
ATOM     74  C   UNL A   1      41.493  32.142  31.842  1.00  0.00     0.148 A 
ATOM     75  C   UNL A   1      39.501  30.416  32.775  1.00  0.00     0.002 A 
ATOM     76  C   UNL A   1      40.283  32.652  32.310  1.00  0.00     0.091 A 
ATOM     77  F   UNL A   1      42.459  32.987  31.473  1.00  0.00    -0.205 F 
ATOM     78  C   UNL A   1      39.303  31.799  32.833  1.00  0.00     0.022 A 
BRANCH  76  79
ATOM     79  S   UNL A   1      40.040  34.445  32.290  1.00  0.00     0.127 S 
ATOM     80  O   UNL A   1      38.719  34.605  32.898  1.00  0.00    -0.237 OA
ATOM     81  O   UNL A   1      41.145  34.983  33.073  1.00  0.00    -0.237 OA
ATOM     82  O   UNL A   1      40.087  34.713  30.857  1.00  0.00    -0.744 OA
ENDBRANCH  76  79
ENDBRANCH  48  72
BRANCH  60  83
ATOM     83  C   UNL A   1      44.784  24.382  32.880  1.00  0.00     0.023 A 
ATOM     84  C   UNL A   1      43.802  23.394  33.024  1.00  0.00     0.012 A 
ATOM     85  C   UNL A   1      45.952  24.197  33.672  1.00  0.00     0.148 A 
ATOM     86  C   UNL A   1      43.937  22.305  33.884  1.00  0.00     0.002 A 
ATOM     87  C   UNL A   1      46.127  23.071  34.463  1.00  0.00     0.091 A 
ATOM     88  F   UNL A   1      46.883  25.152  33.755  1.00  0.00    -0.205 F 
ATOM     89  C   UNL A   1      45.108  22.133  34.593  1.00  0.00     0.022 A 
BRANCH  87  90
ATOM     90  S   UNL A   1      47.654  22.758  35.348  1.00  0.00     0.127 S 
ATOM     91  O   UNL A   1      47.335  21.508  36.038  1.00  0.00    -0.237 OA
ATOM     92  O   UNL A   1      48.610  22.625  34.249  1.00  0.00    -0.237 OA
ATOM     93  O   UNL A   1      47.873  23.913  36.205  1.00  0.00    -0.744 OA
ENDBRANCH  87  90
ENDBRANCH  60  83
ENDBRANCH  34  35
ENDBRANCH  27  29
ENDBRANCH  26  27
ENDBRANCH  25  26
ENDBRANCH   1  25
TORSDOF 18
ENDMDL
MODEL 2
REMARK VINA RESULT:     -14.7      3.772     10.758
REMARK SMILES Cc1ccc(NC(=O)C[C@@H](C(=O)OCCOC(=O)c2ccc(-c3c4nc(c(-c5cccc(S(=O)(=O)[O-])c5F)c5ccc([nH]5)c(-c5cccc(S(=O)(=O)[O-])c5F)c5nc(c(-c6cccc(S(=O)(=O)[O-])c6F)c6ccc3[nH]6)C=C5)C=C4)cc2)[NH+]2CCOCC2)cc1
REMARK SMILES IDX 14 1 13 2 11 3 12 4 10 5 9 6 7 7 6 8 8 10 5 11 1 12 2 13
REMARK SMILES IDX 3 14 89 15 4 16 88 17 82 18 83 19 87 20 84 22 86 23 85 24
REMARK SMILES IDX 15 25 16 26 17 27 18 28 19 29 20 30 81 31 21 32 80 33 22 34
REMARK SMILES IDX 23 35 24 36 74 37 25 38 79 39 73 40 75 41 26 42 78 43 72 44
REMARK SMILES IDX 71 45 27 47 59 48 39 49 58 50 40 51 43 52 57 53 76 54 41 55
REMARK SMILES IDX 42 56 56 58 77 59 44 60 28 61 29 62 37 63 30 64 32 65 38 66
REMARK SMILES IDX 31 67 33 68 34 69 35 70 36 71 60 72 61 73 69 74 62 75 64 76
REMARK SMILES IDX 70 77 63 78 65 79 66 80 67 81 68 82 45 83 46 84 54 85 47 86
REMARK SMILES IDX 49 87 55 88 48 89 50 90 51 91 52 92 53 93
REMARK H PARENT 6 9 82 21 75 46 43 57
REMARK Flexibility Score: inf
ROOT
ATOM      1  C   UNL A   1      34.806  21.993  25.128  1.00  0.00     0.274 C 
ENDROOT
BRANCH   1   2
ATOM      2  O   UNL A   1      33.501  21.517  23.922  1.00  0.00    -0.458 OA
BRANCH   2   3
ATOM      3  C   UNL A   1      32.727  22.185  22.905  1.00  0.00     0.365 C 
ATOM      4  O   UNL A   1      32.132  21.647  21.966  1.00  0.00    -0.245 OA
BRANCH   3   5
ATOM      5  C   UNL A   1      32.099  23.520  23.183  1.00  0.00     0.304 C 
BRANCH   5   6
ATOM      6  C   UNL A   1      33.334  24.373  22.661  1.00  0.00     0.177 C 
BRANCH   6   7
ATOM      7  C   UNL A   1      33.073  25.336  21.456  1.00  0.00     0.231 C 
ATOM      8  N   UNL A   1      32.661  26.655  21.436  1.00  0.00    -0.326 N 
ATOM      9  H   UNL A   1      32.333  26.917  20.545  1.00  0.00     0.169 HD
ATOM     10  O   UNL A   1      33.215  24.856  20.316  1.00  0.00    -0.274 OA
BRANCH   8  11
ATOM     11  C   UNL A   1      32.586  27.737  22.358  1.00  0.00     0.041 A 
ATOM     12  C   UNL A   1      32.081  29.811  27.048  1.00  0.00     0.044 C 
ATOM     13  C   UNL A   1      32.310  28.903  25.845  1.00  0.00    -0.051 A 
ATOM     14  C   UNL A   1      30.928  28.806  24.803  1.00  0.00     0.005 A 
ATOM     15  C   UNL A   1      33.780  28.465  25.156  1.00  0.00     0.005 A 
ATOM     16  C   UNL A   1      31.020  28.282  22.968  1.00  0.00     0.026 A 
ATOM     17  C   UNL A   1      33.952  27.931  23.482  1.00  0.00     0.026 A 
ENDBRANCH   8  11
ENDBRANCH   6   7
ENDBRANCH   5   6
BRANCH   5  18
ATOM     18  N   UNL A   1      31.646  23.786  24.752  1.00  0.00    -0.319 N 
ATOM     19  C   UNL A   1      30.836  25.042  24.902  1.00  0.00     0.291 C 
ATOM     20  C   UNL A   1      30.824  22.752  25.492  1.00  0.00     0.291 C 
ATOM     21  H   UNL A   1      32.577  23.793  25.167  1.00  0.00     0.348 HD
ATOM     22  C   UNL A   1      30.265  25.465  26.287  1.00  0.00     0.221 C 
ATOM     23  C   UNL A   1      30.277  23.197  26.908  1.00  0.00     0.221 C 
ATOM     24  O   UNL A   1      29.533  24.410  26.904  1.00  0.00    -0.370 OA
ENDBRANCH   5  18
ENDBRANCH   3   5
ENDBRANCH   2   3
ENDBRANCH   1   2
BRANCH   1  25
ATOM     25  C   UNL A   1      36.499  23.310  24.638  1.00  0.00     0.275 C 
BRANCH  25  26
ATOM     26  O   UNL A   1      37.273  24.132  26.182  1.00  0.00    -0.458 OA
BRANCH  26  27
ATOM     27  C   UNL A   1      38.863  24.282  26.708  1.00  0.00     0.338 C 
ATOM     28  O   UNL A   1      39.534  23.266  26.530  1.00  0.00    -0.246 OA
BRANCH  27  29
ATOM     29  C   UNL A   1      39.602  25.717  27.483  1.00  0.00     0.060 A 
ATOM     30  C   UNL A   1      40.024  26.939  26.934  1.00  0.00     0.016 A 
ATOM     31  C   UNL A   1      39.622  25.884  28.849  1.00  0.00     0.016 A 
ATOM     32  C   UNL A   1      39.990  28.204  27.670  1.00  0.00     0.010 A 
ATOM     33  C   UNL A   1      38.992  27.025  29.339  1.00  0.00     0.010 A 
ATOM     34  C   UNL A   1      39.371  28.250  28.885  1.00  0.00    -0.014 A 
BRANCH  34  35
ATOM     35  C   UNL A   1      39.328  29.303  29.920  1.00  0.00     0.031 A 
ATOM     36  C   UNL A   1      38.216  30.314  29.855  1.00  0.00     0.074 A 
ATOM     37  C   UNL A   1      40.414  29.179  30.764  1.00  0.00     0.049 A 
ATOM     38  N   UNL A   1      38.384  31.578  29.653  1.00  0.00    -0.248 NA
ATOM     39  C   UNL A   1      36.767  29.999  29.856  1.00  0.00     0.031 C 
ATOM     40  C   UNL A   1      40.905  29.779  31.991  1.00  0.00     0.029 A 
ATOM     41  N   UNL A   1      41.485  28.275  30.512  1.00  0.00    -0.354 N 
ATOM     42  C   UNL A   1      37.216  32.195  30.095  1.00  0.00     0.074 A 
ATOM     43  C   UNL A   1      36.183  31.215  29.904  1.00  0.00     0.031 C 
ATOM     44  C   UNL A   1      42.236  29.508  32.121  1.00  0.00     0.029 A 
ATOM     45  C   UNL A   1      42.687  28.722  30.978  1.00  0.00     0.049 A 
ATOM     46  H   UNL A   1      41.368  27.414  30.049  1.00  0.00     0.167 HD
ATOM     47  C   UNL A   1      37.316  33.240  30.977  1.00  0.00     0.034 A 
ATOM     48  C   UNL A   1      43.625  28.956  30.016  1.00  0.00     0.034 A 
ATOM     49  C   UNL A   1      38.739  33.341  31.362  1.00  0.00     0.049 A 
ATOM     50  C   UNL A   1      43.659  30.444  29.770  1.00  0.00     0.074 A 
ATOM     51  C   UNL A   1      39.440  32.839  32.447  1.00  0.00     0.029 A 
ATOM     52  N   UNL A   1      39.690  33.611  30.390  1.00  0.00    -0.354 N 
ATOM     53  N   UNL A   1      42.817  31.300  30.275  1.00  0.00    -0.248 NA
ATOM     54  C   UNL A   1      44.578  31.031  28.816  1.00  0.00     0.031 C 
ATOM     55  C   UNL A   1      40.828  32.850  32.117  1.00  0.00     0.029 A 
ATOM     56  C   UNL A   1      40.976  33.305  30.817  1.00  0.00     0.049 A 
ATOM     57  H   UNL A   1      39.479  33.979  29.502  1.00  0.00     0.167 HD
ATOM     58  C   UNL A   1      42.949  32.503  29.642  1.00  0.00     0.074 A 
ATOM     59  C   UNL A   1      44.075  32.270  28.737  1.00  0.00     0.031 C 
ATOM     60  C   UNL A   1      42.096  33.553  29.898  1.00  0.00     0.034 A 
BRANCH  47  61
ATOM     61  C   UNL A   1      36.224  33.948  31.800  1.00  0.00     0.023 A 
ATOM     62  C   UNL A   1      36.444  34.011  33.204  1.00  0.00     0.012 A 
ATOM     63  C   UNL A   1      35.059  34.619  31.339  1.00  0.00     0.148 A 
ATOM     64  C   UNL A   1      35.579  34.643  34.102  1.00  0.00     0.002 A 
ATOM     65  C   UNL A   1      34.184  35.263  32.248  1.00  0.00     0.091 A 
ATOM     66  F   UNL A   1      34.810  34.661  30.023  1.00  0.00    -0.205 F 
ATOM     67  C   UNL A   1      34.447  35.269  33.626  1.00  0.00     0.022 A 
BRANCH  65  68
ATOM     68  S   UNL A   1      32.659  36.120  31.785  1.00  0.00     0.127 S 
ATOM     69  O   UNL A   1      31.631  35.258  32.378  1.00  0.00    -0.237 OA
ATOM     70  O   UNL A   1      32.804  37.416  32.447  1.00  0.00    -0.237 OA
ATOM     71  O   UNL A   1      32.642  36.159  30.329  1.00  0.00    -0.744 OA
ENDBRANCH  65  68
ENDBRANCH  47  61
BRANCH  48  72
ATOM     72  C   UNL A   1      43.618  27.969  28.843  1.00  0.00     0.023 A 
ATOM     73  C   UNL A   1      43.320  28.395  27.521  1.00  0.00     0.012 A 
ATOM     74  C   UNL A   1      44.141  26.667  28.994  1.00  0.00     0.148 A 
ATOM     75  C   UNL A   1      43.644  27.596  26.405  1.00  0.00     0.002 A 
ATOM     76  C   UNL A   1      44.386  25.847  27.894  1.00  0.00     0.091 A 
ATOM     77  F   UNL A   1      44.456  26.232  30.217  1.00  0.00    -0.205 F 
ATOM     78  C   UNL A   1      44.196  26.325  26.591  1.00  0.00     0.022 A 
BRANCH  76  79
ATOM     79  S   UNL A   1      45.023  24.180  28.188  1.00  0.00     0.127 S 
ATOM     80  O   UNL A   1      44.058  23.620  29.133  1.00  0.00    -0.237 OA
ATOM     81  O   UNL A   1      45.035  23.546  26.875  1.00  0.00    -0.237 OA
ATOM     82  O   UNL A   1      46.331  24.481  28.759  1.00  0.00    -0.744 OA
ENDBRANCH  76  79
ENDBRANCH  48  72
BRANCH  60  83
ATOM     83  C   UNL A   1      42.233  34.959  29.326  1.00  0.00     0.023 A 
ATOM     84  C   UNL A   1      41.499  35.402  28.218  1.00  0.00     0.012 A 
ATOM     85  C   UNL A   1      43.176  35.892  29.841  1.00  0.00     0.148 A 
ATOM     86  C   UNL A   1      41.672  36.659  27.643  1.00  0.00     0.002 A 
ATOM     87  C   UNL A   1      43.289  37.175  29.326  1.00  0.00     0.091 A 
ATOM     88  F   UNL A   1      44.054  35.532  30.782  1.00  0.00    -0.205 F 
ATOM     89  C   UNL A   1      42.556  37.555  28.207  1.00  0.00     0.022 A 
BRANCH  87  90
ATOM     90  S   UNL A   1      44.367  38.404  30.062  1.00  0.00     0.127 S 
ATOM     91  O   UNL A   1      44.140  39.550  29.182  1.00  0.00    -0.237 OA
ATOM     92  O   UNL A   1      43.794  38.535  31.401  1.00  0.00    -0.237 OA
ATOM     93  O   UNL A   1      45.709  37.842  30.030  1.00  0.00    -0.744 OA
ENDBRANCH  87  90
ENDBRANCH  60  83
ENDBRANCH  34  35
ENDBRANCH  27  29
ENDBRANCH  26  27
ENDBRANCH  25  26
ENDBRANCH   1  25
TORSDOF 18
ENDMDL
MODEL 3
REMARK VINA RESULT:     -14.3      3.946     10.856
REMARK SMILES Cc1ccc(NC(=O)C[C@@H](C(=O)OCCOC(=O)c2ccc(-c3c4nc(c(-c5cccc(S(=O)(=O)[O-])c5F)c5ccc([nH]5)c(-c5cccc(S(=O)(=O)[O-])c5F)c5nc(c(-c6cccc(S(=O)(=O)[O-])c6F)c6ccc3[nH]6)C=C5)C=C4)cc2)[NH+]2CCOCC2)cc1
REMARK SMILES IDX 14 1 13 2 11 3 12 4 10 5 9 6 7 7 6 8 8 10 5 11 1 12 2 13
REMARK SMILES IDX 3 14 89 15 4 16 88 17 82 18 83 19 87 20 84 22 86 23 85 24
REMARK SMILES IDX 15 25 16 26 17 27 18 28 19 29 20 30 81 31 21 32 80 33 22 34
REMARK SMILES IDX 23 35 24 36 74 37 25 38 79 39 73 40 75 41 26 42 78 43 72 44
REMARK SMILES IDX 71 45 27 47 59 48 39 49 58 50 40 51 43 52 57 53 76 54 41 55
REMARK SMILES IDX 42 56 56 58 77 59 44 60 28 61 29 62 37 63 30 64 32 65 38 66
REMARK SMILES IDX 31 67 33 68 34 69 35 70 36 71 60 72 61 73 69 74 62 75 64 76
REMARK SMILES IDX 70 77 63 78 65 79 66 80 67 81 68 82 45 83 46 84 54 85 47 86
REMARK SMILES IDX 49 87 55 88 48 89 50 90 51 91 52 92 53 93
REMARK H PARENT 6 9 82 21 75 46 43 57
REMARK Flexibility Score: inf
ROOT
ATOM      1  C   UNL A   1      35.564  23.360  23.484  1.00  0.00     0.274 C 
ENDROOT
BRANCH   1   2
ATOM      2  O   UNL A   1      34.017  22.436  23.114  1.00  0.00    -0.458 OA
BRANCH   2   3
ATOM      3  C   UNL A   1      32.660  22.436  23.603  1.00  0.00     0.365 C 
ATOM      4  O   UNL A   1      31.642  22.649  22.939  1.00  0.00    -0.245 OA
BRANCH   3   5
ATOM      5  C   UNL A   1      32.294  21.638  24.822  1.00  0.00     0.304 C 
BRANCH   5   6
ATOM      6  C   UNL A   1      32.992  22.622  25.855  1.00  0.00     0.177 C 
BRANCH   6   7
ATOM      7  C   UNL A   1      32.052  23.530  26.717  1.00  0.00     0.231 C 
ATOM      8  N   UNL A   1      31.611  24.821  26.503  1.00  0.00    -0.326 N 
ATOM      9  H   UNL A   1      31.252  25.222  27.328  1.00  0.00     0.169 HD
ATOM     10  O   UNL A   1      31.650  23.053  27.795  1.00  0.00    -0.274 OA
BRANCH   8  11
ATOM     11  C   UNL A   1      31.535  25.729  25.408  1.00  0.00     0.041 A 
ATOM     12  C   UNL A   1      29.692  29.838  22.906  1.00  0.00     0.044 C 
ATOM     13  C   UNL A   1      30.094  28.782  23.930  1.00  0.00    -0.051 A 
ATOM     14  C   UNL A   1      29.483  27.206  23.544  1.00  0.00     0.005 A 
ATOM     15  C   UNL A   1      31.398  28.826  24.990  1.00  0.00     0.005 A 
ATOM     16  C   UNL A   1      30.238  25.585  24.219  1.00  0.00     0.026 A 
ATOM     17  C   UNL A   1      32.131  27.381  25.692  1.00  0.00     0.026 A 
ENDBRANCH   8  11
ENDBRANCH   6   7
ENDBRANCH   5   6
BRANCH   5  18
ATOM     18  N   UNL A   1      32.825  20.072  24.839  1.00  0.00    -0.319 N 
ATOM     19  C   UNL A   1      32.319  19.289  23.661  1.00  0.00     0.291 C 
ATOM     20  C   UNL A   1      34.310  19.772  24.842  1.00  0.00     0.291 C 
ATOM     21  H   UNL A   1      32.456  19.809  25.752  1.00  0.00     0.348 HD
ATOM     22  C   UNL A   1      32.732  17.803  23.450  1.00  0.00     0.221 C 
ATOM     23  C   UNL A   1      34.702  18.251  24.653  1.00  0.00     0.221 C 
ATOM     24  O   UNL A   1      34.145  17.632  23.499  1.00  0.00    -0.370 OA
ENDBRANCH   5  18
ENDBRANCH   3   5
ENDBRANCH   2   3
ENDBRANCH   1   2
BRANCH   1  25
ATOM     25  C   UNL A   1      37.102  22.651  24.888  1.00  0.00     0.275 C 
BRANCH  25  26
ATOM     26  O   UNL A   1      37.725  24.025  26.065  1.00  0.00    -0.458 OA
BRANCH  26  27
ATOM     27  C   UNL A   1      39.155  24.214  26.929  1.00  0.00     0.338 C 
ATOM     28  O   UNL A   1      39.763  23.159  27.102  1.00  0.00    -0.246 OA
BRANCH  27  29
ATOM     29  C   UNL A   1      39.807  25.743  27.594  1.00  0.00     0.060 A 
ATOM     30  C   UNL A   1      40.047  26.981  26.977  1.00  0.00     0.016 A 
ATOM     31  C   UNL A   1      39.935  25.958  28.947  1.00  0.00     0.016 A 
ATOM     32  C   UNL A   1      39.949  28.262  27.681  1.00  0.00     0.010 A 
ATOM     33  C   UNL A   1      39.237  27.046  29.466  1.00  0.00     0.010 A 
ATOM     34  C   UNL A   1      39.442  28.286  28.948  1.00  0.00    -0.014 A 
BRANCH  34  35
ATOM     35  C   UNL A   1      39.384  29.365  29.955  1.00  0.00     0.031 A 
ATOM     36  C   UNL A   1      38.264  30.365  29.858  1.00  0.00     0.074 A 
ATOM     37  C   UNL A   1      40.465  29.271  30.809  1.00  0.00     0.049 A 
ATOM     38  N   UNL A   1      38.424  31.625  29.625  1.00  0.00    -0.248 NA
ATOM     39  C   UNL A   1      36.818  30.038  29.857  1.00  0.00     0.031 C 
ATOM     40  C   UNL A   1      40.944  29.906  32.024  1.00  0.00     0.029 A 
ATOM     41  N   UNL A   1      41.545  28.369  30.587  1.00  0.00    -0.354 N 
ATOM     42  C   UNL A   1      37.247  32.243  30.044  1.00  0.00     0.074 A 
ATOM     43  C   UNL A   1      36.224  31.250  29.872  1.00  0.00     0.031 C 
ATOM     44  C   UNL A   1      42.276  29.650  32.169  1.00  0.00     0.029 A 
ATOM     45  C   UNL A   1      42.741  28.838  31.048  1.00  0.00     0.049 A 
ATOM     46  H   UNL A   1      41.438  27.496  30.145  1.00  0.00     0.167 HD
ATOM     47  C   UNL A   1      37.334  33.311  30.900  1.00  0.00     0.034 A 
ATOM     48  C   UNL A   1      43.683  29.055  30.087  1.00  0.00     0.034 A 
ATOM     49  C   UNL A   1      38.753  33.433  31.291  1.00  0.00     0.049 A 
ATOM     50  C   UNL A   1      43.706  30.537  29.803  1.00  0.00     0.074 A 
ATOM     51  C   UNL A   1      39.452  32.965  32.392  1.00  0.00     0.029 A 
ATOM     52  N   UNL A   1      39.708  33.687  30.319  1.00  0.00    -0.354 N 
ATOM     53  N   UNL A   1      42.854  31.399  30.281  1.00  0.00    -0.248 NA
ATOM     54  C   UNL A   1      44.626  31.107  28.840  1.00  0.00     0.031 C 
ATOM     55  C   UNL A   1      40.841  32.978  32.070  1.00  0.00     0.029 A 
ATOM     56  C   UNL A   1      40.994  33.402  30.761  1.00  0.00     0.049 A 
ATOM     57  H   UNL A   1      39.500  34.030  29.420  1.00  0.00     0.167 HD
ATOM     58  C   UNL A   1      42.980  32.587  29.618  1.00  0.00     0.074 A 
ATOM     59  C   UNL A   1      44.114  32.340  28.727  1.00  0.00     0.031 C 
ATOM     60  C   UNL A   1      42.118  33.635  29.843  1.00  0.00     0.034 A 
BRANCH  47  61
ATOM     61  C   UNL A   1      36.230  34.031  31.698  1.00  0.00     0.023 A 
ATOM     62  C   UNL A   1      36.396  34.052  33.110  1.00  0.00     0.012 A 
ATOM     63  C   UNL A   1      35.105  34.747  31.210  1.00  0.00     0.148 A 
ATOM     64  C   UNL A   1      35.515  34.687  33.991  1.00  0.00     0.002 A 
ATOM     65  C   UNL A   1      34.214  35.394  32.101  1.00  0.00     0.091 A 
ATOM     66  F   UNL A   1      34.909  34.829  29.886  1.00  0.00    -0.205 F 
ATOM     67  C   UNL A   1      34.421  35.358  33.487  1.00  0.00     0.022 A 
BRANCH  65  68
ATOM     68  S   UNL A   1      32.733  36.308  31.600  1.00  0.00     0.127 S 
ATOM     69  O   UNL A   1      33.256  37.186  30.549  1.00  0.00    -0.237 OA
ATOM     70  O   UNL A   1      31.853  35.248  31.108  1.00  0.00    -0.237 OA
ATOM     71  O   UNL A   1      32.267  37.006  32.790  1.00  0.00    -0.744 OA
ENDBRANCH  65  68
ENDBRANCH  47  61
BRANCH  48  72
ATOM     72  C   UNL A   1      43.691  28.039  28.939  1.00  0.00     0.023 A 
ATOM     73  C   UNL A   1      43.277  28.401  27.630  1.00  0.00     0.012 A 
ATOM     74  C   UNL A   1      44.335  26.792  29.086  1.00  0.00     0.148 A 
ATOM     75  C   UNL A   1      43.601  27.602  26.513  1.00  0.00     0.002 A 
ATOM     76  C   UNL A   1      44.584  25.966  27.992  1.00  0.00     0.091 A 
ATOM     77  F   UNL A   1      44.761  26.420  30.296  1.00  0.00    -0.205 F 
ATOM     78  C   UNL A   1      44.273  26.389  26.692  1.00  0.00     0.022 A 
BRANCH  76  79
ATOM     79  S   UNL A   1      45.382  24.369  28.282  1.00  0.00     0.127 S 
ATOM     80  O   UNL A   1      44.508  23.738  29.271  1.00  0.00    -0.237 OA
ATOM     81  O   UNL A   1      45.403  23.717  26.978  1.00  0.00    -0.237 OA
ATOM     82  O   UNL A   1      46.677  24.798  28.798  1.00  0.00    -0.744 OA
ENDBRANCH  76  79
ENDBRANCH  48  72
BRANCH  60  83
ATOM     83  C   UNL A   1      42.248  35.028  29.236  1.00  0.00     0.023 A 
ATOM     84  C   UNL A   1      41.534  35.428  28.099  1.00  0.00     0.012 A 
ATOM     85  C   UNL A   1      43.163  35.989  29.749  1.00  0.00     0.148 A 
ATOM     86  C   UNL A   1      41.702  36.672  27.494  1.00  0.00     0.002 A 
ATOM     87  C   UNL A   1      43.269  37.260  29.201  1.00  0.00     0.091 A 
ATOM     88  F   UNL A   1      44.023  35.669  30.720  1.00  0.00    -0.205 F 
ATOM     89  C   UNL A   1      42.558  37.597  28.055  1.00  0.00     0.022 A 
BRANCH  87  90
ATOM     90  S   UNL A   1      44.309  38.525  29.930  1.00  0.00     0.127 S 
ATOM     91  O   UNL A   1      44.115  39.631  28.992  1.00  0.00    -0.237 OA
ATOM     92  O   UNL A   1      43.678  38.710  31.236  1.00  0.00    -0.237 OA
ATOM     93  O   UNL A   1      45.653  37.970  29.980  1.00  0.00    -0.744 OA
ENDBRANCH  87  90
ENDBRANCH  60  83
ENDBRANCH  34  35
ENDBRANCH  27  29
ENDBRANCH  26  27
ENDBRANCH  25  26
ENDBRANCH   1  25
TORSDOF 18
ENDMDL
