MODEL 1
REMARK VINA RESULT:     -14.0      0.000      0.000
REMARK SMILES O=C(N[C@@H](Cc1c[nH]c2ccccc12)C(=O)N[C@@H](CO)C(=O)OCCOC(=O)c1ccc(-c2c3nc(c(-c4cccc(S(=O)(=O)[O-])c4F)c4ccc([nH]4)c(-c4cccc(S(=O)(=O)[O-])c4F)c4nc(c(-c5cccc(S(=O)(=O)[O-])c5F)c5ccc2[nH]5)C=C4)C=C3)cc1)c1ccc(F)cc1
REMARK SMILES IDX 24 1 23 2 21 3 22 4 18 5 17 6 15 7 16 8 4 10 3 11 1 12 2 13
REMARK SMILES IDX 92 15 93 16 98 17 94 18 97 19 95 20 96 21 5 22 6 23 7 24
REMARK SMILES IDX 14 25 8 26 9 27 13 28 10 30 12 31 11 32 19 33 20 34 25 36
REMARK SMILES IDX 26 37 27 38 28 39 29 40 30 41 91 42 31 43 90 44 32 45 33 46
REMARK SMILES IDX 34 47 84 48 35 49 89 50 83 51 85 52 36 53 88 54 82 55 81 56
REMARK SMILES IDX 37 58 69 59 49 60 68 61 50 62 53 63 67 64 86 65 51 66 52 67
REMARK SMILES IDX 66 69 87 70 54 71 38 72 39 73 47 74 40 75 42 76 48 77 41 78
REMARK SMILES IDX 43 79 44 80 45 81 46 82 70 83 71 84 79 85 72 86 74 87 80 88
REMARK SMILES IDX 73 89 75 90 76 91 77 92 78 93 55 94 56 95 64 96 57 97 59 98
REMARK SMILES IDX 65 99 58 100 60 101 61 102 62 103 63 104
REMARK H PARENT 17 9 3 14 8 29 20 35 85 57 53 68
REMARK Flexibility Score: inf
ROOT
ATOM      1  C   UNL A   1      35.979  23.092  24.228  1.00  0.00     0.274 C 
ENDROOT
BRANCH   1   2
ATOM      2  O   UNL A   1      35.549  23.505  22.906  1.00  0.00    -0.460 OA
BRANCH   2   3
ATOM      3  C   UNL A   1      34.201  23.366  22.747  1.00  0.00     0.331 C 
ATOM      4  O   UNL A   1      33.670  22.258  22.625  1.00  0.00    -0.250 OA
BRANCH   3   5
ATOM      5  C   UNL A   1      33.302  24.849  22.725  1.00  0.00     0.218 C 
BRANCH   5   6
ATOM      6  N   UNL A   1      33.593  25.347  24.296  1.00  0.00    -0.339 N 
ATOM      7  C   UNL A   1      32.794  25.564  25.400  1.00  0.00     0.243 C 
ATOM      8  O   UNL A   1      33.382  26.078  26.367  1.00  0.00    -0.273 OA
ATOM      9  H   UNL A   1      34.546  25.523  24.471  1.00  0.00     0.164 HD
BRANCH   7  10
ATOM     10  C   UNL A   1      31.198  25.405  25.501  1.00  0.00     0.176 C 
BRANCH  10  11
ATOM     11  N   UNL A   1      30.647  24.789  26.725  1.00  0.00    -0.340 N 
ATOM     12  O   UNL A   1      29.555  23.086  27.676  1.00  0.00    -0.269 OA
ATOM     13  C   UNL A   1      30.520  23.455  27.012  1.00  0.00     0.251 C 
ATOM     14  H   UNL A   1      30.334  25.413  27.419  1.00  0.00     0.164 HD
BRANCH  13  15
ATOM     15  C   UNL A   1      31.524  22.469  26.566  1.00  0.00     0.040 A 
ATOM     16  C   UNL A   1      31.325  21.727  25.396  1.00  0.00     0.017 A 
ATOM     17  C   UNL A   1      32.746  22.398  27.249  1.00  0.00     0.017 A 
ATOM     18  C   UNL A   1      32.350  20.911  24.915  1.00  0.00     0.040 A 
ATOM     19  C   UNL A   1      33.768  21.580  26.764  1.00  0.00     0.040 A 
ATOM     20  C   UNL A   1      33.562  20.851  25.598  1.00  0.00     0.123 A 
ATOM     21  F   UNL A   1      34.553  20.095  25.107  1.00  0.00    -0.207 F 
ENDBRANCH  13  15
ENDBRANCH  10  11
BRANCH  10  22
ATOM     22  C   UNL A   1      30.285  26.571  25.127  1.00  0.00     0.072 C 
BRANCH  22  23
ATOM     23  C   UNL A   1      30.895  27.740  24.376  1.00  0.00    -0.020 A 
ATOM     24  C   UNL A   1      31.956  28.493  24.889  1.00  0.00     0.087 A 
ATOM     25  C   UNL A   1      30.166  28.574  23.453  1.00  0.00     0.003 A 
ATOM     26  N   UNL A   1      31.788  29.872  24.743  1.00  0.00    -0.361 N 
ATOM     27  C   UNL A   1      30.562  30.131  24.188  1.00  0.00     0.046 A 
ATOM     28  C   UNL A   1      28.532  28.393  22.668  1.00  0.00     0.010 A 
ATOM     29  H   UNL A   1      32.450  30.553  25.000  1.00  0.00     0.166 HD
ATOM     30  C   UNL A   1      29.358  31.485  24.210  1.00  0.00     0.026 A 
ATOM     31  C   UNL A   1      27.300  29.695  22.775  1.00  0.00     0.001 A 
ATOM     32  C   UNL A   1      27.714  31.224  23.560  1.00  0.00     0.002 A 
ENDBRANCH  22  23
ENDBRANCH  10  22
ENDBRANCH   7  10
ENDBRANCH   5   6
BRANCH   5  33
ATOM     33  C   UNL A   1      32.584  26.054  21.028  1.00  0.00     0.193 C 
BRANCH  33  34
ATOM     34  O   UNL A   1      32.969  25.970  19.503  1.00  0.00    -0.394 OA
ATOM     35  H   UNL A   1      33.932  26.040  19.408  1.00  0.00     0.210 HD
ENDBRANCH  33  34
ENDBRANCH   5  33
ENDBRANCH   3   5
ENDBRANCH   2   3
ENDBRANCH   1   2
BRANCH   1  36
ATOM     36  C   UNL A   1      37.072  22.010  24.246  1.00  0.00     0.275 C 
BRANCH  36  37
ATOM     37  O   UNL A   1      37.394  21.531  25.570  1.00  0.00    -0.458 OA
BRANCH  37  38
ATOM     38  C   UNL A   1      38.717  21.455  25.848  1.00  0.00     0.338 C 
ATOM     39  O   UNL A   1      39.507  20.632  25.409  1.00  0.00    -0.246 OA
BRANCH  38  40
ATOM     40  C   UNL A   1      39.180  22.555  26.718  1.00  0.00     0.060 A 
ATOM     41  C   UNL A   1      38.672  23.822  26.471  1.00  0.00     0.016 A 
ATOM     42  C   UNL A   1      40.309  22.414  27.528  1.00  0.00     0.016 A 
ATOM     43  C   UNL A   1      39.377  24.952  26.893  1.00  0.00     0.010 A 
ATOM     44  C   UNL A   1      40.950  23.554  28.049  1.00  0.00     0.010 A 
ATOM     45  C   UNL A   1      40.528  24.845  27.687  1.00  0.00    -0.014 A 
BRANCH  45  46
ATOM     46  C   UNL A   1      41.296  26.077  28.056  1.00  0.00     0.031 A 
ATOM     47  C   UNL A   1      40.656  27.158  28.895  1.00  0.00     0.074 A 
ATOM     48  C   UNL A   1      42.597  26.210  27.718  1.00  0.00     0.049 A 
ATOM     49  N   UNL A   1      41.096  28.358  29.182  1.00  0.00    -0.248 NA
ATOM     50  C   UNL A   1      39.358  26.838  29.510  1.00  0.00     0.031 C 
ATOM     51  C   UNL A   1      43.394  25.206  27.012  1.00  0.00     0.029 A 
ATOM     52  N   UNL A   1      43.485  27.242  27.928  1.00  0.00    -0.354 N 
ATOM     53  C   UNL A   1      40.097  28.965  29.937  1.00  0.00     0.074 A 
ATOM     54  C   UNL A   1      39.047  27.982  30.104  1.00  0.00     0.031 C 
ATOM     55  C   UNL A   1      44.651  25.651  26.877  1.00  0.00     0.029 A 
ATOM     56  C   UNL A   1      44.725  27.020  27.371  1.00  0.00     0.049 A 
ATOM     57  H   UNL A   1      43.256  28.058  28.429  1.00  0.00     0.167 HD
ATOM     58  C   UNL A   1      40.050  30.228  30.428  1.00  0.00     0.034 A 
ATOM     59  C   UNL A   1      45.783  27.842  27.205  1.00  0.00     0.034 A 
ATOM     60  C   UNL A   1      41.113  31.189  30.291  1.00  0.00     0.049 A 
ATOM     61  C   UNL A   1      45.683  29.263  27.691  1.00  0.00     0.074 A 
ATOM     62  C   UNL A   1      41.142  32.510  30.705  1.00  0.00     0.029 A 
ATOM     63  N   UNL A   1      42.339  30.932  29.696  1.00  0.00    -0.354 N 
ATOM     64  N   UNL A   1      44.713  29.839  28.359  1.00  0.00    -0.248 NA
ATOM     65  C   UNL A   1      46.818  30.149  27.397  1.00  0.00     0.031 C 
ATOM     66  C   UNL A   1      42.373  33.059  30.328  1.00  0.00     0.029 A 
ATOM     67  C   UNL A   1      43.127  32.070  29.717  1.00  0.00     0.049 A 
ATOM     68  H   UNL A   1      42.610  30.066  29.313  1.00  0.00     0.167 HD
ATOM     69  C   UNL A   1      45.125  31.147  28.579  1.00  0.00     0.074 A 
ATOM     70  C   UNL A   1      46.449  31.271  28.001  1.00  0.00     0.031 C 
ATOM     71  C   UNL A   1      44.462  32.163  29.184  1.00  0.00     0.034 A 
BRANCH  58  72
ATOM     72  C   UNL A   1      38.774  30.664  31.105  1.00  0.00     0.023 A 
ATOM     73  C   UNL A   1      38.580  30.448  32.483  1.00  0.00     0.012 A 
ATOM     74  C   UNL A   1      37.767  31.308  30.359  1.00  0.00     0.148 A 
ATOM     75  C   UNL A   1      37.385  30.828  33.098  1.00  0.00     0.002 A 
ATOM     76  C   UNL A   1      36.595  31.718  30.984  1.00  0.00     0.091 A 
ATOM     77  F   UNL A   1      37.965  31.493  29.046  1.00  0.00    -0.205 F 
ATOM     78  C   UNL A   1      36.397  31.467  32.351  1.00  0.00     0.022 A 
BRANCH  76  79
ATOM     79  S   UNL A   1      35.291  32.599  30.117  1.00  0.00     0.127 S 
ATOM     80  O   UNL A   1      34.938  31.643  29.067  1.00  0.00    -0.237 OA
ATOM     81  O   UNL A   1      34.279  32.758  31.162  1.00  0.00    -0.237 OA
ATOM     82  O   UNL A   1      35.885  33.844  29.652  1.00  0.00    -0.744 OA
ENDBRANCH  76  79
ENDBRANCH  58  72
BRANCH  59  83
ATOM     83  C   UNL A   1      47.008  27.359  26.498  1.00  0.00     0.023 A 
ATOM     84  C   UNL A   1      47.192  27.646  25.131  1.00  0.00     0.012 A 
ATOM     85  C   UNL A   1      48.000  26.624  27.179  1.00  0.00     0.148 A 
ATOM     86  C   UNL A   1      48.328  27.192  24.454  1.00  0.00     0.002 A 
ATOM     87  C   UNL A   1      49.161  26.240  26.518  1.00  0.00     0.091 A 
ATOM     88  F   UNL A   1      47.798  26.327  28.470  1.00  0.00    -0.205 F 
ATOM     89  C   UNL A   1      49.318  26.504  25.150  1.00  0.00     0.022 A 
BRANCH  87  90
ATOM     90  S   UNL A   1      50.547  25.490  27.380  1.00  0.00     0.127 S 
ATOM     91  O   UNL A   1      50.800  26.460  28.442  1.00  0.00    -0.237 OA
ATOM     92  O   UNL A   1      49.974  24.220  27.828  1.00  0.00    -0.237 OA
ATOM     93  O   UNL A   1      51.599  25.349  26.382  1.00  0.00    -0.744 OA
ENDBRANCH  87  90
ENDBRANCH  59  83
BRANCH  71  94
ATOM     94  C   UNL A   1      45.163  33.491  29.289  1.00  0.00     0.023 A 
ATOM     95  C   UNL A   1      45.985  33.767  30.399  1.00  0.00     0.012 A 
ATOM     96  C   UNL A   1      45.067  34.433  28.245  1.00  0.00     0.148 A 
ATOM     97  C   UNL A   1      46.682  34.973  30.480  1.00  0.00     0.002 A 
ATOM     98  C   UNL A   1      45.804  35.609  28.310  1.00  0.00     0.091 A 
ATOM     99  F   UNL A   1      44.260  34.160  27.210  1.00  0.00    -0.205 F 
ATOM    100  C   UNL A   1      46.603  35.886  29.431  1.00  0.00     0.022 A 
BRANCH  98 101
ATOM    101  S   UNL A   1      45.840  36.795  26.961  1.00  0.00     0.127 S 
ATOM    102  O   UNL A   1      46.851  37.742  27.425  1.00  0.00    -0.237 OA
ATOM    103  O   UNL A   1      46.255  35.964  25.829  1.00  0.00    -0.237 OA
ATOM    104  O   UNL A   1      44.488  37.325  26.856  1.00  0.00    -0.744 OA
ENDBRANCH  98 101
ENDBRANCH  71  94
ENDBRANCH  45  46
ENDBRANCH  38  40
ENDBRANCH  37  38
ENDBRANCH  36  37
ENDBRANCH   1  36
TORSDOF 22
ENDMDL
MODEL 2
REMARK VINA RESULT:     -13.6      4.687      8.004
REMARK SMILES O=C(N[C@@H](Cc1c[nH]c2ccccc12)C(=O)N[C@@H](CO)C(=O)OCCOC(=O)c1ccc(-c2c3nc(c(-c4cccc(S(=O)(=O)[O-])c4F)c4ccc([nH]4)c(-c4cccc(S(=O)(=O)[O-])c4F)c4nc(c(-c5cccc(S(=O)(=O)[O-])c5F)c5ccc2[nH]5)C=C4)C=C3)cc1)c1ccc(F)cc1
REMARK SMILES IDX 24 1 23 2 21 3 22 4 18 5 17 6 15 7 16 8 4 10 3 11 1 12 2 13
REMARK SMILES IDX 92 15 93 16 98 17 94 18 97 19 95 20 96 21 5 22 6 23 7 24
REMARK SMILES IDX 14 25 8 26 9 27 13 28 10 30 12 31 11 32 19 33 20 34 25 36
REMARK SMILES IDX 26 37 27 38 28 39 29 40 30 41 91 42 31 43 90 44 32 45 33 46
REMARK SMILES IDX 34 47 84 48 35 49 89 50 83 51 85 52 36 53 88 54 82 55 81 56
REMARK SMILES IDX 37 58 69 59 49 60 68 61 50 62 53 63 67 64 86 65 51 66 52 67
REMARK SMILES IDX 66 69 87 70 54 71 38 72 39 73 47 74 40 75 42 76 48 77 41 78
REMARK SMILES IDX 43 79 44 80 45 81 46 82 70 83 71 84 79 85 72 86 74 87 80 88
REMARK SMILES IDX 73 89 75 90 76 91 77 92 78 93 55 94 56 95 64 96 57 97 59 98
REMARK SMILES IDX 65 99 58 100 60 101 61 102 62 103 63 104
REMARK H PARENT 17 9 3 14 8 29 20 35 85 57 53 68
REMARK Flexibility Score: inf
ROOT
ATOM      1  C   UNL A   1      31.738  29.287  27.008  1.00  0.00     0.274 C 
ENDROOT
BRANCH   1   2
ATOM      2  O   UNL A   1      31.281  28.432  25.930  1.00  0.00    -0.460 OA
BRANCH   2   3
ATOM      3  C   UNL A   1      31.150  27.136  26.335  1.00  0.00     0.331 C 
ATOM      4  O   UNL A   1      31.731  26.703  27.336  1.00  0.00    -0.250 OA
BRANCH   3   5
ATOM      5  C   UNL A   1      30.121  26.151  25.345  1.00  0.00     0.218 C 
BRANCH   5   6
ATOM      6  N   UNL A   1      29.950  24.844  26.375  1.00  0.00    -0.339 N 
ATOM      7  C   UNL A   1      30.736  23.752  26.683  1.00  0.00     0.243 C 
ATOM      8  O   UNL A   1      30.184  22.910  27.412  1.00  0.00    -0.273 OA
ATOM      9  H   UNL A   1      29.100  24.857  26.873  1.00  0.00     0.164 HD
BRANCH   7  10
ATOM     10  C   UNL A   1      32.172  23.375  26.069  1.00  0.00     0.176 C 
BRANCH  10  11
ATOM     11  N   UNL A   1      33.253  24.375  26.189  1.00  0.00    -0.340 N 
ATOM     12  O   UNL A   1      35.201  25.174  25.439  1.00  0.00    -0.269 OA
ATOM     13  C   UNL A   1      34.031  24.897  25.189  1.00  0.00     0.251 C 
ATOM     14  H   UNL A   1      33.436  24.706  27.098  1.00  0.00     0.164 HD
BRANCH  13  15
ATOM     15  C   UNL A   1      33.488  25.155  23.841  1.00  0.00     0.040 A 
ATOM     16  C   UNL A   1      33.279  26.465  23.395  1.00  0.00     0.017 A 
ATOM     17  C   UNL A   1      33.331  24.075  22.961  1.00  0.00     0.017 A 
ATOM     18  C   UNL A   1      32.907  26.690  22.068  1.00  0.00     0.040 A 
ATOM     19  C   UNL A   1      32.959  24.306  21.635  1.00  0.00     0.040 A 
ATOM     20  C   UNL A   1      32.758  25.611  21.201  1.00  0.00     0.123 A 
ATOM     21  F   UNL A   1      32.439  25.840  19.921  1.00  0.00    -0.207 F 
ENDBRANCH  13  15
ENDBRANCH  10  11
BRANCH  10  22
ATOM     22  C   UNL A   1      32.788  22.004  26.342  1.00  0.00     0.072 C 
BRANCH  22  23
ATOM     23  C   UNL A   1      32.998  21.071  25.165  1.00  0.00    -0.020 A 
ATOM     24  C   UNL A   1      32.280  19.879  25.011  1.00  0.00     0.087 A 
ATOM     25  C   UNL A   1      34.249  20.927  24.463  1.00  0.00     0.003 A 
ATOM     26  N   UNL A   1      33.073  18.790  24.641  1.00  0.00    -0.361 N 
ATOM     27  C   UNL A   1      34.389  19.172  24.598  1.00  0.00     0.046 A 
ATOM     28  C   UNL A   1      35.784  21.909  24.483  1.00  0.00     0.010 A 
ATOM     29  H   UNL A   1      32.737  17.887  24.442  1.00  0.00     0.166 HD
ATOM     30  C   UNL A   1      36.005  18.378  24.808  1.00  0.00     0.026 A 
ATOM     31  C   UNL A   1      37.376  21.139  24.792  1.00  0.00     0.001 A 
ATOM     32  C   UNL A   1      37.474  19.383  24.970  1.00  0.00     0.002 A 
ENDBRANCH  22  23
ENDBRANCH  10  22
ENDBRANCH   7  10
ENDBRANCH   5   6
BRANCH   5  33
ATOM     33  C   UNL A   1      28.872  26.690  23.613  1.00  0.00     0.193 C 
BRANCH  33  34
ATOM     34  O   UNL A   1      28.023  27.991  23.353  1.00  0.00    -0.394 OA
ATOM     35  H   UNL A   1      27.113  27.851  23.660  1.00  0.00     0.210 HD
ENDBRANCH  33  34
ENDBRANCH   5  33
ENDBRANCH   3   5
ENDBRANCH   2   3
ENDBRANCH   1   2
BRANCH   1  36
ATOM     36  C   UNL A   1      31.648  30.795  26.722  1.00  0.00     0.275 C 
BRANCH  36  37
ATOM     37  O   UNL A   1      32.912  31.395  26.363  1.00  0.00    -0.458 OA
BRANCH  37  38
ATOM     38  C   UNL A   1      33.528  32.077  27.357  1.00  0.00     0.338 C 
ATOM     39  O   UNL A   1      33.041  32.964  28.041  1.00  0.00    -0.246 OA
BRANCH  38  40
ATOM     40  C   UNL A   1      34.897  31.586  27.619  1.00  0.00     0.060 A 
ATOM     41  C   UNL A   1      35.070  30.215  27.748  1.00  0.00     0.016 A 
ATOM     42  C   UNL A   1      35.908  32.449  28.045  1.00  0.00     0.016 A 
ATOM     43  C   UNL A   1      36.172  29.714  28.446  1.00  0.00     0.010 A 
ATOM     44  C   UNL A   1      37.072  31.930  28.645  1.00  0.00     0.010 A 
ATOM     45  C   UNL A   1      37.192  30.555  28.909  1.00  0.00    -0.014 A 
BRANCH  45  46
ATOM     46  C   UNL A   1      38.318  29.986  29.717  1.00  0.00     0.031 A 
ATOM     47  C   UNL A   1      38.499  30.380  31.165  1.00  0.00     0.074 A 
ATOM     48  C   UNL A   1      39.142  29.051  29.197  1.00  0.00     0.049 A 
ATOM     49  N   UNL A   1      39.494  30.125  31.977  1.00  0.00    -0.248 NA
ATOM     50  C   UNL A   1      37.405  31.145  31.786  1.00  0.00     0.031 C 
ATOM     51  C   UNL A   1      39.029  28.476  27.856  1.00  0.00     0.029 A 
ATOM     52  N   UNL A   1      40.237  28.410  29.734  1.00  0.00    -0.354 N 
ATOM     53  C   UNL A   1      39.188  30.765  33.174  1.00  0.00     0.074 A 
ATOM     54  C   UNL A   1      37.890  31.382  32.997  1.00  0.00     0.031 C 
ATOM     55  C   UNL A   1      39.984  27.552  27.686  1.00  0.00     0.029 A 
ATOM     56  C   UNL A   1      40.857  27.553  28.853  1.00  0.00     0.049 A 
ATOM     57  H   UNL A   1      40.544  28.550  30.659  1.00  0.00     0.167 HD
ATOM     58  C   UNL A   1      39.927  30.849  34.309  1.00  0.00     0.034 A 
ATOM     59  C   UNL A   1      42.033  26.895  28.935  1.00  0.00     0.034 A 
ATOM     60  C   UNL A   1      41.200  30.202  34.494  1.00  0.00     0.049 A 
ATOM     61  C   UNL A   1      42.874  27.060  30.172  1.00  0.00     0.074 A 
ATOM     62  C   UNL A   1      42.052  30.268  35.583  1.00  0.00     0.029 A 
ATOM     63  N   UNL A   1      41.805  29.368  33.566  1.00  0.00    -0.354 N 
ATOM     64  N   UNL A   1      42.596  27.709  31.276  1.00  0.00    -0.248 NA
ATOM     65  C   UNL A   1      44.191  26.408  30.174  1.00  0.00     0.031 C 
ATOM     66  C   UNL A   1      43.187  29.500  35.297  1.00  0.00     0.029 A 
ATOM     67  C   UNL A   1      43.023  28.923  34.048  1.00  0.00     0.049 A 
ATOM     68  H   UNL A   1      41.423  29.126  32.691  1.00  0.00     0.167 HD
ATOM     69  C   UNL A   1      43.694  27.532  32.110  1.00  0.00     0.074 A 
ATOM     70  C   UNL A   1      44.629  26.686  31.395  1.00  0.00     0.031 C 
ATOM     71  C   UNL A   1      43.919  28.040  33.346  1.00  0.00     0.034 A 
BRANCH  58  72
ATOM     72  C   UNL A   1      39.403  31.727  35.417  1.00  0.00     0.023 A 
ATOM     73  C   UNL A   1      38.487  31.224  36.362  1.00  0.00     0.012 A 
ATOM     74  C   UNL A   1      39.841  33.063  35.524  1.00  0.00     0.148 A 
ATOM     75  C   UNL A   1      37.984  32.051  37.370  1.00  0.00     0.002 A 
ATOM     76  C   UNL A   1      39.365  33.869  36.551  1.00  0.00     0.091 A 
ATOM     77  F   UNL A   1      40.703  33.526  34.607  1.00  0.00    -0.205 F 
ATOM     78  C   UNL A   1      38.426  33.368  37.467  1.00  0.00     0.022 A 
BRANCH  76  79
ATOM     79  S   UNL A   1      39.920  35.561  36.791  1.00  0.00     0.127 S 
ATOM     80  O   UNL A   1      39.192  35.942  38.000  1.00  0.00    -0.237 OA
ATOM     81  O   UNL A   1      41.361  35.389  36.975  1.00  0.00    -0.237 OA
ATOM     82  O   UNL A   1      39.544  36.284  35.584  1.00  0.00    -0.744 OA
ENDBRANCH  76  79
ENDBRANCH  58  72
BRANCH  59  83
ATOM     83  C   UNL A   1      42.513  26.064  27.789  1.00  0.00     0.023 A 
ATOM     84  C   UNL A   1      43.450  26.592  26.879  1.00  0.00     0.012 A 
ATOM     85  C   UNL A   1      42.051  24.745  27.601  1.00  0.00     0.148 A 
ATOM     86  C   UNL A   1      43.899  25.830  25.796  1.00  0.00     0.002 A 
ATOM     87  C   UNL A   1      42.557  23.969  26.566  1.00  0.00     0.091 A 
ATOM     88  F   UNL A   1      41.133  24.266  28.452  1.00  0.00    -0.205 F 
ATOM     89  C   UNL A   1      43.466  24.515  25.649  1.00  0.00     0.022 A 
BRANCH  87  90
ATOM     90  S   UNL A   1      42.168  22.222  26.404  1.00  0.00     0.127 S 
ATOM     91  O   UNL A   1      40.713  22.248  26.289  1.00  0.00    -0.237 OA
ATOM     92  O   UNL A   1      42.879  21.867  25.174  1.00  0.00    -0.237 OA
ATOM     93  O   UNL A   1      42.702  21.589  27.603  1.00  0.00    -0.744 OA
ENDBRANCH  87  90
ENDBRANCH  59  83
BRANCH  71  94
ATOM     94  C   UNL A   1      45.210  27.672  34.028  1.00  0.00     0.023 A 
ATOM     95  C   UNL A   1      46.341  28.500  33.888  1.00  0.00     0.012 A 
ATOM     96  C   UNL A   1      45.276  26.546  34.872  1.00  0.00     0.148 A 
ATOM     97  C   UNL A   1      47.527  28.198  34.559  1.00  0.00     0.002 A 
ATOM     98  C   UNL A   1      46.444  26.280  35.575  1.00  0.00     0.091 A 
ATOM     99  F   UNL A   1      44.195  25.758  34.971  1.00  0.00    -0.205 F 
ATOM    100  C   UNL A   1      47.573  27.098  35.412  1.00  0.00     0.022 A 
BRANCH  98 101
ATOM    101  S   UNL A   1      46.561  24.944  36.771  1.00  0.00     0.127 S 
ATOM    102  O   UNL A   1      47.927  25.108  37.267  1.00  0.00    -0.237 OA
ATOM    103  O   UNL A   1      45.516  25.296  37.733  1.00  0.00    -0.237 OA
ATOM    104  O   UNL A   1      46.309  23.717  36.028  1.00  0.00    -0.744 OA
ENDBRANCH  98 101
ENDBRANCH  71  94
ENDBRANCH  45  46
ENDBRANCH  38  40
ENDBRANCH  37  38
ENDBRANCH  36  37
ENDBRANCH   1  36
TORSDOF 22
ENDMDL
MODEL 3
REMARK VINA RESULT:     -13.5      4.752      8.063
REMARK SMILES O=C(N[C@@H](Cc1c[nH]c2ccccc12)C(=O)N[C@@H](CO)C(=O)OCCOC(=O)c1ccc(-c2c3nc(c(-c4cccc(S(=O)(=O)[O-])c4F)c4ccc([nH]4)c(-c4cccc(S(=O)(=O)[O-])c4F)c4nc(c(-c5cccc(S(=O)(=O)[O-])c5F)c5ccc2[nH]5)C=C4)C=C3)cc1)c1ccc(F)cc1
REMARK SMILES IDX 24 1 23 2 21 3 22 4 18 5 17 6 15 7 16 8 4 10 3 11 1 12 2 13
REMARK SMILES IDX 92 15 93 16 98 17 94 18 97 19 95 20 96 21 5 22 6 23 7 24
REMARK SMILES IDX 14 25 8 26 9 27 13 28 10 30 12 31 11 32 19 33 20 34 25 36
REMARK SMILES IDX 26 37 27 38 28 39 29 40 30 41 91 42 31 43 90 44 32 45 33 46
REMARK SMILES IDX 34 47 84 48 35 49 89 50 83 51 85 52 36 53 88 54 82 55 81 56
REMARK SMILES IDX 37 58 69 59 49 60 68 61 50 62 53 63 67 64 86 65 51 66 52 67
REMARK SMILES IDX 66 69 87 70 54 71 38 72 39 73 47 74 40 75 42 76 48 77 41 78
REMARK SMILES IDX 43 79 44 80 45 81 46 82 70 83 71 84 79 85 72 86 74 87 80 88
REMARK SMILES IDX 73 89 75 90 76 91 77 92 78 93 55 94 56 95 64 96 57 97 59 98
REMARK SMILES IDX 65 99 58 100 60 101 61 102 62 103 63 104
REMARK H PARENT 17 9 3 14 8 29 20 35 85 57 53 68
REMARK Flexibility Score: inf
ROOT
ATOM      1  C   UNL A   1      31.785  28.781  27.345  1.00  0.00     0.274 C 
ENDROOT
BRANCH   1   2
ATOM      2  O   UNL A   1      32.674  27.756  26.833  1.00  0.00    -0.460 OA
BRANCH   2   3
ATOM      3  C   UNL A   1      31.984  26.667  26.384  1.00  0.00     0.331 C 
ATOM      4  O   UNL A   1      30.829  26.430  26.752  1.00  0.00    -0.250 OA
BRANCH   3   5
ATOM      5  C   UNL A   1      32.846  25.651  25.274  1.00  0.00     0.218 C 
BRANCH   5   6
ATOM      6  N   UNL A   1      33.542  24.603  26.377  1.00  0.00    -0.339 N 
ATOM      7  C   UNL A   1      33.864  23.260  26.358  1.00  0.00     0.243 C 
ATOM      8  O   UNL A   1      34.249  22.808  27.450  1.00  0.00    -0.273 OA
ATOM      9  H   UNL A   1      33.775  25.041  27.228  1.00  0.00     0.164 HD
BRANCH   7  10
ATOM     10  C   UNL A   1      33.622  22.212  25.164  1.00  0.00     0.176 C 
BRANCH  10  11
ATOM     11  N   UNL A   1      34.330  22.451  23.890  1.00  0.00    -0.340 N 
ATOM     12  O   UNL A   1      35.814  23.656  22.733  1.00  0.00    -0.269 OA
ATOM     13  C   UNL A   1      35.594  22.948  23.712  1.00  0.00     0.251 C 
ATOM     14  H   UNL A   1      33.833  22.225  23.071  1.00  0.00     0.164 HD
BRANCH  13  15
ATOM     15  C   UNL A   1      36.691  22.629  24.647  1.00  0.00     0.040 A 
ATOM     16  C   UNL A   1      37.265  21.352  24.664  1.00  0.00     0.017 A 
ATOM     17  C   UNL A   1      37.251  23.666  25.406  1.00  0.00     0.017 A 
ATOM     18  C   UNL A   1      38.395  21.115  25.448  1.00  0.00     0.040 A 
ATOM     19  C   UNL A   1      38.381  23.423  26.189  1.00  0.00     0.040 A 
ATOM     20  C   UNL A   1      38.946  22.152  26.196  1.00  0.00     0.123 A 
ATOM     21  F   UNL A   1      40.053  21.924  26.914  1.00  0.00    -0.207 F 
ENDBRANCH  13  15
ENDBRANCH  10  11
BRANCH  10  22
ATOM     22  C   UNL A   1      33.673  20.711  25.440  1.00  0.00     0.072 C 
BRANCH  22  23
ATOM     23  C   UNL A   1      33.502  19.765  24.265  1.00  0.00    -0.020 A 
ATOM     24  C   UNL A   1      32.284  19.609  23.596  1.00  0.00     0.087 A 
ATOM     25  C   UNL A   1      34.262  18.553  24.089  1.00  0.00     0.003 A 
ATOM     26  N   UNL A   1      31.952  18.277  23.338  1.00  0.00    -0.361 N 
ATOM     27  C   UNL A   1      32.897  17.451  23.890  1.00  0.00     0.046 A 
ATOM     28  C   UNL A   1      35.759  17.916  24.911  1.00  0.00     0.010 A 
ATOM     29  H   UNL A   1      31.160  17.978  22.836  1.00  0.00     0.166 HD
ATOM     30  C   UNL A   1      32.961  15.758  24.533  1.00  0.00     0.026 A 
ATOM     31  C   UNL A   1      35.792  16.276  25.640  1.00  0.00     0.001 A 
ATOM     32  C   UNL A   1      34.388  15.215  25.462  1.00  0.00     0.002 A 
ENDBRANCH  22  23
ENDBRANCH  10  22
ENDBRANCH   7  10
ENDBRANCH   5   6
BRANCH   5  33
ATOM     33  C   UNL A   1      32.585  25.366  23.106  1.00  0.00     0.193 C 
BRANCH  33  34
ATOM     34  O   UNL A   1      33.642  25.479  21.944  1.00  0.00    -0.394 OA
ATOM     35  H   UNL A   1      33.840  24.594  21.599  1.00  0.00     0.210 HD
ENDBRANCH  33  34
ENDBRANCH   5  33
ENDBRANCH   3   5
ENDBRANCH   2   3
ENDBRANCH   1   2
BRANCH   1  36
ATOM     36  C   UNL A   1      31.865  30.132  26.615  1.00  0.00     0.275 C 
BRANCH  36  37
ATOM     37  O   UNL A   1      33.215  30.564  26.340  1.00  0.00    -0.458 OA
BRANCH  37  38
ATOM     38  C   UNL A   1      33.752  31.399  27.261  1.00  0.00     0.338 C 
ATOM     39  O   UNL A   1      33.194  32.343  27.800  1.00  0.00    -0.246 OA
BRANCH  38  40
ATOM     40  C   UNL A   1      35.125  31.014  27.646  1.00  0.00     0.060 A 
ATOM     41  C   UNL A   1      35.364  29.671  27.902  1.00  0.00     0.016 A 
ATOM     42  C   UNL A   1      36.059  31.968  28.056  1.00  0.00     0.016 A 
ATOM     43  C   UNL A   1      36.445  29.295  28.704  1.00  0.00     0.010 A 
ATOM     44  C   UNL A   1      37.208  31.570  28.766  1.00  0.00     0.010 A 
ATOM     45  C   UNL A   1      37.386  30.231  29.154  1.00  0.00    -0.014 A 
BRANCH  45  46
ATOM     46  C   UNL A   1      38.487  29.798  30.073  1.00  0.00     0.031 A 
ATOM     47  C   UNL A   1      38.526  30.283  31.504  1.00  0.00     0.074 A 
ATOM     48  C   UNL A   1      39.416  28.905  29.671  1.00  0.00     0.049 A 
ATOM     49  N   UNL A   1      39.473  30.153  32.400  1.00  0.00    -0.248 NA
ATOM     50  C   UNL A   1      37.334  30.991  31.998  1.00  0.00     0.031 C 
ATOM     51  C   UNL A   1      39.449  28.251  28.362  1.00  0.00     0.029 A 
ATOM     52  N   UNL A   1      40.512  28.384  30.323  1.00  0.00    -0.354 N 
ATOM     53  C   UNL A   1      39.029  30.831  33.531  1.00  0.00     0.074 A 
ATOM     54  C   UNL A   1      37.705  31.331  33.224  1.00  0.00     0.031 C 
ATOM     55  C   UNL A   1      40.482  27.398  28.317  1.00  0.00     0.029 A 
ATOM     56  C   UNL A   1      41.261  27.532  29.541  1.00  0.00     0.049 A 
ATOM     57  H   UNL A   1      40.736  28.597  31.257  1.00  0.00     0.167 HD
ATOM     58  C   UNL A   1      39.671  31.034  34.708  1.00  0.00     0.034 A 
ATOM     59  C   UNL A   1      42.473  26.975  29.747  1.00  0.00     0.034 A 
ATOM     60  C   UNL A   1      40.971  30.502  35.023  1.00  0.00     0.049 A 
ATOM     61  C   UNL A   1      43.202  27.274  31.029  1.00  0.00     0.074 A 
ATOM     62  C   UNL A   1      41.730  30.695  36.165  1.00  0.00     0.029 A 
ATOM     63  N   UNL A   1      41.706  29.670  34.193  1.00  0.00    -0.354 N 
ATOM     64  N   UNL A   1      42.793  27.958  32.070  1.00  0.00    -0.248 NA
ATOM     65  C   UNL A   1      44.561  26.731  31.165  1.00  0.00     0.031 C 
ATOM     66  C   UNL A   1      42.938  30.006  36.008  1.00  0.00     0.029 A 
ATOM     67  C   UNL A   1      42.914  29.350  34.788  1.00  0.00     0.049 A 
ATOM     68  H   UNL A   1      41.411  29.352  33.309  1.00  0.00     0.167 HD
ATOM     69  C   UNL A   1      43.834  27.914  32.989  1.00  0.00     0.074 A 
ATOM     70  C   UNL A   1      44.882  27.108  32.396  1.00  0.00     0.031 C 
ATOM     71  C   UNL A   1      43.926  28.505  34.206  1.00  0.00     0.034 A 
BRANCH  58  72
ATOM     72  C   UNL A   1      38.998  31.927  35.722  1.00  0.00     0.023 A 
ATOM     73  C   UNL A   1      39.052  33.329  35.595  1.00  0.00     0.012 A 
ATOM     74  C   UNL A   1      38.294  31.358  36.803  1.00  0.00     0.148 A 
ATOM     75  C   UNL A   1      38.451  34.149  36.553  1.00  0.00     0.002 A 
ATOM     76  C   UNL A   1      37.666  32.180  37.731  1.00  0.00     0.091 A 
ATOM     77  F   UNL A   1      38.265  30.022  36.913  1.00  0.00    -0.205 F 
ATOM     78  C   UNL A   1      37.756  33.576  37.615  1.00  0.00     0.022 A 
BRANCH  76  79
ATOM     79  S   UNL A   1      36.699  31.533  39.100  1.00  0.00     0.127 S 
ATOM     80  O   UNL A   1      37.703  31.461  40.162  1.00  0.00    -0.237 OA
ATOM     81  O   UNL A   1      35.691  32.576  39.285  1.00  0.00    -0.237 OA
ATOM     82  O   UNL A   1      36.173  30.251  38.652  1.00  0.00    -0.744 OA
ENDBRANCH  76  79
ENDBRANCH  58  72
BRANCH  59  83
ATOM     83  C   UNL A   1      43.100  26.125  28.690  1.00  0.00     0.023 A 
ATOM     84  C   UNL A   1      42.736  24.770  28.568  1.00  0.00     0.012 A 
ATOM     85  C   UNL A   1      44.051  26.658  27.795  1.00  0.00     0.148 A 
ATOM     86  C   UNL A   1      43.323  23.960  27.591  1.00  0.00     0.002 A 
ATOM     87  C   UNL A   1      44.574  25.867  26.779  1.00  0.00     0.091 A 
ATOM     88  F   UNL A   1      44.415  27.939  27.943  1.00  0.00    -0.205 F 
ATOM     89  C   UNL A   1      44.228  24.511  26.688  1.00  0.00     0.022 A 
BRANCH  87  90
ATOM     90  S   UNL A   1      45.622  26.542  25.486  1.00  0.00     0.127 S 
ATOM     91  O   UNL A   1      46.842  26.859  26.224  1.00  0.00    -0.237 OA
ATOM     92  O   UNL A   1      45.734  25.411  24.565  1.00  0.00    -0.237 OA
ATOM     93  O   UNL A   1      44.891  27.681  24.944  1.00  0.00    -0.744 OA
ENDBRANCH  87  90
ENDBRANCH  59  83
BRANCH  71  94
ATOM     94  C   UNL A   1      45.185  28.279  34.999  1.00  0.00     0.023 A 
ATOM     95  C   UNL A   1      46.295  29.126  34.815  1.00  0.00     0.012 A 
ATOM     96  C   UNL A   1      45.236  27.274  35.986  1.00  0.00     0.148 A 
ATOM     97  C   UNL A   1      47.448  28.959  35.583  1.00  0.00     0.002 A 
ATOM     98  C   UNL A   1      46.368  27.147  36.780  1.00  0.00     0.091 A 
ATOM     99  F   UNL A   1      44.177  26.464  36.128  1.00  0.00    -0.205 F 
ATOM    100  C   UNL A   1      47.479  27.981  36.574  1.00  0.00     0.022 A 
BRANCH  98 101
ATOM    101  S   UNL A   1      46.457  25.982  38.146  1.00  0.00     0.127 S 
ATOM    102  O   UNL A   1      47.772  26.282  38.707  1.00  0.00    -0.237 OA
ATOM    103  O   UNL A   1      45.327  26.396  38.980  1.00  0.00    -0.237 OA
ATOM    104  O   UNL A   1      46.316  24.659  37.554  1.00  0.00    -0.744 OA
ENDBRANCH  98 101
ENDBRANCH  71  94
ENDBRANCH  45  46
ENDBRANCH  38  40
ENDBRANCH  37  38
ENDBRANCH  36  37
ENDBRANCH   1  36
TORSDOF 22
ENDMDL
