MODEL 1
REMARK VINA RESULT:     -10.3      0.000      0.000
REMARK SMILES C=CCC(=O)N[C@@](C)(CC)C(=O)OCCOC(=O)c1ccc(-c2c3nc(c(-c4cccc(S(=O)(=O)[O-])c4F)c4ccc([nH]4)c(-c4cccc(S(=O)(=O)[O-])c4F)c4nc(c(-c5cccc(S(=O)(=O)[O-])c5F)c5ccc2[nH]5)C=C4)C=C3)cc1
REMARK SMILES IDX 14 1 13 2 11 3 12 4 7 5 8 6 6 7 4 8 5 9 3 11 2 12 1 13 9 14
REMARK SMILES IDX 10 15 15 16 16 17 17 18 18 19 19 20 20 21 81 22 21 23 80 24
REMARK SMILES IDX 22 25 23 26 24 27 74 28 25 29 79 30 73 31 75 32 26 33 78 34
REMARK SMILES IDX 72 35 71 36 27 38 59 39 39 40 58 41 40 42 43 43 57 44 76 45
REMARK SMILES IDX 41 46 42 47 56 49 77 50 44 51 28 52 29 53 37 54 30 55 32 56
REMARK SMILES IDX 38 57 31 58 33 59 34 60 35 61 36 62 60 63 61 64 69 65 62 66
REMARK SMILES IDX 64 67 70 68 63 69 65 70 66 71 67 72 68 73 45 74 46 75 54 76
REMARK SMILES IDX 47 77 49 78 55 79 48 80 50 81 51 82 52 83 53 84
REMARK H PARENT 6 10 75 37 43 48
REMARK Flexibility Score: inf
ROOT
ATOM      1  C   UNL A   1      34.951  21.331  25.054  1.00  0.00     0.274 C 
ENDROOT
BRANCH   1   2
ATOM      2  O   UNL A   1      34.775  22.764  25.186  1.00  0.00    -0.460 OA
BRANCH   2   3
ATOM      3  C   UNL A   1      34.332  23.319  24.028  1.00  0.00     0.331 C 
ATOM      4  O   UNL A   1      34.851  23.036  22.965  1.00  0.00    -0.249 OA
BRANCH   3   5
ATOM      5  C   UNL A   1      33.217  24.372  24.148  1.00  0.00     0.135 C 
ATOM      6  C   UNL A   1      32.426  24.456  22.833  1.00  0.00     0.047 C 
BRANCH   5   7
ATOM      7  N   UNL A   1      32.241  24.048  25.241  1.00  0.00    -0.340 N 
ATOM      8  C   UNL A   1      31.573  24.822  26.152  1.00  0.00     0.224 C 
ATOM      9  O   UNL A   1      31.458  24.313  27.276  1.00  0.00    -0.275 OA
ATOM     10  H   UNL A   1      32.042  23.087  25.318  1.00  0.00     0.164 HD
BRANCH   8  11
ATOM     11  C   UNL A   1      30.879  26.167  25.863  1.00  0.00     0.126 C 
BRANCH  11  12
ATOM     12  C   UNL A   1      31.223  27.317  26.773  1.00  0.00    -0.025 C 
ATOM     13  C   UNL A   1      32.468  27.778  26.982  1.00  0.00     0.004 C 
ENDBRANCH  11  12
ENDBRANCH   8  11
ENDBRANCH   5   7
BRANCH   5  14
ATOM     14  C   UNL A   1      33.809  25.798  24.403  1.00  0.00     0.037 C 
ATOM     15  C   UNL A   1      33.559  26.858  23.340  1.00  0.00     0.007 C 
ENDBRANCH   5  14
ENDBRANCH   3   5
ENDBRANCH   2   3
ENDBRANCH   1   2
BRANCH   1  16
ATOM     16  C   UNL A   1      36.415  20.822  25.055  1.00  0.00     0.275 C 
BRANCH  16  17
ATOM     17  O   UNL A   1      37.433  21.845  25.176  1.00  0.00    -0.458 OA
BRANCH  17  18
ATOM     18  C   UNL A   1      38.565  21.486  25.835  1.00  0.00     0.338 C 
ATOM     19  O   UNL A   1      39.100  20.388  25.786  1.00  0.00    -0.246 OA
BRANCH  18  20
ATOM     20  C   UNL A   1      39.206  22.632  26.529  1.00  0.00     0.060 A 
ATOM     21  C   UNL A   1      38.755  23.916  26.209  1.00  0.00     0.016 A 
ATOM     22  C   UNL A   1      40.326  22.496  27.344  1.00  0.00     0.016 A 
ATOM     23  C   UNL A   1      39.384  25.063  26.698  1.00  0.00     0.010 A 
ATOM     24  C   UNL A   1      40.979  23.649  27.826  1.00  0.00     0.010 A 
ATOM     25  C   UNL A   1      40.518  24.942  27.500  1.00  0.00    -0.014 A 
BRANCH  25  26
ATOM     26  C   UNL A   1      41.270  26.164  27.894  1.00  0.00     0.031 A 
ATOM     27  C   UNL A   1      40.570  27.245  28.671  1.00  0.00     0.074 A 
ATOM     28  C   UNL A   1      42.578  26.303  27.604  1.00  0.00     0.049 A 
ATOM     29  N   UNL A   1      41.006  28.422  29.038  1.00  0.00    -0.248 NA
ATOM     30  C   UNL A   1      39.195  26.950  29.106  1.00  0.00     0.031 C 
ATOM     31  C   UNL A   1      43.407  25.296  26.945  1.00  0.00     0.029 A 
ATOM     32  N   UNL A   1      43.434  27.359  27.811  1.00  0.00    -0.354 N 
ATOM     33  C   UNL A   1      39.951  29.029  29.708  1.00  0.00     0.074 A 
ATOM     34  C   UNL A   1      38.856  28.081  29.712  1.00  0.00     0.031 C 
ATOM     35  C   UNL A   1      44.642  25.796  26.766  1.00  0.00     0.029 A 
ATOM     36  C   UNL A   1      44.679  27.173  27.254  1.00  0.00     0.049 A 
ATOM     37  H   UNL A   1      43.181  28.170  28.309  1.00  0.00     0.167 HD
ATOM     38  C   UNL A   1      39.893  30.264  30.264  1.00  0.00     0.034 A 
ATOM     39  C   UNL A   1      45.715  28.028  27.115  1.00  0.00     0.034 A 
ATOM     40  C   UNL A   1      40.978  31.208  30.258  1.00  0.00     0.049 A 
ATOM     41  C   UNL A   1      45.595  29.430  27.664  1.00  0.00     0.074 A 
ATOM     42  C   UNL A   1      41.008  32.487  30.786  1.00  0.00     0.029 A 
ATOM     43  N   UNL A   1      42.218  30.987  29.679  1.00  0.00    -0.354 N 
ATOM     44  N   UNL A   1      44.608  29.976  28.333  1.00  0.00    -0.248 NA
ATOM     45  C   UNL A   1      46.742  30.329  27.455  1.00  0.00     0.031 C 
ATOM     46  C   UNL A   1      42.250  33.057  30.484  1.00  0.00     0.029 A 
ATOM     47  C   UNL A   1      43.014  32.112  29.818  1.00  0.00     0.049 A 
ATOM     48  H   UNL A   1      42.493  30.152  29.235  1.00  0.00     0.167 HD
ATOM     49  C   UNL A   1      45.031  31.261  28.661  1.00  0.00     0.074 A 
ATOM     50  C   UNL A   1      46.369  31.409  28.130  1.00  0.00     0.031 C 
ATOM     51  C   UNL A   1      44.367  32.233  29.333  1.00  0.00     0.034 A 
BRANCH  38  52
ATOM     52  C   UNL A   1      38.589  30.680  30.891  1.00  0.00     0.023 A 
ATOM     53  C   UNL A   1      38.348  30.438  32.259  1.00  0.00     0.012 A 
ATOM     54  C   UNL A   1      37.607  31.336  30.122  1.00  0.00     0.148 A 
ATOM     55  C   UNL A   1      37.133  30.802  32.840  1.00  0.00     0.002 A 
ATOM     56  C   UNL A   1      36.417  31.736  30.719  1.00  0.00     0.091 A 
ATOM     57  F   UNL A   1      37.849  31.543  28.820  1.00  0.00    -0.205 F 
ATOM     58  C   UNL A   1      36.173  31.456  32.073  1.00  0.00     0.022 A 
BRANCH  56  59
ATOM     59  S   UNL A   1      35.148  32.648  29.834  1.00  0.00     0.127 S 
ATOM     60  O   UNL A   1      34.687  31.650  28.870  1.00  0.00    -0.237 OA
ATOM     61  O   UNL A   1      34.193  32.955  30.899  1.00  0.00    -0.237 OA
ATOM     62  O   UNL A   1      35.811  33.809  29.256  1.00  0.00    -0.744 OA
ENDBRANCH  56  59
ENDBRANCH  38  52
BRANCH  39  63
ATOM     63  C   UNL A   1      46.961  27.600  26.410  1.00  0.00     0.023 A 
ATOM     64  C   UNL A   1      48.021  27.033  27.144  1.00  0.00     0.012 A 
ATOM     65  C   UNL A   1      47.110  27.782  25.021  1.00  0.00     0.148 A 
ATOM     66  C   UNL A   1      49.219  26.691  26.515  1.00  0.00     0.002 A 
ATOM     67  C   UNL A   1      48.286  27.388  24.391  1.00  0.00     0.091 A 
ATOM     68  F   UNL A   1      46.101  28.343  24.341  1.00  0.00    -0.205 F 
ATOM     69  C   UNL A   1      49.350  26.860  25.138  1.00  0.00     0.022 A 
BRANCH  67  70
ATOM     70  S   UNL A   1      48.505  27.469  22.610  1.00  0.00     0.127 S 
ATOM     71  O   UNL A   1      49.830  28.072  22.498  1.00  0.00    -0.237 OA
ATOM     72  O   UNL A   1      48.437  26.056  22.235  1.00  0.00    -0.237 OA
ATOM     73  O   UNL A   1      47.403  28.279  22.110  1.00  0.00    -0.744 OA
ENDBRANCH  67  70
ENDBRANCH  39  63
BRANCH  51  74
ATOM     74  C   UNL A   1      45.085  33.534  29.596  1.00  0.00     0.023 A 
ATOM     75  C   UNL A   1      45.825  33.711  30.783  1.00  0.00     0.012 A 
ATOM     76  C   UNL A   1      45.098  34.550  28.619  1.00  0.00     0.148 A 
ATOM     77  C   UNL A   1      46.537  34.890  31.005  1.00  0.00     0.002 A 
ATOM     78  C   UNL A   1      45.855  35.697  28.822  1.00  0.00     0.091 A 
ATOM     79  F   UNL A   1      44.375  34.371  27.503  1.00  0.00    -0.205 F 
ATOM     80  C   UNL A   1      46.564  35.876  30.021  1.00  0.00     0.022 A 
BRANCH  78  81
ATOM     81  S   UNL A   1      46.034  36.971  27.568  1.00  0.00     0.127 S 
ATOM     82  O   UNL A   1      46.486  36.193  26.415  1.00  0.00    -0.237 OA
ATOM     83  O   UNL A   1      44.670  37.489  27.456  1.00  0.00    -0.237 OA
ATOM     84  O   UNL A   1      47.002  37.923  28.094  1.00  0.00    -0.744 OA
ENDBRANCH  78  81
ENDBRANCH  51  74
ENDBRANCH  25  26
ENDBRANCH  18  20
ENDBRANCH  17  18
ENDBRANCH  16  17
ENDBRANCH   1  16
TORSDOF 18
ENDMDL
MODEL 2
REMARK VINA RESULT:     -10.0      5.377     10.099
REMARK SMILES C=CCC(=O)N[C@@](C)(CC)C(=O)OCCOC(=O)c1ccc(-c2c3nc(c(-c4cccc(S(=O)(=O)[O-])c4F)c4ccc([nH]4)c(-c4cccc(S(=O)(=O)[O-])c4F)c4nc(c(-c5cccc(S(=O)(=O)[O-])c5F)c5ccc2[nH]5)C=C4)C=C3)cc1
REMARK SMILES IDX 14 1 13 2 11 3 12 4 7 5 8 6 6 7 4 8 5 9 3 11 2 12 1 13 9 14
REMARK SMILES IDX 10 15 15 16 16 17 17 18 18 19 19 20 20 21 81 22 21 23 80 24
REMARK SMILES IDX 22 25 23 26 24 27 74 28 25 29 79 30 73 31 75 32 26 33 78 34
REMARK SMILES IDX 72 35 71 36 27 38 59 39 39 40 58 41 40 42 43 43 57 44 76 45
REMARK SMILES IDX 41 46 42 47 56 49 77 50 44 51 28 52 29 53 37 54 30 55 32 56
REMARK SMILES IDX 38 57 31 58 33 59 34 60 35 61 36 62 60 63 61 64 69 65 62 66
REMARK SMILES IDX 64 67 70 68 63 69 65 70 66 71 67 72 68 73 45 74 46 75 54 76
REMARK SMILES IDX 47 77 49 78 55 79 48 80 50 81 51 82 52 83 53 84
REMARK H PARENT 6 10 75 37 43 48
REMARK Flexibility Score: inf
ROOT
ATOM      1  C   UNL A   1      31.030  29.042  24.648  1.00  0.00     0.274 C 
ENDROOT
BRANCH   1   2
ATOM      2  O   UNL A   1      31.247  27.695  25.137  1.00  0.00    -0.460 OA
BRANCH   2   3
ATOM      3  C   UNL A   1      31.522  26.836  24.122  1.00  0.00     0.331 C 
ATOM      4  O   UNL A   1      30.664  26.529  23.318  1.00  0.00    -0.249 OA
BRANCH   3   5
ATOM      5  C   UNL A   1      32.932  26.219  24.101  1.00  0.00     0.135 C 
ATOM      6  C   UNL A   1      33.736  26.702  25.319  1.00  0.00     0.047 C 
BRANCH   5   7
ATOM      7  N   UNL A   1      32.899  24.720  24.148  1.00  0.00    -0.340 N 
ATOM      8  C   UNL A   1      33.735  23.754  23.652  1.00  0.00     0.224 C 
ATOM      9  O   UNL A   1      33.159  22.749  23.213  1.00  0.00    -0.275 OA
ATOM     10  H   UNL A   1      32.122  24.358  24.631  1.00  0.00     0.164 HD
BRANCH   8  11
ATOM     11  C   UNL A   1      35.275  23.772  23.709  1.00  0.00     0.126 C 
BRANCH  11  12
ATOM     12  C   UNL A   1      35.902  23.884  25.074  1.00  0.00    -0.025 C 
ATOM     13  C   UNL A   1      37.106  23.388  25.402  1.00  0.00     0.004 C 
ENDBRANCH  11  12
ENDBRANCH   8  11
ENDBRANCH   5   7
BRANCH   5  14
ATOM     14  C   UNL A   1      33.730  26.669  22.833  1.00  0.00     0.037 C 
ATOM     15  C   UNL A   1      33.620  28.132  22.423  1.00  0.00     0.007 C 
ENDBRANCH   5  14
ENDBRANCH   3   5
ENDBRANCH   2   3
ENDBRANCH   1   2
BRANCH   1  16
ATOM     16  C   UNL A   1      31.432  30.189  25.610  1.00  0.00     0.275 C 
BRANCH  16  17
ATOM     17  O   UNL A   1      32.828  30.223  25.995  1.00  0.00    -0.458 OA
BRANCH  17  18
ATOM     18  C   UNL A   1      33.177  31.177  26.895  1.00  0.00     0.338 C 
ATOM     19  O   UNL A   1      32.437  32.044  27.336  1.00  0.00    -0.246 OA
BRANCH  18  20
ATOM     20  C   UNL A   1      34.545  30.976  27.435  1.00  0.00     0.060 A 
ATOM     21  C   UNL A   1      34.928  29.671  27.759  1.00  0.00     0.016 A 
ATOM     22  C   UNL A   1      35.387  32.030  27.781  1.00  0.00     0.016 A 
ATOM     23  C   UNL A   1      36.137  29.394  28.400  1.00  0.00     0.010 A 
ATOM     24  C   UNL A   1      36.601  31.759  28.447  1.00  0.00     0.010 A 
ATOM     25  C   UNL A   1      36.981  30.440  28.769  1.00  0.00    -0.014 A 
BRANCH  25  26
ATOM     26  C   UNL A   1      38.193  30.151  29.583  1.00  0.00     0.031 A 
ATOM     27  C   UNL A   1      39.242  29.217  29.043  1.00  0.00     0.074 A 
ATOM     28  C   UNL A   1      38.389  30.742  30.777  1.00  0.00     0.049 A 
ATOM     29  N   UNL A   1      40.324  28.760  29.617  1.00  0.00    -0.248 NA
ATOM     30  C   UNL A   1      39.049  28.747  27.662  1.00  0.00     0.031 C 
ATOM     31  C   UNL A   1      37.508  31.741  31.379  1.00  0.00     0.029 A 
ATOM     32  N   UNL A   1      39.387  30.571  31.709  1.00  0.00    -0.354 N 
ATOM     33  C   UNL A   1      40.922  27.916  28.689  1.00  0.00     0.074 A 
ATOM     34  C   UNL A   1      40.088  27.938  27.505  1.00  0.00     0.031 C 
ATOM     35  C   UNL A   1      37.982  32.066  32.594  1.00  0.00     0.029 A 
ATOM     36  C   UNL A   1      39.172  31.266  32.877  1.00  0.00     0.049 A 
ATOM     37  H   UNL A   1      40.178  30.006  31.554  1.00  0.00     0.167 HD
ATOM     38  C   UNL A   1      42.056  27.184  28.811  1.00  0.00     0.034 A 
ATOM     39  C   UNL A   1      39.832  31.230  34.054  1.00  0.00     0.034 A 
ATOM     40  C   UNL A   1      42.883  27.159  29.986  1.00  0.00     0.049 A 
ATOM     41  C   UNL A   1      41.042  30.338  34.195  1.00  0.00     0.074 A 
ATOM     42  C   UNL A   1      44.045  26.439  30.206  1.00  0.00     0.029 A 
ATOM     43  N   UNL A   1      42.629  27.869  31.150  1.00  0.00    -0.354 N 
ATOM     44  N   UNL A   1      41.621  29.578  33.296  1.00  0.00    -0.248 NA
ATOM     45  C   UNL A   1      41.703  30.313  35.510  1.00  0.00     0.031 C 
ATOM     46  C   UNL A   1      44.467  26.676  31.519  1.00  0.00     0.029 A 
ATOM     47  C   UNL A   1      43.599  27.588  32.098  1.00  0.00     0.049 A 
ATOM     48  H   UNL A   1      41.871  28.483  31.282  1.00  0.00     0.167 HD
ATOM     49  C   UNL A   1      42.733  29.022  33.922  1.00  0.00     0.074 A 
ATOM     50  C   UNL A   1      42.757  29.543  35.272  1.00  0.00     0.031 C 
ATOM     51  C   UNL A   1      43.647  28.153  33.424  1.00  0.00     0.034 A 
BRANCH  38  52
ATOM     52  C   UNL A   1      42.445  26.312  27.646  1.00  0.00     0.023 A 
ATOM     53  C   UNL A   1      43.260  26.822  26.615  1.00  0.00     0.012 A 
ATOM     54  C   UNL A   1      42.016  24.971  27.588  1.00  0.00     0.148 A 
ATOM     55  C   UNL A   1      43.605  26.026  25.524  1.00  0.00     0.002 A 
ATOM     56  C   UNL A   1      42.402  24.169  26.520  1.00  0.00     0.091 A 
ATOM     57  F   UNL A   1      41.229  24.508  28.569  1.00  0.00    -0.205 F 
ATOM     58  C   UNL A   1      43.183  24.699  25.480  1.00  0.00     0.022 A 
BRANCH  56  59
ATOM     59  S   UNL A   1      41.968  22.430  26.408  1.00  0.00     0.127 S 
ATOM     60  O   UNL A   1      40.512  22.496  26.300  1.00  0.00    -0.237 OA
ATOM     61  O   UNL A   1      42.653  22.023  25.180  1.00  0.00    -0.237 OA
ATOM     62  O   UNL A   1      42.474  21.807  27.623  1.00  0.00    -0.744 OA
ENDBRANCH  56  59
ENDBRANCH  38  52
BRANCH  39  63
ATOM     63  C   UNL A   1      39.361  32.048  35.212  1.00  0.00     0.023 A 
ATOM     64  C   UNL A   1      38.386  31.528  36.087  1.00  0.00     0.012 A 
ATOM     65  C   UNL A   1      39.852  33.351  35.432  1.00  0.00     0.148 A 
ATOM     66  C   UNL A   1      37.883  32.302  37.133  1.00  0.00     0.002 A 
ATOM     67  C   UNL A   1      39.387  34.096  36.509  1.00  0.00     0.091 A 
ATOM     68  F   UNL A   1      40.763  33.838  34.579  1.00  0.00    -0.205 F 
ATOM     69  C   UNL A   1      38.387  33.582  37.350  1.00  0.00     0.022 A 
BRANCH  67  70
ATOM     70  S   UNL A   1      40.053  35.710  36.930  1.00  0.00     0.127 S 
ATOM     71  O   UNL A   1      41.482  35.428  37.029  1.00  0.00    -0.237 OA
ATOM     72  O   UNL A   1      39.662  36.508  35.768  1.00  0.00    -0.237 OA
ATOM     73  O   UNL A   1      39.402  36.096  38.175  1.00  0.00    -0.744 OA
ENDBRANCH  67  70
ENDBRANCH  39  63
BRANCH  51  74
ATOM     74  C   UNL A   1      44.795  27.742  34.314  1.00  0.00     0.023 A 
ATOM     75  C   UNL A   1      45.932  28.566  34.434  1.00  0.00     0.012 A 
ATOM     76  C   UNL A   1      44.704  26.576  35.100  1.00  0.00     0.148 A 
ATOM     77  C   UNL A   1      46.971  28.220  35.298  1.00  0.00     0.002 A 
ATOM     78  C   UNL A   1      45.717  26.266  35.999  1.00  0.00     0.091 A 
ATOM     79  F   UNL A   1      43.623  25.794  34.960  1.00  0.00    -0.205 F 
ATOM     80  C   UNL A   1      46.858  27.079  36.090  1.00  0.00     0.022 A 
BRANCH  78  81
ATOM     81  S   UNL A   1      45.609  24.877  37.134  1.00  0.00     0.127 S 
ATOM     82  O   UNL A   1      46.969  24.342  37.081  1.00  0.00    -0.237 OA
ATOM     83  O   UNL A   1      45.263  25.534  38.395  1.00  0.00    -0.237 OA
ATOM     84  O   UNL A   1      44.574  24.000  36.604  1.00  0.00    -0.744 OA
ENDBRANCH  78  81
ENDBRANCH  51  74
ENDBRANCH  25  26
ENDBRANCH  18  20
ENDBRANCH  17  18
ENDBRANCH  16  17
ENDBRANCH   1  16
TORSDOF 18
ENDMDL
MODEL 3
REMARK VINA RESULT:      -9.9      5.583     10.402
REMARK SMILES C=CCC(=O)N[C@@](C)(CC)C(=O)OCCOC(=O)c1ccc(-c2c3nc(c(-c4cccc(S(=O)(=O)[O-])c4F)c4ccc([nH]4)c(-c4cccc(S(=O)(=O)[O-])c4F)c4nc(c(-c5cccc(S(=O)(=O)[O-])c5F)c5ccc2[nH]5)C=C4)C=C3)cc1
REMARK SMILES IDX 14 1 13 2 11 3 12 4 7 5 8 6 6 7 4 8 5 9 3 11 2 12 1 13 9 14
REMARK SMILES IDX 10 15 15 16 16 17 17 18 18 19 19 20 20 21 81 22 21 23 80 24
REMARK SMILES IDX 22 25 23 26 24 27 74 28 25 29 79 30 73 31 75 32 26 33 78 34
REMARK SMILES IDX 72 35 71 36 27 38 59 39 39 40 58 41 40 42 43 43 57 44 76 45
REMARK SMILES IDX 41 46 42 47 56 49 77 50 44 51 28 52 29 53 37 54 30 55 32 56
REMARK SMILES IDX 38 57 31 58 33 59 34 60 35 61 36 62 60 63 61 64 69 65 62 66
REMARK SMILES IDX 64 67 70 68 63 69 65 70 66 71 67 72 68 73 45 74 46 75 54 76
REMARK SMILES IDX 47 77 49 78 55 79 48 80 50 81 51 82 52 83 53 84
REMARK H PARENT 6 10 75 37 43 48
REMARK Flexibility Score: inf
ROOT
ATOM      1  C   UNL A   1      31.558  30.010  25.551  1.00  0.00     0.274 C 
ENDROOT
BRANCH   1   2
ATOM      2  O   UNL A   1      32.432  28.865  25.713  1.00  0.00    -0.460 OA
BRANCH   2   3
ATOM      3  C   UNL A   1      31.739  27.763  26.102  1.00  0.00     0.331 C 
ATOM      4  O   UNL A   1      31.321  27.661  27.239  1.00  0.00    -0.249 OA
BRANCH   3   5
ATOM      5  C   UNL A   1      31.596  26.634  25.065  1.00  0.00     0.135 C 
ATOM      6  C   UNL A   1      30.275  25.879  25.287  1.00  0.00     0.047 C 
BRANCH   5   7
ATOM      7  N   UNL A   1      31.588  27.152  23.657  1.00  0.00    -0.340 N 
ATOM      8  C   UNL A   1      30.595  27.643  22.851  1.00  0.00     0.224 C 
ATOM      9  O   UNL A   1      30.685  27.313  21.661  1.00  0.00    -0.275 OA
ATOM     10  H   UNL A   1      32.472  27.133  23.226  1.00  0.00     0.164 HD
BRANCH   8  11
ATOM     11  C   UNL A   1      29.491  28.633  23.274  1.00  0.00     0.126 C 
BRANCH  11  12
ATOM     12  C   UNL A   1      28.071  28.238  22.964  1.00  0.00    -0.025 C 
ATOM     13  C   UNL A   1      27.005  29.037  23.127  1.00  0.00     0.004 C 
ENDBRANCH  11  12
ENDBRANCH   8  11
ENDBRANCH   5   7
BRANCH   5  14
ATOM     14  C   UNL A   1      32.742  25.580  25.212  1.00  0.00     0.037 C 
ATOM     15  C   UNL A   1      34.041  26.048  25.854  1.00  0.00     0.007 C 
ENDBRANCH   5  14
ENDBRANCH   3   5
ENDBRANCH   2   3
ENDBRANCH   1   2
BRANCH   1  16
ATOM     16  C   UNL A   1      31.793  31.190  26.528  1.00  0.00     0.275 C 
BRANCH  16  17
ATOM     17  O   UNL A   1      32.876  31.012  27.475  1.00  0.00    -0.458 OA
BRANCH  17  18
ATOM     18  C   UNL A   1      33.735  32.055  27.602  1.00  0.00     0.338 C 
ATOM     19  O   UNL A   1      33.441  33.237  27.499  1.00  0.00    -0.246 OA
BRANCH  18  20
ATOM     20  C   UNL A   1      35.086  31.628  28.045  1.00  0.00     0.060 A 
ATOM     21  C   UNL A   1      35.221  30.330  28.550  1.00  0.00     0.016 A 
ATOM     22  C   UNL A   1      36.168  32.499  28.132  1.00  0.00     0.016 A 
ATOM     23  C   UNL A   1      36.414  29.881  29.119  1.00  0.00     0.010 A 
ATOM     24  C   UNL A   1      37.369  32.058  28.725  1.00  0.00     0.010 A 
ATOM     25  C   UNL A   1      37.499  30.749  29.231  1.00  0.00    -0.014 A 
BRANCH  25  26
ATOM     26  C   UNL A   1      38.713  30.311  29.972  1.00  0.00     0.031 A 
ATOM     27  C   UNL A   1      39.639  29.304  29.347  1.00  0.00     0.074 A 
ATOM     28  C   UNL A   1      39.021  30.832  31.176  1.00  0.00     0.049 A 
ATOM     29  N   UNL A   1      40.697  28.722  29.850  1.00  0.00    -0.248 NA
ATOM     30  C   UNL A   1      39.338  28.912  27.961  1.00  0.00     0.031 C 
ATOM     31  C   UNL A   1      38.270  31.885  31.856  1.00  0.00     0.029 A 
ATOM     32  N   UNL A   1      40.039  30.528  32.049  1.00  0.00    -0.354 N 
ATOM     33  C   UNL A   1      41.166  27.863  28.863  1.00  0.00     0.074 A 
ATOM     34  C   UNL A   1      40.284  28.014  27.723  1.00  0.00     0.031 C 
ATOM     35  C   UNL A   1      38.830  32.113  33.058  1.00  0.00     0.029 A 
ATOM     36  C   UNL A   1      39.948  31.192  33.251  1.00  0.00     0.049 A 
ATOM     37  H   UNL A   1      40.763  29.896  31.835  1.00  0.00     0.167 HD
ATOM     38  C   UNL A   1      42.228  27.022  28.900  1.00  0.00     0.034 A 
ATOM     39  C   UNL A   1      40.655  31.044  34.392  1.00  0.00     0.034 A 
ATOM     40  C   UNL A   1      43.102  26.870  30.032  1.00  0.00     0.049 A 
ATOM     41  C   UNL A   1      41.777  30.035  34.440  1.00  0.00     0.074 A 
ATOM     42  C   UNL A   1      44.197  26.033  30.167  1.00  0.00     0.029 A 
ATOM     43  N   UNL A   1      42.973  27.552  31.232  1.00  0.00    -0.354 N 
ATOM     44  N   UNL A   1      42.237  29.261  33.486  1.00  0.00    -0.248 NA
ATOM     45  C   UNL A   1      42.493  29.893  35.718  1.00  0.00     0.031 C 
ATOM     46  C   UNL A   1      44.700  26.175  31.464  1.00  0.00     0.029 A 
ATOM     47  C   UNL A   1      43.953  27.141  32.119  1.00  0.00     0.049 A 
ATOM     48  H   UNL A   1      42.285  28.230  31.424  1.00  0.00     0.167 HD
ATOM     49  C   UNL A   1      43.317  28.576  34.034  1.00  0.00     0.074 A 
ATOM     50  C   UNL A   1      43.454  29.036  35.400  1.00  0.00     0.031 C 
ATOM     51  C   UNL A   1      44.118  27.644  33.461  1.00  0.00     0.034 A 
BRANCH  38  52
ATOM     52  C   UNL A   1      42.475  26.165  27.687  1.00  0.00     0.023 A 
ATOM     53  C   UNL A   1      43.216  26.669  26.599  1.00  0.00     0.012 A 
ATOM     54  C   UNL A   1      41.987  24.843  27.638  1.00  0.00     0.148 A 
ATOM     55  C   UNL A   1      43.430  25.887  25.464  1.00  0.00     0.002 A 
ATOM     56  C   UNL A   1      42.243  24.055  26.523  1.00  0.00     0.091 A 
ATOM     57  F   UNL A   1      41.272  24.388  28.677  1.00  0.00    -0.205 F 
ATOM     58  C   UNL A   1      42.950  24.580  25.429  1.00  0.00     0.022 A 
BRANCH  56  59
ATOM     59  S   UNL A   1      41.730  22.337  26.413  1.00  0.00     0.127 S 
ATOM     60  O   UNL A   1      42.241  21.796  27.671  1.00  0.00    -0.237 OA
ATOM     61  O   UNL A   1      40.273  22.457  26.347  1.00  0.00    -0.237 OA
ATOM     62  O   UNL A   1      42.352  21.805  25.209  1.00  0.00    -0.744 OA
ENDBRANCH  56  59
ENDBRANCH  38  52
BRANCH  39  63
ATOM     63  C   UNL A   1      40.321  31.856  35.601  1.00  0.00     0.023 A 
ATOM     64  C   UNL A   1      41.184  32.892  36.009  1.00  0.00     0.012 A 
ATOM     65  C   UNL A   1      39.168  31.585  36.364  1.00  0.00     0.148 A 
ATOM     66  C   UNL A   1      40.926  33.616  37.174  1.00  0.00     0.002 A 
ATOM     67  C   UNL A   1      38.887  32.347  37.493  1.00  0.00     0.091 A 
ATOM     68  F   UNL A   1      38.369  30.583  35.974  1.00  0.00    -0.205 F 
ATOM     69  C   UNL A   1      39.775  33.350  37.912  1.00  0.00     0.022 A 
BRANCH  67  70
ATOM     70  S   UNL A   1      37.376  32.149  38.445  1.00  0.00     0.127 S 
ATOM     71  O   UNL A   1      37.144  30.710  38.342  1.00  0.00    -0.237 OA
ATOM     72  O   UNL A   1      37.793  32.612  39.768  1.00  0.00    -0.237 OA
ATOM     73  O   UNL A   1      36.383  32.993  37.795  1.00  0.00    -0.744 OA
ENDBRANCH  67  70
ENDBRANCH  39  63
BRANCH  51  74
ATOM     74  C   UNL A   1      45.260  27.089  34.276  1.00  0.00     0.023 A 
ATOM     75  C   UNL A   1      46.513  27.734  34.275  1.00  0.00     0.012 A 
ATOM     76  C   UNL A   1      45.060  25.974  35.114  1.00  0.00     0.148 A 
ATOM     77  C   UNL A   1      47.556  27.258  35.071  1.00  0.00     0.002 A 
ATOM     78  C   UNL A   1      46.085  25.539  35.946  1.00  0.00     0.091 A 
ATOM     79  F   UNL A   1      43.866  25.362  35.089  1.00  0.00    -0.205 F 
ATOM     80  C   UNL A   1      47.338  26.171  35.916  1.00  0.00     0.022 A 
BRANCH  78  81
ATOM     81  S   UNL A   1      45.863  24.216  37.142  1.00  0.00     0.127 S 
ATOM     82  O   UNL A   1      44.776  24.739  37.967  1.00  0.00    -0.237 OA
ATOM     83  O   UNL A   1      45.492  23.087  36.288  1.00  0.00    -0.237 OA
ATOM     84  O   UNL A   1      47.144  24.067  37.821  1.00  0.00    -0.744 OA
ENDBRANCH  78  81
ENDBRANCH  51  74
ENDBRANCH  25  26
ENDBRANCH  18  20
ENDBRANCH  17  18
ENDBRANCH  16  17
ENDBRANCH   1  16
TORSDOF 18
ENDMDL
