MODEL 1
REMARK VINA RESULT:     -12.0      0.000      0.000
REMARK SMILES COc1cccc(-c2c([C@H]3c4ccccc4C(=O)N3CC(=O)OCCOC(=O)c3ccc(-c4c5nc(c(-c6cccc(S(=O)(=O)[O-])c6F)c6ccc([nH]6)c(-c6cccc(S(=O)(=O)[O-])c6F)c6nc(c(-c7cccc(S(=O)(=O)[O-])c7F)c7ccc4[nH]7)C=C6)C=C5)cc3)c3ccccc3n2C)c1
REMARK SMILES IDX 24 1 23 2 21 3 22 4 20 5 19 6 10 7 11 8 12 9 16 10 17 11
REMARK SMILES IDX 13 12 15 13 18 14 14 15 9 16 8 17 98 18 92 19 97 20 99 21
REMARK SMILES IDX 93 22 96 23 94 24 95 25 7 26 3 27 4 28 100 29 5 30 6 31 2 32
REMARK SMILES IDX 1 33 25 34 26 35 27 36 28 37 29 38 30 39 91 40 31 41 90 42
REMARK SMILES IDX 32 43 33 44 34 45 84 46 35 47 89 48 83 49 85 50 36 51 88 52
REMARK SMILES IDX 82 53 81 54 37 56 69 57 49 58 68 59 50 60 53 61 67 62 86 63
REMARK SMILES IDX 51 64 52 65 66 67 87 68 54 69 38 70 39 71 47 72 40 73 42 74
REMARK SMILES IDX 48 75 41 76 43 77 44 78 45 79 46 80 70 81 71 82 79 83 72 84
REMARK SMILES IDX 74 85 80 86 73 87 75 88 76 89 77 90 78 91 55 92 56 93 64 94
REMARK SMILES IDX 57 95 59 96 65 97 58 98 60 99 61 100 62 101 63 102
REMARK H PARENT 85 55 53 66
REMARK Flexibility Score: inf
ROOT
ATOM      1  C   UNL A   1      33.605  27.337  26.185  1.00  0.00     0.274 C 
ENDROOT
BRANCH   1   2
ATOM      2  O   UNL A   1      32.712  26.384  25.596  1.00  0.00    -0.461 OA
BRANCH   2   3
ATOM      3  C   UNL A   1      31.956  25.677  26.464  1.00  0.00     0.325 C 
ATOM      4  O   UNL A   1      30.797  25.938  26.772  1.00  0.00    -0.250 OA
BRANCH   3   5
ATOM      5  C   UNL A   1      32.643  24.434  26.984  1.00  0.00     0.243 C 
BRANCH   5   6
ATOM      6  N   UNL A   1      32.911  23.289  26.116  1.00  0.00    -0.316 N 
ATOM      7  C   UNL A   1      34.218  23.264  25.467  1.00  0.00     0.150 C 
ATOM      8  C   UNL A   1      33.836  23.776  24.107  1.00  0.00    -0.008 A 
ATOM      9  C   UNL A   1      34.486  24.697  23.298  1.00  0.00     0.007 A 
ATOM     10  C   UNL A   1      32.492  23.476  23.871  1.00  0.00     0.045 A 
ATOM     11  C   UNL A   1      31.909  23.066  25.159  1.00  0.00     0.255 C 
ATOM     12  C   UNL A   1      33.768  25.270  22.242  1.00  0.00     0.000 A 
ATOM     13  C   UNL A   1      31.778  23.987  22.804  1.00  0.00     0.014 A 
ATOM     14  O   UNL A   1      30.718  22.892  25.348  1.00  0.00    -0.269 OA
ATOM     15  C   UNL A   1      32.434  24.901  21.980  1.00  0.00     0.001 A 
BRANCH   7  16
ATOM     16  C   UNL A   1      34.809  21.874  25.265  1.00  0.00     0.013 A 
ATOM     17  C   UNL A   1      36.180  21.561  25.327  1.00  0.00     0.055 A 
ATOM     18  N   UNL A   1      36.323  20.251  24.903  1.00  0.00    -0.343 N 
ATOM     19  C   UNL A   1      34.126  20.612  25.088  1.00  0.00     0.006 A 
ATOM     20  C   UNL A   1      35.091  19.628  24.850  1.00  0.00     0.049 A 
ATOM     21  C   UNL A   1      37.576  19.595  24.590  1.00  0.00     0.150 C 
ATOM     22  C   UNL A   1      32.771  20.201  25.119  1.00  0.00     0.011 A 
ATOM     23  C   UNL A   1      34.745  18.280  24.617  1.00  0.00     0.027 A 
ATOM     24  C   UNL A   1      32.421  18.865  24.906  1.00  0.00     0.001 A 
ATOM     25  C   UNL A   1      33.398  17.917  24.652  1.00  0.00     0.002 A 
BRANCH  17  26
ATOM     26  C   UNL A   1      37.280  22.436  25.776  1.00  0.00     0.002 A 
ATOM     27  C   UNL A   1      39.577  22.594  26.578  1.00  0.00     0.119 A 
ATOM     28  C   UNL A   1      39.366  23.933  26.900  1.00  0.00     0.046 A 
ATOM     29  C   UNL A   1      38.557  21.873  25.959  1.00  0.00     0.056 A 
ATOM     30  C   UNL A   1      38.133  24.532  26.649  1.00  0.00     0.005 A 
ATOM     31  C   UNL A   1      37.084  23.778  26.117  1.00  0.00     0.010 A 
BRANCH  27  32
ATOM     32  O   UNL A   1      40.797  22.104  26.947  1.00  0.00    -0.497 OA
ATOM     33  C   UNL A   1      41.056  20.738  26.658  1.00  0.00     0.278 C 
ENDBRANCH  27  32
ENDBRANCH  17  26
ENDBRANCH   7  16
ENDBRANCH   5   6
ENDBRANCH   3   5
ENDBRANCH   2   3
ENDBRANCH   1   2
BRANCH   1  34
ATOM     34  C   UNL A   1      32.996  28.735  26.069  1.00  0.00     0.275 C 
BRANCH  34  35
ATOM     35  O   UNL A   1      34.001  29.772  26.030  1.00  0.00    -0.458 OA
BRANCH  35  36
ATOM     36  C   UNL A   1      33.998  30.636  27.071  1.00  0.00     0.338 C 
ATOM     37  O   UNL A   1      33.103  31.390  27.411  1.00  0.00    -0.246 OA
BRANCH  36  38
ATOM     38  C   UNL A   1      35.227  30.490  27.862  1.00  0.00     0.060 A 
ATOM     39  C   UNL A   1      35.332  29.395  28.717  1.00  0.00     0.016 A 
ATOM     40  C   UNL A   1      36.222  31.467  27.837  1.00  0.00     0.016 A 
ATOM     41  C   UNL A   1      36.434  29.278  29.559  1.00  0.00     0.010 A 
ATOM     42  C   UNL A   1      37.342  31.332  28.669  1.00  0.00     0.010 A 
ATOM     43  C   UNL A   1      37.457  30.238  29.544  1.00  0.00    -0.014 A 
BRANCH  43  44
ATOM     44  C   UNL A   1      38.663  30.056  30.401  1.00  0.00     0.031 A 
ATOM     45  C   UNL A   1      39.803  29.172  29.971  1.00  0.00     0.074 A 
ATOM     46  C   UNL A   1      38.722  30.683  31.593  1.00  0.00     0.049 A 
ATOM     47  N   UNL A   1      40.863  28.811  30.650  1.00  0.00    -0.248 NA
ATOM     48  C   UNL A   1      39.747  28.617  28.610  1.00  0.00     0.031 C 
ATOM     49  C   UNL A   1      37.689  31.570  32.130  1.00  0.00     0.029 A 
ATOM     50  N   UNL A   1      39.681  30.659  32.576  1.00  0.00    -0.354 N 
ATOM     51  C   UNL A   1      41.571  27.944  29.824  1.00  0.00     0.074 A 
ATOM     52  C   UNL A   1      40.827  27.845  28.586  1.00  0.00     0.031 C 
ATOM     53  C   UNL A   1      38.069  32.012  33.335  1.00  0.00     0.029 A 
ATOM     54  C   UNL A   1      39.333  31.379  33.695  1.00  0.00     0.049 A 
ATOM     55  H   UNL A   1      40.534  30.175  32.487  1.00  0.00     0.167 HD
ATOM     56  C   UNL A   1      42.736  27.297  30.073  1.00  0.00     0.034 A 
ATOM     57  C   UNL A   1      39.928  31.483  34.900  1.00  0.00     0.034 A 
ATOM     58  C   UNL A   1      43.504  27.437  31.285  1.00  0.00     0.049 A 
ATOM     59  C   UNL A   1      41.204  30.734  35.157  1.00  0.00     0.074 A 
ATOM     60  C   UNL A   1      44.730  26.872  31.594  1.00  0.00     0.029 A 
ATOM     61  N   UNL A   1      43.123  28.186  32.387  1.00  0.00    -0.354 N 
ATOM     62  N   UNL A   1      41.900  29.988  34.336  1.00  0.00    -0.248 NA
ATOM     63  C   UNL A   1      41.779  30.848  36.505  1.00  0.00     0.031 C 
ATOM     64  C   UNL A   1      45.078  27.258  32.893  1.00  0.00     0.029 A 
ATOM     65  C   UNL A   1      44.078  28.079  33.387  1.00  0.00     0.049 A 
ATOM     66  H   UNL A   1      42.296  28.715  32.451  1.00  0.00     0.167 HD
ATOM     67  C   UNL A   1      42.996  29.543  35.064  1.00  0.00     0.074 A 
ATOM     68  C   UNL A   1      42.893  30.137  36.381  1.00  0.00     0.031 C 
ATOM     69  C   UNL A   1      43.984  28.696  34.685  1.00  0.00     0.034 A 
BRANCH  56  70
ATOM     70  C   UNL A   1      43.281  26.385  29.005  1.00  0.00     0.023 A 
ATOM     71  C   UNL A   1      42.877  25.036  28.963  1.00  0.00     0.012 A 
ATOM     72  C   UNL A   1      44.122  26.887  27.990  1.00  0.00     0.148 A 
ATOM     73  C   UNL A   1      43.318  24.195  27.941  1.00  0.00     0.002 A 
ATOM     74  C   UNL A   1      44.527  26.052  26.954  1.00  0.00     0.091 A 
ATOM     75  F   UNL A   1      44.513  28.167  28.058  1.00  0.00    -0.205 F 
ATOM     76  C   UNL A   1      44.132  24.704  26.932  1.00  0.00     0.022 A 
BRANCH  74  77
ATOM     77  S   UNL A   1      45.515  26.636  25.572  1.00  0.00     0.127 S 
ATOM     78  O   UNL A   1      45.564  25.448  24.722  1.00  0.00    -0.237 OA
ATOM     79  O   UNL A   1      44.695  27.728  25.045  1.00  0.00    -0.237 OA
ATOM     80  O   UNL A   1      46.788  27.056  26.140  1.00  0.00    -0.744 OA
ENDBRANCH  74  77
ENDBRANCH  56  70
BRANCH  57  81
ATOM     81  C   UNL A   1      39.301  32.327  35.955  1.00  0.00     0.023 A 
ATOM     82  C   UNL A   1      38.297  31.781  36.777  1.00  0.00     0.012 A 
ATOM     83  C   UNL A   1      39.740  33.646  36.188  1.00  0.00     0.148 A 
ATOM     84  C   UNL A   1      37.736  32.537  37.806  1.00  0.00     0.002 A 
ATOM     85  C   UNL A   1      39.226  34.368  37.257  1.00  0.00     0.091 A 
ATOM     86  F   UNL A   1      40.676  34.157  35.376  1.00  0.00    -0.205 F 
ATOM     87  C   UNL A   1      38.212  33.822  38.058  1.00  0.00     0.022 A 
BRANCH  85  88
ATOM     88  S   UNL A   1      39.904  35.958  37.743  1.00  0.00     0.127 S 
ATOM     89  O   UNL A   1      39.721  36.747  36.528  1.00  0.00    -0.237 OA
ATOM     90  O   UNL A   1      39.035  36.334  38.859  1.00  0.00    -0.237 OA
ATOM     91  O   UNL A   1      41.283  35.689  38.129  1.00  0.00    -0.744 OA
ENDBRANCH  85  88
ENDBRANCH  57  81
BRANCH  69  92
ATOM     92  C   UNL A   1      45.031  28.351  35.710  1.00  0.00     0.023 A 
ATOM     93  C   UNL A   1      46.263  29.033  35.693  1.00  0.00     0.012 A 
ATOM     94  C   UNL A   1      44.780  27.400  36.719  1.00  0.00     0.148 A 
ATOM     95  C   UNL A   1      47.243  28.754  36.646  1.00  0.00     0.002 A 
ATOM     96  C   UNL A   1      45.745  27.157  37.690  1.00  0.00     0.091 A 
ATOM     97  F   UNL A   1      43.609  26.748  36.707  1.00  0.00    -0.205 F 
ATOM     98  C   UNL A   1      46.980  27.825  37.649  1.00  0.00     0.022 A 
BRANCH  96  99
ATOM     99  S   UNL A   1      45.468  26.037  39.067  1.00  0.00     0.127 S 
ATOM    100  O   UNL A   1      45.427  24.741  38.394  1.00  0.00    -0.237 OA
ATOM    101  O   UNL A   1      46.656  26.259  39.892  1.00  0.00    -0.237 OA
ATOM    102  O   UNL A   1      44.218  26.460  39.684  1.00  0.00    -0.744 OA
ENDBRANCH  96  99
ENDBRANCH  69  92
ENDBRANCH  43  44
ENDBRANCH  36  38
ENDBRANCH  35  36
ENDBRANCH  34  35
ENDBRANCH   1  34
TORSDOF 18
ENDMDL
MODEL 2
REMARK VINA RESULT:     -11.2      5.232      9.992
REMARK SMILES COc1cccc(-c2c([C@H]3c4ccccc4C(=O)N3CC(=O)OCCOC(=O)c3ccc(-c4c5nc(c(-c6cccc(S(=O)(=O)[O-])c6F)c6ccc([nH]6)c(-c6cccc(S(=O)(=O)[O-])c6F)c6nc(c(-c7cccc(S(=O)(=O)[O-])c7F)c7ccc4[nH]7)C=C6)C=C5)cc3)c3ccccc3n2C)c1
REMARK SMILES IDX 24 1 23 2 21 3 22 4 20 5 19 6 10 7 11 8 12 9 16 10 17 11
REMARK SMILES IDX 13 12 15 13 18 14 14 15 9 16 8 17 98 18 92 19 97 20 99 21
REMARK SMILES IDX 93 22 96 23 94 24 95 25 7 26 3 27 4 28 100 29 5 30 6 31 2 32
REMARK SMILES IDX 1 33 25 34 26 35 27 36 28 37 29 38 30 39 91 40 31 41 90 42
REMARK SMILES IDX 32 43 33 44 34 45 84 46 35 47 89 48 83 49 85 50 36 51 88 52
REMARK SMILES IDX 82 53 81 54 37 56 69 57 49 58 68 59 50 60 53 61 67 62 86 63
REMARK SMILES IDX 51 64 52 65 66 67 87 68 54 69 38 70 39 71 47 72 40 73 42 74
REMARK SMILES IDX 48 75 41 76 43 77 44 78 45 79 46 80 70 81 71 82 79 83 72 84
REMARK SMILES IDX 74 85 80 86 73 87 75 88 76 89 77 90 78 91 55 92 56 93 64 94
REMARK SMILES IDX 57 95 59 96 65 97 58 98 60 99 61 100 62 101 63 102
REMARK H PARENT 85 55 53 66
REMARK Flexibility Score: inf
ROOT
ATOM      1  C   UNL A   1      36.838  20.971  24.951  1.00  0.00     0.274 C 
ENDROOT
BRANCH   1   2
ATOM      2  O   UNL A   1      36.691  22.367  24.663  1.00  0.00    -0.461 OA
BRANCH   2   3
ATOM      3  C   UNL A   1      36.385  23.153  25.718  1.00  0.00     0.325 C 
ATOM      4  O   UNL A   1      37.189  23.823  26.360  1.00  0.00    -0.250 OA
BRANCH   3   5
ATOM      5  C   UNL A   1      34.902  23.221  26.005  1.00  0.00     0.243 C 
BRANCH   5   6
ATOM      6  N   UNL A   1      33.941  23.622  24.980  1.00  0.00    -0.316 N 
ATOM      7  C   UNL A   1      33.140  24.806  25.274  1.00  0.00     0.150 C 
ATOM      8  C   UNL A   1      31.869  24.146  25.728  1.00  0.00    -0.008 A 
ATOM      9  C   UNL A   1      31.045  24.463  26.798  1.00  0.00     0.007 A 
ATOM     10  C   UNL A   1      31.778  22.883  25.137  1.00  0.00     0.045 A 
ATOM     11  C   UNL A   1      33.100  22.579  24.565  1.00  0.00     0.255 C 
ATOM     12  C   UNL A   1      30.119  23.504  27.225  1.00  0.00     0.000 A 
ATOM     13  C   UNL A   1      30.837  21.940  25.505  1.00  0.00     0.014 A 
ATOM     14  O   UNL A   1      33.420  21.491  24.118  1.00  0.00    -0.269 OA
ATOM     15  C   UNL A   1      29.997  22.264  26.569  1.00  0.00     0.001 A 
BRANCH   7  16
ATOM     16  C   UNL A   1      32.786  25.660  24.062  1.00  0.00     0.013 A 
ATOM     17  C   UNL A   1      32.442  27.024  24.107  1.00  0.00     0.055 A 
ATOM     18  N   UNL A   1      32.007  27.380  22.842  1.00  0.00    -0.343 N 
ATOM     19  C   UNL A   1      32.832  25.312  22.660  1.00  0.00     0.006 A 
ATOM     20  C   UNL A   1      32.328  26.393  21.930  1.00  0.00     0.049 A 
ATOM     21  C   UNL A   1      31.343  28.619  22.493  1.00  0.00     0.150 C 
ATOM     22  C   UNL A   1      33.267  24.180  21.930  1.00  0.00     0.011 A 
ATOM     23  C   UNL A   1      32.222  26.363  20.524  1.00  0.00     0.027 A 
ATOM     24  C   UNL A   1      33.182  24.148  20.534  1.00  0.00     0.001 A 
ATOM     25  C   UNL A   1      32.658  25.227  19.841  1.00  0.00     0.002 A 
BRANCH  17  26
ATOM     26  C   UNL A   1      32.535  27.934  25.264  1.00  0.00     0.002 A 
ATOM     27  C   UNL A   1      33.984  29.180  26.779  1.00  0.00     0.119 A 
ATOM     28  C   UNL A   1      32.890  29.438  27.603  1.00  0.00     0.046 A 
ATOM     29  C   UNL A   1      33.790  28.488  25.585  1.00  0.00     0.056 A 
ATOM     30  C   UNL A   1      31.624  28.968  27.260  1.00  0.00     0.005 A 
ATOM     31  C   UNL A   1      31.453  28.193  26.110  1.00  0.00     0.010 A 
BRANCH  27  32
ATOM     32  O   UNL A   1      35.180  29.622  27.266  1.00  0.00    -0.497 OA
ATOM     33  C   UNL A   1      36.345  28.938  26.828  1.00  0.00     0.278 C 
ENDBRANCH  27  32
ENDBRANCH  17  26
ENDBRANCH   7  16
ENDBRANCH   5   6
ENDBRANCH   3   5
ENDBRANCH   2   3
ENDBRANCH   1   2
BRANCH   1  34
ATOM     34  C   UNL A   1      38.325  20.635  25.068  1.00  0.00     0.275 C 
BRANCH  34  35
ATOM     35  O   UNL A   1      38.829  20.821  26.409  1.00  0.00    -0.458 OA
BRANCH  35  36
ATOM     36  C   UNL A   1      40.175  20.824  26.538  1.00  0.00     0.338 C 
ATOM     37  O   UNL A   1      40.953  19.932  26.247  1.00  0.00    -0.246 OA
BRANCH  36  38
ATOM     38  C   UNL A   1      40.644  22.136  27.003  1.00  0.00     0.060 A 
ATOM     39  C   UNL A   1      40.405  23.244  26.192  1.00  0.00     0.016 A 
ATOM     40  C   UNL A   1      41.393  22.263  28.172  1.00  0.00     0.016 A 
ATOM     41  C   UNL A   1      40.924  24.486  26.547  1.00  0.00     0.010 A 
ATOM     42  C   UNL A   1      41.892  23.521  28.538  1.00  0.00     0.010 A 
ATOM     43  C   UNL A   1      41.668  24.645  27.726  1.00  0.00    -0.014 A 
BRANCH  43  44
ATOM     44  C   UNL A   1      42.152  25.997  28.124  1.00  0.00     0.031 A 
ATOM     45  C   UNL A   1      41.240  26.991  28.791  1.00  0.00     0.074 A 
ATOM     46  C   UNL A   1      43.430  26.340  27.864  1.00  0.00     0.049 A 
ATOM     47  N   UNL A   1      41.469  28.245  29.089  1.00  0.00    -0.248 NA
ATOM     48  C   UNL A   1      39.898  26.522  29.170  1.00  0.00     0.031 C 
ATOM     49  C   UNL A   1      44.421  25.473  27.224  1.00  0.00     0.029 A 
ATOM     50  N   UNL A   1      44.111  27.511  28.086  1.00  0.00    -0.354 N 
ATOM     51  C   UNL A   1      40.287  28.733  29.636  1.00  0.00     0.074 A 
ATOM     52  C   UNL A   1      39.346  27.633  29.643  1.00  0.00     0.031 C 
ATOM     53  C   UNL A   1      45.580  26.133  27.114  1.00  0.00     0.029 A 
ATOM     54  C   UNL A   1      45.397  27.497  27.599  1.00  0.00     0.049 A 
ATOM     55  H   UNL A   1      43.717  28.286  28.551  1.00  0.00     0.167 HD
ATOM     56  C   UNL A   1      40.015  29.979  30.094  1.00  0.00     0.034 A 
ATOM     57  C   UNL A   1      46.316  28.477  27.498  1.00  0.00     0.034 A 
ATOM     58  C   UNL A   1      40.968  31.059  30.136  1.00  0.00     0.049 A 
ATOM     59  C   UNL A   1      45.979  29.855  27.990  1.00  0.00     0.074 A 
ATOM     60  C   UNL A   1      40.798  32.335  30.647  1.00  0.00     0.029 A 
ATOM     61  N   UNL A   1      42.263  30.999  29.644  1.00  0.00    -0.354 N 
ATOM     62  N   UNL A   1      44.886  30.273  28.580  1.00  0.00    -0.248 NA
ATOM     63  C   UNL A   1      47.003  30.893  27.808  1.00  0.00     0.031 C 
ATOM     64  C   UNL A   1      41.981  33.054  30.441  1.00  0.00     0.029 A 
ATOM     65  C   UNL A   1      42.895  32.220  29.819  1.00  0.00     0.049 A 
ATOM     66  H   UNL A   1      42.673  30.204  29.232  1.00  0.00     0.167 HD
ATOM     67  C   UNL A   1      45.090  31.623  28.841  1.00  0.00     0.074 A 
ATOM     68  C   UNL A   1      46.426  31.941  28.383  1.00  0.00     0.031 C 
ATOM     69  C   UNL A   1      44.235  32.522  29.387  1.00  0.00     0.034 A 
BRANCH  56  70
ATOM     70  C   UNL A   1      38.629  30.254  30.618  1.00  0.00     0.023 A 
ATOM     71  C   UNL A   1      38.206  29.659  31.823  1.00  0.00     0.012 A 
ATOM     72  C   UNL A   1      37.781  31.171  29.965  1.00  0.00     0.148 A 
ATOM     73  C   UNL A   1      36.952  29.956  32.358  1.00  0.00     0.002 A 
ATOM     74  C   UNL A   1      36.549  31.491  30.524  1.00  0.00     0.091 A 
ATOM     75  F   UNL A   1      38.193  31.711  28.808  1.00  0.00    -0.205 F 
ATOM     76  C   UNL A   1      36.130  30.878  31.717  1.00  0.00     0.022 A 
BRANCH  74  77
ATOM     77  S   UNL A   1      35.453  32.722  29.809  1.00  0.00     0.127 S 
ATOM     78  O   UNL A   1      35.173  32.141  28.497  1.00  0.00    -0.237 OA
ATOM     79  O   UNL A   1      34.321  32.706  30.736  1.00  0.00    -0.237 OA
ATOM     80  O   UNL A   1      36.206  33.968  29.795  1.00  0.00    -0.744 OA
ENDBRANCH  74  77
ENDBRANCH  56  70
BRANCH  57  81
ATOM     81  C   UNL A   1      47.642  28.178  26.889  1.00  0.00     0.023 A 
ATOM     82  C   UNL A   1      48.765  28.002  27.719  1.00  0.00     0.012 A 
ATOM     83  C   UNL A   1      47.781  28.005  25.497  1.00  0.00     0.148 A 
ATOM     84  C   UNL A   1      50.004  27.667  27.172  1.00  0.00     0.002 A 
ATOM     85  C   UNL A   1      49.000  27.605  24.966  1.00  0.00     0.091 A 
ATOM     86  F   UNL A   1      46.706  28.207  24.721  1.00  0.00    -0.205 F 
ATOM     87  C   UNL A   1      50.117  27.450  25.800  1.00  0.00     0.022 A 
BRANCH  85  88
ATOM     88  S   UNL A   1      49.181  27.148  23.239  1.00  0.00     0.127 S 
ATOM     89  O   UNL A   1      50.619  26.913  23.140  1.00  0.00    -0.237 OA
ATOM     90  O   UNL A   1      48.353  25.944  23.152  1.00  0.00    -0.237 OA
ATOM     91  O   UNL A   1      48.665  28.280  22.482  1.00  0.00    -0.744 OA
ENDBRANCH  85  88
ENDBRANCH  57  81
BRANCH  69  92
ATOM     92  C   UNL A   1      44.715  33.944  29.511  1.00  0.00     0.023 A 
ATOM     93  C   UNL A   1      45.387  34.345  30.683  1.00  0.00     0.012 A 
ATOM     94  C   UNL A   1      44.555  34.864  28.457  1.00  0.00     0.148 A 
ATOM     95  C   UNL A   1      45.866  35.647  30.816  1.00  0.00     0.002 A 
ATOM     96  C   UNL A   1      45.071  36.149  28.580  1.00  0.00     0.091 A 
ATOM     97  F   UNL A   1      43.896  34.469  27.358  1.00  0.00    -0.205 F 
ATOM     98  C   UNL A   1      45.718  36.545  29.762  1.00  0.00     0.022 A 
BRANCH  96  99
ATOM     99  S   UNL A   1      44.999  37.351  27.247  1.00  0.00     0.127 S 
ATOM    100  O   UNL A   1      45.909  36.763  26.265  1.00  0.00    -0.237 OA
ATOM    101  O   UNL A   1      43.586  37.313  26.870  1.00  0.00    -0.237 OA
ATOM    102  O   UNL A   1      45.435  38.616  27.823  1.00  0.00    -0.744 OA
ENDBRANCH  96  99
ENDBRANCH  69  92
ENDBRANCH  43  44
ENDBRANCH  36  38
ENDBRANCH  35  36
ENDBRANCH  34  35
ENDBRANCH   1  34
TORSDOF 18
ENDMDL
MODEL 3
REMARK VINA RESULT:     -11.1      7.752     11.086
REMARK SMILES COc1cccc(-c2c([C@H]3c4ccccc4C(=O)N3CC(=O)OCCOC(=O)c3ccc(-c4c5nc(c(-c6cccc(S(=O)(=O)[O-])c6F)c6ccc([nH]6)c(-c6cccc(S(=O)(=O)[O-])c6F)c6nc(c(-c7cccc(S(=O)(=O)[O-])c7F)c7ccc4[nH]7)C=C6)C=C5)cc3)c3ccccc3n2C)c1
REMARK SMILES IDX 24 1 23 2 21 3 22 4 20 5 19 6 10 7 11 8 12 9 16 10 17 11
REMARK SMILES IDX 13 12 15 13 18 14 14 15 9 16 8 17 98 18 92 19 97 20 99 21
REMARK SMILES IDX 93 22 96 23 94 24 95 25 7 26 3 27 4 28 100 29 5 30 6 31 2 32
REMARK SMILES IDX 1 33 25 34 26 35 27 36 28 37 29 38 30 39 91 40 31 41 90 42
REMARK SMILES IDX 32 43 33 44 34 45 84 46 35 47 89 48 83 49 85 50 36 51 88 52
REMARK SMILES IDX 82 53 81 54 37 56 69 57 49 58 68 59 50 60 53 61 67 62 86 63
REMARK SMILES IDX 51 64 52 65 66 67 87 68 54 69 38 70 39 71 47 72 40 73 42 74
REMARK SMILES IDX 48 75 41 76 43 77 44 78 45 79 46 80 70 81 71 82 79 83 72 84
REMARK SMILES IDX 74 85 80 86 73 87 75 88 76 89 77 90 78 91 55 92 56 93 64 94
REMARK SMILES IDX 57 95 59 96 65 97 58 98 60 99 61 100 62 101 63 102
REMARK H PARENT 85 55 53 66
REMARK Flexibility Score: inf
ROOT
ATOM      1  C   UNL A   1      37.749  33.129  35.217  1.00  0.00     0.274 C 
ENDROOT
BRANCH   1   2
ATOM      2  O   UNL A   1      37.396  31.740  35.220  1.00  0.00    -0.461 OA
BRANCH   2   3
ATOM      3  C   UNL A   1      38.405  30.880  34.962  1.00  0.00     0.325 C 
ATOM      4  O   UNL A   1      38.780  29.981  35.710  1.00  0.00    -0.250 OA
BRANCH   3   5
ATOM      5  C   UNL A   1      39.004  31.054  33.585  1.00  0.00     0.243 C 
BRANCH   5   6
ATOM      6  N   UNL A   1      39.305  29.908  32.730  1.00  0.00    -0.316 N 
ATOM      7  C   UNL A   1      40.084  30.186  31.529  1.00  0.00     0.150 C 
ATOM      8  C   UNL A   1      38.978  30.225  30.512  1.00  0.00    -0.008 A 
ATOM      9  C   UNL A   1      38.778  31.110  29.463  1.00  0.00     0.007 A 
ATOM     10  C   UNL A   1      37.915  29.442  30.969  1.00  0.00     0.045 A 
ATOM     11  C   UNL A   1      38.172  29.153  32.390  1.00  0.00     0.255 C 
ATOM     12  C   UNL A   1      37.509  31.157  28.873  1.00  0.00     0.000 A 
ATOM     13  C   UNL A   1      36.670  29.432  30.370  1.00  0.00     0.014 A 
ATOM     14  O   UNL A   1      37.366  28.631  33.140  1.00  0.00    -0.269 OA
ATOM     15  C   UNL A   1      36.471  30.309  29.305  1.00  0.00     0.001 A 
BRANCH   7  16
ATOM     16  C   UNL A   1      41.034  29.071  31.106  1.00  0.00     0.013 A 
ATOM     17  C   UNL A   1      42.021  28.494  31.927  1.00  0.00     0.055 A 
ATOM     18  N   UNL A   1      42.789  27.666  31.127  1.00  0.00    -0.343 N 
ATOM     19  C   UNL A   1      41.058  28.316  29.873  1.00  0.00     0.006 A 
ATOM     20  C   UNL A   1      42.167  27.465  29.910  1.00  0.00     0.049 A 
ATOM     21  C   UNL A   1      44.048  27.056  31.503  1.00  0.00     0.150 C 
ATOM     22  C   UNL A   1      40.234  28.262  28.723  1.00  0.00     0.011 A 
ATOM     23  C   UNL A   1      42.485  26.601  28.840  1.00  0.00     0.027 A 
ATOM     24  C   UNL A   1      40.532  27.397  27.666  1.00  0.00     0.001 A 
ATOM     25  C   UNL A   1      41.649  26.581  27.722  1.00  0.00     0.002 A 
BRANCH  17  26
ATOM     26  C   UNL A   1      42.214  28.699  33.375  1.00  0.00     0.002 A 
ATOM     27  C   UNL A   1      41.672  27.969  35.638  1.00  0.00     0.119 A 
ATOM     28  C   UNL A   1      42.262  29.124  36.145  1.00  0.00     0.046 A 
ATOM     29  C   UNL A   1      41.708  27.731  34.264  1.00  0.00     0.056 A 
ATOM     30  C   UNL A   1      42.842  30.055  35.286  1.00  0.00     0.005 A 
ATOM     31  C   UNL A   1      42.791  29.857  33.903  1.00  0.00     0.010 A 
BRANCH  27  32
ATOM     32  O   UNL A   1      41.068  27.179  36.574  1.00  0.00    -0.497 OA
ATOM     33  C   UNL A   1      41.879  26.202  37.210  1.00  0.00     0.278 C 
ENDBRANCH  27  32
ENDBRANCH  17  26
ENDBRANCH   7  16
ENDBRANCH   5   6
ENDBRANCH   3   5
ENDBRANCH   2   3
ENDBRANCH   1   2
BRANCH   1  34
ATOM     34  C   UNL A   1      36.994  33.837  34.091  1.00  0.00     0.275 C 
BRANCH  34  35
ATOM     35  O   UNL A   1      37.881  34.493  33.160  1.00  0.00    -0.458 OA
BRANCH  35  36
ATOM     36  C   UNL A   1      37.694  34.192  31.854  1.00  0.00     0.338 C 
ATOM     37  O   UNL A   1      36.645  33.922  31.295  1.00  0.00    -0.246 OA
BRANCH  36  38
ATOM     38  C   UNL A   1      38.952  34.330  31.110  1.00  0.00     0.060 A 
ATOM     39  C   UNL A   1      40.149  34.222  31.816  1.00  0.00     0.016 A 
ATOM     40  C   UNL A   1      38.958  34.659  29.754  1.00  0.00     0.016 A 
ATOM     41  C   UNL A   1      41.358  34.450  31.166  1.00  0.00     0.010 A 
ATOM     42  C   UNL A   1      40.179  34.863  29.099  1.00  0.00     0.010 A 
ATOM     43  C   UNL A   1      41.394  34.767  29.800  1.00  0.00    -0.014 A 
BRANCH  43  44
ATOM     44  C   UNL A   1      42.703  34.936  29.108  1.00  0.00     0.031 A 
ATOM     45  C   UNL A   1      43.580  33.755  28.792  1.00  0.00     0.074 A 
ATOM     46  C   UNL A   1      43.114  36.176  28.776  1.00  0.00     0.049 A 
ATOM     47  N   UNL A   1      44.796  33.741  28.307  1.00  0.00    -0.248 NA
ATOM     48  C   UNL A   1      43.027  32.417  29.057  1.00  0.00     0.031 C 
ATOM     49  C   UNL A   1      42.362  37.408  29.022  1.00  0.00     0.029 A 
ATOM     50  N   UNL A   1      44.272  36.610  28.177  1.00  0.00    -0.354 N 
ATOM     51  C   UNL A   1      45.177  32.405  28.261  1.00  0.00     0.074 A 
ATOM     52  C   UNL A   1      44.055  31.634  28.754  1.00  0.00     0.031 C 
ATOM     53  C   UNL A   1      43.067  38.453  28.572  1.00  0.00     0.029 A 
ATOM     54  C   UNL A   1      44.356  37.980  28.081  1.00  0.00     0.049 A 
ATOM     55  H   UNL A   1      44.972  36.001  27.848  1.00  0.00     0.167 HD
ATOM     56  C   UNL A   1      46.350  31.870  27.841  1.00  0.00     0.034 A 
ATOM     57  C   UNL A   1      45.370  38.778  27.693  1.00  0.00     0.034 A 
ATOM     58  C   UNL A   1      47.447  32.634  27.301  1.00  0.00     0.049 A 
ATOM     59  C   UNL A   1      46.668  38.161  27.258  1.00  0.00     0.074 A 
ATOM     60  C   UNL A   1      48.646  32.168  26.788  1.00  0.00     0.029 A 
ATOM     61  N   UNL A   1      47.487  34.016  27.209  1.00  0.00    -0.354 N 
ATOM     62  N   UNL A   1      46.978  36.893  27.142  1.00  0.00    -0.248 NA
ATOM     63  C   UNL A   1      47.752  39.083  26.893  1.00  0.00     0.031 C 
ATOM     64  C   UNL A   1      49.421  33.270  26.410  1.00  0.00     0.029 A 
ATOM     65  C   UNL A   1      48.697  34.421  26.670  1.00  0.00     0.049 A 
ATOM     66  H   UNL A   1      46.761  34.621  27.486  1.00  0.00     0.167 HD
ATOM     67  C   UNL A   1      48.291  36.864  26.691  1.00  0.00     0.074 A 
ATOM     68  C   UNL A   1      48.704  38.241  26.515  1.00  0.00     0.031 C 
ATOM     69  C   UNL A   1      49.092  35.792  26.470  1.00  0.00     0.034 A 
BRANCH  56  70
ATOM     70  C   UNL A   1      46.516  30.375  27.922  1.00  0.00     0.023 A 
ATOM     71  C   UNL A   1      46.883  29.776  29.143  1.00  0.00     0.012 A 
ATOM     72  C   UNL A   1      46.219  29.557  26.812  1.00  0.00     0.148 A 
ATOM     73  C   UNL A   1      46.974  28.388  29.254  1.00  0.00     0.002 A 
ATOM     74  C   UNL A   1      46.275  28.173  26.941  1.00  0.00     0.091 A 
ATOM     75  F   UNL A   1      45.892  30.145  25.653  1.00  0.00    -0.205 F 
ATOM     76  C   UNL A   1      46.660  27.588  28.158  1.00  0.00     0.022 A 
BRANCH  74  77
ATOM     77  S   UNL A   1      45.818  27.060  25.607  1.00  0.00     0.127 S 
ATOM     78  O   UNL A   1      44.387  27.331  25.474  1.00  0.00    -0.237 OA
ATOM     79  O   UNL A   1      46.636  27.552  24.497  1.00  0.00    -0.237 OA
ATOM     80  O   UNL A   1      46.164  25.722  26.066  1.00  0.00    -0.744 OA
ENDBRANCH  74  77
ENDBRANCH  56  70
BRANCH  57  81
ATOM     81  C   UNL A   1      45.188  40.257  27.717  1.00  0.00     0.023 A 
ATOM     82  C   UNL A   1      45.385  40.962  28.919  1.00  0.00     0.012 A 
ATOM     83  C   UNL A   1      44.881  40.971  26.541  1.00  0.00     0.148 A 
ATOM     84  C   UNL A   1      45.273  42.352  28.950  1.00  0.00     0.002 A 
ATOM     85  C   UNL A   1      44.838  42.359  26.566  1.00  0.00     0.091 A 
ATOM     86  F   UNL A   1      44.667  40.278  25.414  1.00  0.00    -0.205 F 
ATOM     87  C   UNL A   1      45.018  43.051  27.772  1.00  0.00     0.022 A 
BRANCH  85  88
ATOM     88  S   UNL A   1      44.681  43.331  25.064  1.00  0.00     0.127 S 
ATOM     89  O   UNL A   1      43.323  43.009  24.638  1.00  0.00    -0.237 OA
ATOM     90  O   UNL A   1      44.864  44.695  25.562  1.00  0.00    -0.237 OA
ATOM     91  O   UNL A   1      45.752  42.869  24.190  1.00  0.00    -0.744 OA
ENDBRANCH  85  88
ENDBRANCH  57  81
BRANCH  69  92
ATOM     92  C   UNL A   1      50.502  36.065  26.020  1.00  0.00     0.023 A 
ATOM     93  C   UNL A   1      50.770  36.222  24.646  1.00  0.00     0.012 A 
ATOM     94  C   UNL A   1      51.549  36.220  26.951  1.00  0.00     0.148 A 
ATOM     95  C   UNL A   1      52.061  36.502  24.201  1.00  0.00     0.002 A 
ATOM     96  C   UNL A   1      52.826  36.539  26.503  1.00  0.00     0.091 A 
ATOM     97  F   UNL A   1      51.278  36.048  28.253  1.00  0.00    -0.205 F 
ATOM     98  C   UNL A   1      53.086  36.670  25.129  1.00  0.00     0.022 A 
BRANCH  96  99
ATOM     99  S   UNL A   1      54.192  36.853  27.626  1.00  0.00     0.127 S 
ATOM    100  O   UNL A   1      55.302  37.055  26.697  1.00  0.00    -0.237 OA
ATOM    101  O   UNL A   1      53.751  38.062  28.322  1.00  0.00    -0.237 OA
ATOM    102  O   UNL A   1      54.294  35.673  28.474  1.00  0.00    -0.744 OA
ENDBRANCH  96  99
ENDBRANCH  69  92
ENDBRANCH  43  44
ENDBRANCH  36  38
ENDBRANCH  35  36
ENDBRANCH  34  35
ENDBRANCH   1  34
TORSDOF 18
ENDMDL
