MODEL 1
REMARK VINA RESULT:     -12.9      0.000      0.000
REMARK SMILES C[C@H]1Oc2ccccc2C=C1/C=C/C(=O)N[C@H](C(=O)OCCOC(=O)c1ccc(-c2c3nc(c(-c4cccc(S(=O)(=O)[O-])c4F)c4ccc([nH]4)c(-c4cccc(S(=O)(=O)[O-])c4F)c4nc(c(-c5cccc(S(=O)(=O)[O-])c5F)c5ccc2[nH]5)C=C4)C=C3)cc1)c1ccccc1
REMARK SMILES IDX 21 1 20 2 18 3 19 4 17 5 16 6 14 7 15 8 13 10 12 11 11 12
REMARK SMILES IDX 1 13 2 14 3 15 4 16 10 17 5 18 9 19 6 20 8 21 7 22 89 23
REMARK SMILES IDX 90 24 94 25 91 26 93 27 92 28 22 29 23 30 24 31 25 32 26 33
REMARK SMILES IDX 27 34 88 35 28 36 87 37 29 38 30 39 31 40 81 41 32 42 86 43
REMARK SMILES IDX 80 44 82 45 33 46 85 47 79 48 78 49 34 51 66 52 46 53 65 54
REMARK SMILES IDX 47 55 50 56 64 57 83 58 48 59 49 60 63 62 84 63 51 64 35 65
REMARK SMILES IDX 36 66 44 67 37 68 39 69 45 70 38 71 40 72 41 73 42 74 43 75
REMARK SMILES IDX 67 76 68 77 76 78 69 79 71 80 77 81 70 82 72 83 73 84 74 85
REMARK SMILES IDX 75 86 52 87 53 88 61 89 54 90 56 91 62 92 55 93 57 94 58 95
REMARK SMILES IDX 59 96 60 97
REMARK H PARENT 16 9 82 50 50 61
REMARK Flexibility Score: inf
ROOT
ATOM      1  C   UNL A   1      35.998  21.228  25.653  1.00  0.00     0.274 C 
ENDROOT
BRANCH   1   2
ATOM      2  O   UNL A   1      34.883  20.816  24.842  1.00  0.00    -0.460 OA
BRANCH   2   3
ATOM      3  C   UNL A   1      33.726  20.636  25.543  1.00  0.00     0.333 C 
ATOM      4  O   UNL A   1      33.550  21.076  26.677  1.00  0.00    -0.249 OA
BRANCH   3   5
ATOM      5  C   UNL A   1      32.650  19.825  24.763  1.00  0.00     0.223 C 
BRANCH   5   6
ATOM      6  N   UNL A   1      32.290  20.441  23.481  1.00  0.00    -0.335 N 
ATOM      7  C   UNL A   1      32.316  21.688  22.966  1.00  0.00     0.244 C 
ATOM      8  O   UNL A   1      32.291  21.838  21.744  1.00  0.00    -0.270 OA
ATOM      9  H   UNL A   1      31.946  19.780  22.837  1.00  0.00     0.165 HD
BRANCH   7  10
ATOM     10  C   UNL A   1      32.125  22.867  23.824  1.00  0.00     0.071 C 
ATOM     11  C   UNL A   1      33.049  23.800  24.090  1.00  0.00     0.013 C 
BRANCH  11  12
ATOM     12  C   UNL A   1      32.793  24.925  24.988  1.00  0.00    -0.007 C 
ATOM     13  C   UNL A   1      31.718  23.827  27.027  1.00  0.00     0.058 C 
ATOM     14  C   UNL A   1      31.569  24.828  25.886  1.00  0.00     0.200 C 
ATOM     15  O   UNL A   1      31.086  26.066  26.440  1.00  0.00    -0.485 OA
ATOM     16  C   UNL A   1      31.972  27.095  26.547  1.00  0.00     0.127 A 
ATOM     17  C   UNL A   1      33.570  26.021  25.005  1.00  0.00     0.019 C 
ATOM     18  C   UNL A   1      31.572  28.161  27.351  1.00  0.00     0.047 A 
ATOM     19  C   UNL A   1      33.195  27.126  25.877  1.00  0.00     0.017 A 
ATOM     20  C   UNL A   1      32.409  29.263  27.512  1.00  0.00     0.004 A 
ATOM     21  C   UNL A   1      34.023  28.242  26.026  1.00  0.00     0.012 A 
ATOM     22  C   UNL A   1      33.634  29.303  26.849  1.00  0.00     0.001 A 
ENDBRANCH  11  12
ENDBRANCH   7  10
ENDBRANCH   5   6
BRANCH   5  23
ATOM     23  C   UNL A   1      33.097  18.382  24.840  1.00  0.00    -0.014 A 
ATOM     24  C   UNL A   1      32.644  17.545  25.870  1.00  0.00     0.006 A 
ATOM     25  C   UNL A   1      33.723  17.808  23.715  1.00  0.00     0.006 A 
ATOM     26  C   UNL A   1      32.772  16.161  25.752  1.00  0.00     0.000 A 
ATOM     27  C   UNL A   1      33.840  16.424  23.598  1.00  0.00     0.000 A 
ATOM     28  C   UNL A   1      33.349  15.602  24.610  1.00  0.00     0.000 A 
ENDBRANCH   5  23
ENDBRANCH   3   5
ENDBRANCH   2   3
ENDBRANCH   1   2
BRANCH   1  29
ATOM     29  C   UNL A   1      37.345  20.765  25.080  1.00  0.00     0.275 C 
BRANCH  29  30
ATOM     30  O   UNL A   1      38.407  21.724  25.247  1.00  0.00    -0.458 OA
BRANCH  30  31
ATOM     31  C   UNL A   1      39.265  21.481  26.273  1.00  0.00     0.338 C 
ATOM     32  O   UNL A   1      39.647  20.391  26.657  1.00  0.00    -0.246 OA
BRANCH  31  33
ATOM     33  C   UNL A   1      39.845  22.754  26.753  1.00  0.00     0.060 A 
ATOM     34  C   UNL A   1      40.775  22.795  27.790  1.00  0.00     0.016 A 
ATOM     35  C   UNL A   1      39.453  23.937  26.115  1.00  0.00     0.016 A 
ATOM     36  C   UNL A   1      41.287  24.032  28.201  1.00  0.00     0.010 A 
ATOM     37  C   UNL A   1      39.958  25.167  26.527  1.00  0.00     0.010 A 
ATOM     38  C   UNL A   1      40.871  25.225  27.581  1.00  0.00    -0.014 A 
BRANCH  38  39
ATOM     39  C   UNL A   1      41.431  26.535  27.990  1.00  0.00     0.031 A 
ATOM     40  C   UNL A   1      42.854  26.901  27.678  1.00  0.00     0.074 A 
ATOM     41  C   UNL A   1      40.658  27.378  28.699  1.00  0.00     0.049 A 
ATOM     42  N   UNL A   1      43.476  28.027  27.907  1.00  0.00    -0.248 NA
ATOM     43  C   UNL A   1      43.690  25.871  27.041  1.00  0.00     0.031 C 
ATOM     44  C   UNL A   1      39.293  27.091  29.145  1.00  0.00     0.029 A 
ATOM     45  N   UNL A   1      40.912  28.638  29.177  1.00  0.00    -0.354 N 
ATOM     46  C   UNL A   1      44.774  27.847  27.447  1.00  0.00     0.074 A 
ATOM     47  C   UNL A   1      44.862  26.487  26.957  1.00  0.00     0.031 C 
ATOM     48  C   UNL A   1      38.820  28.157  29.811  1.00  0.00     0.029 A 
ATOM     49  C   UNL A   1      39.849  29.192  29.849  1.00  0.00     0.049 A 
ATOM     50  H   UNL A   1      41.771  29.100  29.050  1.00  0.00     0.167 HD
ATOM     51  C   UNL A   1      45.787  28.743  27.404  1.00  0.00     0.034 A 
ATOM     52  C   UNL A   1      39.712  30.404  30.421  1.00  0.00     0.034 A 
ATOM     53  C   UNL A   1      45.690  30.100  27.875  1.00  0.00     0.049 A 
ATOM     54  C   UNL A   1      40.840  31.391  30.341  1.00  0.00     0.074 A 
ATOM     55  C   UNL A   1      46.640  31.103  27.801  1.00  0.00     0.029 A 
ATOM     56  N   UNL A   1      44.587  30.638  28.517  1.00  0.00    -0.354 N 
ATOM     57  N   UNL A   1      42.008  31.254  29.765  1.00  0.00    -0.248 NA
ATOM     58  C   UNL A   1      40.623  32.705  30.962  1.00  0.00     0.031 C 
ATOM     59  C   UNL A   1      46.117  32.244  28.417  1.00  0.00     0.029 A 
ATOM     60  C   UNL A   1      44.834  31.957  28.857  1.00  0.00     0.049 A 
ATOM     61  H   UNL A   1      43.750  30.154  28.703  1.00  0.00     0.167 HD
ATOM     62  C   UNL A   1      42.664  32.466  29.941  1.00  0.00     0.074 A 
ATOM     63  C   UNL A   1      41.753  33.333  30.661  1.00  0.00     0.031 C 
ATOM     64  C   UNL A   1      43.913  32.820  29.551  1.00  0.00     0.034 A 
BRANCH  51  65
ATOM     65  C   UNL A   1      47.079  28.316  26.761  1.00  0.00     0.023 A 
ATOM     66  C   UNL A   1      48.160  27.942  27.584  1.00  0.00     0.012 A 
ATOM     67  C   UNL A   1      47.197  28.193  25.363  1.00  0.00     0.148 A 
ATOM     68  C   UNL A   1      49.345  27.465  27.026  1.00  0.00     0.002 A 
ATOM     69  C   UNL A   1      48.370  27.689  24.815  1.00  0.00     0.091 A 
ATOM     70  F   UNL A   1      46.158  28.564  24.601  1.00  0.00    -0.205 F 
ATOM     71  C   UNL A   1      49.446  27.329  25.644  1.00  0.00     0.022 A 
BRANCH  69  72
ATOM     72  S   UNL A   1      48.592  27.431  23.051  1.00  0.00     0.127 S 
ATOM     73  O   UNL A   1      49.942  27.954  22.845  1.00  0.00    -0.237 OA
ATOM     74  O   UNL A   1      48.478  25.976  22.937  1.00  0.00    -0.237 OA
ATOM     75  O   UNL A   1      47.530  28.181  22.396  1.00  0.00    -0.744 OA
ENDBRANCH  69  72
ENDBRANCH  51  65
BRANCH  52  76
ATOM     76  C   UNL A   1      38.406  30.758  31.035  1.00  0.00     0.023 A 
ATOM     77  C   UNL A   1      38.205  30.511  32.407  1.00  0.00     0.012 A 
ATOM     78  C   UNL A   1      37.416  31.435  30.299  1.00  0.00     0.148 A 
ATOM     79  C   UNL A   1      37.036  30.938  33.037  1.00  0.00     0.002 A 
ATOM     80  C   UNL A   1      36.271  31.888  30.942  1.00  0.00     0.091 A 
ATOM     81  F   UNL A   1      37.641  31.662  28.998  1.00  0.00    -0.205 F 
ATOM     82  C   UNL A   1      36.076  31.635  32.309  1.00  0.00     0.022 A 
BRANCH  80  83
ATOM     83  S   UNL A   1      35.021  32.878  30.116  1.00  0.00     0.127 S 
ATOM     84  O   UNL A   1      34.521  31.947  29.107  1.00  0.00    -0.237 OA
ATOM     85  O   UNL A   1      34.093  33.157  31.212  1.00  0.00    -0.237 OA
ATOM     86  O   UNL A   1      35.718  34.046  29.594  1.00  0.00    -0.744 OA
ENDBRANCH  80  83
ENDBRANCH  52  76
BRANCH  64  87
ATOM     87  C   UNL A   1      44.394  34.203  29.896  1.00  0.00     0.023 A 
ATOM     88  C   UNL A   1      45.114  34.404  31.088  1.00  0.00     0.012 A 
ATOM     89  C   UNL A   1      44.238  35.269  28.988  1.00  0.00     0.148 A 
ATOM     90  C   UNL A   1      45.664  35.652  31.380  1.00  0.00     0.002 A 
ATOM     91  C   UNL A   1      44.817  36.501  29.270  1.00  0.00     0.091 A 
ATOM     92  F   UNL A   1      43.544  35.052  27.862  1.00  0.00    -0.205 F 
ATOM     93  C   UNL A   1      45.526  36.695  30.467  1.00  0.00     0.022 A 
BRANCH  91  94
ATOM     94  S   UNL A   1      44.752  37.888  28.129  1.00  0.00     0.127 S 
ATOM     95  O   UNL A   1      43.334  38.245  28.176  1.00  0.00    -0.237 OA
ATOM     96  O   UNL A   1      45.646  38.854  28.767  1.00  0.00    -0.237 OA
ATOM     97  O   UNL A   1      45.218  37.380  26.847  1.00  0.00    -0.744 OA
ENDBRANCH  91  94
ENDBRANCH  64  87
ENDBRANCH  38  39
ENDBRANCH  31  33
ENDBRANCH  30  31
ENDBRANCH  29  30
ENDBRANCH   1  29
TORSDOF 18
ENDMDL
MODEL 2
REMARK VINA RESULT:     -12.7      1.351      2.423
REMARK SMILES C[C@H]1Oc2ccccc2C=C1/C=C/C(=O)N[C@H](C(=O)OCCOC(=O)c1ccc(-c2c3nc(c(-c4cccc(S(=O)(=O)[O-])c4F)c4ccc([nH]4)c(-c4cccc(S(=O)(=O)[O-])c4F)c4nc(c(-c5cccc(S(=O)(=O)[O-])c5F)c5ccc2[nH]5)C=C4)C=C3)cc1)c1ccccc1
REMARK SMILES IDX 21 1 20 2 18 3 19 4 17 5 16 6 14 7 15 8 13 10 12 11 11 12
REMARK SMILES IDX 1 13 2 14 3 15 4 16 10 17 5 18 9 19 6 20 8 21 7 22 89 23
REMARK SMILES IDX 90 24 94 25 91 26 93 27 92 28 22 29 23 30 24 31 25 32 26 33
REMARK SMILES IDX 27 34 88 35 28 36 87 37 29 38 30 39 31 40 81 41 32 42 86 43
REMARK SMILES IDX 80 44 82 45 33 46 85 47 79 48 78 49 34 51 66 52 46 53 65 54
REMARK SMILES IDX 47 55 50 56 64 57 83 58 48 59 49 60 63 62 84 63 51 64 35 65
REMARK SMILES IDX 36 66 44 67 37 68 39 69 45 70 38 71 40 72 41 73 42 74 43 75
REMARK SMILES IDX 67 76 68 77 76 78 69 79 71 80 77 81 70 82 72 83 73 84 74 85
REMARK SMILES IDX 75 86 52 87 53 88 61 89 54 90 56 91 62 92 55 93 57 94 58 95
REMARK SMILES IDX 59 96 60 97
REMARK H PARENT 16 9 82 50 50 61
REMARK Flexibility Score: inf
ROOT
ATOM      1  C   UNL A   1      36.857  19.484  25.002  1.00  0.00     0.274 C 
ENDROOT
BRANCH   1   2
ATOM      2  O   UNL A   1      35.781  20.399  25.271  1.00  0.00    -0.460 OA
BRANCH   2   3
ATOM      3  C   UNL A   1      34.546  19.907  24.961  1.00  0.00     0.333 C 
ATOM      4  O   UNL A   1      34.370  18.807  24.440  1.00  0.00    -0.249 OA
BRANCH   3   5
ATOM      5  C   UNL A   1      33.382  20.871  25.339  1.00  0.00     0.223 C 
BRANCH   5   6
ATOM      6  N   UNL A   1      33.465  21.349  26.722  1.00  0.00    -0.335 N 
ATOM      7  C   UNL A   1      32.977  22.401  27.414  1.00  0.00     0.244 C 
ATOM      8  O   UNL A   1      32.919  22.343  28.642  1.00  0.00    -0.270 OA
ATOM      9  H   UNL A   1      34.012  20.756  27.287  1.00  0.00     0.165 HD
BRANCH   7  10
ATOM     10  C   UNL A   1      32.747  23.697  26.759  1.00  0.00     0.071 C 
ATOM     11  C   UNL A   1      31.551  24.256  26.526  1.00  0.00     0.013 C 
BRANCH  11  12
ATOM     12  C   UNL A   1      31.403  25.534  25.832  1.00  0.00    -0.007 C 
ATOM     13  C   UNL A   1      33.804  26.374  25.614  1.00  0.00     0.058 C 
ATOM     14  C   UNL A   1      32.406  26.625  26.172  1.00  0.00     0.200 C 
ATOM     15  O   UNL A   1      32.025  27.971  25.829  1.00  0.00    -0.485 OA
ATOM     16  C   UNL A   1      31.103  28.129  24.839  1.00  0.00     0.127 A 
ATOM     17  C   UNL A   1      30.408  25.766  24.960  1.00  0.00     0.019 C 
ATOM     18  C   UNL A   1      30.980  29.419  24.325  1.00  0.00     0.047 A 
ATOM     19  C   UNL A   1      30.293  27.095  24.373  1.00  0.00     0.017 A 
ATOM     20  C   UNL A   1      30.055  29.679  23.316  1.00  0.00     0.004 A 
ATOM     21  C   UNL A   1      29.354  27.364  23.375  1.00  0.00     0.012 A 
ATOM     22  C   UNL A   1      29.242  28.651  22.841  1.00  0.00     0.001 A 
ENDBRANCH  11  12
ENDBRANCH   7  10
ENDBRANCH   5   6
BRANCH   5  23
ATOM     23  C   UNL A   1      33.268  21.838  24.182  1.00  0.00    -0.014 A 
ATOM     24  C   UNL A   1      32.025  22.107  23.591  1.00  0.00     0.006 A 
ATOM     25  C   UNL A   1      34.359  22.686  23.899  1.00  0.00     0.006 A 
ATOM     26  C   UNL A   1      31.866  23.229  22.778  1.00  0.00     0.000 A 
ATOM     27  C   UNL A   1      34.193  23.811  23.093  1.00  0.00     0.000 A 
ATOM     28  C   UNL A   1      32.942  24.089  22.546  1.00  0.00     0.000 A 
ENDBRANCH   5  23
ENDBRANCH   3   5
ENDBRANCH   2   3
ENDBRANCH   1   2
BRANCH   1  29
ATOM     29  C   UNL A   1      38.177  20.203  24.690  1.00  0.00     0.275 C 
BRANCH  29  30
ATOM     30  O   UNL A   1      38.476  21.285  25.594  1.00  0.00    -0.458 OA
BRANCH  30  31
ATOM     31  C   UNL A   1      39.499  21.062  26.461  1.00  0.00     0.338 C 
ATOM     32  O   UNL A   1      40.003  19.987  26.727  1.00  0.00    -0.246 OA
BRANCH  31  33
ATOM     33  C   UNL A   1      40.069  22.353  26.906  1.00  0.00     0.060 A 
ATOM     34  C   UNL A   1      41.157  22.418  27.773  1.00  0.00     0.016 A 
ATOM     35  C   UNL A   1      39.497  23.530  26.409  1.00  0.00     0.016 A 
ATOM     36  C   UNL A   1      41.651  23.670  28.160  1.00  0.00     0.010 A 
ATOM     37  C   UNL A   1      39.984  24.775  26.796  1.00  0.00     0.010 A 
ATOM     38  C   UNL A   1      41.058  24.854  27.685  1.00  0.00    -0.014 A 
BRANCH  38  39
ATOM     39  C   UNL A   1      41.593  26.184  28.065  1.00  0.00     0.031 A 
ATOM     40  C   UNL A   1      43.009  26.570  27.745  1.00  0.00     0.074 A 
ATOM     41  C   UNL A   1      40.804  27.027  28.756  1.00  0.00     0.049 A 
ATOM     42  N   UNL A   1      43.610  27.712  27.949  1.00  0.00    -0.248 NA
ATOM     43  C   UNL A   1      43.865  25.542  27.130  1.00  0.00     0.031 C 
ATOM     44  C   UNL A   1      39.445  26.724  29.208  1.00  0.00     0.029 A 
ATOM     45  N   UNL A   1      41.034  28.301  29.207  1.00  0.00    -0.354 N 
ATOM     46  C   UNL A   1      44.911  27.547  27.493  1.00  0.00     0.074 A 
ATOM     47  C   UNL A   1      45.025  26.178  27.033  1.00  0.00     0.031 C 
ATOM     48  C   UNL A   1      38.951  27.794  29.851  1.00  0.00     0.029 A 
ATOM     49  C   UNL A   1      39.961  28.849  29.867  1.00  0.00     0.049 A 
ATOM     50  H   UNL A   1      41.884  28.777  29.070  1.00  0.00     0.167 HD
ATOM     51  C   UNL A   1      45.907  28.460  27.431  1.00  0.00     0.034 A 
ATOM     52  C   UNL A   1      39.801  30.071  30.413  1.00  0.00     0.034 A 
ATOM     53  C   UNL A   1      45.784  29.825  27.872  1.00  0.00     0.049 A 
ATOM     54  C   UNL A   1      40.910  31.076  30.311  1.00  0.00     0.074 A 
ATOM     55  C   UNL A   1      46.714  30.844  27.776  1.00  0.00     0.029 A 
ATOM     56  N   UNL A   1      44.671  30.356  28.502  1.00  0.00    -0.354 N 
ATOM     57  N   UNL A   1      42.081  30.950  29.738  1.00  0.00    -0.248 NA
ATOM     58  C   UNL A   1      40.668  32.399  30.903  1.00  0.00     0.031 C 
ATOM     59  C   UNL A   1      46.170  31.988  28.368  1.00  0.00     0.029 A 
ATOM     60  C   UNL A   1      44.893  31.686  28.814  1.00  0.00     0.049 A 
ATOM     61  H   UNL A   1      43.843  29.861  28.699  1.00  0.00     0.167 HD
ATOM     62  C   UNL A   1      42.714  32.177  29.888  1.00  0.00     0.074 A 
ATOM     63  C   UNL A   1      41.786  33.042  30.589  1.00  0.00     0.031 C 
ATOM     64  C   UNL A   1      43.956  32.546  29.489  1.00  0.00     0.034 A 
BRANCH  51  65
ATOM     65  C   UNL A   1      47.206  28.044  26.796  1.00  0.00     0.023 A 
ATOM     66  C   UNL A   1      48.278  27.658  27.626  1.00  0.00     0.012 A 
ATOM     67  C   UNL A   1      47.341  27.942  25.398  1.00  0.00     0.148 A 
ATOM     68  C   UNL A   1      49.470  27.191  27.076  1.00  0.00     0.002 A 
ATOM     69  C   UNL A   1      48.521  27.448  24.857  1.00  0.00     0.091 A 
ATOM     70  F   UNL A   1      46.311  28.324  24.629  1.00  0.00    -0.205 F 
ATOM     71  C   UNL A   1      49.587  27.076  25.693  1.00  0.00     0.022 A 
BRANCH  69  72
ATOM     72  S   UNL A   1      48.764  27.217  23.092  1.00  0.00     0.127 S 
ATOM     73  O   UNL A   1      50.221  27.290  22.983  1.00  0.00    -0.237 OA
ATOM     74  O   UNL A   1      48.204  25.882  22.877  1.00  0.00    -0.237 OA
ATOM     75  O   UNL A   1      48.040  28.298  22.439  1.00  0.00    -0.744 OA
ENDBRANCH  69  72
ENDBRANCH  51  65
BRANCH  52  76
ATOM     76  C   UNL A   1      38.488  30.413  31.020  1.00  0.00     0.023 A 
ATOM     77  C   UNL A   1      38.264  30.119  32.378  1.00  0.00     0.012 A 
ATOM     78  C   UNL A   1      37.515  31.124  30.293  1.00  0.00     0.148 A 
ATOM     79  C   UNL A   1      37.089  30.532  33.006  1.00  0.00     0.002 A 
ATOM     80  C   UNL A   1      36.363  31.563  30.934  1.00  0.00     0.091 A 
ATOM     81  F   UNL A   1      37.762  31.396  29.005  1.00  0.00    -0.205 F 
ATOM     82  C   UNL A   1      36.146  31.263  32.288  1.00  0.00     0.022 A 
BRANCH  80  83
ATOM     83  S   UNL A   1      35.134  32.593  30.126  1.00  0.00     0.127 S 
ATOM     84  O   UNL A   1      34.197  32.851  31.217  1.00  0.00    -0.237 OA
ATOM     85  O   UNL A   1      35.937  33.744  29.715  1.00  0.00    -0.237 OA
ATOM     86  O   UNL A   1      34.605  31.795  29.028  1.00  0.00    -0.744 OA
ENDBRANCH  80  83
ENDBRANCH  52  76
BRANCH  64  87
ATOM     87  C   UNL A   1      44.411  33.945  29.804  1.00  0.00     0.023 A 
ATOM     88  C   UNL A   1      45.164  34.178  30.970  1.00  0.00     0.012 A 
ATOM     89  C   UNL A   1      44.195  34.997  28.893  1.00  0.00     0.148 A 
ATOM     90  C   UNL A   1      45.690  35.443  31.231  1.00  0.00     0.002 A 
ATOM     91  C   UNL A   1      44.749  36.247  29.143  1.00  0.00     0.091 A 
ATOM     92  F   UNL A   1      43.469  34.750  27.792  1.00  0.00    -0.205 F 
ATOM     93  C   UNL A   1      45.493  36.473  30.313  1.00  0.00     0.022 A 
BRANCH  91  94
ATOM     94  S   UNL A   1      44.608  37.620  27.992  1.00  0.00     0.127 S 
ATOM     95  O   UNL A   1      43.306  38.179  28.355  1.00  0.00    -0.237 OA
ATOM     96  O   UNL A   1      45.753  38.451  28.361  1.00  0.00    -0.237 OA
ATOM     97  O   UNL A   1      44.680  37.040  26.658  1.00  0.00    -0.744 OA
ENDBRANCH  91  94
ENDBRANCH  64  87
ENDBRANCH  38  39
ENDBRANCH  31  33
ENDBRANCH  30  31
ENDBRANCH  29  30
ENDBRANCH   1  29
TORSDOF 18
ENDMDL
MODEL 3
REMARK VINA RESULT:     -12.5      1.962      3.238
REMARK SMILES C[C@H]1Oc2ccccc2C=C1/C=C/C(=O)N[C@H](C(=O)OCCOC(=O)c1ccc(-c2c3nc(c(-c4cccc(S(=O)(=O)[O-])c4F)c4ccc([nH]4)c(-c4cccc(S(=O)(=O)[O-])c4F)c4nc(c(-c5cccc(S(=O)(=O)[O-])c5F)c5ccc2[nH]5)C=C4)C=C3)cc1)c1ccccc1
REMARK SMILES IDX 21 1 20 2 18 3 19 4 17 5 16 6 14 7 15 8 13 10 12 11 11 12
REMARK SMILES IDX 1 13 2 14 3 15 4 16 10 17 5 18 9 19 6 20 8 21 7 22 89 23
REMARK SMILES IDX 90 24 94 25 91 26 93 27 92 28 22 29 23 30 24 31 25 32 26 33
REMARK SMILES IDX 27 34 88 35 28 36 87 37 29 38 30 39 31 40 81 41 32 42 86 43
REMARK SMILES IDX 80 44 82 45 33 46 85 47 79 48 78 49 34 51 66 52 46 53 65 54
REMARK SMILES IDX 47 55 50 56 64 57 83 58 48 59 49 60 63 62 84 63 51 64 35 65
REMARK SMILES IDX 36 66 44 67 37 68 39 69 45 70 38 71 40 72 41 73 42 74 43 75
REMARK SMILES IDX 67 76 68 77 76 78 69 79 71 80 77 81 70 82 72 83 73 84 74 85
REMARK SMILES IDX 75 86 52 87 53 88 61 89 54 90 56 91 62 92 55 93 57 94 58 95
REMARK SMILES IDX 59 96 60 97
REMARK H PARENT 16 9 82 50 50 61
REMARK Flexibility Score: inf
ROOT
ATOM      1  C   UNL A   1      36.197  22.199  24.050  1.00  0.00     0.274 C 
ENDROOT
BRANCH   1   2
ATOM      2  O   UNL A   1      34.786  21.984  24.235  1.00  0.00    -0.460 OA
BRANCH   2   3
ATOM      3  C   UNL A   1      34.203  22.859  25.106  1.00  0.00     0.333 C 
ATOM      4  O   UNL A   1      34.083  22.633  26.308  1.00  0.00    -0.249 OA
BRANCH   3   5
ATOM      5  C   UNL A   1      33.713  24.173  24.428  1.00  0.00     0.223 C 
BRANCH   5   6
ATOM      6  N   UNL A   1      33.386  23.995  23.010  1.00  0.00    -0.335 N 
ATOM      7  C   UNL A   1      32.971  24.795  22.005  1.00  0.00     0.244 C 
ATOM      8  O   UNL A   1      33.127  24.431  20.839  1.00  0.00    -0.270 OA
ATOM      9  H   UNL A   1      33.498  23.061  22.719  1.00  0.00     0.165 HD
BRANCH   7  10
ATOM     10  C   UNL A   1      32.122  25.965  22.269  1.00  0.00     0.071 C 
ATOM     11  C   UNL A   1      32.555  27.213  22.495  1.00  0.00     0.013 C 
BRANCH  11  12
ATOM     12  C   UNL A   1      31.646  28.319  22.789  1.00  0.00    -0.007 C 
ATOM     13  C   UNL A   1      32.875  29.634  24.600  1.00  0.00     0.058 C 
ATOM     14  C   UNL A   1      31.630  28.839  24.218  1.00  0.00     0.200 C 
ATOM     15  O   UNL A   1      30.475  29.608  24.604  1.00  0.00    -0.485 OA
ATOM     16  C   UNL A   1      29.767  30.217  23.613  1.00  0.00     0.127 A 
ATOM     17  C   UNL A   1      30.825  28.839  21.862  1.00  0.00     0.019 C 
ATOM     18  C   UNL A   1      28.853  31.186  24.026  1.00  0.00     0.047 A 
ATOM     19  C   UNL A   1      29.897  29.888  22.264  1.00  0.00     0.017 A 
ATOM     20  C   UNL A   1      28.076  31.854  23.084  1.00  0.00     0.004 A 
ATOM     21  C   UNL A   1      29.102  30.549  21.324  1.00  0.00     0.012 A 
ATOM     22  C   UNL A   1      28.200  31.536  21.732  1.00  0.00     0.001 A 
ENDBRANCH  11  12
ENDBRANCH   7  10
ENDBRANCH   5   6
BRANCH   5  23
ATOM     23  C   UNL A   1      32.717  24.776  25.392  1.00  0.00    -0.014 A 
ATOM     24  C   UNL A   1      33.014  25.958  26.086  1.00  0.00     0.006 A 
ATOM     25  C   UNL A   1      31.384  24.317  25.362  1.00  0.00     0.006 A 
ATOM     26  C   UNL A   1      31.993  26.688  26.693  1.00  0.00     0.000 A 
ATOM     27  C   UNL A   1      30.366  25.055  25.963  1.00  0.00     0.000 A 
ATOM     28  C   UNL A   1      30.670  26.248  26.614  1.00  0.00     0.000 A 
ENDBRANCH   5  23
ENDBRANCH   3   5
ENDBRANCH   2   3
ENDBRANCH   1   2
BRANCH   1  29
ATOM     29  C   UNL A   1      37.052  21.157  24.785  1.00  0.00     0.275 C 
BRANCH  29  30
ATOM     30  O   UNL A   1      37.606  21.633  26.026  1.00  0.00    -0.458 OA
BRANCH  30  31
ATOM     31  C   UNL A   1      38.946  21.458  26.180  1.00  0.00     0.338 C 
ATOM     32  O   UNL A   1      39.595  20.490  25.830  1.00  0.00    -0.246 OA
BRANCH  31  33
ATOM     33  C   UNL A   1      39.563  22.712  26.663  1.00  0.00     0.060 A 
ATOM     34  C   UNL A   1      40.546  22.716  27.650  1.00  0.00     0.016 A 
ATOM     35  C   UNL A   1      39.149  23.915  26.080  1.00  0.00     0.016 A 
ATOM     36  C   UNL A   1      41.091  23.936  28.068  1.00  0.00     0.010 A 
ATOM     37  C   UNL A   1      39.687  25.129  26.498  1.00  0.00     0.010 A 
ATOM     38  C   UNL A   1      40.656  25.150  27.504  1.00  0.00    -0.014 A 
BRANCH  38  39
ATOM     39  C   UNL A   1      41.249  26.443  27.918  1.00  0.00     0.031 A 
ATOM     40  C   UNL A   1      42.682  26.772  27.612  1.00  0.00     0.074 A 
ATOM     41  C   UNL A   1      40.497  27.304  28.629  1.00  0.00     0.049 A 
ATOM     42  N   UNL A   1      43.334  27.880  27.846  1.00  0.00    -0.248 NA
ATOM     43  C   UNL A   1      43.492  25.722  26.973  1.00  0.00     0.031 C 
ATOM     44  C   UNL A   1      39.124  27.053  29.070  1.00  0.00     0.029 A 
ATOM     45  N   UNL A   1      40.783  28.555  29.111  1.00  0.00    -0.354 N 
ATOM     46  C   UNL A   1      44.628  27.667  27.389  1.00  0.00     0.074 A 
ATOM     47  C   UNL A   1      44.680  26.307  26.895  1.00  0.00     0.031 C 
ATOM     48  C   UNL A   1      38.677  28.128  29.738  1.00  0.00     0.029 A 
ATOM     49  C   UNL A   1      39.734  29.135  29.783  1.00  0.00     0.049 A 
ATOM     50  H   UNL A   1      41.654  28.995  28.988  1.00  0.00     0.167 HD
ATOM     51  C   UNL A   1      45.665  28.535  27.352  1.00  0.00     0.034 A 
ATOM     52  C   UNL A   1      39.627  30.349  30.358  1.00  0.00     0.034 A 
ATOM     53  C   UNL A   1      45.602  29.893  27.827  1.00  0.00     0.049 A 
ATOM     54  C   UNL A   1      40.781  31.305  30.284  1.00  0.00     0.074 A 
ATOM     55  C   UNL A   1      46.578  30.870  27.759  1.00  0.00     0.029 A 
ATOM     56  N   UNL A   1      44.512  30.458  28.468  1.00  0.00    -0.354 N 
ATOM     57  N   UNL A   1      41.947  31.139  29.711  1.00  0.00    -0.248 NA
ATOM     58  C   UNL A   1      40.598  32.623  30.909  1.00  0.00     0.031 C 
ATOM     59  C   UNL A   1      46.085  32.024  28.377  1.00  0.00     0.029 A 
ATOM     60  C   UNL A   1      44.794  31.769  28.813  1.00  0.00     0.049 A 
ATOM     61  H   UNL A   1      43.662  29.997  28.650  1.00  0.00     0.167 HD
ATOM     62  C   UNL A   1      42.635  32.332  29.893  1.00  0.00     0.074 A 
ATOM     63  C   UNL A   1      41.745  33.221  30.614  1.00  0.00     0.031 C 
ATOM     64  C   UNL A   1      43.894  32.654  29.507  1.00  0.00     0.034 A 
BRANCH  51  65
ATOM     65  C   UNL A   1      46.946  28.076  26.711  1.00  0.00     0.023 A 
ATOM     66  C   UNL A   1      47.975  27.570  27.529  1.00  0.00     0.012 A 
ATOM     67  C   UNL A   1      47.099  28.054  25.310  1.00  0.00     0.148 A 
ATOM     68  C   UNL A   1      49.145  27.062  26.966  1.00  0.00     0.002 A 
ATOM     69  C   UNL A   1      48.255  27.519  24.756  1.00  0.00     0.091 A 
ATOM     70  F   UNL A   1      46.110  28.550  24.554  1.00  0.00    -0.205 F 
ATOM     71  C   UNL A   1      49.280  27.027  25.581  1.00  0.00     0.022 A 
BRANCH  69  72
ATOM     72  S   UNL A   1      48.514  27.384  22.983  1.00  0.00     0.127 S 
ATOM     73  O   UNL A   1      49.884  27.880  22.848  1.00  0.00    -0.237 OA
ATOM     74  O   UNL A   1      48.362  25.946  22.759  1.00  0.00    -0.237 OA
ATOM     75  O   UNL A   1      47.492  28.213  22.360  1.00  0.00    -0.744 OA
ENDBRANCH  69  72
ENDBRANCH  51  65
BRANCH  52  76
ATOM     76  C   UNL A   1      38.329  30.736  30.970  1.00  0.00     0.023 A 
ATOM     77  C   UNL A   1      38.129  30.515  32.346  1.00  0.00     0.012 A 
ATOM     78  C   UNL A   1      37.349  31.417  30.225  1.00  0.00     0.148 A 
ATOM     79  C   UNL A   1      36.970  30.972  32.973  1.00  0.00     0.002 A 
ATOM     80  C   UNL A   1      36.214  31.901  30.864  1.00  0.00     0.091 A 
ATOM     81  F   UNL A   1      37.574  31.619  28.921  1.00  0.00    -0.205 F 
ATOM     82  C   UNL A   1      36.019  31.674  32.235  1.00  0.00     0.022 A 
BRANCH  80  83
ATOM     83  S   UNL A   1      34.979  32.899  30.025  1.00  0.00     0.127 S 
ATOM     84  O   UNL A   1      34.086  33.255  31.125  1.00  0.00    -0.237 OA
ATOM     85  O   UNL A   1      35.791  33.999  29.507  1.00  0.00    -0.237 OA
ATOM     86  O   UNL A   1      34.396  32.038  29.005  1.00  0.00    -0.744 OA
ENDBRANCH  80  83
ENDBRANCH  52  76
BRANCH  64  87
ATOM     87  C   UNL A   1      44.411  34.023  29.858  1.00  0.00     0.023 A 
ATOM     88  C   UNL A   1      45.176  34.191  31.027  1.00  0.00     0.012 A 
ATOM     89  C   UNL A   1      44.241  35.107  28.975  1.00  0.00     0.148 A 
ATOM     90  C   UNL A   1      45.758  35.424  31.320  1.00  0.00     0.002 A 
ATOM     91  C   UNL A   1      44.851  36.324  29.257  1.00  0.00     0.091 A 
ATOM     92  F   UNL A   1      43.503  34.922  27.870  1.00  0.00    -0.205 F 
ATOM     93  C   UNL A   1      45.606  36.485  30.430  1.00  0.00     0.022 A 
BRANCH  91  94
ATOM     94  S   UNL A   1      44.769  37.732  28.143  1.00  0.00     0.127 S 
ATOM     95  O   UNL A   1      45.631  38.699  28.823  1.00  0.00    -0.237 OA
ATOM     96  O   UNL A   1      45.326  37.182  26.908  1.00  0.00    -0.237 OA
ATOM     97  O   UNL A   1      43.364  38.106  28.065  1.00  0.00    -0.744 OA
ENDBRANCH  91  94
ENDBRANCH  64  87
ENDBRANCH  38  39
ENDBRANCH  31  33
ENDBRANCH  30  31
ENDBRANCH  29  30
ENDBRANCH   1  29
TORSDOF 18
ENDMDL
