MODEL 1
REMARK VINA RESULT:     -12.1      0.000      0.000
REMARK SMILES O=C(CO/N=C\c1ccccc1)Nc1ccccc1C(=O)OCCOC(=O)c1ccc(-c2c3nc(c(-c4cccc(S(=O)(=O)[O-])c4F)c4ccc([nH]4)c(-c4cccc(S(=O)(=O)[O-])c4F)c4nc(c(-c5cccc(S(=O)(=O)[O-])c5F)c5ccc2[nH]5)C=C4)C=C3)cc1
REMARK SMILES IDX 23 1 22 2 20 3 21 4 19 5 14 6 15 7 16 8 18 9 17 10 13 11
REMARK SMILES IDX 1 12 2 13 3 15 4 16 5 17 6 18 7 19 8 20 12 21 9 22 11 23
REMARK SMILES IDX 10 24 24 25 25 26 26 27 27 28 28 29 29 30 90 31 30 32 89 33
REMARK SMILES IDX 31 34 32 35 33 36 83 37 34 38 88 39 82 40 84 41 35 42 87 43
REMARK SMILES IDX 81 44 80 45 36 47 68 48 48 49 67 50 49 51 52 52 66 53 85 54
REMARK SMILES IDX 50 55 51 56 65 58 86 59 53 60 37 61 38 62 46 63 39 64 41 65
REMARK SMILES IDX 47 66 40 67 42 68 43 69 44 70 45 71 69 72 70 73 78 74 71 75
REMARK SMILES IDX 73 76 79 77 72 78 74 79 75 80 76 81 77 82 54 83 55 84 63 85
REMARK SMILES IDX 56 86 58 87 64 88 57 89 59 90 60 91 61 92 62 93
REMARK H PARENT 13 14 84 46 52 57
REMARK Flexibility Score: inf
ROOT
ATOM      1  C   UNL A   1      31.470  28.209  26.664  1.00  0.00     0.275 C 
ENDROOT
BRANCH   1   2
ATOM      2  O   UNL A   1      32.490  27.407  26.038  1.00  0.00    -0.458 OA
BRANCH   2   3
ATOM      3  C   UNL A   1      32.330  26.052  26.132  1.00  0.00     0.340 C 
ATOM      4  O   UNL A   1      31.505  25.470  26.800  1.00  0.00    -0.246 OA
BRANCH   3   5
ATOM      5  C   UNL A   1      33.235  25.365  25.166  1.00  0.00     0.083 A 
ATOM      6  C   UNL A   1      32.972  25.215  23.793  1.00  0.00     0.055 A 
ATOM      7  C   UNL A   1      33.785  24.348  23.041  1.00  0.00     0.027 A 
ATOM      8  C   UNL A   1      34.885  23.709  23.619  1.00  0.00     0.002 A 
ATOM      9  C   UNL A   1      34.378  24.761  25.721  1.00  0.00     0.018 A 
ATOM     10  C   UNL A   1      35.194  23.930  24.956  1.00  0.00     0.001 A 
BRANCH   6  11
ATOM     11  N   UNL A   1      31.947  25.878  23.081  1.00  0.00    -0.322 N 
ATOM     12  O   UNL A   1      32.979  27.919  22.657  1.00  0.00    -0.271 OA
ATOM     13  C   UNL A   1      31.976  27.209  22.691  1.00  0.00     0.265 C 
ATOM     14  H   UNL A   1      31.148  25.354  22.844  1.00  0.00     0.170 HD
BRANCH  13  15
ATOM     15  C   UNL A   1      30.602  27.754  22.343  1.00  0.00     0.363 C 
BRANCH  15  16
ATOM     16  O   UNL A   1      29.914  28.240  23.483  1.00  0.00    -0.386 OA
BRANCH  16  17
ATOM     17  N   UNL A   1      28.612  27.719  23.473  1.00  0.00    -0.094 NA
ATOM     18  C   UNL A   1      27.730  28.604  23.128  1.00  0.00     0.162 C 
BRANCH  18  19
ATOM     19  C   UNL A   1      27.975  29.974  22.656  1.00  0.00    -0.004 A 
ATOM     20  C   UNL A   1      28.102  30.988  23.606  1.00  0.00     0.010 A 
ATOM     21  C   UNL A   1      28.030  30.262  21.290  1.00  0.00     0.010 A 
ATOM     22  C   UNL A   1      28.317  32.299  23.181  1.00  0.00     0.001 A 
ATOM     23  C   UNL A   1      28.240  31.574  20.871  1.00  0.00     0.001 A 
ATOM     24  C   UNL A   1      28.386  32.590  21.816  1.00  0.00     0.000 A 
ENDBRANCH  18  19
ENDBRANCH  16  17
ENDBRANCH  15  16
ENDBRANCH  13  15
ENDBRANCH   6  11
ENDBRANCH   3   5
ENDBRANCH   2   3
ENDBRANCH   1   2
BRANCH   1  25
ATOM     25  C   UNL A   1      31.562  29.666  26.216  1.00  0.00     0.275 C 
BRANCH  25  26
ATOM     26  O   UNL A   1      32.937  30.065  26.157  1.00  0.00    -0.458 OA
BRANCH  26  27
ATOM     27  C   UNL A   1      33.259  31.124  26.930  1.00  0.00     0.338 C 
ATOM     28  O   UNL A   1      32.549  32.064  27.250  1.00  0.00    -0.246 OA
BRANCH  27  29
ATOM     29  C   UNL A   1      34.607  30.912  27.460  1.00  0.00     0.060 A 
ATOM     30  C   UNL A   1      34.994  29.602  27.734  1.00  0.00     0.016 A 
ATOM     31  C   UNL A   1      35.436  31.981  27.777  1.00  0.00     0.016 A 
ATOM     32  C   UNL A   1      36.190  29.345  28.391  1.00  0.00     0.010 A 
ATOM     33  C   UNL A   1      36.663  31.721  28.390  1.00  0.00     0.010 A 
ATOM     34  C   UNL A   1      37.033  30.405  28.735  1.00  0.00    -0.014 A 
BRANCH  34  35
ATOM     35  C   UNL A   1      38.255  30.164  29.539  1.00  0.00     0.031 A 
ATOM     36  C   UNL A   1      39.330  29.277  28.976  1.00  0.00     0.074 A 
ATOM     37  C   UNL A   1      38.397  30.711  30.762  1.00  0.00     0.049 A 
ATOM     38  N   UNL A   1      40.347  28.723  29.579  1.00  0.00    -0.248 NA
ATOM     39  C   UNL A   1      39.231  28.953  27.542  1.00  0.00     0.031 C 
ATOM     40  C   UNL A   1      37.450  31.631  31.396  1.00  0.00     0.029 A 
ATOM     41  N   UNL A   1      39.384  30.550  31.702  1.00  0.00    -0.354 N 
ATOM     42  C   UNL A   1      40.954  27.914  28.625  1.00  0.00     0.074 A 
ATOM     43  C   UNL A   1      40.208  28.068  27.397  1.00  0.00     0.031 C 
ATOM     44  C   UNL A   1      37.897  31.945  32.622  1.00  0.00     0.029 A 
ATOM     45  C   UNL A   1      39.118  31.193  32.889  1.00  0.00     0.049 A 
ATOM     46  H   UNL A   1      40.203  30.025  31.542  1.00  0.00     0.167 HD
ATOM     47  C   UNL A   1      42.039  27.117  28.767  1.00  0.00     0.034 A 
ATOM     48  C   UNL A   1      39.758  31.140  34.073  1.00  0.00     0.034 A 
ATOM     49  C   UNL A   1      42.818  27.042  29.972  1.00  0.00     0.049 A 
ATOM     50  C   UNL A   1      40.977  30.265  34.199  1.00  0.00     0.074 A 
ATOM     51  C   UNL A   1      43.951  26.287  30.220  1.00  0.00     0.029 A 
ATOM     52  N   UNL A   1      42.557  27.767  31.126  1.00  0.00    -0.354 N 
ATOM     53  N   UNL A   1      41.549  29.513  33.289  1.00  0.00    -0.248 NA
ATOM     54  C   UNL A   1      41.644  30.236  35.508  1.00  0.00     0.031 C 
ATOM     55  C   UNL A   1      44.374  26.557  31.526  1.00  0.00     0.029 A 
ATOM     56  C   UNL A   1      43.514  27.490  32.084  1.00  0.00     0.049 A 
ATOM     57  H   UNL A   1      41.802  28.387  31.245  1.00  0.00     0.167 HD
ATOM     58  C   UNL A   1      42.659  28.948  33.904  1.00  0.00     0.074 A 
ATOM     59  C   UNL A   1      42.690  29.458  35.260  1.00  0.00     0.031 C 
ATOM     60  C   UNL A   1      43.561  28.070  33.401  1.00  0.00     0.034 A 
BRANCH  47  61
ATOM     61  C   UNL A   1      42.457  26.280  27.590  1.00  0.00     0.023 A 
ATOM     62  C   UNL A   1      43.326  26.818  26.620  1.00  0.00     0.012 A 
ATOM     63  C   UNL A   1      42.029  24.943  27.470  1.00  0.00     0.148 A 
ATOM     64  C   UNL A   1      43.740  26.047  25.534  1.00  0.00     0.002 A 
ATOM     65  C   UNL A   1      42.479  24.168  26.407  1.00  0.00     0.091 A 
ATOM     66  F   UNL A   1      41.182  24.457  28.388  1.00  0.00    -0.205 F 
ATOM     67  C   UNL A   1      43.326  24.720  25.433  1.00  0.00     0.022 A 
BRANCH  65  68
ATOM     68  S   UNL A   1      42.061  22.429  26.235  1.00  0.00     0.127 S 
ATOM     69  O   UNL A   1      42.611  21.869  27.467  1.00  0.00    -0.237 OA
ATOM     70  O   UNL A   1      40.599  22.465  26.181  1.00  0.00    -0.237 OA
ATOM     71  O   UNL A   1      42.699  21.985  25.003  1.00  0.00    -0.744 OA
ENDBRANCH  65  68
ENDBRANCH  47  61
BRANCH  48  72
ATOM     72  C   UNL A   1      39.266  31.951  35.223  1.00  0.00     0.023 A 
ATOM     73  C   UNL A   1      38.367  31.373  36.140  1.00  0.00     0.012 A 
ATOM     74  C   UNL A   1      39.714  33.268  35.441  1.00  0.00     0.148 A 
ATOM     75  C   UNL A   1      37.908  32.098  37.241  1.00  0.00     0.002 A 
ATOM     76  C   UNL A   1      39.299  33.965  36.570  1.00  0.00     0.091 A 
ATOM     77  F   UNL A   1      40.548  33.814  34.545  1.00  0.00    -0.205 F 
ATOM     78  C   UNL A   1      38.384  33.387  37.464  1.00  0.00     0.022 A 
BRANCH  76  79
ATOM     79  S   UNL A   1      39.973  35.574  37.000  1.00  0.00     0.127 S 
ATOM     80  O   UNL A   1      39.278  35.867  38.250  1.00  0.00    -0.237 OA
ATOM     81  O   UNL A   1      41.400  35.283  37.143  1.00  0.00    -0.237 OA
ATOM     82  O   UNL A   1      39.652  36.439  35.873  1.00  0.00    -0.744 OA
ENDBRANCH  76  79
ENDBRANCH  48  72
BRANCH  60  83
ATOM     83  C   UNL A   1      44.691  27.642  34.296  1.00  0.00     0.023 A 
ATOM     84  C   UNL A   1      45.844  28.443  34.395  1.00  0.00     0.012 A 
ATOM     85  C   UNL A   1      44.564  26.501  35.112  1.00  0.00     0.148 A 
ATOM     86  C   UNL A   1      46.866  28.105  35.281  1.00  0.00     0.002 A 
ATOM     87  C   UNL A   1      45.567  26.193  36.023  1.00  0.00     0.091 A 
ATOM     88  F   UNL A   1      43.465  25.743  34.985  1.00  0.00    -0.205 F 
ATOM     89  C   UNL A   1      46.721  26.988  36.103  1.00  0.00     0.022 A 
BRANCH  87  90
ATOM     90  S   UNL A   1      45.422  24.829  37.182  1.00  0.00     0.127 S 
ATOM     91  O   UNL A   1      46.820  24.442  37.364  1.00  0.00    -0.237 OA
ATOM     92  O   UNL A   1      44.811  25.472  38.346  1.00  0.00    -0.237 OA
ATOM     93  O   UNL A   1      44.578  23.837  36.530  1.00  0.00    -0.744 OA
ENDBRANCH  87  90
ENDBRANCH  60  83
ENDBRANCH  34  35
ENDBRANCH  27  29
ENDBRANCH  26  27
ENDBRANCH  25  26
ENDBRANCH   1  25
TORSDOF 19
ENDMDL
MODEL 2
REMARK VINA RESULT:     -11.8      4.987      9.716
REMARK SMILES O=C(CO/N=C\c1ccccc1)Nc1ccccc1C(=O)OCCOC(=O)c1ccc(-c2c3nc(c(-c4cccc(S(=O)(=O)[O-])c4F)c4ccc([nH]4)c(-c4cccc(S(=O)(=O)[O-])c4F)c4nc(c(-c5cccc(S(=O)(=O)[O-])c5F)c5ccc2[nH]5)C=C4)C=C3)cc1
REMARK SMILES IDX 23 1 22 2 20 3 21 4 19 5 14 6 15 7 16 8 18 9 17 10 13 11
REMARK SMILES IDX 1 12 2 13 3 15 4 16 5 17 6 18 7 19 8 20 12 21 9 22 11 23
REMARK SMILES IDX 10 24 24 25 25 26 26 27 27 28 28 29 29 30 90 31 30 32 89 33
REMARK SMILES IDX 31 34 32 35 33 36 83 37 34 38 88 39 82 40 84 41 35 42 87 43
REMARK SMILES IDX 81 44 80 45 36 47 68 48 48 49 67 50 49 51 52 52 66 53 85 54
REMARK SMILES IDX 50 55 51 56 65 58 86 59 53 60 37 61 38 62 46 63 39 64 41 65
REMARK SMILES IDX 47 66 40 67 42 68 43 69 44 70 45 71 69 72 70 73 78 74 71 75
REMARK SMILES IDX 73 76 79 77 72 78 74 79 75 80 76 81 77 82 54 83 55 84 63 85
REMARK SMILES IDX 56 86 58 87 64 88 57 89 59 90 60 91 61 92 62 93
REMARK H PARENT 13 14 84 46 52 57
REMARK Flexibility Score: inf
ROOT
ATOM      1  C   UNL A   1      35.140  21.999  26.348  1.00  0.00     0.275 C 
ENDROOT
BRANCH   1   2
ATOM      2  O   UNL A   1      34.166  22.561  25.447  1.00  0.00    -0.458 OA
BRANCH   2   3
ATOM      3  C   UNL A   1      32.921  21.997  25.482  1.00  0.00     0.340 C 
ATOM      4  O   UNL A   1      32.067  22.190  26.316  1.00  0.00    -0.246 OA
BRANCH   3   5
ATOM      5  C   UNL A   1      32.691  21.198  24.243  1.00  0.00     0.083 A 
ATOM      6  C   UNL A   1      32.161  21.715  23.047  1.00  0.00     0.055 A 
ATOM      7  C   UNL A   1      31.775  20.816  22.037  1.00  0.00     0.027 A 
ATOM      8  C   UNL A   1      31.987  19.441  22.176  1.00  0.00     0.002 A 
ATOM      9  C   UNL A   1      32.951  19.820  24.346  1.00  0.00     0.018 A 
ATOM     10  C   UNL A   1      32.593  18.944  23.323  1.00  0.00     0.001 A 
BRANCH   6  11
ATOM     11  N   UNL A   1      31.985  23.087  22.757  1.00  0.00    -0.322 N 
ATOM     12  O   UNL A   1      33.992  23.552  21.679  1.00  0.00    -0.271 OA
ATOM     13  C   UNL A   1      32.955  23.922  22.224  1.00  0.00     0.265 C 
ATOM     14  H   UNL A   1      31.103  23.481  22.950  1.00  0.00     0.170 HD
BRANCH  13  15
ATOM     15  C   UNL A   1      32.643  25.395  22.424  1.00  0.00     0.363 C 
BRANCH  15  16
ATOM     16  O   UNL A   1      32.548  25.742  23.794  1.00  0.00    -0.386 OA
BRANCH  16  17
ATOM     17  N   UNL A   1      33.737  25.363  24.434  1.00  0.00    -0.094 NA
ATOM     18  C   UNL A   1      34.061  26.173  25.393  1.00  0.00     0.162 C 
BRANCH  18  19
ATOM     19  C   UNL A   1      33.276  27.302  25.912  1.00  0.00    -0.004 A 
ATOM     20  C   UNL A   1      33.564  28.582  25.438  1.00  0.00     0.010 A 
ATOM     21  C   UNL A   1      32.301  27.106  26.894  1.00  0.00     0.010 A 
ATOM     22  C   UNL A   1      32.846  29.671  25.931  1.00  0.00     0.001 A 
ATOM     23  C   UNL A   1      31.589  28.197  27.386  1.00  0.00     0.001 A 
ATOM     24  C   UNL A   1      31.860  29.477  26.902  1.00  0.00     0.000 A 
ENDBRANCH  18  19
ENDBRANCH  16  17
ENDBRANCH  15  16
ENDBRANCH  13  15
ENDBRANCH   6  11
ENDBRANCH   3   5
ENDBRANCH   2   3
ENDBRANCH   1   2
BRANCH   1  25
ATOM     25  C   UNL A   1      36.116  21.088  25.606  1.00  0.00     0.275 C 
BRANCH  25  26
ATOM     26  O   UNL A   1      37.267  21.841  25.205  1.00  0.00    -0.458 OA
BRANCH  26  27
ATOM     27  C   UNL A   1      38.440  21.404  25.711  1.00  0.00     0.338 C 
ATOM     28  O   UNL A   1      38.964  20.312  25.560  1.00  0.00    -0.246 OA
BRANCH  27  29
ATOM     29  C   UNL A   1      39.087  22.523  26.398  1.00  0.00     0.060 A 
ATOM     30  C   UNL A   1      38.627  23.808  26.117  1.00  0.00     0.016 A 
ATOM     31  C   UNL A   1      40.188  22.326  27.222  1.00  0.00     0.016 A 
ATOM     32  C   UNL A   1      39.302  24.919  26.602  1.00  0.00     0.010 A 
ATOM     33  C   UNL A   1      40.837  23.442  27.755  1.00  0.00     0.010 A 
ATOM     34  C   UNL A   1      40.422  24.747  27.420  1.00  0.00    -0.014 A 
BRANCH  34  35
ATOM     35  C   UNL A   1      41.226  25.916  27.852  1.00  0.00     0.031 A 
ATOM     36  C   UNL A   1      40.565  26.984  28.677  1.00  0.00     0.074 A 
ATOM     37  C   UNL A   1      42.519  26.034  27.497  1.00  0.00     0.049 A 
ATOM     38  N   UNL A   1      40.975  28.193  28.950  1.00  0.00    -0.248 NA
ATOM     39  C   UNL A   1      39.250  26.651  29.255  1.00  0.00     0.031 C 
ATOM     40  C   UNL A   1      43.288  25.041  26.745  1.00  0.00     0.029 A 
ATOM     41  N   UNL A   1      43.410  27.058  27.703  1.00  0.00    -0.354 N 
ATOM     42  C   UNL A   1      39.936  28.795  29.650  1.00  0.00     0.074 A 
ATOM     43  C   UNL A   1      38.884  27.811  29.782  1.00  0.00     0.031 C 
ATOM     44  C   UNL A   1      44.530  25.507  26.543  1.00  0.00     0.029 A 
ATOM     45  C   UNL A   1      44.623  26.858  27.085  1.00  0.00     0.049 A 
ATOM     46  H   UNL A   1      43.201  27.857  28.240  1.00  0.00     0.167 HD
ATOM     47  C   UNL A   1      39.870  30.055  30.137  1.00  0.00     0.034 A 
ATOM     48  C   UNL A   1      45.671  27.691  26.930  1.00  0.00     0.034 A 
ATOM     49  C   UNL A   1      40.959  30.992  30.071  1.00  0.00     0.049 A 
ATOM     50  C   UNL A   1      45.584  29.080  27.502  1.00  0.00     0.074 A 
ATOM     51  C   UNL A   1      41.012  32.287  30.553  1.00  0.00     0.029 A 
ATOM     52  N   UNL A   1      42.195  30.723  29.503  1.00  0.00    -0.354 N 
ATOM     53  N   UNL A   1      44.601  29.636  28.171  1.00  0.00    -0.248 NA
ATOM     54  C   UNL A   1      46.749  29.955  27.309  1.00  0.00     0.031 C 
ATOM     55  C   UNL A   1      42.283  32.801  30.277  1.00  0.00     0.029 A 
ATOM     56  C   UNL A   1      43.024  31.821  29.635  1.00  0.00     0.049 A 
ATOM     57  H   UNL A   1      42.446  29.875  29.069  1.00  0.00     0.167 HD
ATOM     58  C   UNL A   1      45.040  30.910  28.506  1.00  0.00     0.074 A 
ATOM     59  C   UNL A   1      46.385  31.039  27.982  1.00  0.00     0.031 C 
ATOM     60  C   UNL A   1      44.385  31.894  29.168  1.00  0.00     0.034 A 
BRANCH  47  61
ATOM     61  C   UNL A   1      38.592  30.488  30.801  1.00  0.00     0.023 A 
ATOM     62  C   UNL A   1      38.403  30.259  32.178  1.00  0.00     0.012 A 
ATOM     63  C   UNL A   1      37.597  31.169  30.070  1.00  0.00     0.148 A 
ATOM     64  C   UNL A   1      37.232  30.674  32.812  1.00  0.00     0.002 A 
ATOM     65  C   UNL A   1      36.451  31.617  30.717  1.00  0.00     0.091 A 
ATOM     66  F   UNL A   1      37.783  31.355  28.756  1.00  0.00    -0.205 F 
ATOM     67  C   UNL A   1      36.262  31.362  32.085  1.00  0.00     0.022 A 
BRANCH  65  68
ATOM     68  S   UNL A   1      35.183  32.576  29.882  1.00  0.00     0.127 S 
ATOM     69  O   UNL A   1      34.710  31.629  28.874  1.00  0.00    -0.237 OA
ATOM     70  O   UNL A   1      34.232  32.841  30.963  1.00  0.00    -0.237 OA
ATOM     71  O   UNL A   1      35.853  33.761  29.365  1.00  0.00    -0.744 OA
ENDBRANCH  65  68
ENDBRANCH  47  61
BRANCH  48  72
ATOM     72  C   UNL A   1      46.893  27.224  26.214  1.00  0.00     0.023 A 
ATOM     73  C   UNL A   1      47.038  27.502  24.842  1.00  0.00     0.012 A 
ATOM     74  C   UNL A   1      47.930  26.550  26.890  1.00  0.00     0.148 A 
ATOM     75  C   UNL A   1      48.182  27.101  24.151  1.00  0.00     0.002 A 
ATOM     76  C   UNL A   1      49.092  26.205  26.209  1.00  0.00     0.091 A 
ATOM     77  F   UNL A   1      47.766  26.269  28.191  1.00  0.00    -0.205 F 
ATOM     78  C   UNL A   1      49.215  26.466  24.836  1.00  0.00     0.022 A 
BRANCH  76  79
ATOM     79  S   UNL A   1      50.520  25.511  27.051  1.00  0.00     0.127 S 
ATOM     80  O   UNL A   1      51.460  25.329  25.949  1.00  0.00    -0.237 OA
ATOM     81  O   UNL A   1      50.872  26.576  27.991  1.00  0.00    -0.237 OA
ATOM     82  O   UNL A   1      50.037  24.292  27.687  1.00  0.00    -0.744 OA
ENDBRANCH  76  79
ENDBRANCH  48  72
BRANCH  60  83
ATOM     83  C   UNL A   1      45.124  33.180  29.417  1.00  0.00     0.023 A 
ATOM     84  C   UNL A   1      45.940  33.306  30.556  1.00  0.00     0.012 A 
ATOM     85  C   UNL A   1      45.087  34.220  28.468  1.00  0.00     0.148 A 
ATOM     86  C   UNL A   1      46.695  34.460  30.760  1.00  0.00     0.002 A 
ATOM     87  C   UNL A   1      45.874  35.349  28.655  1.00  0.00     0.091 A 
ATOM     88  F   UNL A   1      44.286  34.084  27.400  1.00  0.00    -0.205 F 
ATOM     89  C   UNL A   1      46.672  35.474  29.803  1.00  0.00     0.022 A 
BRANCH  87  90
ATOM     90  S   UNL A   1      45.977  36.660  27.432  1.00  0.00     0.127 S 
ATOM     91  O   UNL A   1      44.608  37.171  27.426  1.00  0.00    -0.237 OA
ATOM     92  O   UNL A   1      46.964  37.564  28.024  1.00  0.00    -0.237 OA
ATOM     93  O   UNL A   1      46.411  36.021  26.196  1.00  0.00    -0.744 OA
ENDBRANCH  87  90
ENDBRANCH  60  83
ENDBRANCH  34  35
ENDBRANCH  27  29
ENDBRANCH  26  27
ENDBRANCH  25  26
ENDBRANCH   1  25
TORSDOF 19
ENDMDL
MODEL 3
REMARK VINA RESULT:     -11.7      5.478     10.614
REMARK SMILES O=C(CO/N=C\c1ccccc1)Nc1ccccc1C(=O)OCCOC(=O)c1ccc(-c2c3nc(c(-c4cccc(S(=O)(=O)[O-])c4F)c4ccc([nH]4)c(-c4cccc(S(=O)(=O)[O-])c4F)c4nc(c(-c5cccc(S(=O)(=O)[O-])c5F)c5ccc2[nH]5)C=C4)C=C3)cc1
REMARK SMILES IDX 23 1 22 2 20 3 21 4 19 5 14 6 15 7 16 8 18 9 17 10 13 11
REMARK SMILES IDX 1 12 2 13 3 15 4 16 5 17 6 18 7 19 8 20 12 21 9 22 11 23
REMARK SMILES IDX 10 24 24 25 25 26 26 27 27 28 28 29 29 30 90 31 30 32 89 33
REMARK SMILES IDX 31 34 32 35 33 36 83 37 34 38 88 39 82 40 84 41 35 42 87 43
REMARK SMILES IDX 81 44 80 45 36 47 68 48 48 49 67 50 49 51 52 52 66 53 85 54
REMARK SMILES IDX 50 55 51 56 65 58 86 59 53 60 37 61 38 62 46 63 39 64 41 65
REMARK SMILES IDX 47 66 40 67 42 68 43 69 44 70 45 71 69 72 70 73 78 74 71 75
REMARK SMILES IDX 73 76 79 77 72 78 74 79 75 80 76 81 77 82 54 83 55 84 63 85
REMARK SMILES IDX 56 86 58 87 64 88 57 89 59 90 60 91 61 92 62 93
REMARK H PARENT 13 14 84 46 52 57
REMARK Flexibility Score: inf
ROOT
ATOM      1  C   UNL A   1      35.286  23.007  25.944  1.00  0.00     0.275 C 
ENDROOT
BRANCH   1   2
ATOM      2  O   UNL A   1      35.306  24.092  24.995  1.00  0.00    -0.458 OA
BRANCH   2   3
ATOM      3  C   UNL A   1      34.314  25.023  25.128  1.00  0.00     0.340 C 
ATOM      4  O   UNL A   1      34.056  25.663  26.121  1.00  0.00    -0.246 OA
BRANCH   3   5
ATOM      5  C   UNL A   1      33.660  25.261  23.808  1.00  0.00     0.083 A 
ATOM      6  C   UNL A   1      33.102  24.253  23.000  1.00  0.00     0.055 A 
ATOM      7  C   UNL A   1      32.731  24.574  21.682  1.00  0.00     0.027 A 
ATOM      8  C   UNL A   1      32.833  25.884  21.203  1.00  0.00     0.002 A 
ATOM      9  C   UNL A   1      33.704  26.584  23.332  1.00  0.00     0.018 A 
ATOM     10  C   UNL A   1      33.302  26.894  22.035  1.00  0.00     0.001 A 
BRANCH   6  11
ATOM     11  N   UNL A   1      32.866  22.920  23.404  1.00  0.00    -0.322 N 
ATOM     12  O   UNL A   1      30.899  23.186  24.616  1.00  0.00    -0.271 OA
ATOM     13  C   UNL A   1      31.872  22.514  24.282  1.00  0.00     0.265 C 
ATOM     14  H   UNL A   1      33.455  22.223  23.033  1.00  0.00     0.170 HD
BRANCH  13  15
ATOM     15  C   UNL A   1      32.122  21.132  24.861  1.00  0.00     0.363 C 
BRANCH  15  16
ATOM     16  O   UNL A   1      32.934  20.336  24.016  1.00  0.00    -0.386 OA
BRANCH  16  17
ATOM     17  N   UNL A   1      32.154  19.887  22.941  1.00  0.00    -0.094 NA
ATOM     18  C   UNL A   1      32.218  18.601  22.788  1.00  0.00     0.162 C 
BRANCH  18  19
ATOM     19  C   UNL A   1      32.890  17.629  23.663  1.00  0.00    -0.004 A 
ATOM     20  C   UNL A   1      32.270  17.280  24.863  1.00  0.00     0.010 A 
ATOM     21  C   UNL A   1      34.142  17.108  23.327  1.00  0.00     0.010 A 
ATOM     22  C   UNL A   1      32.898  16.374  25.718  1.00  0.00     0.001 A 
ATOM     23  C   UNL A   1      34.767  16.207  24.186  1.00  0.00     0.001 A 
ATOM     24  C   UNL A   1      34.144  15.840  25.379  1.00  0.00     0.000 A 
ENDBRANCH  18  19
ENDBRANCH  16  17
ENDBRANCH  15  16
ENDBRANCH  13  15
ENDBRANCH   6  11
ENDBRANCH   3   5
ENDBRANCH   2   3
ENDBRANCH   1   2
BRANCH   1  25
ATOM     25  C   UNL A   1      36.064  21.802  25.421  1.00  0.00     0.275 C 
BRANCH  25  26
ATOM     26  O   UNL A   1      37.376  22.214  25.019  1.00  0.00    -0.458 OA
BRANCH  26  27
ATOM     27  C   UNL A   1      38.386  21.699  25.753  1.00  0.00     0.338 C 
ATOM     28  O   UNL A   1      38.762  20.540  25.805  1.00  0.00    -0.246 OA
BRANCH  27  29
ATOM     29  C   UNL A   1      39.081  22.805  26.413  1.00  0.00     0.060 A 
ATOM     30  C   UNL A   1      38.663  24.101  26.118  1.00  0.00     0.016 A 
ATOM     31  C   UNL A   1      40.186  22.582  27.227  1.00  0.00     0.016 A 
ATOM     32  C   UNL A   1      39.383  25.195  26.577  1.00  0.00     0.010 A 
ATOM     33  C   UNL A   1      40.881  23.682  27.733  1.00  0.00     0.010 A 
ATOM     34  C   UNL A   1      40.507  24.996  27.383  1.00  0.00    -0.014 A 
BRANCH  34  35
ATOM     35  C   UNL A   1      41.357  26.142  27.786  1.00  0.00     0.031 A 
ATOM     36  C   UNL A   1      40.765  27.211  28.661  1.00  0.00     0.074 A 
ATOM     37  C   UNL A   1      42.632  26.240  27.363  1.00  0.00     0.049 A 
ATOM     38  N   UNL A   1      41.215  28.407  28.928  1.00  0.00    -0.248 NA
ATOM     39  C   UNL A   1      39.477  26.895  29.305  1.00  0.00     0.031 C 
ATOM     40  C   UNL A   1      43.337  25.242  26.556  1.00  0.00     0.029 A 
ATOM     41  N   UNL A   1      43.553  27.242  27.533  1.00  0.00    -0.354 N 
ATOM     42  C   UNL A   1      40.228  29.019  29.691  1.00  0.00     0.074 A 
ATOM     43  C   UNL A   1      39.165  28.054  29.868  1.00  0.00     0.031 C 
ATOM     44  C   UNL A   1      44.576  25.687  26.293  1.00  0.00     0.029 A 
ATOM     45  C   UNL A   1      44.727  27.028  26.847  1.00  0.00     0.049 A 
ATOM     46  H   UNL A   1      43.391  28.037  28.091  1.00  0.00     0.167 HD
ATOM     47  C   UNL A   1      40.215  30.273  30.199  1.00  0.00     0.034 A 
ATOM     48  C   UNL A   1      45.782  27.841  26.646  1.00  0.00     0.034 A 
ATOM     49  C   UNL A   1      41.317  31.188  30.085  1.00  0.00     0.049 A 
ATOM     50  C   UNL A   1      45.755  29.223  27.241  1.00  0.00     0.074 A 
ATOM     51  C   UNL A   1      41.423  32.475  30.582  1.00  0.00     0.029 A 
ATOM     52  N   UNL A   1      42.515  30.903  29.447  1.00  0.00    -0.354 N 
ATOM     53  N   UNL A   1      44.822  29.788  27.970  1.00  0.00    -0.248 NA
ATOM     54  C   UNL A   1      46.925  30.077  26.996  1.00  0.00     0.031 C 
ATOM     55  C   UNL A   1      42.688  32.968  30.243  1.00  0.00     0.029 A 
ATOM     56  C   UNL A   1      43.373  31.983  29.549  1.00  0.00     0.049 A 
ATOM     57  H   UNL A   1      42.724  30.057  28.989  1.00  0.00     0.167 HD
ATOM     58  C   UNL A   1      45.305  31.049  28.298  1.00  0.00     0.074 A 
ATOM     59  C   UNL A   1      46.621  31.159  27.703  1.00  0.00     0.031 C 
ATOM     60  C   UNL A   1      44.707  32.036  29.009  1.00  0.00     0.034 A 
BRANCH  47  61
ATOM     61  C   UNL A   1      38.984  30.722  30.937  1.00  0.00     0.023 A 
ATOM     62  C   UNL A   1      38.893  30.534  32.331  1.00  0.00     0.012 A 
ATOM     63  C   UNL A   1      37.936  31.376  30.258  1.00  0.00     0.148 A 
ATOM     64  C   UNL A   1      37.768  30.965  33.033  1.00  0.00     0.002 A 
ATOM     65  C   UNL A   1      36.836  31.839  30.970  1.00  0.00     0.091 A 
ATOM     66  F   UNL A   1      38.028  31.522  28.929  1.00  0.00    -0.205 F 
ATOM     67  C   UNL A   1      36.745  31.626  32.355  1.00  0.00     0.022 A 
BRANCH  65  68
ATOM     68  S   UNL A   1      35.506  32.768  30.198  1.00  0.00     0.127 S 
ATOM     69  O   UNL A   1      36.130  34.076  30.009  1.00  0.00    -0.237 OA
ATOM     70  O   UNL A   1      35.280  32.016  28.963  1.00  0.00    -0.237 OA
ATOM     71  O   UNL A   1      34.395  32.732  31.138  1.00  0.00    -0.744 OA
ENDBRANCH  65  68
ENDBRANCH  47  61
BRANCH  48  72
ATOM     72  C   UNL A   1      46.953  27.361  25.858  1.00  0.00     0.023 A 
ATOM     73  C   UNL A   1      47.854  26.453  26.446  1.00  0.00     0.012 A 
ATOM     74  C   UNL A   1      47.155  27.759  24.522  1.00  0.00     0.148 A 
ATOM     75  C   UNL A   1      48.946  25.965  25.726  1.00  0.00     0.002 A 
ATOM     76  C   UNL A   1      48.211  27.225  23.791  1.00  0.00     0.091 A 
ATOM     77  F   UNL A   1      46.305  28.644  23.985  1.00  0.00    -0.205 F 
ATOM     78  C   UNL A   1      49.117  26.339  24.395  1.00  0.00     0.022 A 
BRANCH  76  79
ATOM     79  S   UNL A   1      48.417  27.550  22.036  1.00  0.00     0.127 S 
ATOM     80  O   UNL A   1      47.149  28.191  21.699  1.00  0.00    -0.237 OA
ATOM     81  O   UNL A   1      49.579  28.439  22.020  1.00  0.00    -0.237 OA
ATOM     82  O   UNL A   1      48.656  26.247  21.429  1.00  0.00    -0.744 OA
ENDBRANCH  76  79
ENDBRANCH  48  72
BRANCH  60  83
ATOM     83  C   UNL A   1      45.485  33.303  29.234  1.00  0.00     0.023 A 
ATOM     84  C   UNL A   1      46.350  33.403  30.339  1.00  0.00     0.012 A 
ATOM     85  C   UNL A   1      45.432  34.350  28.293  1.00  0.00     0.148 A 
ATOM     86  C   UNL A   1      47.140  34.538  30.517  1.00  0.00     0.002 A 
ATOM     87  C   UNL A   1      46.252  35.460  28.454  1.00  0.00     0.091 A 
ATOM     88  F   UNL A   1      44.585  34.239  27.260  1.00  0.00    -0.205 F 
ATOM     89  C   UNL A   1      47.100  35.558  29.569  1.00  0.00     0.022 A 
BRANCH  87  90
ATOM     90  S   UNL A   1      46.333  36.776  27.236  1.00  0.00     0.127 S 
ATOM     91  O   UNL A   1      46.504  36.024  25.994  1.00  0.00    -0.237 OA
ATOM     92  O   UNL A   1      45.028  37.421  27.385  1.00  0.00    -0.237 OA
ATOM     93  O   UNL A   1      47.464  37.610  27.622  1.00  0.00    -0.744 OA
ENDBRANCH  87  90
ENDBRANCH  60  83
ENDBRANCH  34  35
ENDBRANCH  27  29
ENDBRANCH  26  27
ENDBRANCH  25  26
ENDBRANCH   1  25
TORSDOF 19
ENDMDL
