MODEL 1
REMARK VINA RESULT:     -12.6      0.000      0.000
REMARK SMILES COc1cc2c(cc1OC)[C@H](C(=O)OCCOC(=O)c1ccc(-c3c4nc(c(-c5cccc(S(=O)(=O)[O-])c5F)c5ccc([nH]5)c(-c5cccc(S(=O)(=O)[O-])c5F)c5nc(c(-c6cccc(S(=O)(=O)[O-])c6F)c6ccc3[nH]6)C=C5)C=C4)cc1)[C@H](c1cccc(Cl)c1)N(C)C2=O
REMARK SMILES IDX 16 1 15 2 14 3 12 4 13 5 11 6 3 7 4 8 8 9 5 10 7 11 6 12
REMARK SMILES IDX 93 13 91 14 94 15 83 16 92 17 2 18 1 19 9 20 10 21 84 22
REMARK SMILES IDX 85 23 90 24 86 25 88 26 87 27 89 28 17 29 18 30 19 31 20 32
REMARK SMILES IDX 21 33 82 34 22 35 81 36 23 37 24 38 25 39 75 40 26 41 80 42
REMARK SMILES IDX 74 43 76 44 27 45 79 46 73 47 72 48 28 50 60 51 40 52 59 53
REMARK SMILES IDX 41 54 44 55 58 56 77 57 42 58 43 59 57 61 78 62 45 63 29 64
REMARK SMILES IDX 30 65 38 66 31 67 33 68 39 69 32 70 34 71 35 72 36 73 37 74
REMARK SMILES IDX 61 75 62 76 70 77 63 78 65 79 71 80 64 81 66 82 67 83 68 84
REMARK SMILES IDX 69 85 46 86 47 87 55 88 48 89 50 90 56 91 49 92 51 93 52 94
REMARK SMILES IDX 53 95 54 96
REMARK H PARENT 76 49 44 60
REMARK Flexibility Score: inf
ROOT
ATOM      1  C   UNL A   1      37.451  21.020  25.026  1.00  0.00     0.275 C 
ENDROOT
BRANCH   1   2
ATOM      2  C   UNL A   1      37.300  22.091  23.947  1.00  0.00     0.274 C 
BRANCH   2   3
ATOM      3  O   UNL A   1      36.596  23.230  24.487  1.00  0.00    -0.462 OA
BRANCH   3   4
ATOM      4  C   UNL A   1      35.432  23.541  23.872  1.00  0.00     0.316 C 
ATOM      5  O   UNL A   1      35.322  23.680  22.656  1.00  0.00    -0.251 OA
BRANCH   4   6
ATOM      6  C   UNL A   1      34.249  23.769  24.780  1.00  0.00     0.157 C 
ATOM      7  C   UNL A   1      30.463  25.635  23.730  1.00  0.00     0.161 A 
ATOM      8  C   UNL A   1      30.662  25.005  24.961  1.00  0.00     0.064 A 
ATOM      9  C   UNL A   1      31.497  25.643  22.787  1.00  0.00     0.161 A 
ATOM     10  C   UNL A   1      31.889  24.397  25.256  1.00  0.00     0.048 A 
ATOM     11  C   UNL A   1      32.732  25.049  23.100  1.00  0.00     0.056 A 
ATOM     12  C   UNL A   1      32.947  24.406  24.325  1.00  0.00    -0.015 A 
ATOM     13  C   UNL A   1      32.039  23.712  26.579  1.00  0.00     0.254 C 
ATOM     14  N   UNL A   1      33.094  22.811  26.707  1.00  0.00    -0.333 N 
ATOM     15  O   UNL A   1      31.230  23.934  27.474  1.00  0.00    -0.269 OA
ATOM     16  C   UNL A   1      33.953  22.466  25.561  1.00  0.00     0.134 C 
ATOM     17  C   UNL A   1      33.301  22.122  27.969  1.00  0.00     0.147 C 
BRANCH   7  18
ATOM     18  O   UNL A   1      29.234  26.148  23.408  1.00  0.00    -0.493 OA
ATOM     19  C   UNL A   1      29.202  27.576  23.427  1.00  0.00     0.278 C 
ENDBRANCH   7  18
BRANCH   9  20
ATOM     20  O   UNL A   1      31.450  26.147  21.513  1.00  0.00    -0.493 OA
ATOM     21  C   UNL A   1      32.430  25.673  20.601  1.00  0.00     0.278 C 
ENDBRANCH   9  20
BRANCH  16  22
ATOM     22  C   UNL A   1      33.390  21.349  24.674  1.00  0.00    -0.023 A 
ATOM     23  C   UNL A   1      32.765  21.685  23.457  1.00  0.00     0.006 A 
ATOM     24  C   UNL A   1      33.399  19.996  25.051  1.00  0.00     0.026 A 
ATOM     25  C   UNL A   1      32.091  20.725  22.698  1.00  0.00     0.002 A 
ATOM     26  C   UNL A   1      32.740  19.036  24.281  1.00  0.00     0.041 A 
ATOM     27  C   UNL A   1      32.068  19.399  23.119  1.00  0.00     0.020 A 
ATOM     28  Cl  UNL A   1      32.741  17.390  24.786  1.00  0.00    -0.084 Cl
ENDBRANCH  16  22
ENDBRANCH   4   6
ENDBRANCH   3   4
ENDBRANCH   2   3
ENDBRANCH   1   2
BRANCH   1  29
ATOM     29  O   UNL A   1      38.057  21.604  26.194  1.00  0.00    -0.458 OA
BRANCH  29  30
ATOM     30  C   UNL A   1      39.392  21.427  26.317  1.00  0.00     0.338 C 
ATOM     31  O   UNL A   1      40.024  20.414  26.046  1.00  0.00    -0.246 OA
BRANCH  30  32
ATOM     32  C   UNL A   1      40.026  22.653  26.837  1.00  0.00     0.060 A 
ATOM     33  C   UNL A   1      41.012  22.602  27.828  1.00  0.00     0.016 A 
ATOM     34  C   UNL A   1      39.582  23.887  26.363  1.00  0.00     0.016 A 
ATOM     35  C   UNL A   1      41.513  23.779  28.385  1.00  0.00     0.010 A 
ATOM     36  C   UNL A   1      40.154  25.062  26.851  1.00  0.00     0.010 A 
ATOM     37  C   UNL A   1      41.115  25.022  27.876  1.00  0.00    -0.014 A 
BRANCH  37  38
ATOM     38  C   UNL A   1      41.740  26.286  28.342  1.00  0.00     0.031 A 
ATOM     39  C   UNL A   1      40.906  27.343  29.013  1.00  0.00     0.074 A 
ATOM     40  C   UNL A   1      43.035  26.525  28.055  1.00  0.00     0.049 A 
ATOM     41  N   UNL A   1      41.202  28.591  29.265  1.00  0.00    -0.248 NA
ATOM     42  C   UNL A   1      39.552  26.948  29.437  1.00  0.00     0.031 C 
ATOM     43  C   UNL A   1      43.942  25.584  27.391  1.00  0.00     0.029 A 
ATOM     44  N   UNL A   1      43.803  27.648  28.239  1.00  0.00    -0.354 N 
ATOM     45  C   UNL A   1      40.054  29.151  29.813  1.00  0.00     0.074 A 
ATOM     46  C   UNL A   1      39.058  28.101  29.871  1.00  0.00     0.031 C 
ATOM     47  C   UNL A   1      45.132  26.171  27.209  1.00  0.00     0.029 A 
ATOM     48  C   UNL A   1      45.054  27.550  27.675  1.00  0.00     0.049 A 
ATOM     49  H   UNL A   1      43.489  28.445  28.725  1.00  0.00     0.167 HD
ATOM     50  C   UNL A   1      39.855  30.423  30.234  1.00  0.00     0.034 A 
ATOM     51  C   UNL A   1      46.017  28.476  27.503  1.00  0.00     0.034 A 
ATOM     52  C   UNL A   1      40.872  31.441  30.225  1.00  0.00     0.049 A 
ATOM     53  C   UNL A   1      45.776  29.872  27.994  1.00  0.00     0.074 A 
ATOM     54  C   UNL A   1      40.792  32.740  30.696  1.00  0.00     0.029 A 
ATOM     55  N   UNL A   1      42.153  31.276  29.722  1.00  0.00    -0.354 N 
ATOM     56  N   UNL A   1      44.717  30.363  28.590  1.00  0.00    -0.248 NA
ATOM     57  C   UNL A   1      46.866  30.840  27.808  1.00  0.00     0.031 C 
ATOM     58  C   UNL A   1      42.025  33.363  30.468  1.00  0.00     0.029 A 
ATOM     59  C   UNL A   1      42.874  32.449  29.865  1.00  0.00     0.049 A 
ATOM     60  H   UNL A   1      42.500  30.446  29.322  1.00  0.00     0.167 HD
ATOM     61  C   UNL A   1      45.015  31.692  28.864  1.00  0.00     0.074 A 
ATOM     62  C   UNL A   1      46.367  31.920  28.395  1.00  0.00     0.031 C 
ATOM     63  C   UNL A   1      44.234  32.643  29.431  1.00  0.00     0.034 A 
BRANCH  50  64
ATOM     64  C   UNL A   1      38.497  30.781  30.777  1.00  0.00     0.023 A 
ATOM     65  C   UNL A   1      38.187  30.494  32.121  1.00  0.00     0.012 A 
ATOM     66  C   UNL A   1      37.556  31.466  29.982  1.00  0.00     0.148 A 
ATOM     67  C   UNL A   1      36.953  30.862  32.659  1.00  0.00     0.002 A 
ATOM     68  C   UNL A   1      36.342  31.861  30.536  1.00  0.00     0.091 A 
ATOM     69  F   UNL A   1      37.858  31.709  28.698  1.00  0.00    -0.205 F 
ATOM     70  C   UNL A   1      36.037  31.554  31.871  1.00  0.00     0.022 A 
BRANCH  68  71
ATOM     71  S   UNL A   1      35.128  32.817  29.618  1.00  0.00     0.127 S 
ATOM     72  O   UNL A   1      35.919  33.972  29.196  1.00  0.00    -0.237 OA
ATOM     73  O   UNL A   1      34.763  31.900  28.536  1.00  0.00    -0.237 OA
ATOM     74  O   UNL A   1      34.052  33.101  30.557  1.00  0.00    -0.744 OA
ENDBRANCH  68  71
ENDBRANCH  50  64
BRANCH  51  75
ATOM     75  C   UNL A   1      47.300  28.086  26.852  1.00  0.00     0.023 A 
ATOM     76  C   UNL A   1      48.384  27.685  27.654  1.00  0.00     0.012 A 
ATOM     77  C   UNL A   1      47.425  28.030  25.449  1.00  0.00     0.148 A 
ATOM     78  C   UNL A   1      49.573  27.244  27.072  1.00  0.00     0.002 A 
ATOM     79  C   UNL A   1      48.590  27.533  24.877  1.00  0.00     0.091 A 
ATOM     80  F   UNL A   1      46.390  28.437  24.699  1.00  0.00    -0.205 F 
ATOM     81  C   UNL A   1      49.671  27.152  25.687  1.00  0.00     0.022 A 
BRANCH  79  82
ATOM     82  S   UNL A   1      48.729  27.233  23.110  1.00  0.00     0.127 S 
ATOM     83  O   UNL A   1      50.171  27.318  22.902  1.00  0.00    -0.237 OA
ATOM     84  O   UNL A   1      48.165  25.888  22.979  1.00  0.00    -0.237 OA
ATOM     85  O   UNL A   1      47.927  28.275  22.481  1.00  0.00    -0.744 OA
ENDBRANCH  79  82
ENDBRANCH  51  75
BRANCH  63  86
ATOM     86  C   UNL A   1      44.827  34.017  29.583  1.00  0.00     0.023 A 
ATOM     87  C   UNL A   1      45.504  34.349  30.773  1.00  0.00     0.012 A 
ATOM     88  C   UNL A   1      44.766  34.953  28.533  1.00  0.00     0.148 A 
ATOM     89  C   UNL A   1      46.088  35.605  30.926  1.00  0.00     0.002 A 
ATOM     90  C   UNL A   1      45.386  36.188  28.678  1.00  0.00     0.091 A 
ATOM     91  F   UNL A   1      44.096  34.624  27.419  1.00  0.00    -0.205 F 
ATOM     92  C   UNL A   1      46.040  36.519  29.876  1.00  0.00     0.022 A 
BRANCH  90  93
ATOM     93  S   UNL A   1      45.439  37.391  27.345  1.00  0.00     0.127 S 
ATOM     94  O   UNL A   1      46.187  38.486  27.961  1.00  0.00    -0.237 OA
ATOM     95  O   UNL A   1      46.164  36.670  26.299  1.00  0.00    -0.237 OA
ATOM     96  O   UNL A   1      44.049  37.683  27.019  1.00  0.00    -0.744 OA
ENDBRANCH  90  93
ENDBRANCH  63  86
ENDBRANCH  37  38
ENDBRANCH  30  32
ENDBRANCH  29  30
ENDBRANCH   1  29
TORSDOF 17
ENDMDL
MODEL 2
REMARK VINA RESULT:     -12.5      5.280     10.237
REMARK SMILES COc1cc2c(cc1OC)[C@H](C(=O)OCCOC(=O)c1ccc(-c3c4nc(c(-c5cccc(S(=O)(=O)[O-])c5F)c5ccc([nH]5)c(-c5cccc(S(=O)(=O)[O-])c5F)c5nc(c(-c6cccc(S(=O)(=O)[O-])c6F)c6ccc3[nH]6)C=C5)C=C4)cc1)[C@H](c1cccc(Cl)c1)N(C)C2=O
REMARK SMILES IDX 16 1 15 2 14 3 12 4 13 5 11 6 3 7 4 8 8 9 5 10 7 11 6 12
REMARK SMILES IDX 93 13 91 14 94 15 83 16 92 17 2 18 1 19 9 20 10 21 84 22
REMARK SMILES IDX 85 23 90 24 86 25 88 26 87 27 89 28 17 29 18 30 19 31 20 32
REMARK SMILES IDX 21 33 82 34 22 35 81 36 23 37 24 38 25 39 75 40 26 41 80 42
REMARK SMILES IDX 74 43 76 44 27 45 79 46 73 47 72 48 28 50 60 51 40 52 59 53
REMARK SMILES IDX 41 54 44 55 58 56 77 57 42 58 43 59 57 61 78 62 45 63 29 64
REMARK SMILES IDX 30 65 38 66 31 67 33 68 39 69 32 70 34 71 35 72 36 73 37 74
REMARK SMILES IDX 61 75 62 76 70 77 63 78 65 79 71 80 64 81 66 82 67 83 68 84
REMARK SMILES IDX 69 85 46 86 47 87 55 88 48 89 50 90 56 91 49 92 51 93 52 94
REMARK SMILES IDX 53 95 54 96
REMARK H PARENT 76 49 44 60
REMARK Flexibility Score: inf
ROOT
ATOM      1  C   UNL A   1      32.108  31.613  26.849  1.00  0.00     0.275 C 
ENDROOT
BRANCH   1   2
ATOM      2  C   UNL A   1      31.597  30.278  26.313  1.00  0.00     0.274 C 
BRANCH   2   3
ATOM      3  O   UNL A   1      32.624  29.273  26.447  1.00  0.00    -0.462 OA
BRANCH   3   4
ATOM      4  C   UNL A   1      32.182  28.004  26.610  1.00  0.00     0.316 C 
ATOM      5  O   UNL A   1      31.528  27.633  27.582  1.00  0.00    -0.251 OA
BRANCH   4   6
ATOM      6  C   UNL A   1      32.586  27.025  25.537  1.00  0.00     0.157 C 
ATOM      7  C   UNL A   1      31.630  22.785  25.368  1.00  0.00     0.161 A 
ATOM      8  C   UNL A   1      32.236  23.450  24.299  1.00  0.00     0.064 A 
ATOM      9  C   UNL A   1      31.289  23.503  26.520  1.00  0.00     0.161 A 
ATOM     10  C   UNL A   1      32.511  24.822  24.382  1.00  0.00     0.048 A 
ATOM     11  C   UNL A   1      31.588  24.873  26.603  1.00  0.00     0.056 A 
ATOM     12  C   UNL A   1      32.186  25.560  25.539  1.00  0.00    -0.015 A 
ATOM     13  C   UNL A   1      33.135  25.491  23.197  1.00  0.00     0.254 C 
ATOM     14  N   UNL A   1      33.057  26.881  23.144  1.00  0.00    -0.333 N 
ATOM     15  O   UNL A   1      33.652  24.811  22.317  1.00  0.00    -0.269 OA
ATOM     16  C   UNL A   1      32.299  27.647  24.150  1.00  0.00     0.134 C 
ATOM     17  C   UNL A   1      33.653  27.592  22.026  1.00  0.00     0.147 C 
BRANCH   7  18
ATOM     18  O   UNL A   1      31.280  21.465  25.249  1.00  0.00    -0.493 OA
ATOM     19  C   UNL A   1      32.401  20.608  25.030  1.00  0.00     0.278 C 
ENDBRANCH   7  18
BRANCH   9  20
ATOM     20  O   UNL A   1      30.629  23.028  27.624  1.00  0.00    -0.493 OA
ATOM     21  C   UNL A   1      29.260  22.691  27.455  1.00  0.00     0.278 C 
ENDBRANCH   9  20
BRANCH  16  22
ATOM     22  C   UNL A   1      30.801  27.766  23.844  1.00  0.00    -0.023 A 
ATOM     23  C   UNL A   1      29.934  26.727  24.232  1.00  0.00     0.006 A 
ATOM     24  C   UNL A   1      30.252  28.838  23.120  1.00  0.00     0.026 A 
ATOM     25  C   UNL A   1      28.596  26.710  23.830  1.00  0.00     0.002 A 
ATOM     26  C   UNL A   1      28.910  28.827  22.736  1.00  0.00     0.041 A 
ATOM     27  C   UNL A   1      28.086  27.757  23.069  1.00  0.00     0.020 A 
ATOM     28  Cl  UNL A   1      28.273  30.140  21.823  1.00  0.00    -0.084 Cl
ENDBRANCH  16  22
ENDBRANCH   4   6
ENDBRANCH   3   4
ENDBRANCH   2   3
ENDBRANCH   1   2
BRANCH   1  29
ATOM     29  O   UNL A   1      33.292  31.389  27.634  1.00  0.00    -0.458 OA
BRANCH  29  30
ATOM     30  C   UNL A   1      34.134  32.441  27.749  1.00  0.00     0.338 C 
ATOM     31  O   UNL A   1      33.907  33.598  27.420  1.00  0.00    -0.246 OA
BRANCH  30  32
ATOM     32  C   UNL A   1      35.413  32.013  28.347  1.00  0.00     0.060 A 
ATOM     33  C   UNL A   1      36.539  32.842  28.334  1.00  0.00     0.016 A 
ATOM     34  C   UNL A   1      35.503  30.729  28.881  1.00  0.00     0.016 A 
ATOM     35  C   UNL A   1      37.766  32.371  28.801  1.00  0.00     0.010 A 
ATOM     36  C   UNL A   1      36.706  30.293  29.437  1.00  0.00     0.010 A 
ATOM     37  C   UNL A   1      37.853  31.103  29.391  1.00  0.00    -0.014 A 
BRANCH  37  38
ATOM     38  C   UNL A   1      39.108  30.633  30.033  1.00  0.00     0.031 A 
ATOM     39  C   UNL A   1      39.949  29.577  29.370  1.00  0.00     0.074 A 
ATOM     40  C   UNL A   1      39.422  31.076  31.266  1.00  0.00     0.049 A 
ATOM     41  N   UNL A   1      40.925  28.866  29.870  1.00  0.00    -0.248 NA
ATOM     42  C   UNL A   1      39.635  29.264  27.966  1.00  0.00     0.031 C 
ATOM     43  C   UNL A   1      38.673  32.086  32.019  1.00  0.00     0.029 A 
ATOM     44  N   UNL A   1      40.425  30.701  32.126  1.00  0.00    -0.354 N 
ATOM     45  C   UNL A   1      41.299  27.977  28.870  1.00  0.00     0.074 A 
ATOM     46  C   UNL A   1      40.453  28.247  27.726  1.00  0.00     0.031 C 
ATOM     47  C   UNL A   1      39.229  32.238  33.229  1.00  0.00     0.029 A 
ATOM     48  C   UNL A   1      40.326  31.289  33.366  1.00  0.00     0.049 A 
ATOM     49  H   UNL A   1      41.143  30.073  31.880  1.00  0.00     0.167 HD
ATOM     50  C   UNL A   1      42.265  27.027  28.903  1.00  0.00     0.034 A 
ATOM     51  C   UNL A   1      41.006  31.058  34.506  1.00  0.00     0.034 A 
ATOM     52  C   UNL A   1      43.139  26.809  30.026  1.00  0.00     0.049 A 
ATOM     53  C   UNL A   1      42.082  30.013  34.510  1.00  0.00     0.074 A 
ATOM     54  C   UNL A   1      44.196  25.921  30.133  1.00  0.00     0.029 A 
ATOM     55  N   UNL A   1      43.060  27.484  31.234  1.00  0.00    -0.354 N 
ATOM     56  N   UNL A   1      42.482  29.241  33.529  1.00  0.00    -0.248 NA
ATOM     57  C   UNL A   1      42.813  29.816  35.769  1.00  0.00     0.031 C 
ATOM     58  C   UNL A   1      44.749  26.055  31.412  1.00  0.00     0.029 A 
ATOM     59  C   UNL A   1      44.043  27.031  32.096  1.00  0.00     0.049 A 
ATOM     60  H   UNL A   1      42.401  28.183  31.447  1.00  0.00     0.167 HD
ATOM     61  C   UNL A   1      43.521  28.477  34.045  1.00  0.00     0.074 A 
ATOM     62  C   UNL A   1      43.707  28.901  35.418  1.00  0.00     0.031 C 
ATOM     63  C   UNL A   1      44.240  27.498  33.445  1.00  0.00     0.034 A 
BRANCH  50  64
ATOM     64  C   UNL A   1      42.458  26.174  27.678  1.00  0.00     0.023 A 
ATOM     65  C   UNL A   1      43.181  26.684  26.581  1.00  0.00     0.012 A 
ATOM     66  C   UNL A   1      41.990  24.845  27.638  1.00  0.00     0.148 A 
ATOM     67  C   UNL A   1      43.415  25.894  25.455  1.00  0.00     0.002 A 
ATOM     68  C   UNL A   1      42.258  24.052  26.527  1.00  0.00     0.091 A 
ATOM     69  F   UNL A   1      41.282  24.384  28.680  1.00  0.00    -0.205 F 
ATOM     70  C   UNL A   1      42.964  24.577  25.433  1.00  0.00     0.022 A 
BRANCH  68  71
ATOM     71  S   UNL A   1      41.775  22.323  26.436  1.00  0.00     0.127 S 
ATOM     72  O   UNL A   1      40.329  22.430  26.253  1.00  0.00    -0.237 OA
ATOM     73  O   UNL A   1      42.506  21.857  25.256  1.00  0.00    -0.237 OA
ATOM     74  O   UNL A   1      42.208  21.722  27.690  1.00  0.00    -0.744 OA
ENDBRANCH  68  71
ENDBRANCH  50  64
BRANCH  51  75
ATOM     75  C   UNL A   1      40.688  31.858  35.722  1.00  0.00     0.023 A 
ATOM     76  C   UNL A   1      41.580  32.865  36.135  1.00  0.00     0.012 A 
ATOM     77  C   UNL A   1      39.476  31.686  36.420  1.00  0.00     0.148 A 
ATOM     78  C   UNL A   1      41.276  33.680  37.226  1.00  0.00     0.002 A 
ATOM     79  C   UNL A   1      39.152  32.541  37.468  1.00  0.00     0.091 A 
ATOM     80  F   UNL A   1      38.647  30.707  36.028  1.00  0.00    -0.205 F 
ATOM     81  C   UNL A   1      40.057  33.530  37.881  1.00  0.00     0.022 A 
BRANCH  79  82
ATOM     82  S   UNL A   1      37.535  32.513  38.251  1.00  0.00     0.127 S 
ATOM     83  O   UNL A   1      37.755  33.349  39.427  1.00  0.00    -0.237 OA
ATOM     84  O   UNL A   1      36.681  33.108  37.222  1.00  0.00    -0.237 OA
ATOM     85  O   UNL A   1      37.258  31.105  38.509  1.00  0.00    -0.744 OA
ENDBRANCH  79  82
ENDBRANCH  51  75
BRANCH  63  86
ATOM     86  C   UNL A   1      45.302  26.823  34.269  1.00  0.00     0.023 A 
ATOM     87  C   UNL A   1      46.615  27.333  34.255  1.00  0.00     0.012 A 
ATOM     88  C   UNL A   1      44.990  25.729  35.099  1.00  0.00     0.148 A 
ATOM     89  C   UNL A   1      47.610  26.744  35.034  1.00  0.00     0.002 A 
ATOM     90  C   UNL A   1      45.978  25.174  35.903  1.00  0.00     0.091 A 
ATOM     91  F   UNL A   1      43.739  25.247  35.079  1.00  0.00    -0.205 F 
ATOM     92  C   UNL A   1      47.290  25.674  35.865  1.00  0.00     0.022 A 
BRANCH  90  93
ATOM     93  S   UNL A   1      45.630  23.846  37.062  1.00  0.00     0.127 S 
ATOM     94  O   UNL A   1      46.952  23.594  37.633  1.00  0.00    -0.237 OA
ATOM     95  O   UNL A   1      44.678  24.471  37.980  1.00  0.00    -0.237 OA
ATOM     96  O   UNL A   1      45.071  22.761  36.265  1.00  0.00    -0.744 OA
ENDBRANCH  90  93
ENDBRANCH  63  86
ENDBRANCH  37  38
ENDBRANCH  30  32
ENDBRANCH  29  30
ENDBRANCH   1  29
TORSDOF 17
ENDMDL
MODEL 3
REMARK VINA RESULT:     -12.1      5.193      9.909
REMARK SMILES COc1cc2c(cc1OC)[C@H](C(=O)OCCOC(=O)c1ccc(-c3c4nc(c(-c5cccc(S(=O)(=O)[O-])c5F)c5ccc([nH]5)c(-c5cccc(S(=O)(=O)[O-])c5F)c5nc(c(-c6cccc(S(=O)(=O)[O-])c6F)c6ccc3[nH]6)C=C5)C=C4)cc1)[C@H](c1cccc(Cl)c1)N(C)C2=O
REMARK SMILES IDX 16 1 15 2 14 3 12 4 13 5 11 6 3 7 4 8 8 9 5 10 7 11 6 12
REMARK SMILES IDX 93 13 91 14 94 15 83 16 92 17 2 18 1 19 9 20 10 21 84 22
REMARK SMILES IDX 85 23 90 24 86 25 88 26 87 27 89 28 17 29 18 30 19 31 20 32
REMARK SMILES IDX 21 33 82 34 22 35 81 36 23 37 24 38 25 39 75 40 26 41 80 42
REMARK SMILES IDX 74 43 76 44 27 45 79 46 73 47 72 48 28 50 60 51 40 52 59 53
REMARK SMILES IDX 41 54 44 55 58 56 77 57 42 58 43 59 57 61 78 62 45 63 29 64
REMARK SMILES IDX 30 65 38 66 31 67 33 68 39 69 32 70 34 71 35 72 36 73 37 74
REMARK SMILES IDX 61 75 62 76 70 77 63 78 65 79 71 80 64 81 66 82 67 83 68 84
REMARK SMILES IDX 69 85 46 86 47 87 55 88 48 89 50 90 56 91 49 92 51 93 52 94
REMARK SMILES IDX 53 95 54 96
REMARK H PARENT 76 49 44 60
REMARK Flexibility Score: inf
ROOT
ATOM      1  C   UNL A   1      32.228  29.225  26.697  1.00  0.00     0.275 C 
ENDROOT
BRANCH   1   2
ATOM      2  C   UNL A   1      32.155  28.123  25.641  1.00  0.00     0.274 C 
BRANCH   2   3
ATOM      3  O   UNL A   1      33.474  27.586  25.407  1.00  0.00    -0.462 OA
BRANCH   3   4
ATOM      4  C   UNL A   1      33.901  27.625  24.124  1.00  0.00     0.316 C 
ATOM      5  O   UNL A   1      34.331  28.642  23.582  1.00  0.00    -0.251 OA
BRANCH   4   6
ATOM      6  C   UNL A   1      33.774  26.339  23.348  1.00  0.00     0.157 C 
ATOM      7  C   UNL A   1      33.575  22.309  24.974  1.00  0.00     0.161 A 
ATOM      8  C   UNL A   1      33.353  22.573  23.620  1.00  0.00     0.064 A 
ATOM      9  C   UNL A   1      33.839  23.371  25.846  1.00  0.00     0.161 A 
ATOM     10  C   UNL A   1      33.406  23.887  23.135  1.00  0.00     0.048 A 
ATOM     11  C   UNL A   1      33.911  24.683  25.348  1.00  0.00     0.056 A 
ATOM     12  C   UNL A   1      33.683  24.968  23.997  1.00  0.00    -0.015 A 
ATOM     13  C   UNL A   1      33.132  24.117  21.681  1.00  0.00     0.254 C 
ATOM     14  N   UNL A   1      32.820  25.419  21.296  1.00  0.00    -0.333 N 
ATOM     15  O   UNL A   1      33.159  23.171  20.900  1.00  0.00    -0.269 OA
ATOM     16  C   UNL A   1      32.657  26.495  22.289  1.00  0.00     0.134 C 
ATOM     17  C   UNL A   1      32.555  25.710  19.898  1.00  0.00     0.147 C 
BRANCH   7  18
ATOM     18  O   UNL A   1      33.433  21.036  25.460  1.00  0.00    -0.493 OA
ATOM     19  C   UNL A   1      32.456  20.274  24.750  1.00  0.00     0.278 C 
ENDBRANCH   7  18
BRANCH   9  20
ATOM     20  O   UNL A   1      34.007  23.301  27.205  1.00  0.00    -0.493 OA
ATOM     21  C   UNL A   1      33.024  22.582  27.935  1.00  0.00     0.278 C 
ENDBRANCH   9  20
BRANCH  16  22
ATOM     22  C   UNL A   1      31.253  26.569  22.903  1.00  0.00    -0.023 A 
ATOM     23  C   UNL A   1      30.757  25.465  23.622  1.00  0.00     0.006 A 
ATOM     24  C   UNL A   1      30.397  27.668  22.721  1.00  0.00     0.026 A 
ATOM     25  C   UNL A   1      29.429  25.418  24.055  1.00  0.00     0.002 A 
ATOM     26  C   UNL A   1      29.076  27.625  23.170  1.00  0.00     0.041 A 
ATOM     27  C   UNL A   1      28.583  26.496  23.817  1.00  0.00     0.020 A 
ATOM     28  Cl  UNL A   1      28.040  28.974  22.904  1.00  0.00    -0.084 Cl
ENDBRANCH  16  22
ENDBRANCH   4   6
ENDBRANCH   3   4
ENDBRANCH   2   3
ENDBRANCH   1   2
BRANCH   1  29
ATOM     29  O   UNL A   1      32.917  30.363  26.151  1.00  0.00    -0.458 OA
BRANCH  29  30
ATOM     30  C   UNL A   1      33.161  31.376  27.013  1.00  0.00     0.338 C 
ATOM     31  O   UNL A   1      32.439  32.341  27.230  1.00  0.00    -0.246 OA
BRANCH  30  32
ATOM     32  C   UNL A   1      34.453  31.172  27.694  1.00  0.00     0.060 A 
ATOM     33  C   UNL A   1      35.345  32.229  27.901  1.00  0.00     0.016 A 
ATOM     34  C   UNL A   1      34.806  29.881  28.083  1.00  0.00     0.016 A 
ATOM     35  C   UNL A   1      36.608  31.990  28.442  1.00  0.00     0.010 A 
ATOM     36  C   UNL A   1      36.030  29.658  28.714  1.00  0.00     0.010 A 
ATOM     37  C   UNL A   1      36.949  30.706  28.888  1.00  0.00    -0.014 A 
BRANCH  37  38
ATOM     38  C   UNL A   1      38.225  30.449  29.606  1.00  0.00     0.031 A 
ATOM     39  C   UNL A   1      39.242  29.503  29.029  1.00  0.00     0.074 A 
ATOM     40  C   UNL A   1      38.410  30.981  30.830  1.00  0.00     0.049 A 
ATOM     41  N   UNL A   1      40.285  28.963  29.603  1.00  0.00    -0.248 NA
ATOM     42  C   UNL A   1      39.048  29.094  27.628  1.00  0.00     0.031 C 
ATOM     43  C   UNL A   1      37.486  31.898  31.502  1.00  0.00     0.029 A 
ATOM     44  N   UNL A   1      39.412  30.790  31.749  1.00  0.00    -0.354 N 
ATOM     45  C   UNL A   1      40.833  28.100  28.662  1.00  0.00     0.074 A 
ATOM     46  C   UNL A   1      40.015  28.199  27.471  1.00  0.00     0.031 C 
ATOM     47  C   UNL A   1      37.953  32.177  32.727  1.00  0.00     0.029 A 
ATOM     48  C   UNL A   1      39.167  31.405  32.956  1.00  0.00     0.049 A 
ATOM     49  H   UNL A   1      40.225  30.265  31.564  1.00  0.00     0.167 HD
ATOM     50  C   UNL A   1      41.923  27.304  28.781  1.00  0.00     0.034 A 
ATOM     51  C   UNL A   1      39.815  31.320  34.134  1.00  0.00     0.034 A 
ATOM     52  C   UNL A   1      42.761  27.259  29.949  1.00  0.00     0.049 A 
ATOM     53  C   UNL A   1      41.029  30.445  34.233  1.00  0.00     0.074 A 
ATOM     54  C   UNL A   1      43.928  26.541  30.144  1.00  0.00     0.029 A 
ATOM     55  N   UNL A   1      42.525  27.962  31.121  1.00  0.00    -0.354 N 
ATOM     56  N   UNL A   1      41.585  29.703  33.306  1.00  0.00    -0.248 NA
ATOM     57  C   UNL A   1      41.717  30.405  35.530  1.00  0.00     0.031 C 
ATOM     58  C   UNL A   1      44.392  26.803  31.439  1.00  0.00     0.029 A 
ATOM     59  C   UNL A   1      43.519  27.691  32.046  1.00  0.00     0.049 A 
ATOM     60  H   UNL A   1      41.762  28.565  31.273  1.00  0.00     0.167 HD
ATOM     61  C   UNL A   1      42.696  29.119  33.902  1.00  0.00     0.074 A 
ATOM     62  C   UNL A   1      42.751  29.619  35.261  1.00  0.00     0.031 C 
ATOM     63  C   UNL A   1      43.579  28.233  33.379  1.00  0.00     0.034 A 
BRANCH  50  64
ATOM     64  C   UNL A   1      42.298  26.442  27.605  1.00  0.00     0.023 A 
ATOM     65  C   UNL A   1      43.100  26.976  26.578  1.00  0.00     0.012 A 
ATOM     66  C   UNL A   1      41.921  25.084  27.552  1.00  0.00     0.148 A 
ATOM     67  C   UNL A   1      43.501  26.182  25.503  1.00  0.00     0.002 A 
ATOM     68  C   UNL A   1      42.355  24.289  26.496  1.00  0.00     0.091 A 
ATOM     69  F   UNL A   1      41.137  24.598  28.525  1.00  0.00    -0.205 F 
ATOM     70  C   UNL A   1      43.139  24.838  25.468  1.00  0.00     0.022 A 
BRANCH  68  71
ATOM     71  S   UNL A   1      41.995  22.531  26.400  1.00  0.00     0.127 S 
ATOM     72  O   UNL A   1      42.563  22.045  27.657  1.00  0.00    -0.237 OA
ATOM     73  O   UNL A   1      40.532  22.515  26.346  1.00  0.00    -0.237 OA
ATOM     74  O   UNL A   1      42.649  22.055  25.189  1.00  0.00    -0.744 OA
ENDBRANCH  68  71
ENDBRANCH  50  64
BRANCH  51  75
ATOM     75  C   UNL A   1      39.324  32.112  35.297  1.00  0.00     0.023 A 
ATOM     76  C   UNL A   1      38.486  31.495  36.244  1.00  0.00     0.012 A 
ATOM     77  C   UNL A   1      39.747  33.438  35.515  1.00  0.00     0.148 A 
ATOM     78  C   UNL A   1      38.070  32.187  37.382  1.00  0.00     0.002 A 
ATOM     79  C   UNL A   1      39.378  34.101  36.680  1.00  0.00     0.091 A 
ATOM     80  F   UNL A   1      40.528  34.019  34.592  1.00  0.00    -0.205 F 
ATOM     81  C   UNL A   1      38.528  33.481  37.608  1.00  0.00     0.022 A 
BRANCH  79  82
ATOM     82  S   UNL A   1      40.060  35.705  37.117  1.00  0.00     0.127 S 
ATOM     83  O   UNL A   1      41.485  35.407  37.227  1.00  0.00    -0.237 OA
ATOM     84  O   UNL A   1      39.688  36.525  35.963  1.00  0.00    -0.237 OA
ATOM     85  O   UNL A   1      39.387  36.083  38.354  1.00  0.00    -0.744 OA
ENDBRANCH  79  82
ENDBRANCH  51  75
BRANCH  63  86
ATOM     86  C   UNL A   1      44.685  27.754  34.279  1.00  0.00     0.023 A 
ATOM     87  C   UNL A   1      45.889  28.480  34.340  1.00  0.00     0.012 A 
ATOM     88  C   UNL A   1      44.509  26.626  35.104  1.00  0.00     0.148 A 
ATOM     89  C   UNL A   1      46.917  28.074  35.189  1.00  0.00     0.002 A 
ATOM     90  C   UNL A   1      45.523  26.251  35.977  1.00  0.00     0.091 A 
ATOM     91  F   UNL A   1      43.363  25.937  35.012  1.00  0.00    -0.205 F 
ATOM     92  C   UNL A   1      46.731  26.968  36.015  1.00  0.00     0.022 A 
BRANCH  90  93
ATOM     93  S   UNL A   1      45.332  24.888  37.132  1.00  0.00     0.127 S 
ATOM     94  O   UNL A   1      44.175  25.319  37.914  1.00  0.00    -0.237 OA
ATOM     95  O   UNL A   1      45.080  23.755  36.242  1.00  0.00    -0.237 OA
ATOM     96  O   UNL A   1      46.591  24.809  37.862  1.00  0.00    -0.744 OA
ENDBRANCH  90  93
ENDBRANCH  63  86
ENDBRANCH  37  38
ENDBRANCH  30  32
ENDBRANCH  29  30
ENDBRANCH   1  29
TORSDOF 17
ENDMDL
