MODEL 1
REMARK VINA RESULT:     -11.2      0.000      0.000
REMARK SMILES C[C@H]1OCC[C@H]1C(=O)N1CCCC[C@@H]1CC(=O)OCCOC(=O)c1ccc(-c2c3nc(c(-c4cccc(S(=O)(=O)[O-])c4F)c4ccc([nH]4)c(-c4cccc(S(=O)(=O)[O-])c4F)c4nc(c(-c5cccc(S(=O)(=O)[O-])c5F)c5ccc2[nH]5)C=C4)C=C3)cc1
REMARK SMILES IDX 19 1 18 2 16 3 17 4 15 5 14 6 9 7 10 8 11 9 13 10 12 11 7 12
REMARK SMILES IDX 8 13 6 14 1 15 2 16 3 17 4 18 5 19 20 20 21 21 22 22 23 23
REMARK SMILES IDX 24 24 25 25 86 26 26 27 85 28 27 29 28 30 29 31 79 32 30 33
REMARK SMILES IDX 84 34 78 35 80 36 31 37 83 38 77 39 76 40 32 42 64 43 44 44
REMARK SMILES IDX 63 45 45 46 48 47 62 48 81 49 46 50 47 51 61 53 82 54 49 55
REMARK SMILES IDX 33 56 34 57 42 58 35 59 37 60 43 61 36 62 38 63 39 64 40 65
REMARK SMILES IDX 41 66 65 67 66 68 74 69 67 70 69 71 75 72 68 73 70 74 71 75
REMARK SMILES IDX 72 76 73 77 50 78 51 79 59 80 52 81 54 82 60 83 53 84 55 85
REMARK SMILES IDX 56 86 57 87 58 88
REMARK H PARENT 80 41 48 52
REMARK Flexibility Score: inf
ROOT
ATOM      1  C   UNL A   1      31.787  27.995  25.365  1.00  0.00     0.274 C 
ENDROOT
BRANCH   1   2
ATOM      2  O   UNL A   1      32.830  27.139  25.870  1.00  0.00    -0.462 OA
BRANCH   2   3
ATOM      3  C   UNL A   1      33.398  26.324  24.952  1.00  0.00     0.307 C 
ATOM      4  O   UNL A   1      33.440  26.560  23.748  1.00  0.00    -0.252 OA
BRANCH   3   5
ATOM      5  C   UNL A   1      33.956  25.044  25.510  1.00  0.00     0.147 C 
BRANCH   5   6
ATOM      6  C   UNL A   1      35.237  24.451  24.912  1.00  0.00     0.096 C 
ATOM      7  N   UNL A   1      34.957  23.360  23.929  1.00  0.00    -0.339 N 
ATOM      8  C   UNL A   1      36.143  22.741  23.342  1.00  0.00     0.120 C 
ATOM      9  C   UNL A   1      37.094  22.226  24.420  1.00  0.00     0.022 C 
ATOM     10  C   UNL A   1      36.195  23.950  26.007  1.00  0.00     0.026 C 
ATOM     11  C   UNL A   1      37.457  23.334  25.400  1.00  0.00     0.004 C 
BRANCH   7  12
ATOM     12  C   UNL A   1      33.825  22.561  24.047  1.00  0.00     0.228 C 
ATOM     13  O   UNL A   1      32.957  22.552  23.173  1.00  0.00    -0.274 OA
BRANCH  12  14
ATOM     14  C   UNL A   1      33.747  21.591  25.246  1.00  0.00     0.109 C 
ATOM     15  C   UNL A   1      31.362  22.532  25.881  1.00  0.00     0.039 C 
ATOM     16  C   UNL A   1      32.317  21.359  25.740  1.00  0.00     0.127 C 
ATOM     17  O   UNL A   1      31.781  20.366  24.851  1.00  0.00    -0.378 OA
ATOM     18  C   UNL A   1      32.868  19.529  24.424  1.00  0.00     0.161 C 
ATOM     19  C   UNL A   1      34.138  20.142  24.989  1.00  0.00     0.044 C 
ENDBRANCH  12  14
ENDBRANCH   7  12
ENDBRANCH   5   6
ENDBRANCH   3   5
ENDBRANCH   2   3
ENDBRANCH   1   2
BRANCH   1  20
ATOM     20  C   UNL A   1      31.738  29.320  26.125  1.00  0.00     0.275 C 
BRANCH  20  21
ATOM     21  O   UNL A   1      32.915  30.115  25.894  1.00  0.00    -0.458 OA
BRANCH  21  22
ATOM     22  C   UNL A   1      33.214  30.994  26.877  1.00  0.00     0.338 C 
ATOM     23  O   UNL A   1      32.491  31.871  27.331  1.00  0.00    -0.246 OA
BRANCH  22  24
ATOM     24  C   UNL A   1      34.563  30.735  27.391  1.00  0.00     0.060 A 
ATOM     25  C   UNL A   1      34.935  29.421  27.662  1.00  0.00     0.016 A 
ATOM     26  C   UNL A   1      35.400  31.793  27.748  1.00  0.00     0.016 A 
ATOM     27  C   UNL A   1      36.119  29.165  28.355  1.00  0.00     0.010 A 
ATOM     28  C   UNL A   1      36.613  31.526  28.398  1.00  0.00     0.010 A 
ATOM     29  C   UNL A   1      36.967  30.210  28.747  1.00  0.00    -0.014 A 
BRANCH  29  30
ATOM     30  C   UNL A   1      38.186  29.930  29.560  1.00  0.00     0.031 A 
ATOM     31  C   UNL A   1      39.282  29.048  29.013  1.00  0.00     0.074 A 
ATOM     32  C   UNL A   1      38.329  30.463  30.790  1.00  0.00     0.049 A 
ATOM     33  N   UNL A   1      40.340  28.570  29.617  1.00  0.00    -0.248 NA
ATOM     34  C   UNL A   1      39.170  28.643  27.601  1.00  0.00     0.031 C 
ATOM     35  C   UNL A   1      37.369  31.353  31.443  1.00  0.00     0.029 A 
ATOM     36  N   UNL A   1      39.335  30.325  31.717  1.00  0.00    -0.354 N 
ATOM     37  C   UNL A   1      40.977  27.753  28.690  1.00  0.00     0.074 A 
ATOM     38  C   UNL A   1      40.196  27.814  27.472  1.00  0.00     0.031 C 
ATOM     39  C   UNL A   1      37.837  31.694  32.653  1.00  0.00     0.029 A 
ATOM     40  C   UNL A   1      39.097  30.997  32.893  1.00  0.00     0.049 A 
ATOM     41  H   UNL A   1      40.150  29.795  31.553  1.00  0.00     0.167 HD
ATOM     42  C   UNL A   1      42.112  27.029  28.831  1.00  0.00     0.034 A 
ATOM     43  C   UNL A   1      39.791  31.027  34.049  1.00  0.00     0.034 A 
ATOM     44  C   UNL A   1      42.940  27.031  30.008  1.00  0.00     0.049 A 
ATOM     45  C   UNL A   1      41.060  30.231  34.172  1.00  0.00     0.074 A 
ATOM     46  C   UNL A   1      44.128  26.352  30.225  1.00  0.00     0.029 A 
ATOM     47  N   UNL A   1      42.684  27.761  31.157  1.00  0.00    -0.354 N 
ATOM     48  N   UNL A   1      41.664  29.497  33.270  1.00  0.00    -0.248 NA
ATOM     49  C   UNL A   1      41.749  30.274  35.470  1.00  0.00     0.031 C 
ATOM     50  C   UNL A   1      44.592  26.675  31.506  1.00  0.00     0.029 A 
ATOM     51  C   UNL A   1      43.693  27.555  32.084  1.00  0.00     0.049 A 
ATOM     52  H   UNL A   1      41.900  28.340  31.295  1.00  0.00     0.167 HD
ATOM     53  C   UNL A   1      42.807  29.001  33.887  1.00  0.00     0.074 A 
ATOM     54  C   UNL A   1      42.831  29.546  35.228  1.00  0.00     0.031 C 
ATOM     55  C   UNL A   1      43.738  28.146  33.396  1.00  0.00     0.034 A 
BRANCH  42  56
ATOM     56  C   UNL A   1      42.561  26.190  27.665  1.00  0.00     0.023 A 
ATOM     57  C   UNL A   1      43.500  26.712  26.754  1.00  0.00     0.012 A 
ATOM     58  C   UNL A   1      42.115  24.862  27.516  1.00  0.00     0.148 A 
ATOM     59  C   UNL A   1      43.974  25.931  25.701  1.00  0.00     0.002 A 
ATOM     60  C   UNL A   1      42.617  24.079  26.482  1.00  0.00     0.091 A 
ATOM     61  F   UNL A   1      41.201  24.392  28.377  1.00  0.00    -0.205 F 
ATOM     62  C   UNL A   1      43.542  24.613  25.571  1.00  0.00     0.022 A 
BRANCH  60  63
ATOM     63  S   UNL A   1      42.170  22.350  26.286  1.00  0.00     0.127 S 
ATOM     64  O   UNL A   1      40.710  22.424  26.250  1.00  0.00    -0.237 OA
ATOM     65  O   UNL A   1      42.793  22.007  25.006  1.00  0.00    -0.237 OA
ATOM     66  O   UNL A   1      42.740  21.661  27.435  1.00  0.00    -0.744 OA
ENDBRANCH  60  63
ENDBRANCH  42  56
BRANCH  43  67
ATOM     67  C   UNL A   1      39.304  31.869  35.178  1.00  0.00     0.023 A 
ATOM     68  C   UNL A   1      38.434  31.308  36.132  1.00  0.00     0.012 A 
ATOM     69  C   UNL A   1      39.732  33.201  35.340  1.00  0.00     0.148 A 
ATOM     70  C   UNL A   1      37.988  32.061  37.217  1.00  0.00     0.002 A 
ATOM     71  C   UNL A   1      39.331  33.927  36.456  1.00  0.00     0.091 A 
ATOM     72  F   UNL A   1      40.532  33.733  34.405  1.00  0.00    -0.205 F 
ATOM     73  C   UNL A   1      38.449  33.364  37.389  1.00  0.00     0.022 A 
BRANCH  71  74
ATOM     74  S   UNL A   1      40.010  35.552  36.810  1.00  0.00     0.127 S 
ATOM     75  O   UNL A   1      39.396  35.862  38.097  1.00  0.00    -0.237 OA
ATOM     76  O   UNL A   1      41.449  35.286  36.863  1.00  0.00    -0.237 OA
ATOM     77  O   UNL A   1      39.604  36.385  35.685  1.00  0.00    -0.744 OA
ENDBRANCH  71  74
ENDBRANCH  43  67
BRANCH  55  78
ATOM     78  C   UNL A   1      44.870  27.751  34.305  1.00  0.00     0.023 A 
ATOM     79  C   UNL A   1      46.028  28.553  34.349  1.00  0.00     0.012 A 
ATOM     80  C   UNL A   1      44.765  26.639  35.160  1.00  0.00     0.148 A 
ATOM     81  C   UNL A   1      47.075  28.239  35.214  1.00  0.00     0.002 A 
ATOM     82  C   UNL A   1      45.799  26.351  36.047  1.00  0.00     0.091 A 
ATOM     83  F   UNL A   1      43.665  25.874  35.088  1.00  0.00    -0.205 F 
ATOM     84  C   UNL A   1      46.956  27.145  36.070  1.00  0.00     0.022 A 
BRANCH  82  85
ATOM     85  S   UNL A   1      45.687  25.008  37.235  1.00  0.00     0.127 S 
ATOM     86  O   UNL A   1      44.304  25.128  37.692  1.00  0.00    -0.237 OA
ATOM     87  O   UNL A   1      45.954  23.830  36.408  1.00  0.00    -0.237 OA
ATOM     88  O   UNL A   1      46.711  25.281  38.235  1.00  0.00    -0.744 OA
ENDBRANCH  82  85
ENDBRANCH  55  78
ENDBRANCH  29  30
ENDBRANCH  22  24
ENDBRANCH  21  22
ENDBRANCH  20  21
ENDBRANCH   1  20
TORSDOF 17
ENDMDL
MODEL 2
REMARK VINA RESULT:     -11.1      4.744      9.928
REMARK SMILES C[C@H]1OCC[C@H]1C(=O)N1CCCC[C@@H]1CC(=O)OCCOC(=O)c1ccc(-c2c3nc(c(-c4cccc(S(=O)(=O)[O-])c4F)c4ccc([nH]4)c(-c4cccc(S(=O)(=O)[O-])c4F)c4nc(c(-c5cccc(S(=O)(=O)[O-])c5F)c5ccc2[nH]5)C=C4)C=C3)cc1
REMARK SMILES IDX 19 1 18 2 16 3 17 4 15 5 14 6 9 7 10 8 11 9 13 10 12 11 7 12
REMARK SMILES IDX 8 13 6 14 1 15 2 16 3 17 4 18 5 19 20 20 21 21 22 22 23 23
REMARK SMILES IDX 24 24 25 25 86 26 26 27 85 28 27 29 28 30 29 31 79 32 30 33
REMARK SMILES IDX 84 34 78 35 80 36 31 37 83 38 77 39 76 40 32 42 64 43 44 44
REMARK SMILES IDX 63 45 45 46 48 47 62 48 81 49 46 50 47 51 61 53 82 54 49 55
REMARK SMILES IDX 33 56 34 57 42 58 35 59 37 60 43 61 36 62 38 63 39 64 40 65
REMARK SMILES IDX 41 66 65 67 66 68 74 69 67 70 69 71 75 72 68 73 70 74 71 75
REMARK SMILES IDX 72 76 73 77 50 78 51 79 59 80 52 81 54 82 60 83 53 84 55 85
REMARK SMILES IDX 56 86 57 87 58 88
REMARK H PARENT 80 41 48 52
REMARK Flexibility Score: inf
ROOT
ATOM      1  C   UNL A   1      34.948  22.469  24.523  1.00  0.00     0.274 C 
ENDROOT
BRANCH   1   2
ATOM      2  O   UNL A   1      35.124  23.800  25.048  1.00  0.00    -0.462 OA
BRANCH   2   3
ATOM      3  C   UNL A   1      34.006  24.366  25.559  1.00  0.00     0.307 C 
ATOM      4  O   UNL A   1      33.158  23.762  26.209  1.00  0.00    -0.252 OA
BRANCH   3   5
ATOM      5  C   UNL A   1      33.839  25.825  25.233  1.00  0.00     0.147 C 
BRANCH   5   6
ATOM      6  C   UNL A   1      33.370  26.796  26.324  1.00  0.00     0.096 C 
ATOM      7  N   UNL A   1      31.913  27.110  26.222  1.00  0.00    -0.339 N 
ATOM      8  C   UNL A   1      31.414  28.050  27.223  1.00  0.00     0.120 C 
ATOM      9  C   UNL A   1      32.219  29.349  27.219  1.00  0.00     0.022 C 
ATOM     10  C   UNL A   1      34.199  28.094  26.321  1.00  0.00     0.026 C 
ATOM     11  C   UNL A   1      33.706  29.067  27.393  1.00  0.00     0.004 C 
BRANCH   7  12
ATOM     12  C   UNL A   1      31.260  27.097  24.994  1.00  0.00     0.228 C 
ATOM     13  O   UNL A   1      30.432  26.226  24.722  1.00  0.00    -0.274 OA
BRANCH  12  14
ATOM     14  C   UNL A   1      31.511  28.276  24.029  1.00  0.00     0.109 C 
ATOM     15  C   UNL A   1      32.547  26.625  22.246  1.00  0.00     0.039 C 
ATOM     16  C   UNL A   1      31.689  27.834  22.574  1.00  0.00     0.127 C 
ATOM     17  O   UNL A   1      30.351  27.663  22.079  1.00  0.00    -0.378 OA
ATOM     18  C   UNL A   1      29.505  28.593  22.774  1.00  0.00     0.161 C 
ATOM     19  C   UNL A   1      30.368  29.261  23.830  1.00  0.00     0.044 C 
ENDBRANCH  12  14
ENDBRANCH   7  12
ENDBRANCH   5   6
ENDBRANCH   3   5
ENDBRANCH   2   3
ENDBRANCH   1   2
BRANCH   1  20
ATOM     20  C   UNL A   1      36.275  21.715  24.463  1.00  0.00     0.275 C 
BRANCH  20  21
ATOM     21  O   UNL A   1      36.838  21.515  25.772  1.00  0.00    -0.458 OA
BRANCH  21  22
ATOM     22  C   UNL A   1      38.183  21.378  25.803  1.00  0.00     0.338 C 
ATOM     23  O   UNL A   1      38.845  20.458  25.341  1.00  0.00    -0.246 OA
BRANCH  22  24
ATOM     24  C   UNL A   1      38.793  22.544  26.451  1.00  0.00     0.060 A 
ATOM     25  C   UNL A   1      38.307  23.812  26.143  1.00  0.00     0.016 A 
ATOM     26  C   UNL A   1      39.936  22.399  27.239  1.00  0.00     0.016 A 
ATOM     27  C   UNL A   1      39.006  24.943  26.567  1.00  0.00     0.010 A 
ATOM     28  C   UNL A   1      40.604  23.539  27.705  1.00  0.00     0.010 A 
ATOM     29  C   UNL A   1      40.170  24.826  27.340  1.00  0.00    -0.014 A 
BRANCH  29  30
ATOM     30  C   UNL A   1      40.953  26.040  27.715  1.00  0.00     0.031 A 
ATOM     31  C   UNL A   1      40.327  27.118  28.565  1.00  0.00     0.074 A 
ATOM     32  C   UNL A   1      42.229  26.187  27.305  1.00  0.00     0.049 A 
ATOM     33  N   UNL A   1      40.789  28.304  28.871  1.00  0.00    -0.248 NA
ATOM     34  C   UNL A   1      39.004  26.829  29.142  1.00  0.00     0.031 C 
ATOM     35  C   UNL A   1      42.977  25.221  26.502  1.00  0.00     0.029 A 
ATOM     36  N   UNL A   1      43.121  27.215  27.503  1.00  0.00    -0.354 N 
ATOM     37  C   UNL A   1      39.789  28.929  29.608  1.00  0.00     0.074 A 
ATOM     38  C   UNL A   1      38.699  27.982  29.721  1.00  0.00     0.031 C 
ATOM     39  C   UNL A   1      44.215  25.690  26.287  1.00  0.00     0.029 A 
ATOM     40  C   UNL A   1      44.332  27.020  26.879  1.00  0.00     0.049 A 
ATOM     41  H   UNL A   1      42.913  28.015  28.039  1.00  0.00     0.167 HD
ATOM     42  C   UNL A   1      39.781  30.168  30.153  1.00  0.00     0.034 A 
ATOM     43  C   UNL A   1      45.407  27.826  26.766  1.00  0.00     0.034 A 
ATOM     44  C   UNL A   1      40.893  31.081  30.119  1.00  0.00     0.049 A 
ATOM     45  C   UNL A   1      45.380  29.190  27.398  1.00  0.00     0.074 A 
ATOM     46  C   UNL A   1      40.984  32.346  30.676  1.00  0.00     0.029 A 
ATOM     47  N   UNL A   1      42.114  30.824  29.518  1.00  0.00    -0.354 N 
ATOM     48  N   UNL A   1      44.440  29.745  28.124  1.00  0.00    -0.248 NA
ATOM     49  C   UNL A   1      46.566  30.037  27.204  1.00  0.00     0.031 C 
ATOM     50  C   UNL A   1      42.261  32.853  30.413  1.00  0.00     0.029 A 
ATOM     51  C   UNL A   1      42.966  31.902  29.694  1.00  0.00     0.049 A 
ATOM     52  H   UNL A   1      42.342  29.997  29.035  1.00  0.00     0.167 HD
ATOM     53  C   UNL A   1      44.924  30.998  28.481  1.00  0.00     0.074 A 
ATOM     54  C   UNL A   1      46.256  31.108  27.924  1.00  0.00     0.031 C 
ATOM     55  C   UNL A   1      44.310  31.980  29.184  1.00  0.00     0.034 A 
BRANCH  42  56
ATOM     56  C   UNL A   1      38.537  30.610  30.875  1.00  0.00     0.023 A 
ATOM     57  C   UNL A   1      38.419  30.383  32.259  1.00  0.00     0.012 A 
ATOM     58  C   UNL A   1      37.524  31.320  30.200  1.00  0.00     0.148 A 
ATOM     59  C   UNL A   1      37.302  30.837  32.959  1.00  0.00     0.002 A 
ATOM     60  C   UNL A   1      36.429  31.799  30.911  1.00  0.00     0.091 A 
ATOM     61  F   UNL A   1      37.642  31.504  28.877  1.00  0.00    -0.205 F 
ATOM     62  C   UNL A   1      36.313  31.553  32.288  1.00  0.00     0.022 A 
BRANCH  60  63
ATOM     63  S   UNL A   1      35.146  32.793  30.139  1.00  0.00     0.127 S 
ATOM     64  O   UNL A   1      35.810  34.091  30.021  1.00  0.00    -0.237 OA
ATOM     65  O   UNL A   1      34.934  32.101  28.867  1.00  0.00    -0.237 OA
ATOM     66  O   UNL A   1      34.008  32.745  31.047  1.00  0.00    -0.744 OA
ENDBRANCH  60  63
ENDBRANCH  42  56
BRANCH  43  67
ATOM     67  C   UNL A   1      46.615  27.346  26.037  1.00  0.00     0.023 A 
ATOM     68  C   UNL A   1      46.735  27.602  24.658  1.00  0.00     0.012 A 
ATOM     69  C   UNL A   1      47.661  26.681  26.706  1.00  0.00     0.148 A 
ATOM     70  C   UNL A   1      47.869  27.193  23.956  1.00  0.00     0.002 A 
ATOM     71  C   UNL A   1      48.814  26.330  26.012  1.00  0.00     0.091 A 
ATOM     72  F   UNL A   1      47.516  26.412  28.011  1.00  0.00    -0.205 F 
ATOM     73  C   UNL A   1      48.915  26.573  24.636  1.00  0.00     0.022 A 
BRANCH  71  74
ATOM     74  S   UNL A   1      50.252  25.668  26.860  1.00  0.00     0.127 S 
ATOM     75  O   UNL A   1      49.720  24.441  27.445  1.00  0.00    -0.237 OA
ATOM     76  O   UNL A   1      51.198  25.465  25.761  1.00  0.00    -0.237 OA
ATOM     77  O   UNL A   1      50.651  26.709  27.799  1.00  0.00    -0.744 OA
ENDBRANCH  71  74
ENDBRANCH  43  67
BRANCH  55  78
ATOM     78  C   UNL A   1      45.069  33.260  29.402  1.00  0.00     0.023 A 
ATOM     79  C   UNL A   1      45.834  33.415  30.574  1.00  0.00     0.012 A 
ATOM     80  C   UNL A   1      45.085  34.275  28.426  1.00  0.00     0.148 A 
ATOM     81  C   UNL A   1      46.585  34.571  30.785  1.00  0.00     0.002 A 
ATOM     82  C   UNL A   1      45.865  35.411  28.625  1.00  0.00     0.091 A 
ATOM     83  F   UNL A   1      44.333  34.121  27.326  1.00  0.00    -0.205 F 
ATOM     84  C   UNL A   1      46.609  35.563  29.806  1.00  0.00     0.022 A 
BRANCH  82  85
ATOM     85  S   UNL A   1      46.010  36.696  27.377  1.00  0.00     0.127 S 
ATOM     86  O   UNL A   1      46.953  37.618  28.006  1.00  0.00    -0.237 OA
ATOM     87  O   UNL A   1      46.547  35.964  26.229  1.00  0.00    -0.237 OA
ATOM     88  O   UNL A   1      44.659  37.206  27.181  1.00  0.00    -0.744 OA
ENDBRANCH  82  85
ENDBRANCH  55  78
ENDBRANCH  29  30
ENDBRANCH  22  24
ENDBRANCH  21  22
ENDBRANCH  20  21
ENDBRANCH   1  20
TORSDOF 17
ENDMDL
MODEL 3
REMARK VINA RESULT:     -11.0      1.568      2.463
REMARK SMILES C[C@H]1OCC[C@H]1C(=O)N1CCCC[C@@H]1CC(=O)OCCOC(=O)c1ccc(-c2c3nc(c(-c4cccc(S(=O)(=O)[O-])c4F)c4ccc([nH]4)c(-c4cccc(S(=O)(=O)[O-])c4F)c4nc(c(-c5cccc(S(=O)(=O)[O-])c5F)c5ccc2[nH]5)C=C4)C=C3)cc1
REMARK SMILES IDX 19 1 18 2 16 3 17 4 15 5 14 6 9 7 10 8 11 9 13 10 12 11 7 12
REMARK SMILES IDX 8 13 6 14 1 15 2 16 3 17 4 18 5 19 20 20 21 21 22 22 23 23
REMARK SMILES IDX 24 24 25 25 86 26 26 27 85 28 27 29 28 30 29 31 79 32 30 33
REMARK SMILES IDX 84 34 78 35 80 36 31 37 83 38 77 39 76 40 32 42 64 43 44 44
REMARK SMILES IDX 63 45 45 46 48 47 62 48 81 49 46 50 47 51 61 53 82 54 49 55
REMARK SMILES IDX 33 56 34 57 42 58 35 59 37 60 43 61 36 62 38 63 39 64 40 65
REMARK SMILES IDX 41 66 65 67 66 68 74 69 67 70 69 71 75 72 68 73 70 74 71 75
REMARK SMILES IDX 72 76 73 77 50 78 51 79 59 80 52 81 54 82 60 83 53 84 55 85
REMARK SMILES IDX 56 86 57 87 58 88
REMARK H PARENT 80 41 48 52
REMARK Flexibility Score: inf
ROOT
ATOM      1  C   UNL A   1      31.816  29.225  25.058  1.00  0.00     0.274 C 
ENDROOT
BRANCH   1   2
ATOM      2  O   UNL A   1      33.184  29.136  24.617  1.00  0.00    -0.462 OA
BRANCH   2   3
ATOM      3  C   UNL A   1      33.561  27.921  24.156  1.00  0.00     0.307 C 
ATOM      4  O   UNL A   1      33.992  27.713  23.026  1.00  0.00    -0.252 OA
BRANCH   3   5
ATOM      5  C   UNL A   1      33.370  26.794  25.133  1.00  0.00     0.147 C 
BRANCH   5   6
ATOM      6  C   UNL A   1      32.200  25.820  24.947  1.00  0.00     0.096 C 
ATOM      7  N   UNL A   1      32.636  24.391  24.984  1.00  0.00    -0.339 N 
ATOM      8  C   UNL A   1      31.566  23.415  24.789  1.00  0.00     0.120 C 
ATOM      9  C   UNL A   1      30.798  23.682  23.495  1.00  0.00     0.022 C 
ATOM     10  C   UNL A   1      31.424  26.108  23.649  1.00  0.00     0.026 C 
ATOM     11  C   UNL A   1      30.278  25.113  23.457  1.00  0.00     0.004 C 
BRANCH   7  12
ATOM     12  C   UNL A   1      33.908  24.017  24.567  1.00  0.00     0.228 C 
ATOM     13  O   UNL A   1      34.307  24.271  23.429  1.00  0.00    -0.274 OA
BRANCH  12  14
ATOM     14  C   UNL A   1      34.855  23.385  25.611  1.00  0.00     0.109 C 
ATOM     15  C   UNL A   1      34.216  20.968  24.760  1.00  0.00     0.039 C 
ATOM     16  C   UNL A   1      35.258  21.950  25.266  1.00  0.00     0.127 C 
ATOM     17  O   UNL A   1      36.331  22.090  24.321  1.00  0.00    -0.378 OA
ATOM     18  C   UNL A   1      37.030  23.307  24.630  1.00  0.00     0.161 C 
ATOM     19  C   UNL A   1      36.247  23.989  25.738  1.00  0.00     0.044 C 
ENDBRANCH  12  14
ENDBRANCH   7  12
ENDBRANCH   5   6
ENDBRANCH   3   5
ENDBRANCH   2   3
ENDBRANCH   1   2
BRANCH   1  20
ATOM     20  C   UNL A   1      31.579  30.484  25.890  1.00  0.00     0.275 C 
BRANCH  20  21
ATOM     21  O   UNL A   1      32.371  30.489  27.091  1.00  0.00    -0.458 OA
BRANCH  21  22
ATOM     22  C   UNL A   1      33.090  31.616  27.298  1.00  0.00     0.338 C 
ATOM     23  O   UNL A   1      32.703  32.772  27.190  1.00  0.00    -0.246 OA
BRANCH  22  24
ATOM     24  C   UNL A   1      34.449  31.273  27.732  1.00  0.00     0.060 A 
ATOM     25  C   UNL A   1      34.753  29.939  27.988  1.00  0.00     0.016 A 
ATOM     26  C   UNL A   1      35.371  32.277  28.031  1.00  0.00     0.016 A 
ATOM     27  C   UNL A   1      35.959  29.611  28.610  1.00  0.00     0.010 A 
ATOM     28  C   UNL A   1      36.601  31.936  28.609  1.00  0.00     0.010 A 
ATOM     29  C   UNL A   1      36.894  30.601  28.943  1.00  0.00    -0.014 A 
BRANCH  29  30
ATOM     30  C   UNL A   1      38.140  30.246  29.683  1.00  0.00     0.031 A 
ATOM     31  C   UNL A   1      39.158  29.322  29.062  1.00  0.00     0.074 A 
ATOM     32  C   UNL A   1      38.376  30.749  30.912  1.00  0.00     0.049 A 
ATOM     33  N   UNL A   1      40.223  28.781  29.599  1.00  0.00    -0.248 NA
ATOM     34  C   UNL A   1      38.949  28.949  27.653  1.00  0.00     0.031 C 
ATOM     35  C   UNL A   1      37.499  31.673  31.630  1.00  0.00     0.029 A 
ATOM     36  N   UNL A   1      39.423  30.545  31.779  1.00  0.00    -0.354 N 
ATOM     37  C   UNL A   1      40.766  27.951  28.626  1.00  0.00     0.074 A 
ATOM     38  C   UNL A   1      39.924  28.073  27.454  1.00  0.00     0.031 C 
ATOM     39  C   UNL A   1      38.048  31.968  32.818  1.00  0.00     0.029 A 
ATOM     40  C   UNL A   1      39.283  31.206  32.977  1.00  0.00     0.049 A 
ATOM     41  H   UNL A   1      40.200  29.979  31.562  1.00  0.00     0.167 HD
ATOM     42  C   UNL A   1      41.870  27.170  28.693  1.00  0.00     0.034 A 
ATOM     43  C   UNL A   1      40.040  31.181  34.092  1.00  0.00     0.034 A 
ATOM     44  C   UNL A   1      42.760  27.110  29.822  1.00  0.00     0.049 A 
ATOM     45  C   UNL A   1      41.272  30.321  34.133  1.00  0.00     0.074 A 
ATOM     46  C   UNL A   1      43.922  26.370  29.962  1.00  0.00     0.029 A 
ATOM     47  N   UNL A   1      42.604  27.830  30.994  1.00  0.00    -0.354 N 
ATOM     48  N   UNL A   1      41.789  29.575  33.187  1.00  0.00    -0.248 NA
ATOM     49  C   UNL A   1      42.032  30.306  35.391  1.00  0.00     0.031 C 
ATOM     50  C   UNL A   1      44.471  26.645  31.219  1.00  0.00     0.029 A 
ATOM     51  C   UNL A   1      43.650  27.558  31.861  1.00  0.00     0.049 A 
ATOM     52  H   UNL A   1      41.858  28.444  31.184  1.00  0.00     0.167 HD
ATOM     53  C   UNL A   1      42.938  29.012  33.732  1.00  0.00     0.074 A 
ATOM     54  C   UNL A   1      43.062  29.531  35.078  1.00  0.00     0.031 C 
ATOM     55  C   UNL A   1      43.796  28.122  33.177  1.00  0.00     0.034 A 
BRANCH  42  56
ATOM     56  C   UNL A   1      42.211  26.332  27.490  1.00  0.00     0.023 A 
ATOM     57  C   UNL A   1      42.967  26.894  26.443  1.00  0.00     0.012 A 
ATOM     58  C   UNL A   1      41.853  24.970  27.433  1.00  0.00     0.148 A 
ATOM     59  C   UNL A   1      43.346  26.119  25.347  1.00  0.00     0.002 A 
ATOM     60  C   UNL A   1      42.263  24.195  26.353  1.00  0.00     0.091 A 
ATOM     61  F   UNL A   1      41.112  24.460  28.426  1.00  0.00    -0.205 F 
ATOM     62  C   UNL A   1      43.003  24.769  25.308  1.00  0.00     0.022 A 
BRANCH  60  63
ATOM     63  S   UNL A   1      41.929  22.432  26.257  1.00  0.00     0.127 S 
ATOM     64  O   UNL A   1      42.708  22.048  25.081  1.00  0.00    -0.237 OA
ATOM     65  O   UNL A   1      42.464  21.942  27.528  1.00  0.00    -0.237 OA
ATOM     66  O   UNL A   1      40.483  22.311  26.126  1.00  0.00    -0.744 OA
ENDBRANCH  60  63
ENDBRANCH  42  56
BRANCH  43  67
ATOM     67  C   UNL A   1      39.658  32.025  35.260  1.00  0.00     0.023 A 
ATOM     68  C   UNL A   1      40.022  33.385  35.276  1.00  0.00     0.012 A 
ATOM     69  C   UNL A   1      38.902  31.504  36.328  1.00  0.00     0.148 A 
ATOM     70  C   UNL A   1      39.650  34.207  36.340  1.00  0.00     0.002 A 
ATOM     71  C   UNL A   1      38.484  32.343  37.355  1.00  0.00     0.091 A 
ATOM     72  F   UNL A   1      38.594  30.199  36.316  1.00  0.00    -0.205 F 
ATOM     73  C   UNL A   1      38.868  33.691  37.370  1.00  0.00     0.022 A 
BRANCH  71  74
ATOM     74  S   UNL A   1      37.351  31.774  38.627  1.00  0.00     0.127 S 
ATOM     75  O   UNL A   1      38.146  31.944  39.839  1.00  0.00    -0.237 OA
ATOM     76  O   UNL A   1      36.231  32.707  38.490  1.00  0.00    -0.237 OA
ATOM     77  O   UNL A   1      37.026  30.402  38.258  1.00  0.00    -0.744 OA
ENDBRANCH  71  74
ENDBRANCH  43  67
BRANCH  55  78
ATOM     78  C   UNL A   1      44.955  27.656  34.015  1.00  0.00     0.023 A 
ATOM     79  C   UNL A   1      46.157  28.390  33.997  1.00  0.00     0.012 A 
ATOM     80  C   UNL A   1      44.837  26.542  34.868  1.00  0.00     0.148 A 
ATOM     81  C   UNL A   1      47.233  28.010  34.797  1.00  0.00     0.002 A 
ATOM     82  C   UNL A   1      45.903  26.189  35.691  1.00  0.00     0.091 A 
ATOM     83  F   UNL A   1      43.694  25.841  34.856  1.00  0.00    -0.205 F 
ATOM     84  C   UNL A   1      47.102  26.916  35.651  1.00  0.00     0.022 A 
BRANCH  82  85
ATOM     85  S   UNL A   1      45.784  24.842  36.875  1.00  0.00     0.127 S 
ATOM     86  O   UNL A   1      45.622  23.685  35.996  1.00  0.00    -0.237 OA
ATOM     87  O   UNL A   1      47.075  24.908  37.562  1.00  0.00    -0.237 OA
ATOM     88  O   UNL A   1      44.640  25.161  37.719  1.00  0.00    -0.744 OA
ENDBRANCH  82  85
ENDBRANCH  55  78
ENDBRANCH  29  30
ENDBRANCH  22  24
ENDBRANCH  21  22
ENDBRANCH  20  21
ENDBRANCH   1  20
TORSDOF 17
ENDMDL
