MODEL 1
REMARK VINA RESULT:     -12.8      0.000      0.000
REMARK SMILES Cc1cc(NC(=O)COc2cc(C)c(Cl)c(C)c2)cc(C(=O)OCCOC(=O)c2ccc(-c3c4nc(c(-c5cccc(S(=O)(=O)[O-])c5F)c5ccc([nH]5)c(-c5cccc(S(=O)(=O)[O-])c5F)c5nc(c(-c6cccc(S(=O)(=O)[O-])c6F)c6ccc3[nH]6)C=C5)C=C4)cc2)c1O
REMARK SMILES IDX 24 1 23 2 21 3 22 4 20 5 1 6 2 7 3 8 92 9 4 10 19 11 93 12
REMARK SMILES IDX 5 14 6 15 7 17 8 18 9 19 10 20 11 21 18 22 12 23 16 24 13 25
REMARK SMILES IDX 14 26 17 27 15 28 25 29 26 30 27 31 28 32 29 33 30 34 91 35
REMARK SMILES IDX 31 36 90 37 32 38 33 39 34 40 84 41 35 42 89 43 83 44 85 45
REMARK SMILES IDX 36 46 88 47 82 48 81 49 37 51 69 52 49 53 68 54 50 55 53 56
REMARK SMILES IDX 67 57 86 58 51 59 52 60 66 62 87 63 54 64 38 65 39 66 47 67
REMARK SMILES IDX 40 68 42 69 48 70 41 71 43 72 44 73 45 74 46 75 70 76 71 77
REMARK SMILES IDX 79 78 72 79 74 80 80 81 73 82 75 83 76 84 77 85 78 86 55 87
REMARK SMILES IDX 56 88 64 89 57 90 59 91 65 92 58 93 60 94 61 95 62 96 63 97
REMARK H PARENT 93 13 5 16 85 50 53 61
REMARK Flexibility Score: inf
ROOT
ATOM      1  C   UNL A   1      33.297  29.228  24.762  1.00  0.00     0.275 C 
ENDROOT
BRANCH   1   2
ATOM      2  O   UNL A   1      33.222  29.264  23.322  1.00  0.00    -0.458 OA
BRANCH   2   3
ATOM      3  C   UNL A   1      32.813  28.128  22.696  1.00  0.00     0.342 C 
ATOM      4  O   UNL A   1      33.484  27.419  21.961  1.00  0.00    -0.246 OA
BRANCH   3   5
ATOM      5  C   UNL A   1      31.374  27.928  22.977  1.00  0.00     0.104 A 
ATOM      6  C   UNL A   1      27.906  29.340  22.196  1.00  0.00     0.048 C 
ATOM      7  C   UNL A   1      29.020  28.508  22.770  1.00  0.00    -0.006 A 
ATOM      8  C   UNL A   1      28.716  27.441  23.631  1.00  0.00     0.033 A 
ATOM      9  C   UNL A   1      30.366  28.752  22.464  1.00  0.00     0.133 A 
ATOM     10  C   UNL A   1      29.721  26.627  24.174  1.00  0.00     0.042 A 
ATOM     11  C   UNL A   1      31.044  26.890  23.853  1.00  0.00     0.045 A 
BRANCH   9  12
ATOM     12  O   UNL A   1      30.710  29.810  21.682  1.00  0.00    -0.507 OA
ATOM     13  H   UNL A   1      30.050  30.280  21.212  1.00  0.00     0.293 HD
ENDBRANCH   9  12
BRANCH  10  14
ATOM     14  N   UNL A   1      29.319  25.627  25.070  1.00  0.00    -0.323 N 
ATOM     15  C   UNL A   1      29.921  25.056  26.152  1.00  0.00     0.262 C 
ATOM     16  H   UNL A   1      28.425  25.264  24.879  1.00  0.00     0.170 HD
ATOM     17  O   UNL A   1      29.230  24.304  26.852  1.00  0.00    -0.271 OA
BRANCH  15  18
ATOM     18  C   UNL A   1      31.405  25.261  26.494  1.00  0.00     0.329 C 
BRANCH  18  19
ATOM     19  O   UNL A   1      32.239  24.152  26.793  1.00  0.00    -0.484 OA
BRANCH  19  20
ATOM     20  C   UNL A   1      33.249  23.884  25.916  1.00  0.00     0.120 A 
ATOM     21  C   UNL A   1      34.596  23.826  26.256  1.00  0.00     0.051 A 
ATOM     22  C   UNL A   1      32.860  23.589  24.609  1.00  0.00     0.051 A 
ATOM     23  C   UNL A   1      35.572  23.518  25.297  1.00  0.00    -0.029 A 
ATOM     24  C   UNL A   1      33.813  23.297  23.618  1.00  0.00    -0.029 A 
ATOM     25  C   UNL A   1      37.011  23.460  25.734  1.00  0.00     0.046 C 
ATOM     26  C   UNL A   1      35.176  23.276  23.971  1.00  0.00     0.047 A 
ATOM     27  C   UNL A   1      33.350  23.029  22.212  1.00  0.00     0.046 C 
ATOM     28  Cl  UNL A   1      36.378  22.955  22.762  1.00  0.00    -0.084 Cl
ENDBRANCH  19  20
ENDBRANCH  18  19
ENDBRANCH  15  18
ENDBRANCH  10  14
ENDBRANCH   3   5
ENDBRANCH   2   3
ENDBRANCH   1   2
BRANCH   1  29
ATOM     29  C   UNL A   1      32.195  30.082  25.382  1.00  0.00     0.275 C 
BRANCH  29  30
ATOM     30  O   UNL A   1      32.435  30.205  26.793  1.00  0.00    -0.458 OA
BRANCH  30  31
ATOM     31  C   UNL A   1      33.030  31.356  27.184  1.00  0.00     0.338 C 
ATOM     32  O   UNL A   1      32.523  32.458  27.283  1.00  0.00    -0.246 OA
BRANCH  31  33
ATOM     33  C   UNL A   1      34.420  31.075  27.572  1.00  0.00     0.060 A 
ATOM     34  C   UNL A   1      34.766  29.768  27.872  1.00  0.00     0.016 A 
ATOM     35  C   UNL A   1      35.324  32.106  27.817  1.00  0.00     0.016 A 
ATOM     36  C   UNL A   1      35.943  29.501  28.565  1.00  0.00     0.010 A 
ATOM     37  C   UNL A   1      36.572  31.808  28.386  1.00  0.00     0.010 A 
ATOM     38  C   UNL A   1      36.878  30.508  28.830  1.00  0.00    -0.014 A 
BRANCH  38  39
ATOM     39  C   UNL A   1      38.120  30.202  29.614  1.00  0.00     0.031 A 
ATOM     40  C   UNL A   1      39.204  29.332  29.017  1.00  0.00     0.074 A 
ATOM     41  C   UNL A   1      38.314  30.721  30.848  1.00  0.00     0.049 A 
ATOM     42  N   UNL A   1      40.231  28.769  29.603  1.00  0.00    -0.248 NA
ATOM     43  C   UNL A   1      39.117  29.042  27.575  1.00  0.00     0.031 C 
ATOM     44  C   UNL A   1      37.392  31.616  31.553  1.00  0.00     0.029 A 
ATOM     45  N   UNL A   1      39.357  30.570  31.734  1.00  0.00    -0.354 N 
ATOM     46  C   UNL A   1      40.843  27.979  28.634  1.00  0.00     0.074 A 
ATOM     47  C   UNL A   1      40.089  28.155  27.412  1.00  0.00     0.031 C 
ATOM     48  C   UNL A   1      37.926  31.974  32.727  1.00  0.00     0.029 A 
ATOM     49  C   UNL A   1      39.155  31.222  32.932  1.00  0.00     0.049 A 
ATOM     50  H   UNL A   1      40.166  30.048  31.534  1.00  0.00     0.167 HD
ATOM     51  C   UNL A   1      41.932  27.181  28.751  1.00  0.00     0.034 A 
ATOM     52  C   UNL A   1      39.824  31.167  34.101  1.00  0.00     0.034 A 
ATOM     53  C   UNL A   1      42.733  27.080  29.943  1.00  0.00     0.049 A 
ATOM     54  C   UNL A   1      41.019  30.265  34.211  1.00  0.00     0.074 A 
ATOM     55  C   UNL A   1      43.872  26.322  30.153  1.00  0.00     0.029 A 
ATOM     56  N   UNL A   1      42.494  27.772  31.120  1.00  0.00    -0.354 N 
ATOM     57  N   UNL A   1      41.571  29.514  33.291  1.00  0.00    -0.248 NA
ATOM     58  C   UNL A   1      41.681  30.200  35.521  1.00  0.00     0.031 C 
ATOM     59  C   UNL A   1      44.308  26.536  31.464  1.00  0.00     0.029 A 
ATOM     60  C   UNL A   1      43.461  27.456  32.060  1.00  0.00     0.049 A 
ATOM     61  H   UNL A   1      41.746  28.394  31.268  1.00  0.00     0.167 HD
ATOM     62  C   UNL A   1      42.658  28.903  33.904  1.00  0.00     0.074 A 
ATOM     63  C   UNL A   1      42.704  29.398  35.264  1.00  0.00     0.031 C 
ATOM     64  C   UNL A   1      43.526  27.997  33.393  1.00  0.00     0.034 A 
BRANCH  51  65
ATOM     65  C   UNL A   1      42.334  26.343  27.562  1.00  0.00     0.023 A 
ATOM     66  C   UNL A   1      43.174  26.877  26.565  1.00  0.00     0.012 A 
ATOM     67  C   UNL A   1      41.937  24.992  27.477  1.00  0.00     0.148 A 
ATOM     68  C   UNL A   1      43.586  26.091  25.488  1.00  0.00     0.002 A 
ATOM     69  C   UNL A   1      42.390  24.202  26.427  1.00  0.00     0.091 A 
ATOM     70  F   UNL A   1      41.125  24.504  28.427  1.00  0.00    -0.205 F 
ATOM     71  C   UNL A   1      43.204  24.753  25.425  1.00  0.00     0.022 A 
BRANCH  69  72
ATOM     72  S   UNL A   1      42.025  22.447  26.303  1.00  0.00     0.127 S 
ATOM     73  O   UNL A   1      40.564  22.451  26.263  1.00  0.00    -0.237 OA
ATOM     74  O   UNL A   1      42.668  22.090  25.038  1.00  0.00    -0.237 OA
ATOM     75  O   UNL A   1      42.614  21.827  27.481  1.00  0.00    -0.744 OA
ENDBRANCH  69  72
ENDBRANCH  51  65
BRANCH  52  76
ATOM     76  C   UNL A   1      39.343  31.952  35.276  1.00  0.00     0.023 A 
ATOM     77  C   UNL A   1      38.501  31.345  36.228  1.00  0.00     0.012 A 
ATOM     78  C   UNL A   1      39.741  33.291  35.469  1.00  0.00     0.148 A 
ATOM     79  C   UNL A   1      38.048  32.064  37.335  1.00  0.00     0.002 A 
ATOM     80  C   UNL A   1      39.347  33.976  36.610  1.00  0.00     0.091 A 
ATOM     81  F   UNL A   1      40.517  33.864  34.538  1.00  0.00    -0.205 F 
ATOM     82  C   UNL A   1      38.484  33.372  37.535  1.00  0.00     0.022 A 
BRANCH  80  83
ATOM     83  S   UNL A   1      39.993  35.601  37.019  1.00  0.00     0.127 S 
ATOM     84  O   UNL A   1      39.300  35.893  38.270  1.00  0.00    -0.237 OA
ATOM     85  O   UNL A   1      41.426  35.332  37.155  1.00  0.00    -0.237 OA
ATOM     86  O   UNL A   1      39.651  36.453  35.887  1.00  0.00    -0.744 OA
ENDBRANCH  80  83
ENDBRANCH  52  76
BRANCH  64  87
ATOM     87  C   UNL A   1      44.637  27.522  34.290  1.00  0.00     0.023 A 
ATOM     88  C   UNL A   1      45.848  28.238  34.355  1.00  0.00     0.012 A 
ATOM     89  C   UNL A   1      44.456  26.389  35.108  1.00  0.00     0.148 A 
ATOM     90  C   UNL A   1      46.876  27.812  35.194  1.00  0.00     0.002 A 
ATOM     91  C   UNL A   1      45.464  26.002  35.980  1.00  0.00     0.091 A 
ATOM     92  F   UNL A   1      43.303  25.711  35.015  1.00  0.00    -0.205 F 
ATOM     93  C   UNL A   1      46.681  26.703  36.014  1.00  0.00     0.022 A 
BRANCH  91  94
ATOM     94  S   UNL A   1      45.266  24.644  37.138  1.00  0.00     0.127 S 
ATOM     95  O   UNL A   1      46.562  24.638  37.814  1.00  0.00    -0.237 OA
ATOM     96  O   UNL A   1      44.149  25.104  37.964  1.00  0.00    -0.237 OA
ATOM     97  O   UNL A   1      44.977  23.465  36.332  1.00  0.00    -0.744 OA
ENDBRANCH  91  94
ENDBRANCH  64  87
ENDBRANCH  38  39
ENDBRANCH  31  33
ENDBRANCH  30  31
ENDBRANCH  29  30
ENDBRANCH   1  29
TORSDOF 19
ENDMDL
MODEL 2
REMARK VINA RESULT:     -12.5      5.153     10.166
REMARK SMILES Cc1cc(NC(=O)COc2cc(C)c(Cl)c(C)c2)cc(C(=O)OCCOC(=O)c2ccc(-c3c4nc(c(-c5cccc(S(=O)(=O)[O-])c5F)c5ccc([nH]5)c(-c5cccc(S(=O)(=O)[O-])c5F)c5nc(c(-c6cccc(S(=O)(=O)[O-])c6F)c6ccc3[nH]6)C=C5)C=C4)cc2)c1O
REMARK SMILES IDX 24 1 23 2 21 3 22 4 20 5 1 6 2 7 3 8 92 9 4 10 19 11 93 12
REMARK SMILES IDX 5 14 6 15 7 17 8 18 9 19 10 20 11 21 18 22 12 23 16 24 13 25
REMARK SMILES IDX 14 26 17 27 15 28 25 29 26 30 27 31 28 32 29 33 30 34 91 35
REMARK SMILES IDX 31 36 90 37 32 38 33 39 34 40 84 41 35 42 89 43 83 44 85 45
REMARK SMILES IDX 36 46 88 47 82 48 81 49 37 51 69 52 49 53 68 54 50 55 53 56
REMARK SMILES IDX 67 57 86 58 51 59 52 60 66 62 87 63 54 64 38 65 39 66 47 67
REMARK SMILES IDX 40 68 42 69 48 70 41 71 43 72 44 73 45 74 46 75 70 76 71 77
REMARK SMILES IDX 79 78 72 79 74 80 80 81 73 82 75 83 76 84 77 85 78 86 55 87
REMARK SMILES IDX 56 88 64 89 57 90 59 91 65 92 58 93 60 94 61 95 62 96 63 97
REMARK H PARENT 93 13 5 16 85 50 53 61
REMARK Flexibility Score: inf
ROOT
ATOM      1  C   UNL A   1      35.326  21.294  24.626  1.00  0.00     0.275 C 
ENDROOT
BRANCH   1   2
ATOM      2  O   UNL A   1      34.219  20.554  25.179  1.00  0.00    -0.458 OA
BRANCH   2   3
ATOM      3  C   UNL A   1      33.096  20.462  24.417  1.00  0.00     0.342 C 
ATOM      4  O   UNL A   1      32.670  19.460  23.863  1.00  0.00    -0.246 OA
BRANCH   3   5
ATOM      5  C   UNL A   1      32.504  21.813  24.287  1.00  0.00     0.104 A 
ATOM      6  C   UNL A   1      30.344  24.369  26.138  1.00  0.00     0.048 C 
ATOM      7  C   UNL A   1      31.170  23.684  25.084  1.00  0.00    -0.006 A 
ATOM      8  C   UNL A   1      31.436  24.345  23.874  1.00  0.00     0.033 A 
ATOM      9  C   UNL A   1      31.700  22.400  25.270  1.00  0.00     0.133 A 
ATOM     10  C   UNL A   1      32.216  23.754  22.870  1.00  0.00     0.042 A 
ATOM     11  C   UNL A   1      32.731  22.483  23.082  1.00  0.00     0.045 A 
BRANCH   9  12
ATOM     12  O   UNL A   1      31.418  21.700  26.401  1.00  0.00    -0.507 OA
ATOM     13  H   UNL A   1      31.117  22.147  27.166  1.00  0.00     0.293 HD
ENDBRANCH   9  12
BRANCH  10  14
ATOM     14  N   UNL A   1      32.375  24.470  21.677  1.00  0.00    -0.323 N 
ATOM     15  C   UNL A   1      32.858  25.715  21.399  1.00  0.00     0.262 C 
ATOM     16  H   UNL A   1      32.077  23.976  20.879  1.00  0.00     0.170 HD
ATOM     17  O   UNL A   1      33.029  26.003  20.207  1.00  0.00    -0.271 OA
BRANCH  15  18
ATOM     18  C   UNL A   1      33.137  26.768  22.482  1.00  0.00     0.329 C 
BRANCH  18  19
ATOM     19  O   UNL A   1      32.737  28.118  22.299  1.00  0.00    -0.484 OA
BRANCH  19  20
ATOM     20  C   UNL A   1      31.413  28.398  22.469  1.00  0.00     0.120 A 
ATOM     21  C   UNL A   1      30.788  29.559  22.026  1.00  0.00     0.051 A 
ATOM     22  C   UNL A   1      30.650  27.400  23.075  1.00  0.00     0.051 A 
ATOM     23  C   UNL A   1      29.413  29.759  22.218  1.00  0.00    -0.029 A 
ATOM     24  C   UNL A   1      29.274  27.576  23.302  1.00  0.00    -0.029 A 
ATOM     25  C   UNL A   1      28.797  31.033  21.705  1.00  0.00     0.046 C 
ATOM     26  C   UNL A   1      28.663  28.771  22.879  1.00  0.00     0.047 A 
ATOM     27  C   UNL A   1      28.501  26.489  23.999  1.00  0.00     0.046 C 
ATOM     28  Cl  UNL A   1      26.975  29.033  23.177  1.00  0.00    -0.084 Cl
ENDBRANCH  19  20
ENDBRANCH  18  19
ENDBRANCH  15  18
ENDBRANCH  10  14
ENDBRANCH   3   5
ENDBRANCH   2   3
ENDBRANCH   1   2
BRANCH   1  29
ATOM     29  C   UNL A   1      36.651  20.611  24.953  1.00  0.00     0.275 C 
BRANCH  29  30
ATOM     30  O   UNL A   1      37.670  21.610  25.104  1.00  0.00    -0.458 OA
BRANCH  30  31
ATOM     31  C   UNL A   1      38.773  21.219  25.785  1.00  0.00     0.338 C 
ATOM     32  O   UNL A   1      39.308  20.126  25.767  1.00  0.00    -0.246 OA
BRANCH  31  33
ATOM     33  C   UNL A   1      39.318  22.367  26.525  1.00  0.00     0.060 A 
ATOM     34  C   UNL A   1      38.813  23.626  26.248  1.00  0.00     0.016 A 
ATOM     35  C   UNL A   1      40.437  22.233  27.344  1.00  0.00     0.016 A 
ATOM     36  C   UNL A   1      39.511  24.760  26.649  1.00  0.00     0.010 A 
ATOM     37  C   UNL A   1      41.053  23.382  27.864  1.00  0.00     0.010 A 
ATOM     38  C   UNL A   1      40.639  24.669  27.473  1.00  0.00    -0.014 A 
BRANCH  38  39
ATOM     39  C   UNL A   1      41.399  25.904  27.858  1.00  0.00     0.031 A 
ATOM     40  C   UNL A   1      40.747  26.962  28.722  1.00  0.00     0.074 A 
ATOM     41  C   UNL A   1      42.684  26.083  27.476  1.00  0.00     0.049 A 
ATOM     42  N   UNL A   1      41.142  28.185  28.972  1.00  0.00    -0.248 NA
ATOM     43  C   UNL A   1      39.477  26.607  29.379  1.00  0.00     0.031 C 
ATOM     44  C   UNL A   1      43.478  25.142  26.682  1.00  0.00     0.029 A 
ATOM     45  N   UNL A   1      43.555  27.125  27.705  1.00  0.00    -0.354 N 
ATOM     46  C   UNL A   1      40.125  28.774  29.719  1.00  0.00     0.074 A 
ATOM     47  C   UNL A   1      39.105  27.765  29.906  1.00  0.00     0.031 C 
ATOM     48  C   UNL A   1      44.721  25.617  26.535  1.00  0.00     0.029 A 
ATOM     49  C   UNL A   1      44.777  26.960  27.091  1.00  0.00     0.049 A 
ATOM     50  H   UNL A   1      43.327  27.910  28.253  1.00  0.00     0.167 HD
ATOM     51  C   UNL A   1      40.048  30.037  30.204  1.00  0.00     0.034 A 
ATOM     52  C   UNL A   1      45.806  27.812  26.911  1.00  0.00     0.034 A 
ATOM     53  C   UNL A   1      41.105  31.008  30.094  1.00  0.00     0.049 A 
ATOM     54  C   UNL A   1      45.692  29.211  27.444  1.00  0.00     0.074 A 
ATOM     55  C   UNL A   1      41.135  32.305  30.578  1.00  0.00     0.029 A 
ATOM     56  N   UNL A   1      42.326  30.786  29.477  1.00  0.00    -0.354 N 
ATOM     57  N   UNL A   1      44.718  29.753  28.131  1.00  0.00    -0.248 NA
ATOM     58  C   UNL A   1      46.818  30.116  27.176  1.00  0.00     0.031 C 
ATOM     59  C   UNL A   1      42.364  32.875  30.231  1.00  0.00     0.029 A 
ATOM     60  C   UNL A   1      43.115  31.921  29.564  1.00  0.00     0.049 A 
ATOM     61  H   UNL A   1      42.592  29.946  29.039  1.00  0.00     0.167 HD
ATOM     62  C   UNL A   1      45.120  31.056  28.395  1.00  0.00     0.074 A 
ATOM     63  C   UNL A   1      46.442  31.210  27.822  1.00  0.00     0.031 C 
ATOM     64  C   UNL A   1      44.449  32.043  29.036  1.00  0.00     0.034 A 
BRANCH  51  65
ATOM     65  C   UNL A   1      38.778  30.457  30.902  1.00  0.00     0.023 A 
ATOM     66  C   UNL A   1      38.639  30.287  32.294  1.00  0.00     0.012 A 
ATOM     67  C   UNL A   1      37.748  31.096  30.181  1.00  0.00     0.148 A 
ATOM     68  C   UNL A   1      37.486  30.717  32.950  1.00  0.00     0.002 A 
ATOM     69  C   UNL A   1      36.623  31.564  30.849  1.00  0.00     0.091 A 
ATOM     70  F   UNL A   1      37.889  31.236  28.854  1.00  0.00    -0.205 F 
ATOM     71  C   UNL A   1      36.483  31.364  32.231  1.00  0.00     0.022 A 
BRANCH  69  72
ATOM     72  S   UNL A   1      35.317  32.487  30.027  1.00  0.00     0.127 S 
ATOM     73  O   UNL A   1      36.033  33.684  29.587  1.00  0.00    -0.237 OA
ATOM     74  O   UNL A   1      34.933  31.577  28.947  1.00  0.00    -0.237 OA
ATOM     75  O   UNL A   1      34.287  32.712  31.030  1.00  0.00    -0.744 OA
ENDBRANCH  69  72
ENDBRANCH  51  65
BRANCH  52  76
ATOM     76  C   UNL A   1      47.012  27.379  26.144  1.00  0.00     0.023 A 
ATOM     77  C   UNL A   1      47.980  26.564  26.760  1.00  0.00     0.012 A 
ATOM     78  C   UNL A   1      47.188  27.750  24.795  1.00  0.00     0.148 A 
ATOM     79  C   UNL A   1      49.110  26.147  26.054  1.00  0.00     0.002 A 
ATOM     80  C   UNL A   1      48.275  27.270  24.077  1.00  0.00     0.091 A 
ATOM     81  F   UNL A   1      46.273  28.552  24.231  1.00  0.00    -0.205 F 
ATOM     82  C   UNL A   1      49.249  26.485  24.710  1.00  0.00     0.022 A 
BRANCH  80  83
ATOM     83  S   UNL A   1      48.439  27.527  22.307  1.00  0.00     0.127 S 
ATOM     84  O   UNL A   1      49.631  28.366  22.236  1.00  0.00    -0.237 OA
ATOM     85  O   UNL A   1      48.617  26.158  21.817  1.00  0.00    -0.237 OA
ATOM     86  O   UNL A   1      47.192  28.154  21.887  1.00  0.00    -0.744 OA
ENDBRANCH  80  83
ENDBRANCH  52  76
BRANCH  64  87
ATOM     87  C   UNL A   1      45.151  33.363  29.201  1.00  0.00     0.023 A 
ATOM     88  C   UNL A   1      45.971  33.591  30.323  1.00  0.00     0.012 A 
ATOM     89  C   UNL A   1      45.035  34.360  28.213  1.00  0.00     0.148 A 
ATOM     90  C   UNL A   1      46.637  34.806  30.477  1.00  0.00     0.002 A 
ATOM     91  C   UNL A   1      45.742  35.547  28.347  1.00  0.00     0.091 A 
ATOM     92  F   UNL A   1      44.233  34.130  27.163  1.00  0.00    -0.205 F 
ATOM     93  C   UNL A   1      46.532  35.778  29.485  1.00  0.00     0.022 A 
BRANCH  91  94
ATOM     94  S   UNL A   1      45.742  36.815  27.076  1.00  0.00     0.127 S 
ATOM     95  O   UNL A   1      46.232  36.073  25.915  1.00  0.00    -0.237 OA
ATOM     96  O   UNL A   1      44.328  37.186  27.010  1.00  0.00    -0.237 OA
ATOM     97  O   UNL A   1      46.623  37.871  27.558  1.00  0.00    -0.744 OA
ENDBRANCH  91  94
ENDBRANCH  64  87
ENDBRANCH  38  39
ENDBRANCH  31  33
ENDBRANCH  30  31
ENDBRANCH  29  30
ENDBRANCH   1  29
TORSDOF 19
ENDMDL
MODEL 3
REMARK VINA RESULT:     -12.5      1.480      2.085
REMARK SMILES Cc1cc(NC(=O)COc2cc(C)c(Cl)c(C)c2)cc(C(=O)OCCOC(=O)c2ccc(-c3c4nc(c(-c5cccc(S(=O)(=O)[O-])c5F)c5ccc([nH]5)c(-c5cccc(S(=O)(=O)[O-])c5F)c5nc(c(-c6cccc(S(=O)(=O)[O-])c6F)c6ccc3[nH]6)C=C5)C=C4)cc2)c1O
REMARK SMILES IDX 24 1 23 2 21 3 22 4 20 5 1 6 2 7 3 8 92 9 4 10 19 11 93 12
REMARK SMILES IDX 5 14 6 15 7 17 8 18 9 19 10 20 11 21 18 22 12 23 16 24 13 25
REMARK SMILES IDX 14 26 17 27 15 28 25 29 26 30 27 31 28 32 29 33 30 34 91 35
REMARK SMILES IDX 31 36 90 37 32 38 33 39 34 40 84 41 35 42 89 43 83 44 85 45
REMARK SMILES IDX 36 46 88 47 82 48 81 49 37 51 69 52 49 53 68 54 50 55 53 56
REMARK SMILES IDX 67 57 86 58 51 59 52 60 66 62 87 63 54 64 38 65 39 66 47 67
REMARK SMILES IDX 40 68 42 69 48 70 41 71 43 72 44 73 45 74 46 75 70 76 71 77
REMARK SMILES IDX 79 78 72 79 74 80 80 81 73 82 75 83 76 84 77 85 78 86 55 87
REMARK SMILES IDX 56 88 64 89 57 90 59 91 65 92 58 93 60 94 61 95 62 96 63 97
REMARK H PARENT 93 13 5 16 85 50 53 61
REMARK Flexibility Score: inf
ROOT
ATOM      1  C   UNL A   1      31.146  30.087  25.003  1.00  0.00     0.275 C 
ENDROOT
BRANCH   1   2
ATOM      2  O   UNL A   1      30.619  28.936  24.313  1.00  0.00    -0.458 OA
BRANCH   2   3
ATOM      3  C   UNL A   1      31.359  28.438  23.285  1.00  0.00     0.342 C 
ATOM      4  O   UNL A   1      31.828  29.072  22.351  1.00  0.00    -0.246 OA
BRANCH   3   5
ATOM      5  C   UNL A   1      31.436  26.967  23.430  1.00  0.00     0.104 A 
ATOM      6  C   UNL A   1      32.997  23.844  21.869  1.00  0.00     0.048 C 
ATOM      7  C   UNL A   1      32.190  24.756  22.752  1.00  0.00    -0.006 A 
ATOM      8  C   UNL A   1      31.450  24.215  23.815  1.00  0.00     0.033 A 
ATOM      9  C   UNL A   1      32.159  26.144  22.559  1.00  0.00     0.133 A 
ATOM     10  C   UNL A   1      30.699  25.028  24.676  1.00  0.00     0.042 A 
ATOM     11  C   UNL A   1      30.687  26.399  24.463  1.00  0.00     0.045 A 
BRANCH   9  12
ATOM     12  O   UNL A   1      32.812  26.705  21.507  1.00  0.00    -0.507 OA
ATOM     13  H   UNL A   1      33.385  27.432  21.644  1.00  0.00     0.293 HD
ENDBRANCH   9  12
BRANCH  10  14
ATOM     14  N   UNL A   1      29.947  24.387  25.670  1.00  0.00    -0.323 N 
ATOM     15  C   UNL A   1      30.288  23.569  26.706  1.00  0.00     0.262 C 
ATOM     16  H   UNL A   1      28.981  24.562  25.607  1.00  0.00     0.170 HD
ATOM     17  O   UNL A   1      29.400  23.294  27.525  1.00  0.00    -0.271 OA
BRANCH  15  18
ATOM     18  C   UNL A   1      31.682  22.942  26.859  1.00  0.00     0.329 C 
BRANCH  18  19
ATOM     19  O   UNL A   1      32.847  23.751  26.822  1.00  0.00    -0.484 OA
BRANCH  19  20
ATOM     20  C   UNL A   1      33.980  23.180  26.322  1.00  0.00     0.120 A 
ATOM     21  C   UNL A   1      35.229  23.792  26.299  1.00  0.00     0.051 A 
ATOM     22  C   UNL A   1      33.854  21.866  25.871  1.00  0.00     0.051 A 
ATOM     23  C   UNL A   1      36.353  23.124  25.788  1.00  0.00    -0.029 A 
ATOM     24  C   UNL A   1      34.954  21.175  25.334  1.00  0.00    -0.029 A 
ATOM     25  C   UNL A   1      37.677  23.839  25.802  1.00  0.00     0.046 C 
ATOM     26  C   UNL A   1      36.204  21.820  25.285  1.00  0.00     0.047 A 
ATOM     27  C   UNL A   1      34.760  19.775  24.818  1.00  0.00     0.046 C 
ATOM     28  Cl  UNL A   1      37.572  21.007  24.595  1.00  0.00    -0.084 Cl
ENDBRANCH  19  20
ENDBRANCH  18  19
ENDBRANCH  15  18
ENDBRANCH  10  14
ENDBRANCH   3   5
ENDBRANCH   2   3
ENDBRANCH   1   2
BRANCH   1  29
ATOM     29  C   UNL A   1      32.558  29.812  25.512  1.00  0.00     0.275 C 
BRANCH  29  30
ATOM     30  O   UNL A   1      32.614  30.099  26.918  1.00  0.00    -0.458 OA
BRANCH  30  31
ATOM     31  C   UNL A   1      33.206  31.269  27.251  1.00  0.00     0.338 C 
ATOM     32  O   UNL A   1      32.689  32.368  27.331  1.00  0.00    -0.246 OA
BRANCH  31  33
ATOM     33  C   UNL A   1      34.613  31.018  27.601  1.00  0.00     0.060 A 
ATOM     34  C   UNL A   1      35.002  29.713  27.857  1.00  0.00     0.016 A 
ATOM     35  C   UNL A   1      35.493  32.067  27.855  1.00  0.00     0.016 A 
ATOM     36  C   UNL A   1      36.201  29.461  28.516  1.00  0.00     0.010 A 
ATOM     37  C   UNL A   1      36.761  31.790  28.388  1.00  0.00     0.010 A 
ATOM     38  C   UNL A   1      37.113  30.487  28.789  1.00  0.00    -0.014 A 
BRANCH  38  39
ATOM     39  C   UNL A   1      38.380  30.196  29.537  1.00  0.00     0.031 A 
ATOM     40  C   UNL A   1      39.432  29.291  28.934  1.00  0.00     0.074 A 
ATOM     41  C   UNL A   1      38.627  30.760  30.742  1.00  0.00     0.049 A 
ATOM     42  N   UNL A   1      40.474  28.738  29.503  1.00  0.00    -0.248 NA
ATOM     43  C   UNL A   1      39.286  28.947  27.509  1.00  0.00     0.031 C 
ATOM     44  C   UNL A   1      37.742  31.692  31.446  1.00  0.00     0.029 A 
ATOM     45  N   UNL A   1      39.700  30.630  31.594  1.00  0.00    -0.354 N 
ATOM     46  C   UNL A   1      41.040  27.904  28.542  1.00  0.00     0.074 A 
ATOM     47  C   UNL A   1      40.242  28.043  27.344  1.00  0.00     0.031 C 
ATOM     48  C   UNL A   1      38.324  32.088  32.585  1.00  0.00     0.029 A 
ATOM     49  C   UNL A   1      39.551  31.329  32.772  1.00  0.00     0.049 A 
ATOM     50  H   UNL A   1      40.496  30.090  31.383  1.00  0.00     0.167 HD
ATOM     51  C   UNL A   1      42.124  27.097  28.649  1.00  0.00     0.034 A 
ATOM     52  C   UNL A   1      40.264  31.311  33.916  1.00  0.00     0.034 A 
ATOM     53  C   UNL A   1      42.968  27.032  29.813  1.00  0.00     0.049 A 
ATOM     54  C   UNL A   1      41.452  30.398  34.017  1.00  0.00     0.074 A 
ATOM     55  C   UNL A   1      44.106  26.268  30.010  1.00  0.00     0.029 A 
ATOM     56  N   UNL A   1      42.781  27.771  30.971  1.00  0.00    -0.354 N 
ATOM     57  N   UNL A   1      41.960  29.606  33.106  1.00  0.00    -0.248 NA
ATOM     58  C   UNL A   1      42.163  30.375  35.302  1.00  0.00     0.031 C 
ATOM     59  C   UNL A   1      44.593  26.527  31.295  1.00  0.00     0.029 A 
ATOM     60  C   UNL A   1      43.780  27.480  31.886  1.00  0.00     0.049 A 
ATOM     61  H   UNL A   1      42.046  28.408  31.122  1.00  0.00     0.167 HD
ATOM     62  C   UNL A   1      43.063  29.005  33.701  1.00  0.00     0.074 A 
ATOM     63  C   UNL A   1      43.166  29.551  35.038  1.00  0.00     0.031 C 
ATOM     64  C   UNL A   1      43.901  28.070  33.193  1.00  0.00     0.034 A 
BRANCH  51  65
ATOM     65  C   UNL A   1      42.471  26.210  27.479  1.00  0.00     0.023 A 
ATOM     66  C   UNL A   1      43.291  26.690  26.439  1.00  0.00     0.012 A 
ATOM     67  C   UNL A   1      42.043  24.866  27.454  1.00  0.00     0.148 A 
ATOM     68  C   UNL A   1      43.653  25.858  25.379  1.00  0.00     0.002 A 
ATOM     69  C   UNL A   1      42.447  24.030  26.420  1.00  0.00     0.091 A 
ATOM     70  F   UNL A   1      41.250  24.429  28.444  1.00  0.00    -0.205 F 
ATOM     71  C   UNL A   1      43.241  24.527  25.374  1.00  0.00     0.022 A 
BRANCH  69  72
ATOM     72  S   UNL A   1      42.040  22.280  26.369  1.00  0.00     0.127 S 
ATOM     73  O   UNL A   1      42.735  21.851  25.156  1.00  0.00    -0.237 OA
ATOM     74  O   UNL A   1      42.633  21.793  27.615  1.00  0.00    -0.237 OA
ATOM     75  O   UNL A   1      40.588  22.203  26.314  1.00  0.00    -0.744 OA
ENDBRANCH  69  72
ENDBRANCH  51  65
BRANCH  52  76
ATOM     76  C   UNL A   1      39.837  32.145  35.078  1.00  0.00     0.023 A 
ATOM     77  C   UNL A   1      40.196  33.506  35.134  1.00  0.00     0.012 A 
ATOM     78  C   UNL A   1      39.052  31.602  36.115  1.00  0.00     0.148 A 
ATOM     79  C   UNL A   1      39.799  34.301  36.211  1.00  0.00     0.002 A 
ATOM     80  C   UNL A   1      38.599  32.416  37.145  1.00  0.00     0.091 A 
ATOM     81  F   UNL A   1      38.745  30.297  36.064  1.00  0.00    -0.205 F 
ATOM     82  C   UNL A   1      38.988  33.761  37.206  1.00  0.00     0.022 A 
BRANCH  80  83
ATOM     83  S   UNL A   1      37.423  31.836  38.372  1.00  0.00     0.127 S 
ATOM     84  O   UNL A   1      36.309  32.761  38.180  1.00  0.00    -0.237 OA
ATOM     85  O   UNL A   1      37.170  30.465  37.926  1.00  0.00    -0.237 OA
ATOM     86  O   UNL A   1      38.115  31.930  39.651  1.00  0.00    -0.744 OA
ENDBRANCH  80  83
ENDBRANCH  52  76
BRANCH  64  87
ATOM     87  C   UNL A   1      45.040  27.615  34.066  1.00  0.00     0.023 A 
ATOM     88  C   UNL A   1      46.286  28.268  33.998  1.00  0.00     0.012 A 
ATOM     89  C   UNL A   1      44.854  26.570  34.991  1.00  0.00     0.148 A 
ATOM     90  C   UNL A   1      47.341  27.862  34.813  1.00  0.00     0.002 A 
ATOM     91  C   UNL A   1      45.894  26.206  35.836  1.00  0.00     0.091 A 
ATOM     92  F   UNL A   1      43.666  25.949  35.024  1.00  0.00    -0.205 F 
ATOM     93  C   UNL A   1      47.142  26.840  35.739  1.00  0.00     0.022 A 
BRANCH  91  94
ATOM     94  S   UNL A   1      45.700  24.967  37.121  1.00  0.00     0.127 S 
ATOM     95  O   UNL A   1      47.090  24.635  37.427  1.00  0.00    -0.237 OA
ATOM     96  O   UNL A   1      45.006  25.716  38.170  1.00  0.00    -0.237 OA
ATOM     97  O   UNL A   1      44.917  23.890  36.529  1.00  0.00    -0.744 OA
ENDBRANCH  91  94
ENDBRANCH  64  87
ENDBRANCH  38  39
ENDBRANCH  31  33
ENDBRANCH  30  31
ENDBRANCH  29  30
ENDBRANCH   1  29
TORSDOF 19
ENDMDL
