MODEL 1
REMARK VINA RESULT:     -11.3      0.000      0.000
REMARK SMILES O=C(OCCOC(=O)c1cccc(Nc2ccnc3ccc(Cl)cc23)c1)c1ccc(-c2c3nc(c(-c4cccc(S(=O)(=O)[O-])c4F)c4ccc([nH]4)c(-c4cccc(S(=O)(=O)[O-])c4F)c4nc(c(-c5cccc(S(=O)(=O)[O-])c5F)c5ccc2[nH]5)C=C4)C=C3)cc1
REMARK SMILES IDX 4 1 3 2 2 3 1 4 27 5 28 6 89 7 29 8 88 9 30 10 31 11 32 12
REMARK SMILES IDX 82 13 33 14 87 15 81 16 83 17 34 18 86 19 80 20 79 21 35 23
REMARK SMILES IDX 67 24 47 25 66 26 48 27 51 28 65 29 84 30 49 31 50 32 64 34
REMARK SMILES IDX 85 35 52 36 36 37 37 38 45 39 38 40 40 41 46 42 39 43 41 44
REMARK SMILES IDX 42 45 43 46 44 47 68 48 69 49 77 50 70 51 72 52 78 53 71 54
REMARK SMILES IDX 73 55 74 56 75 57 76 58 53 59 54 60 62 61 55 62 57 63 63 64
REMARK SMILES IDX 56 65 58 66 59 67 60 68 61 69 5 70 6 71 7 72 8 73 9 74 10 75
REMARK SMILES IDX 26 76 11 77 13 78 12 79 14 80 15 82 16 83 25 84 17 85 19 86
REMARK SMILES IDX 24 87 18 88 20 89 22 90 21 91 23 92
REMARK H PARENT 83 22 51 33 14 81
REMARK Flexibility Score: inf
ROOT
ATOM      1  C   UNL A   1      34.880  33.360  28.131  1.00  0.00     0.275 C 
ENDROOT
BRANCH   1   2
ATOM      2  O   UNL A   1      34.149  32.130  27.972  1.00  0.00    -0.458 OA
BRANCH   2   3
ATOM      3  C   UNL A   1      34.628  30.894  27.675  1.00  0.00     0.338 C 
ATOM      4  O   UNL A   1      33.925  30.122  27.026  1.00  0.00    -0.246 OA
BRANCH   3   5
ATOM      5  C   UNL A   1      35.896  30.370  28.266  1.00  0.00     0.060 A 
ATOM      6  C   UNL A   1      36.012  29.738  29.506  1.00  0.00     0.016 A 
ATOM      7  C   UNL A   1      37.051  30.507  27.481  1.00  0.00     0.016 A 
ATOM      8  C   UNL A   1      37.202  29.115  29.884  1.00  0.00     0.010 A 
ATOM      9  C   UNL A   1      38.247  29.895  27.858  1.00  0.00     0.010 A 
ATOM     10  C   UNL A   1      38.320  29.170  29.053  1.00  0.00    -0.014 A 
BRANCH  10  11
ATOM     11  C   UNL A   1      39.606  28.619  29.524  1.00  0.00     0.031 A 
ATOM     12  C   UNL A   1      40.275  29.309  30.674  1.00  0.00     0.074 A 
ATOM     13  C   UNL A   1      40.135  27.508  28.975  1.00  0.00     0.049 A 
ATOM     14  N   UNL A   1      41.350  28.963  31.324  1.00  0.00    -0.248 NA
ATOM     15  C   UNL A   1      39.621  30.528  31.185  1.00  0.00     0.031 C 
ATOM     16  C   UNL A   1      39.530  26.716  27.905  1.00  0.00     0.029 A 
ATOM     17  N   UNL A   1      41.315  26.859  29.229  1.00  0.00    -0.354 N 
ATOM     18  C   UNL A   1      41.479  29.896  32.343  1.00  0.00     0.074 A 
ATOM     19  C   UNL A   1      40.422  30.866  32.182  1.00  0.00     0.031 C 
ATOM     20  C   UNL A   1      40.382  25.744  27.531  1.00  0.00     0.029 A 
ATOM     21  C   UNL A   1      41.573  25.816  28.370  1.00  0.00     0.049 A 
ATOM     22  H   UNL A   1      41.923  27.116  29.960  1.00  0.00     0.167 HD
ATOM     23  C   UNL A   1      42.367  29.908  33.361  1.00  0.00     0.034 A 
ATOM     24  C   UNL A   1      42.647  25.006  28.286  1.00  0.00     0.034 A 
ATOM     25  C   UNL A   1      43.428  28.955  33.493  1.00  0.00     0.049 A 
ATOM     26  C   UNL A   1      43.704  25.124  29.355  1.00  0.00     0.074 A 
ATOM     27  C   UNL A   1      44.401  28.876  34.471  1.00  0.00     0.029 A 
ATOM     28  N   UNL A   1      43.668  27.924  32.597  1.00  0.00    -0.354 N 
ATOM     29  N   UNL A   1      43.742  25.934  30.386  1.00  0.00    -0.248 NA
ATOM     30  C   UNL A   1      44.822  24.174  29.297  1.00  0.00     0.031 C 
ATOM     31  C   UNL A   1      45.249  27.811  34.146  1.00  0.00     0.029 A 
ATOM     32  C   UNL A   1      44.782  27.206  32.989  1.00  0.00     0.049 A 
ATOM     33  H   UNL A   1      43.125  27.731  31.798  1.00  0.00     0.167 HD
ATOM     34  C   UNL A   1      44.846  25.548  31.135  1.00  0.00     0.074 A 
ATOM     35  C   UNL A   1      45.449  24.429  30.437  1.00  0.00     0.031 C 
ATOM     36  C   UNL A   1      45.320  26.064  32.296  1.00  0.00     0.034 A 
BRANCH  23  37
ATOM     37  C   UNL A   1      42.183  30.973  34.405  1.00  0.00     0.023 A 
ATOM     38  C   UNL A   1      41.334  30.724  35.505  1.00  0.00     0.012 A 
ATOM     39  C   UNL A   1      42.818  32.222  34.288  1.00  0.00     0.148 A 
ATOM     40  C   UNL A   1      41.088  31.717  36.451  1.00  0.00     0.002 A 
ATOM     41  C   UNL A   1      42.600  33.192  35.258  1.00  0.00     0.091 A 
ATOM     42  F   UNL A   1      43.596  32.444  33.220  1.00  0.00    -0.205 F 
ATOM     43  C   UNL A   1      41.725  32.948  36.330  1.00  0.00     0.022 A 
BRANCH  41  44
ATOM     44  S   UNL A   1      43.413  34.791  35.227  1.00  0.00     0.127 S 
ATOM     45  O   UNL A   1      44.766  34.428  34.807  1.00  0.00    -0.237 OA
ATOM     46  O   UNL A   1      42.632  35.509  34.220  1.00  0.00    -0.237 OA
ATOM     47  O   UNL A   1      43.306  35.324  36.578  1.00  0.00    -0.744 OA
ENDBRANCH  41  44
ENDBRANCH  23  37
BRANCH  24  48
ATOM     48  C   UNL A   1      42.757  23.981  27.208  1.00  0.00     0.023 A 
ATOM     49  C   UNL A   1      43.398  24.293  25.994  1.00  0.00     0.012 A 
ATOM     50  C   UNL A   1      42.188  22.702  27.372  1.00  0.00     0.148 A 
ATOM     51  C   UNL A   1      43.425  23.372  24.943  1.00  0.00     0.002 A 
ATOM     52  C   UNL A   1      42.252  21.776  26.334  1.00  0.00     0.091 A 
ATOM     53  F   UNL A   1      41.596  22.418  28.540  1.00  0.00    -0.205 F 
ATOM     54  C   UNL A   1      42.853  22.116  25.112  1.00  0.00     0.022 A 
BRANCH  52  55
ATOM     55  S   UNL A   1      41.621  20.102  26.487  1.00  0.00     0.127 S 
ATOM     56  O   UNL A   1      40.178  20.319  26.412  1.00  0.00    -0.237 OA
ATOM     57  O   UNL A   1      42.213  19.454  25.317  1.00  0.00    -0.237 OA
ATOM     58  O   UNL A   1      42.122  19.617  27.764  1.00  0.00    -0.744 OA
ENDBRANCH  52  55
ENDBRANCH  24  48
BRANCH  36  59
ATOM     59  C   UNL A   1      46.515  25.392  32.915  1.00  0.00     0.023 A 
ATOM     60  C   UNL A   1      47.812  25.876  32.653  1.00  0.00     0.012 A 
ATOM     61  C   UNL A   1      46.337  24.333  33.826  1.00  0.00     0.148 A 
ATOM     62  C   UNL A   1      48.918  25.291  33.265  1.00  0.00     0.002 A 
ATOM     63  C   UNL A   1      47.440  23.794  34.476  1.00  0.00     0.091 A 
ATOM     64  F   UNL A   1      45.096  23.877  34.043  1.00  0.00    -0.205 F 
ATOM     65  C   UNL A   1      48.731  24.262  34.186  1.00  0.00     0.022 A 
BRANCH  63  66
ATOM     66  S   UNL A   1      47.281  22.545  35.756  1.00  0.00     0.127 S 
ATOM     67  O   UNL A   1      46.839  21.384  34.986  1.00  0.00    -0.237 OA
ATOM     68  O   UNL A   1      48.647  22.455  36.270  1.00  0.00    -0.237 OA
ATOM     69  O   UNL A   1      46.311  23.070  36.709  1.00  0.00    -0.744 OA
ENDBRANCH  63  66
ENDBRANCH  36  59
ENDBRANCH  10  11
ENDBRANCH   3   5
ENDBRANCH   2   3
ENDBRANCH   1   2
BRANCH   1  70
ATOM     70  C   UNL A   1      34.146  34.622  27.660  1.00  0.00     0.275 C 
BRANCH  70  71
ATOM     71  O   UNL A   1      34.351  35.748  28.530  1.00  0.00    -0.458 OA
BRANCH  71  72
ATOM     72  C   UNL A   1      33.254  36.150  29.224  1.00  0.00     0.338 C 
ATOM     73  O   UNL A   1      32.148  36.366  28.769  1.00  0.00    -0.246 OA
BRANCH  72  74
ATOM     74  C   UNL A   1      33.524  36.054  30.676  1.00  0.00     0.062 A 
ATOM     75  C   UNL A   1      33.436  37.246  31.401  1.00  0.00     0.016 A 
ATOM     76  C   UNL A   1      33.876  34.858  31.316  1.00  0.00     0.041 A 
ATOM     77  C   UNL A   1      33.668  37.243  32.773  1.00  0.00     0.003 A 
ATOM     78  C   UNL A   1      34.113  34.848  32.704  1.00  0.00     0.039 A 
ATOM     79  C   UNL A   1      34.011  36.053  33.416  1.00  0.00     0.026 A 
BRANCH  78  80
ATOM     80  N   UNL A   1      34.698  33.731  33.365  1.00  0.00    -0.355 N 
ATOM     81  H   UNL A   1      34.241  32.858  33.398  1.00  0.00     0.167 HD
BRANCH  80  82
ATOM     82  C   UNL A   1      35.972  33.924  33.978  1.00  0.00     0.050 A 
ATOM     83  C   UNL A   1      36.009  33.945  35.373  1.00  0.00     0.047 A 
ATOM     84  C   UNL A   1      37.186  34.015  33.255  1.00  0.00     0.025 A 
ATOM     85  C   UNL A   1      37.222  33.787  35.998  1.00  0.00     0.114 A 
ATOM     86  C   UNL A   1      38.372  33.941  34.025  1.00  0.00     0.072 A 
ATOM     87  C   UNL A   1      37.296  34.193  31.852  1.00  0.00     0.033 A 
ATOM     88  N   UNL A   1      38.393  33.717  35.344  1.00  0.00    -0.256 NA
ATOM     89  C   UNL A   1      39.596  34.127  33.409  1.00  0.00     0.030 A 
ATOM     90  C   UNL A   1      38.548  34.395  31.266  1.00  0.00     0.041 A 
ATOM     91  C   UNL A   1      39.699  34.387  32.045  1.00  0.00     0.023 A 
ATOM     92  Cl  UNL A   1      38.690  34.675  29.573  1.00  0.00    -0.084 Cl
ENDBRANCH  80  82
ENDBRANCH  78  80
ENDBRANCH  72  74
ENDBRANCH  71  72
ENDBRANCH  70  71
ENDBRANCH   1  70
TORSDOF 16
ENDMDL
MODEL 2
REMARK VINA RESULT:     -11.1      2.046      2.326
REMARK SMILES O=C(OCCOC(=O)c1cccc(Nc2ccnc3ccc(Cl)cc23)c1)c1ccc(-c2c3nc(c(-c4cccc(S(=O)(=O)[O-])c4F)c4ccc([nH]4)c(-c4cccc(S(=O)(=O)[O-])c4F)c4nc(c(-c5cccc(S(=O)(=O)[O-])c5F)c5ccc2[nH]5)C=C4)C=C3)cc1
REMARK SMILES IDX 4 1 3 2 2 3 1 4 27 5 28 6 89 7 29 8 88 9 30 10 31 11 32 12
REMARK SMILES IDX 82 13 33 14 87 15 81 16 83 17 34 18 86 19 80 20 79 21 35 23
REMARK SMILES IDX 67 24 47 25 66 26 48 27 51 28 65 29 84 30 49 31 50 32 64 34
REMARK SMILES IDX 85 35 52 36 36 37 37 38 45 39 38 40 40 41 46 42 39 43 41 44
REMARK SMILES IDX 42 45 43 46 44 47 68 48 69 49 77 50 70 51 72 52 78 53 71 54
REMARK SMILES IDX 73 55 74 56 75 57 76 58 53 59 54 60 62 61 55 62 57 63 63 64
REMARK SMILES IDX 56 65 58 66 59 67 60 68 61 69 5 70 6 71 7 72 8 73 9 74 10 75
REMARK SMILES IDX 26 76 11 77 13 78 12 79 14 80 15 82 16 83 25 84 17 85 19 86
REMARK SMILES IDX 24 87 18 88 20 89 22 90 21 91 23 92
REMARK H PARENT 83 22 51 33 14 81
REMARK Flexibility Score: inf
ROOT
ATOM      1  C   UNL A   1      34.650  32.937  28.159  1.00  0.00     0.275 C 
ENDROOT
BRANCH   1   2
ATOM      2  O   UNL A   1      34.055  31.629  28.238  1.00  0.00    -0.458 OA
BRANCH   2   3
ATOM      3  C   UNL A   1      34.609  30.428  27.930  1.00  0.00     0.338 C 
ATOM      4  O   UNL A   1      33.913  29.571  27.387  1.00  0.00    -0.246 OA
BRANCH   3   5
ATOM      5  C   UNL A   1      35.975  30.040  28.394  1.00  0.00     0.060 A 
ATOM      6  C   UNL A   1      36.287  29.523  29.653  1.00  0.00     0.016 A 
ATOM      7  C   UNL A   1      37.013  30.187  27.462  1.00  0.00     0.016 A 
ATOM      8  C   UNL A   1      37.558  29.015  29.924  1.00  0.00     0.010 A 
ATOM      9  C   UNL A   1      38.289  29.689  27.730  1.00  0.00     0.010 A 
ATOM     10  C   UNL A   1      38.560  29.073  28.957  1.00  0.00    -0.014 A 
BRANCH  10  11
ATOM     11  C   UNL A   1      39.932  28.650  29.302  1.00  0.00     0.031 A 
ATOM     12  C   UNL A   1      40.679  29.476  30.305  1.00  0.00     0.074 A 
ATOM     13  C   UNL A   1      40.474  27.535  28.775  1.00  0.00     0.049 A 
ATOM     14  N   UNL A   1      41.847  29.257  30.839  1.00  0.00    -0.248 NA
ATOM     15  C   UNL A   1      40.000  30.687  30.802  1.00  0.00     0.031 C 
ATOM     16  C   UNL A   1      39.807  26.618  27.851  1.00  0.00     0.029 A 
ATOM     17  N   UNL A   1      41.723  26.990  28.926  1.00  0.00    -0.354 N 
ATOM     18  C   UNL A   1      42.027  30.278  31.761  1.00  0.00     0.074 A 
ATOM     19  C   UNL A   1      40.886  31.159  31.663  1.00  0.00     0.031 C 
ATOM     20  C   UNL A   1      40.680  25.678  27.446  1.00  0.00     0.029 A 
ATOM     21  C   UNL A   1      41.954  25.898  28.120  1.00  0.00     0.049 A 
ATOM     22  H   UNL A   1      42.393  27.346  29.554  1.00  0.00     0.167 HD
ATOM     23  C   UNL A   1      43.027  30.434  32.655  1.00  0.00     0.034 A 
ATOM     24  C   UNL A   1      43.069  25.158  27.963  1.00  0.00     0.034 A 
ATOM     25  C   UNL A   1      44.166  29.568  32.724  1.00  0.00     0.049 A 
ATOM     26  C   UNL A   1      44.234  25.435  28.879  1.00  0.00     0.074 A 
ATOM     27  C   UNL A   1      45.252  29.635  33.575  1.00  0.00     0.029 A 
ATOM     28  N   UNL A   1      44.374  28.484  31.884  1.00  0.00    -0.354 N 
ATOM     29  N   UNL A   1      44.334  26.328  29.834  1.00  0.00    -0.248 NA
ATOM     30  C   UNL A   1      45.406  24.559  28.751  1.00  0.00     0.031 C 
ATOM     31  C   UNL A   1      46.134  28.606  33.226  1.00  0.00     0.029 A 
ATOM     32  C   UNL A   1      45.578  27.877  32.185  1.00  0.00     0.049 A 
ATOM     33  H   UNL A   1      43.755  28.190  31.176  1.00  0.00     0.167 HD
ATOM     34  C   UNL A   1      45.546  26.079  30.465  1.00  0.00     0.074 A 
ATOM     35  C   UNL A   1      46.144  24.949  29.781  1.00  0.00     0.031 C 
ATOM     36  C   UNL A   1      46.116  26.720  31.516  1.00  0.00     0.034 A 
BRANCH  23  37
ATOM     37  C   UNL A   1      42.888  31.567  33.633  1.00  0.00     0.023 A 
ATOM     38  C   UNL A   1      43.204  32.879  33.220  1.00  0.00     0.012 A 
ATOM     39  C   UNL A   1      42.478  31.337  34.957  1.00  0.00     0.148 A 
ATOM     40  C   UNL A   1      43.154  33.939  34.122  1.00  0.00     0.002 A 
ATOM     41  C   UNL A   1      42.390  32.406  35.840  1.00  0.00     0.091 A 
ATOM     42  F   UNL A   1      42.212  30.079  35.334  1.00  0.00    -0.205 F 
ATOM     43  C   UNL A   1      42.742  33.703  35.430  1.00  0.00     0.022 A 
BRANCH  41  44
ATOM     44  S   UNL A   1      41.819  32.221  37.531  1.00  0.00     0.127 S 
ATOM     45  O   UNL A   1      42.554  31.032  37.963  1.00  0.00    -0.237 OA
ATOM     46  O   UNL A   1      42.269  33.472  38.141  1.00  0.00    -0.237 OA
ATOM     47  O   UNL A   1      40.374  32.062  37.454  1.00  0.00    -0.744 OA
ENDBRANCH  41  44
ENDBRANCH  23  37
BRANCH  24  48
ATOM     48  C   UNL A   1      43.126  24.057  26.958  1.00  0.00     0.023 A 
ATOM     49  C   UNL A   1      43.808  24.242  25.740  1.00  0.00     0.012 A 
ATOM     50  C   UNL A   1      42.469  22.832  27.195  1.00  0.00     0.148 A 
ATOM     51  C   UNL A   1      43.789  23.252  24.754  1.00  0.00     0.002 A 
ATOM     52  C   UNL A   1      42.487  21.836  26.223  1.00  0.00     0.091 A 
ATOM     53  F   UNL A   1      41.840  22.669  28.367  1.00  0.00    -0.205 F 
ATOM     54  C   UNL A   1      43.130  22.051  24.994  1.00  0.00     0.022 A 
BRANCH  52  55
ATOM     55  S   UNL A   1      41.741  20.222  26.475  1.00  0.00     0.127 S 
ATOM     56  O   UNL A   1      40.316  20.549  26.474  1.00  0.00    -0.237 OA
ATOM     57  O   UNL A   1      42.210  19.493  25.297  1.00  0.00    -0.237 OA
ATOM     58  O   UNL A   1      42.279  19.741  27.738  1.00  0.00    -0.744 OA
ENDBRANCH  52  55
ENDBRANCH  24  48
BRANCH  36  59
ATOM     59  C   UNL A   1      47.424  26.183  32.028  1.00  0.00     0.023 A 
ATOM     60  C   UNL A   1      47.442  25.280  33.109  1.00  0.00     0.012 A 
ATOM     61  C   UNL A   1      48.627  26.511  31.374  1.00  0.00     0.148 A 
ATOM     62  C   UNL A   1      48.646  24.738  33.553  1.00  0.00     0.002 A 
ATOM     63  C   UNL A   1      49.815  25.923  31.786  1.00  0.00     0.091 A 
ATOM     64  F   UNL A   1      48.586  27.389  30.361  1.00  0.00    -0.205 F 
ATOM     65  C   UNL A   1      49.828  25.048  32.883  1.00  0.00     0.022 A 
BRANCH  63  66
ATOM     66  S   UNL A   1      51.363  26.177  30.912  1.00  0.00     0.127 S 
ATOM     67  O   UNL A   1      52.271  25.304  31.655  1.00  0.00    -0.237 OA
ATOM     68  O   UNL A   1      51.036  25.713  29.564  1.00  0.00    -0.237 OA
ATOM     69  O   UNL A   1      51.648  27.602  31.008  1.00  0.00    -0.744 OA
ENDBRANCH  63  66
ENDBRANCH  36  59
ENDBRANCH  10  11
ENDBRANCH   3   5
ENDBRANCH   2   3
ENDBRANCH   1   2
BRANCH   1  70
ATOM     70  C   UNL A   1      33.661  34.096  27.976  1.00  0.00     0.275 C 
BRANCH  70  71
ATOM     71  O   UNL A   1      34.128  35.328  28.551  1.00  0.00    -0.458 OA
BRANCH  71  72
ATOM     72  C   UNL A   1      33.197  36.030  29.248  1.00  0.00     0.338 C 
ATOM     73  O   UNL A   1      32.146  36.464  28.819  1.00  0.00    -0.246 OA
BRANCH  72  74
ATOM     74  C   UNL A   1      33.521  35.986  30.691  1.00  0.00     0.062 A 
ATOM     75  C   UNL A   1      33.499  37.209  31.368  1.00  0.00     0.016 A 
ATOM     76  C   UNL A   1      33.861  34.807  31.368  1.00  0.00     0.041 A 
ATOM     77  C   UNL A   1      33.786  37.255  32.729  1.00  0.00     0.003 A 
ATOM     78  C   UNL A   1      34.153  34.846  32.746  1.00  0.00     0.039 A 
ATOM     79  C   UNL A   1      34.117  36.083  33.408  1.00  0.00     0.026 A 
BRANCH  78  80
ATOM     80  N   UNL A   1      34.729  33.739  33.431  1.00  0.00    -0.355 N 
ATOM     81  H   UNL A   1      34.258  32.876  33.496  1.00  0.00     0.167 HD
BRANCH  80  82
ATOM     82  C   UNL A   1      36.015  33.928  34.020  1.00  0.00     0.050 A 
ATOM     83  C   UNL A   1      36.080  33.937  35.414  1.00  0.00     0.047 A 
ATOM     84  C   UNL A   1      37.214  34.028  33.273  1.00  0.00     0.025 A 
ATOM     85  C   UNL A   1      37.305  33.774  36.013  1.00  0.00     0.114 A 
ATOM     86  C   UNL A   1      38.415  33.948  34.019  1.00  0.00     0.072 A 
ATOM     87  C   UNL A   1      37.296  34.219  31.870  1.00  0.00     0.033 A 
ATOM     88  N   UNL A   1      38.463  33.712  35.335  1.00  0.00    -0.256 NA
ATOM     89  C   UNL A   1      39.627  34.141  33.380  1.00  0.00     0.030 A 
ATOM     90  C   UNL A   1      38.536  34.428  31.261  1.00  0.00     0.041 A 
ATOM     91  C   UNL A   1      39.702  34.415  32.017  1.00  0.00     0.023 A 
ATOM     92  Cl  UNL A   1      38.643  34.724  29.569  1.00  0.00    -0.084 Cl
ENDBRANCH  80  82
ENDBRANCH  78  80
ENDBRANCH  72  74
ENDBRANCH  71  72
ENDBRANCH  70  71
ENDBRANCH   1  70
TORSDOF 16
ENDMDL
MODEL 3
REMARK VINA RESULT:     -11.0      4.928      8.032
REMARK SMILES O=C(OCCOC(=O)c1cccc(Nc2ccnc3ccc(Cl)cc23)c1)c1ccc(-c2c3nc(c(-c4cccc(S(=O)(=O)[O-])c4F)c4ccc([nH]4)c(-c4cccc(S(=O)(=O)[O-])c4F)c4nc(c(-c5cccc(S(=O)(=O)[O-])c5F)c5ccc2[nH]5)C=C4)C=C3)cc1
REMARK SMILES IDX 4 1 3 2 2 3 1 4 27 5 28 6 89 7 29 8 88 9 30 10 31 11 32 12
REMARK SMILES IDX 82 13 33 14 87 15 81 16 83 17 34 18 86 19 80 20 79 21 35 23
REMARK SMILES IDX 67 24 47 25 66 26 48 27 51 28 65 29 84 30 49 31 50 32 64 34
REMARK SMILES IDX 85 35 52 36 36 37 37 38 45 39 38 40 40 41 46 42 39 43 41 44
REMARK SMILES IDX 42 45 43 46 44 47 68 48 69 49 77 50 70 51 72 52 78 53 71 54
REMARK SMILES IDX 73 55 74 56 75 57 76 58 53 59 54 60 62 61 55 62 57 63 63 64
REMARK SMILES IDX 56 65 58 66 59 67 60 68 61 69 5 70 6 71 7 72 8 73 9 74 10 75
REMARK SMILES IDX 26 76 11 77 13 78 12 79 14 80 15 82 16 83 25 84 17 85 19 86
REMARK SMILES IDX 24 87 18 88 20 89 22 90 21 91 23 92
REMARK H PARENT 83 22 51 33 14 81
REMARK Flexibility Score: inf
ROOT
ATOM      1  C   UNL A   1      32.759  29.697  25.769  1.00  0.00     0.275 C 
ENDROOT
BRANCH   1   2
ATOM      2  O   UNL A   1      32.458  30.690  26.767  1.00  0.00    -0.458 OA
BRANCH   2   3
ATOM      3  C   UNL A   1      33.290  31.602  27.331  1.00  0.00     0.338 C 
ATOM      4  O   UNL A   1      33.011  32.797  27.247  1.00  0.00    -0.246 OA
BRANCH   3   5
ATOM      5  C   UNL A   1      34.625  31.225  27.885  1.00  0.00     0.060 A 
ATOM      6  C   UNL A   1      35.746  32.058  27.937  1.00  0.00     0.016 A 
ATOM      7  C   UNL A   1      34.735  29.933  28.420  1.00  0.00     0.016 A 
ATOM      8  C   UNL A   1      36.887  31.679  28.644  1.00  0.00     0.010 A 
ATOM      9  C   UNL A   1      35.877  29.544  29.120  1.00  0.00     0.010 A 
ATOM     10  C   UNL A   1      36.952  30.430  29.260  1.00  0.00    -0.014 A 
BRANCH  10  11
ATOM     11  C   UNL A   1      38.213  29.993  29.892  1.00  0.00     0.031 A 
ATOM     12  C   UNL A   1      38.561  30.587  31.223  1.00  0.00     0.074 A 
ATOM     13  C   UNL A   1      38.996  29.059  29.319  1.00  0.00     0.049 A 
ATOM     14  N   UNL A   1      39.553  30.296  32.016  1.00  0.00    -0.248 NA
ATOM     15  C   UNL A   1      37.645  31.616  31.749  1.00  0.00     0.031 C 
ATOM     16  C   UNL A   1      38.713  28.362  28.066  1.00  0.00     0.029 A 
ATOM     17  N   UNL A   1      40.206  28.545  29.709  1.00  0.00    -0.354 N 
ATOM     18  C   UNL A   1      39.360  31.074  33.148  1.00  0.00     0.074 A 
ATOM     19  C   UNL A   1      38.203  31.906  32.912  1.00  0.00     0.031 C 
ATOM     20  C   UNL A   1      39.759  27.581  27.741  1.00  0.00     0.029 A 
ATOM     21  C   UNL A   1      40.767  27.687  28.790  1.00  0.00     0.049 A 
ATOM     22  H   UNL A   1      40.634  28.769  30.566  1.00  0.00     0.167 HD
ATOM     23  C   UNL A   1      40.052  31.054  34.308  1.00  0.00     0.034 A 
ATOM     24  C   UNL A   1      41.955  27.051  28.810  1.00  0.00     0.034 A 
ATOM     25  C   UNL A   1      41.215  30.244  34.518  1.00  0.00     0.049 A 
ATOM     26  C   UNL A   1      42.786  27.150  30.065  1.00  0.00     0.074 A 
ATOM     27  C   UNL A   1      42.010  30.151  35.644  1.00  0.00     0.029 A 
ATOM     28  N   UNL A   1      41.762  29.401  33.563  1.00  0.00    -0.354 N 
ATOM     29  N   UNL A   1      42.521  27.794  31.177  1.00  0.00    -0.248 NA
ATOM     30  C   UNL A   1      44.035  26.379  30.100  1.00  0.00     0.031 C 
ATOM     31  C   UNL A   1      43.060  29.272  35.355  1.00  0.00     0.029 A 
ATOM     32  C   UNL A   1      42.895  28.789  34.065  1.00  0.00     0.049 A 
ATOM     33  H   UNL A   1      41.398  29.258  32.658  1.00  0.00     0.167 HD
ATOM     34  C   UNL A   1      43.532  27.452  32.066  1.00  0.00     0.074 A 
ATOM     35  C   UNL A   1      44.414  26.543  31.360  1.00  0.00     0.031 C 
ATOM     36  C   UNL A   1      43.718  27.847  33.350  1.00  0.00     0.034 A 
BRANCH  23  37
ATOM     37  C   UNL A   1      39.528  31.916  35.422  1.00  0.00     0.023 A 
ATOM     38  C   UNL A   1      38.531  31.405  36.281  1.00  0.00     0.012 A 
ATOM     39  C   UNL A   1      39.994  33.229  35.604  1.00  0.00     0.148 A 
ATOM     40  C   UNL A   1      37.975  32.204  37.277  1.00  0.00     0.002 A 
ATOM     41  C   UNL A   1      39.465  34.006  36.627  1.00  0.00     0.091 A 
ATOM     42  F   UNL A   1      40.920  33.701  34.757  1.00  0.00    -0.205 F 
ATOM     43  C   UNL A   1      38.446  33.502  37.454  1.00  0.00     0.022 A 
BRANCH  41  44
ATOM     44  S   UNL A   1      40.038  35.670  36.975  1.00  0.00     0.127 S 
ATOM     45  O   UNL A   1      39.331  35.972  38.219  1.00  0.00    -0.237 OA
ATOM     46  O   UNL A   1      41.479  35.469  37.124  1.00  0.00    -0.237 OA
ATOM     47  O   UNL A   1      39.648  36.479  35.829  1.00  0.00    -0.744 OA
ENDBRANCH  41  44
ENDBRANCH  23  37
BRANCH  24  48
ATOM     48  C   UNL A   1      42.406  26.224  27.654  1.00  0.00     0.023 A 
ATOM     49  C   UNL A   1      43.156  26.806  26.614  1.00  0.00     0.012 A 
ATOM     50  C   UNL A   1      42.056  24.862  27.565  1.00  0.00     0.148 A 
ATOM     51  C   UNL A   1      43.503  26.064  25.482  1.00  0.00     0.002 A 
ATOM     52  C   UNL A   1      42.438  24.118  26.452  1.00  0.00     0.091 A 
ATOM     53  F   UNL A   1      41.355  24.322  28.572  1.00  0.00    -0.205 F 
ATOM     54  C   UNL A   1      43.145  24.722  25.400  1.00  0.00     0.022 A 
BRANCH  52  55
ATOM     55  S   UNL A   1      42.099  22.362  26.295  1.00  0.00     0.127 S 
ATOM     56  O   UNL A   1      40.640  22.343  26.236  1.00  0.00    -0.237 OA
ATOM     57  O   UNL A   1      42.775  22.041  25.038  1.00  0.00    -0.237 OA
ATOM     58  O   UNL A   1      42.692  21.748  27.474  1.00  0.00    -0.744 OA
ENDBRANCH  52  55
ENDBRANCH  24  48
BRANCH  36  59
ATOM     59  C   UNL A   1      44.884  27.258  34.094  1.00  0.00     0.023 A 
ATOM     60  C   UNL A   1      46.132  27.911  34.083  1.00  0.00     0.012 A 
ATOM     61  C   UNL A   1      44.711  26.099  34.875  1.00  0.00     0.148 A 
ATOM     62  C   UNL A   1      47.201  27.398  34.814  1.00  0.00     0.002 A 
ATOM     63  C   UNL A   1      45.765  25.627  35.646  1.00  0.00     0.091 A 
ATOM     64  F   UNL A   1      43.520  25.484  34.853  1.00  0.00    -0.205 F 
ATOM     65  C   UNL A   1      47.014  26.267  35.605  1.00  0.00     0.022 A 
BRANCH  63  66
ATOM     66  S   UNL A   1      45.581  24.246  36.778  1.00  0.00     0.127 S 
ATOM     67  O   UNL A   1      46.927  24.137  37.337  1.00  0.00    -0.237 OA
ATOM     68  O   UNL A   1      44.570  24.745  37.711  1.00  0.00    -0.237 OA
ATOM     69  O   UNL A   1      45.147  23.117  35.966  1.00  0.00    -0.744 OA
ENDBRANCH  63  66
ENDBRANCH  36  59
ENDBRANCH  10  11
ENDBRANCH   3   5
ENDBRANCH   2   3
ENDBRANCH   1   2
BRANCH   1  70
ATOM     70  C   UNL A   1      31.543  29.122  25.031  1.00  0.00     0.275 C 
BRANCH  70  71
ATOM     71  O   UNL A   1      31.524  27.684  25.018  1.00  0.00    -0.458 OA
BRANCH  71  72
ATOM     72  C   UNL A   1      31.710  27.093  26.227  1.00  0.00     0.338 C 
ATOM     73  O   UNL A   1      31.106  27.337  27.253  1.00  0.00    -0.246 OA
BRANCH  72  74
ATOM     74  C   UNL A   1      32.594  25.916  26.073  1.00  0.00     0.062 A 
ATOM     75  C   UNL A   1      33.909  26.178  25.678  1.00  0.00     0.016 A 
ATOM     76  C   UNL A   1      32.164  24.598  26.277  1.00  0.00     0.041 A 
ATOM     77  C   UNL A   1      34.808  25.128  25.515  1.00  0.00     0.003 A 
ATOM     78  C   UNL A   1      33.068  23.531  26.113  1.00  0.00     0.039 A 
ATOM     79  C   UNL A   1      34.386  23.816  25.725  1.00  0.00     0.026 A 
BRANCH  78  80
ATOM     80  N   UNL A   1      32.639  22.173  26.073  1.00  0.00    -0.355 N 
ATOM     81  H   UNL A   1      32.606  21.622  26.890  1.00  0.00     0.167 HD
BRANCH  80  82
ATOM     82  C   UNL A   1      32.260  21.641  24.804  1.00  0.00     0.050 A 
ATOM     83  C   UNL A   1      31.727  22.535  23.875  1.00  0.00     0.047 A 
ATOM     84  C   UNL A   1      32.467  20.293  24.425  1.00  0.00     0.025 A 
ATOM     85  C   UNL A   1      31.669  22.152  22.557  1.00  0.00     0.114 A 
ATOM     86  C   UNL A   1      32.276  20.001  23.052  1.00  0.00     0.072 A 
ATOM     87  C   UNL A   1      32.821  19.236  25.302  1.00  0.00     0.033 A 
ATOM     88  N   UNL A   1      31.999  20.924  22.124  1.00  0.00    -0.256 NA
ATOM     89  C   UNL A   1      32.356  18.691  22.618  1.00  0.00     0.030 A 
ATOM     90  C   UNL A   1      32.875  17.922  24.832  1.00  0.00     0.041 A 
ATOM     91  C   UNL A   1      32.619  17.642  23.495  1.00  0.00     0.023 A 
ATOM     92  Cl  UNL A   1      33.242  16.622  25.900  1.00  0.00    -0.084 Cl
ENDBRANCH  80  82
ENDBRANCH  78  80
ENDBRANCH  72  74
ENDBRANCH  71  72
ENDBRANCH  70  71
ENDBRANCH   1  70
TORSDOF 16
ENDMDL
