MODEL 1
REMARK VINA RESULT:     -10.7      0.000      0.000
REMARK SMILES Cc1cc(C)cc([S@@](=O)Cc2ccc(C(=O)OCCOC(=O)c3ccc(-c4c5nc(c(-c6cccc(S(=O)(=O)[O-])c6F)c6ccc([nH]6)c(-c6cccc(S(=O)(=O)[O-])c6F)c6nc(c(-c7cccc(S(=O)(=O)[O-])c7F)c7ccc4[nH]7)C=C6)C=C5)cc3)o2)c1
REMARK SMILES IDX 18 1 17 2 15 3 16 4 14 5 11 6 12 7 86 8 13 9 10 10 8 11 9 12
REMARK SMILES IDX 7 13 1 14 2 15 3 16 87 17 4 18 5 19 6 20 19 21 20 22 21 23
REMARK SMILES IDX 22 24 23 25 24 26 85 27 25 28 84 29 26 30 27 31 28 32 78 33
REMARK SMILES IDX 29 34 83 35 77 36 79 37 30 38 82 39 76 40 75 41 31 43 63 44
REMARK SMILES IDX 43 45 62 46 44 47 47 48 61 49 80 50 45 51 46 52 60 54 81 55
REMARK SMILES IDX 48 56 32 57 33 58 41 59 34 60 36 61 42 62 35 63 37 64 38 65
REMARK SMILES IDX 39 66 40 67 64 68 65 69 73 70 66 71 68 72 74 73 67 74 69 75
REMARK SMILES IDX 70 76 71 77 72 78 49 79 50 80 58 81 51 82 53 83 59 84 52 85
REMARK SMILES IDX 54 86 55 87 56 88 57 89
REMARK H PARENT 79 42 47 53
REMARK Flexibility Score: inf
ROOT
ATOM      1  C   UNL A   1      33.823  33.914  28.482  1.00  0.00     0.275 C 
ENDROOT
BRANCH   1   2
ATOM      2  O   UNL A   1      33.051  34.406  29.592  1.00  0.00    -0.456 OA
BRANCH   2   3
ATOM      3  C   UNL A   1      32.886  35.765  29.653  1.00  0.00     0.374 C 
ATOM      4  O   UNL A   1      32.425  36.443  28.751  1.00  0.00    -0.242 OA
BRANCH   3   5
ATOM      5  C   UNL A   1      33.240  36.228  30.976  1.00  0.00     0.211 A 
ATOM      6  C   UNL A   1      34.124  35.975  32.993  1.00  0.00     0.117 A 
ATOM      7  C   UNL A   1      33.937  37.330  32.800  1.00  0.00     0.047 A 
ATOM      8  O   UNL A   1      33.649  35.303  31.901  1.00  0.00    -0.453 OA
ATOM      9  C   UNL A   1      33.362  37.491  31.519  1.00  0.00     0.058 A 
BRANCH   6  10
ATOM     10  C   UNL A   1      34.874  35.154  33.984  1.00  0.00     0.185 C 
BRANCH  10  11
ATOM     11  S   UNL A   1      35.463  33.523  33.473  1.00  0.00     0.061 S 
ATOM     12  O   UNL A   1      35.939  32.758  34.673  1.00  0.00    -0.254 OA
BRANCH  11  13
ATOM     13  C   UNL A   1      36.939  33.888  32.502  1.00  0.00     0.040 A 
ATOM     14  C   UNL A   1      40.630  34.688  32.941  1.00  0.00     0.044 C 
ATOM     15  C   UNL A   1      39.296  34.445  32.298  1.00  0.00    -0.050 A 
ATOM     16  C   UNL A   1      39.209  34.285  30.910  1.00  0.00     0.007 A 
ATOM     17  C   UNL A   1      38.139  34.315  33.078  1.00  0.00     0.021 A 
ATOM     18  C   UNL A   1      37.989  33.975  30.302  1.00  0.00    -0.050 A 
ATOM     19  C   UNL A   1      37.897  33.826  28.814  1.00  0.00     0.044 C 
ATOM     20  C   UNL A   1      36.868  33.752  31.110  1.00  0.00     0.021 A 
ENDBRANCH  11  13
ENDBRANCH  10  11
ENDBRANCH   6  10
ENDBRANCH   3   5
ENDBRANCH   2   3
ENDBRANCH   1   2
BRANCH   1  21
ATOM     21  C   UNL A   1      34.419  32.534  28.784  1.00  0.00     0.275 C 
BRANCH  21  22
ATOM     22  O   UNL A   1      34.552  31.733  27.596  1.00  0.00    -0.458 OA
BRANCH  22  23
ATOM     23  C   UNL A   1      34.656  30.398  27.804  1.00  0.00     0.338 C 
ATOM     24  O   UNL A   1      33.823  29.554  27.514  1.00  0.00    -0.246 OA
BRANCH  23  25
ATOM     25  C   UNL A   1      35.996  30.058  28.325  1.00  0.00     0.060 A 
ATOM     26  C   UNL A   1      37.097  30.423  27.546  1.00  0.00     0.016 A 
ATOM     27  C   UNL A   1      36.183  29.352  29.515  1.00  0.00     0.016 A 
ATOM     28  C   UNL A   1      38.386  30.079  27.944  1.00  0.00     0.010 A 
ATOM     29  C   UNL A   1      37.480  28.999  29.913  1.00  0.00     0.010 A 
ATOM     30  C   UNL A   1      38.588  29.346  29.120  1.00  0.00    -0.014 A 
BRANCH  30  31
ATOM     31  C   UNL A   1      39.963  28.904  29.461  1.00  0.00     0.031 A 
ATOM     32  C   UNL A   1      40.725  29.592  30.559  1.00  0.00     0.074 A 
ATOM     33  C   UNL A   1      40.507  27.849  28.825  1.00  0.00     0.049 A 
ATOM     34  N   UNL A   1      41.895  29.295  31.062  1.00  0.00    -0.248 NA
ATOM     35  C   UNL A   1      40.085  30.767  31.173  1.00  0.00     0.031 C 
ATOM     36  C   UNL A   1      39.877  27.105  27.735  1.00  0.00     0.029 A 
ATOM     37  N   UNL A   1      41.715  27.223  29.005  1.00  0.00    -0.354 N 
ATOM     38  C   UNL A   1      42.145  30.256  32.034  1.00  0.00     0.074 A 
ATOM     39  C   UNL A   1      41.009  31.154  32.042  1.00  0.00     0.031 C 
ATOM     40  C   UNL A   1      40.704  26.122  27.341  1.00  0.00     0.029 A 
ATOM     41  C   UNL A   1      41.926  26.173  28.142  1.00  0.00     0.049 A 
ATOM     42  H   UNL A   1      42.370  27.499  29.687  1.00  0.00     0.167 HD
ATOM     43  C   UNL A   1      43.211  30.369  32.862  1.00  0.00     0.034 A 
ATOM     44  C   UNL A   1      42.979  25.342  28.016  1.00  0.00     0.034 A 
ATOM     45  C   UNL A   1      44.327  29.462  32.879  1.00  0.00     0.049 A 
ATOM     46  C   UNL A   1      44.140  25.475  28.966  1.00  0.00     0.074 A 
ATOM     47  C   UNL A   1      45.434  29.472  33.710  1.00  0.00     0.029 A 
ATOM     48  N   UNL A   1      44.482  28.381  32.024  1.00  0.00    -0.354 N 
ATOM     49  N   UNL A   1      44.299  26.309  29.966  1.00  0.00    -0.248 NA
ATOM     50  C   UNL A   1      45.251  24.527  28.793  1.00  0.00     0.031 C 
ATOM     51  C   UNL A   1      46.262  28.402  33.352  1.00  0.00     0.029 A 
ATOM     52  C   UNL A   1      45.666  27.719  32.305  1.00  0.00     0.049 A 
ATOM     53  H   UNL A   1      43.844  28.122  31.320  1.00  0.00     0.167 HD
ATOM     54  C   UNL A   1      45.512  25.971  30.556  1.00  0.00     0.074 A 
ATOM     55  C   UNL A   1      46.032  24.836  29.820  1.00  0.00     0.031 C 
ATOM     56  C   UNL A   1      46.148  26.560  31.599  1.00  0.00     0.034 A 
BRANCH  43  57
ATOM     57  C   UNL A   1      43.198  31.499  33.856  1.00  0.00     0.023 A 
ATOM     58  C   UNL A   1      43.794  32.729  33.511  1.00  0.00     0.012 A 
ATOM     59  C   UNL A   1      42.562  31.364  35.105  1.00  0.00     0.148 A 
ATOM     60  C   UNL A   1      43.781  33.799  34.405  1.00  0.00     0.002 A 
ATOM     61  C   UNL A   1      42.524  32.447  35.977  1.00  0.00     0.091 A 
ATOM     62  F   UNL A   1      42.025  30.178  35.427  1.00  0.00    -0.205 F 
ATOM     63  C   UNL A   1      43.139  33.661  35.632  1.00  0.00     0.022 A 
BRANCH  61  64
ATOM     64  S   UNL A   1      41.664  32.380  37.553  1.00  0.00     0.127 S 
ATOM     65  O   UNL A   1      41.821  33.752  38.034  1.00  0.00    -0.237 OA
ATOM     66  O   UNL A   1      40.300  32.029  37.151  1.00  0.00    -0.237 OA
ATOM     67  O   UNL A   1      42.344  31.355  38.332  1.00  0.00    -0.744 OA
ENDBRANCH  61  64
ENDBRANCH  43  57
BRANCH  44  68
ATOM     68  C   UNL A   1      42.953  24.264  26.988  1.00  0.00     0.023 A 
ATOM     69  C   UNL A   1      43.620  24.459  25.763  1.00  0.00     0.012 A 
ATOM     70  C   UNL A   1      42.296  23.042  27.227  1.00  0.00     0.148 A 
ATOM     71  C   UNL A   1      43.615  23.462  24.786  1.00  0.00     0.002 A 
ATOM     72  C   UNL A   1      42.338  22.035  26.269  1.00  0.00     0.091 A 
ATOM     73  F   UNL A   1      41.645  22.886  28.388  1.00  0.00    -0.205 F 
ATOM     74  C   UNL A   1      42.985  22.247  25.043  1.00  0.00     0.022 A 
BRANCH  72  75
ATOM     75  S   UNL A   1      41.655  20.401  26.574  1.00  0.00     0.127 S 
ATOM     76  O   UNL A   1      40.226  20.687  26.669  1.00  0.00    -0.237 OA
ATOM     77  O   UNL A   1      42.058  19.669  25.372  1.00  0.00    -0.237 OA
ATOM     78  O   UNL A   1      42.295  19.937  27.798  1.00  0.00    -0.744 OA
ENDBRANCH  72  75
ENDBRANCH  44  68
BRANCH  56  79
ATOM     79  C   UNL A   1      47.477  25.985  32.017  1.00  0.00     0.023 A 
ATOM     80  C   UNL A   1      48.646  26.369  31.330  1.00  0.00     0.012 A 
ATOM     81  C   UNL A   1      47.580  25.114  33.120  1.00  0.00     0.148 A 
ATOM     82  C   UNL A   1      49.891  25.872  31.712  1.00  0.00     0.002 A 
ATOM     83  C   UNL A   1      48.830  24.655  33.521  1.00  0.00     0.091 A 
ATOM     84  F   UNL A   1      46.458  24.738  33.750  1.00  0.00    -0.205 F 
ATOM     85  C   UNL A   1      49.985  25.023  32.813  1.00  0.00     0.022 A 
BRANCH  83  86
ATOM     86  S   UNL A   1      49.033  23.632  34.985  1.00  0.00     0.127 S 
ATOM     87  O   UNL A   1      50.477  23.407  34.997  1.00  0.00    -0.237 OA
ATOM     88  O   UNL A   1      48.544  24.502  36.055  1.00  0.00    -0.237 OA
ATOM     89  O   UNL A   1      48.208  22.454  34.751  1.00  0.00    -0.744 OA
ENDBRANCH  83  86
ENDBRANCH  56  79
ENDBRANCH  30  31
ENDBRANCH  23  25
ENDBRANCH  22  23
ENDBRANCH  21  22
ENDBRANCH   1  21
TORSDOF 17
ENDMDL
MODEL 2
REMARK VINA RESULT:     -10.3      1.435      2.042
REMARK SMILES Cc1cc(C)cc([S@@](=O)Cc2ccc(C(=O)OCCOC(=O)c3ccc(-c4c5nc(c(-c6cccc(S(=O)(=O)[O-])c6F)c6ccc([nH]6)c(-c6cccc(S(=O)(=O)[O-])c6F)c6nc(c(-c7cccc(S(=O)(=O)[O-])c7F)c7ccc4[nH]7)C=C6)C=C5)cc3)o2)c1
REMARK SMILES IDX 18 1 17 2 15 3 16 4 14 5 11 6 12 7 86 8 13 9 10 10 8 11 9 12
REMARK SMILES IDX 7 13 1 14 2 15 3 16 87 17 4 18 5 19 6 20 19 21 20 22 21 23
REMARK SMILES IDX 22 24 23 25 24 26 85 27 25 28 84 29 26 30 27 31 28 32 78 33
REMARK SMILES IDX 29 34 83 35 77 36 79 37 30 38 82 39 76 40 75 41 31 43 63 44
REMARK SMILES IDX 43 45 62 46 44 47 47 48 61 49 80 50 45 51 46 52 60 54 81 55
REMARK SMILES IDX 48 56 32 57 33 58 41 59 34 60 36 61 42 62 35 63 37 64 38 65
REMARK SMILES IDX 39 66 40 67 64 68 65 69 73 70 66 71 68 72 74 73 67 74 69 75
REMARK SMILES IDX 70 76 71 77 72 78 49 79 50 80 58 81 51 82 53 83 59 84 52 85
REMARK SMILES IDX 54 86 55 87 56 88 57 89
REMARK H PARENT 79 42 47 53
REMARK Flexibility Score: inf
ROOT
ATOM      1  C   UNL A   1      34.108  33.868  28.750  1.00  0.00     0.275 C 
ENDROOT
BRANCH   1   2
ATOM      2  O   UNL A   1      33.072  34.342  29.629  1.00  0.00    -0.456 OA
BRANCH   2   3
ATOM      3  C   UNL A   1      32.904  35.702  29.677  1.00  0.00     0.374 C 
ATOM      4  O   UNL A   1      32.430  36.369  28.775  1.00  0.00    -0.242 OA
BRANCH   3   5
ATOM      5  C   UNL A   1      33.271  36.179  30.992  1.00  0.00     0.211 A 
ATOM      6  C   UNL A   1      34.225  35.967  32.981  1.00  0.00     0.117 A 
ATOM      7  C   UNL A   1      33.964  37.311  32.799  1.00  0.00     0.047 A 
ATOM      8  O   UNL A   1      33.753  35.274  31.901  1.00  0.00    -0.453 OA
ATOM      9  C   UNL A   1      33.345  37.445  31.535  1.00  0.00     0.058 A 
BRANCH   6  10
ATOM     10  C   UNL A   1      35.044  35.183  33.948  1.00  0.00     0.185 C 
BRANCH  10  11
ATOM     11  S   UNL A   1      35.443  33.468  33.537  1.00  0.00     0.061 S 
ATOM     12  O   UNL A   1      35.936  32.756  34.762  1.00  0.00    -0.254 OA
BRANCH  11  13
ATOM     13  C   UNL A   1      36.869  33.613  32.442  1.00  0.00     0.040 A 
ATOM     14  C   UNL A   1      37.774  33.500  28.751  1.00  0.00     0.044 C 
ATOM     15  C   UNL A   1      37.903  33.596  30.242  1.00  0.00    -0.050 A 
ATOM     16  C   UNL A   1      39.112  34.015  30.812  1.00  0.00     0.007 A 
ATOM     17  C   UNL A   1      36.808  33.329  31.075  1.00  0.00     0.021 A 
ATOM     18  C   UNL A   1      39.226  34.190  32.195  1.00  0.00    -0.050 A 
ATOM     19  C   UNL A   1      40.528  34.618  32.802  1.00  0.00     0.044 C 
ATOM     20  C   UNL A   1      38.092  34.014  32.995  1.00  0.00     0.021 A 
ENDBRANCH  11  13
ENDBRANCH  10  11
ENDBRANCH   6  10
ENDBRANCH   3   5
ENDBRANCH   2   3
ENDBRANCH   1   2
BRANCH   1  21
ATOM     21  C   UNL A   1      34.166  32.336  28.732  1.00  0.00     0.275 C 
BRANCH  21  22
ATOM     22  O   UNL A   1      34.693  31.832  27.492  1.00  0.00    -0.458 OA
BRANCH  22  23
ATOM     23  C   UNL A   1      34.849  30.487  27.431  1.00  0.00     0.338 C 
ATOM     24  O   UNL A   1      34.130  29.701  26.833  1.00  0.00    -0.246 OA
BRANCH  23  25
ATOM     25  C   UNL A   1      36.107  30.080  28.090  1.00  0.00     0.060 A 
ATOM     26  C   UNL A   1      37.281  30.163  27.336  1.00  0.00     0.016 A 
ATOM     27  C   UNL A   1      36.145  29.576  29.392  1.00  0.00     0.016 A 
ATOM     28  C   UNL A   1      38.493  29.738  27.872  1.00  0.00     0.010 A 
ATOM     29  C   UNL A   1      37.364  29.141  29.929  1.00  0.00     0.010 A 
ATOM     30  C   UNL A   1      38.543  29.204  29.165  1.00  0.00    -0.014 A 
BRANCH  30  31
ATOM     31  C   UNL A   1      39.830  28.662  29.666  1.00  0.00     0.031 A 
ATOM     32  C   UNL A   1      40.562  29.365  30.776  1.00  0.00     0.074 A 
ATOM     33  C   UNL A   1      40.315  27.510  29.167  1.00  0.00     0.049 A 
ATOM     34  N   UNL A   1      41.647  29.001  31.409  1.00  0.00    -0.248 NA
ATOM     35  C   UNL A   1      39.997  30.644  31.235  1.00  0.00     0.031 C 
ATOM     36  C   UNL A   1      39.708  26.739  28.082  1.00  0.00     0.029 A 
ATOM     37  N   UNL A   1      41.432  26.788  29.508  1.00  0.00    -0.354 N 
ATOM     38  C   UNL A   1      41.911  30.012  32.323  1.00  0.00     0.074 A 
ATOM     39  C   UNL A   1      40.877  31.013  32.155  1.00  0.00     0.031 C 
ATOM     40  C   UNL A   1      40.459  25.652  27.844  1.00  0.00     0.029 A 
ATOM     41  C   UNL A   1      41.606  25.653  28.751  1.00  0.00     0.049 A 
ATOM     42  H   UNL A   1      42.050  27.056  30.225  1.00  0.00     0.167 HD
ATOM     43  C   UNL A   1      42.908  30.093  33.237  1.00  0.00     0.034 A 
ATOM     44  C   UNL A   1      42.574  24.717  28.788  1.00  0.00     0.034 A 
ATOM     45  C   UNL A   1      43.918  29.087  33.428  1.00  0.00     0.049 A 
ATOM     46  C   UNL A   1      43.657  24.818  29.830  1.00  0.00     0.074 A 
ATOM     47  C   UNL A   1      44.944  29.061  34.357  1.00  0.00     0.029 A 
ATOM     48  N   UNL A   1      44.033  27.927  32.676  1.00  0.00    -0.354 N 
ATOM     49  N   UNL A   1      43.814  25.714  30.775  1.00  0.00    -0.248 NA
ATOM     50  C   UNL A   1      44.674  23.756  29.836  1.00  0.00     0.031 C 
ATOM     51  C   UNL A   1      45.685  27.890  34.161  1.00  0.00     0.029 A 
ATOM     52  C   UNL A   1      45.113  27.181  33.117  1.00  0.00     0.049 A 
ATOM     53  H   UNL A   1      43.435  27.672  31.937  1.00  0.00     0.167 HD
ATOM     54  C   UNL A   1      44.930  25.313  31.500  1.00  0.00     0.074 A 
ATOM     55  C   UNL A   1      45.392  24.075  30.905  1.00  0.00     0.031 C 
ATOM     56  C   UNL A   1      45.532  25.924  32.550  1.00  0.00     0.034 A 
BRANCH  43  57
ATOM     57  C   UNL A   1      42.926  31.299  34.137  1.00  0.00     0.023 A 
ATOM     58  C   UNL A   1      43.599  32.464  33.716  1.00  0.00     0.012 A 
ATOM     59  C   UNL A   1      42.246  31.300  35.370  1.00  0.00     0.148 A 
ATOM     60  C   UNL A   1      43.618  33.603  34.520  1.00  0.00     0.002 A 
ATOM     61  C   UNL A   1      42.241  32.451  36.150  1.00  0.00     0.091 A 
ATOM     62  F   UNL A   1      41.635  30.174  35.766  1.00  0.00    -0.205 F 
ATOM     63  C   UNL A   1      42.931  33.599  35.731  1.00  0.00     0.022 A 
BRANCH  61  64
ATOM     64  S   UNL A   1      41.330  32.558  37.696  1.00  0.00     0.127 S 
ATOM     65  O   UNL A   1      42.046  31.592  38.527  1.00  0.00    -0.237 OA
ATOM     66  O   UNL A   1      41.530  33.957  38.080  1.00  0.00    -0.237 OA
ATOM     67  O   UNL A   1      39.954  32.213  37.369  1.00  0.00    -0.744 OA
ENDBRANCH  61  64
ENDBRANCH  43  57
BRANCH  44  68
ATOM     68  C   UNL A   1      42.525  23.563  27.847  1.00  0.00     0.023 A 
ATOM     69  C   UNL A   1      41.418  22.693  27.874  1.00  0.00     0.012 A 
ATOM     70  C   UNL A   1      43.553  23.339  26.911  1.00  0.00     0.148 A 
ATOM     71  C   UNL A   1      41.345  21.609  26.998  1.00  0.00     0.002 A 
ATOM     72  C   UNL A   1      43.450  22.286  26.008  1.00  0.00     0.091 A 
ATOM     73  F   UNL A   1      44.611  24.162  26.918  1.00  0.00    -0.205 F 
ATOM     74  C   UNL A   1      42.354  21.412  26.059  1.00  0.00     0.022 A 
BRANCH  72  75
ATOM     75  S   UNL A   1      44.647  22.040  24.691  1.00  0.00     0.127 S 
ATOM     76  O   UNL A   1      44.147  20.823  24.057  1.00  0.00    -0.237 OA
ATOM     77  O   UNL A   1      44.485  23.258  23.896  1.00  0.00    -0.237 OA
ATOM     78  O   UNL A   1      45.938  21.928  25.357  1.00  0.00    -0.744 OA
ENDBRANCH  72  75
ENDBRANCH  44  68
BRANCH  56  79
ATOM     79  C   UNL A   1      46.753  25.262  33.134  1.00  0.00     0.023 A 
ATOM     80  C   UNL A   1      46.608  24.374  34.219  1.00  0.00     0.012 A 
ATOM     81  C   UNL A   1      48.031  25.469  32.579  1.00  0.00     0.148 A 
ATOM     82  C   UNL A   1      47.718  23.728  34.762  1.00  0.00     0.002 A 
ATOM     83  C   UNL A   1      49.128  24.789  33.099  1.00  0.00     0.091 A 
ATOM     84  F   UNL A   1      48.159  26.334  31.562  1.00  0.00    -0.205 F 
ATOM     85  C   UNL A   1      48.976  23.927  34.196  1.00  0.00     0.022 A 
BRANCH  83  86
ATOM     86  S   UNL A   1      50.761  24.930  32.361  1.00  0.00     0.127 S 
ATOM     87  O   UNL A   1      50.522  24.442  31.005  1.00  0.00    -0.237 OA
ATOM     88  O   UNL A   1      51.032  26.365  32.453  1.00  0.00    -0.237 OA
ATOM     89  O   UNL A   1      51.632  24.105  33.190  1.00  0.00    -0.744 OA
ENDBRANCH  83  86
ENDBRANCH  56  79
ENDBRANCH  30  31
ENDBRANCH  23  25
ENDBRANCH  22  23
ENDBRANCH  21  22
ENDBRANCH   1  21
TORSDOF 17
ENDMDL
MODEL 3
REMARK VINA RESULT:     -10.3      4.274     12.360
REMARK SMILES Cc1cc(C)cc([S@@](=O)Cc2ccc(C(=O)OCCOC(=O)c3ccc(-c4c5nc(c(-c6cccc(S(=O)(=O)[O-])c6F)c6ccc([nH]6)c(-c6cccc(S(=O)(=O)[O-])c6F)c6nc(c(-c7cccc(S(=O)(=O)[O-])c7F)c7ccc4[nH]7)C=C6)C=C5)cc3)o2)c1
REMARK SMILES IDX 18 1 17 2 15 3 16 4 14 5 11 6 12 7 86 8 13 9 10 10 8 11 9 12
REMARK SMILES IDX 7 13 1 14 2 15 3 16 87 17 4 18 5 19 6 20 19 21 20 22 21 23
REMARK SMILES IDX 22 24 23 25 24 26 85 27 25 28 84 29 26 30 27 31 28 32 78 33
REMARK SMILES IDX 29 34 83 35 77 36 79 37 30 38 82 39 76 40 75 41 31 43 63 44
REMARK SMILES IDX 43 45 62 46 44 47 47 48 61 49 80 50 45 51 46 52 60 54 81 55
REMARK SMILES IDX 48 56 32 57 33 58 41 59 34 60 36 61 42 62 35 63 37 64 38 65
REMARK SMILES IDX 39 66 40 67 64 68 65 69 73 70 66 71 68 72 74 73 67 74 69 75
REMARK SMILES IDX 70 76 71 77 72 78 49 79 50 80 58 81 51 82 53 83 59 84 52 85
REMARK SMILES IDX 54 86 55 87 56 88 57 89
REMARK H PARENT 79 42 47 53
REMARK Flexibility Score: inf
ROOT
ATOM      1  C   UNL A   1      41.134  19.627  26.957  1.00  0.00     0.275 C 
ENDROOT
BRANCH   1   2
ATOM      2  O   UNL A   1      42.515  19.248  27.095  1.00  0.00    -0.456 OA
BRANCH   2   3
ATOM      3  C   UNL A   1      43.035  18.499  26.072  1.00  0.00     0.374 C 
ATOM      4  O   UNL A   1      42.630  17.395  25.751  1.00  0.00    -0.242 OA
BRANCH   3   5
ATOM      5  C   UNL A   1      44.046  19.272  25.385  1.00  0.00     0.211 A 
ATOM      6  C   UNL A   1      44.863  21.142  24.519  1.00  0.00     0.117 A 
ATOM      7  C   UNL A   1      45.911  20.247  24.610  1.00  0.00     0.047 A 
ATOM      8  O   UNL A   1      43.717  20.526  24.942  1.00  0.00    -0.453 OA
ATOM      9  C   UNL A   1      45.388  19.050  25.151  1.00  0.00     0.058 A 
BRANCH   6  10
ATOM     10  C   UNL A   1      44.758  22.607  24.270  1.00  0.00     0.185 C 
BRANCH  10  11
ATOM     11  S   UNL A   1      43.592  23.563  25.267  1.00  0.00     0.061 S 
ATOM     12  O   UNL A   1      43.377  24.910  24.641  1.00  0.00    -0.254 OA
BRANCH  11  13
ATOM     13  C   UNL A   1      44.493  23.868  26.800  1.00  0.00     0.040 A 
ATOM     14  C   UNL A   1      47.756  25.365  28.050  1.00  0.00     0.044 C 
ATOM     15  C   UNL A   1      46.423  24.679  28.036  1.00  0.00    -0.050 A 
ATOM     16  C   UNL A   1      45.744  24.447  29.239  1.00  0.00     0.007 A 
ATOM     17  C   UNL A   1      45.816  24.319  26.825  1.00  0.00     0.021 A 
ATOM     18  C   UNL A   1      44.464  23.884  29.239  1.00  0.00    -0.050 A 
ATOM     19  C   UNL A   1      43.751  23.618  30.530  1.00  0.00     0.044 C 
ATOM     20  C   UNL A   1      43.839  23.625  28.014  1.00  0.00     0.021 A 
ENDBRANCH  11  13
ENDBRANCH  10  11
ENDBRANCH   6  10
ENDBRANCH   3   5
ENDBRANCH   2   3
ENDBRANCH   1   2
BRANCH   1  21
ATOM     21  C   UNL A   1      40.996  21.105  26.574  1.00  0.00     0.275 C 
BRANCH  21  22
ATOM     22  O   UNL A   1      39.899  21.739  27.256  1.00  0.00    -0.458 OA
BRANCH  22  23
ATOM     23  C   UNL A   1      39.226  22.668  26.536  1.00  0.00     0.338 C 
ATOM     24  O   UNL A   1      38.427  22.449  25.638  1.00  0.00    -0.246 OA
BRANCH  23  25
ATOM     25  C   UNL A   1      39.484  24.022  27.067  1.00  0.00     0.060 A 
ATOM     26  C   UNL A   1      40.076  24.947  26.203  1.00  0.00     0.016 A 
ATOM     27  C   UNL A   1      39.211  24.375  28.390  1.00  0.00     0.016 A 
ATOM     28  C   UNL A   1      40.405  26.222  26.654  1.00  0.00     0.010 A 
ATOM     29  C   UNL A   1      39.549  25.656  28.847  1.00  0.00     0.010 A 
ATOM     30  C   UNL A   1      40.164  26.582  27.986  1.00  0.00    -0.014 A 
BRANCH  30  31
ATOM     31  C   UNL A   1      40.623  27.910  28.463  1.00  0.00     0.031 A 
ATOM     32  C   UNL A   1      42.082  28.269  28.402  1.00  0.00     0.074 A 
ATOM     33  C   UNL A   1      39.726  28.815  28.898  1.00  0.00     0.049 A 
ATOM     34  N   UNL A   1      42.664  29.405  28.684  1.00  0.00    -0.248 NA
ATOM     35  C   UNL A   1      43.006  27.211  27.963  1.00  0.00     0.031 C 
ATOM     36  C   UNL A   1      38.287  28.586  29.017  1.00  0.00     0.029 A 
ATOM     37  N   UNL A   1      39.897  30.110  29.320  1.00  0.00    -0.354 N 
ATOM     38  C   UNL A   1      44.022  29.196  28.482  1.00  0.00     0.074 A 
ATOM     39  C   UNL A   1      44.180  27.818  28.064  1.00  0.00     0.031 C 
ATOM     40  C   UNL A   1      37.703  29.703  29.484  1.00  0.00     0.029 A 
ATOM     41  C   UNL A   1      38.727  30.722  29.706  1.00  0.00     0.049 A 
ATOM     42  H   UNL A   1      40.773  30.559  29.346  1.00  0.00     0.167 HD
ATOM     43  C   UNL A   1      45.045  30.076  28.609  1.00  0.00     0.034 A 
ATOM     44  C   UNL A   1      38.505  31.965  30.178  1.00  0.00     0.034 A 
ATOM     45  C   UNL A   1      44.890  31.452  28.994  1.00  0.00     0.049 A 
ATOM     46  C   UNL A   1      39.656  32.929  30.286  1.00  0.00     0.074 A 
ATOM     47  C   UNL A   1      45.863  32.430  29.110  1.00  0.00     0.029 A 
ATOM     48  N   UNL A   1      43.684  32.050  29.329  1.00  0.00    -0.354 N 
ATOM     49  N   UNL A   1      40.915  32.753  29.963  1.00  0.00    -0.248 NA
ATOM     50  C   UNL A   1      39.348  34.277  30.787  1.00  0.00     0.031 C 
ATOM     51  C   UNL A   1      45.247  33.617  29.523  1.00  0.00     0.029 A 
ATOM     52  C   UNL A   1      43.888  33.381  29.654  1.00  0.00     0.049 A 
ATOM     53  H   UNL A   1      42.811  31.595  29.335  1.00  0.00     0.167 HD
ATOM     54  C   UNL A   1      41.544  33.970  30.198  1.00  0.00     0.074 A 
ATOM     55  C   UNL A   1      40.520  34.886  30.661  1.00  0.00     0.031 C 
ATOM     56  C   UNL A   1      42.853  34.296  30.064  1.00  0.00     0.034 A 
BRANCH  43  57
ATOM     57  C   UNL A   1      46.428  29.580  28.282  1.00  0.00     0.023 A 
ATOM     58  C   UNL A   1      46.865  29.586  26.942  1.00  0.00     0.012 A 
ATOM     59  C   UNL A   1      47.309  29.154  29.296  1.00  0.00     0.148 A 
ATOM     60  C   UNL A   1      48.147  29.150  26.611  1.00  0.00     0.002 A 
ATOM     61  C   UNL A   1      48.597  28.753  28.961  1.00  0.00     0.091 A 
ATOM     62  F   UNL A   1      46.866  29.129  30.561  1.00  0.00    -0.205 F 
ATOM     63  C   UNL A   1      49.015  28.742  27.620  1.00  0.00     0.022 A 
BRANCH  61  64
ATOM     64  S   UNL A   1      49.805  28.272  30.201  1.00  0.00     0.127 S 
ATOM     65  O   UNL A   1      50.964  27.944  29.373  1.00  0.00    -0.237 OA
ATOM     66  O   UNL A   1      49.948  29.497  30.990  1.00  0.00    -0.237 OA
ATOM     67  O   UNL A   1      49.209  27.157  30.923  1.00  0.00    -0.744 OA
ENDBRANCH  61  64
ENDBRANCH  43  57
BRANCH  44  68
ATOM     68  C   UNL A   1      37.118  32.388  30.522  1.00  0.00     0.023 A 
ATOM     69  C   UNL A   1      36.662  32.258  31.847  1.00  0.00     0.012 A 
ATOM     70  C   UNL A   1      36.262  32.944  29.551  1.00  0.00     0.148 A 
ATOM     71  C   UNL A   1      35.370  32.653  32.196  1.00  0.00     0.002 A 
ATOM     72  C   UNL A   1      34.994  33.382  29.916  1.00  0.00     0.091 A 
ATOM     73  F   UNL A   1      36.705  33.036  28.290  1.00  0.00    -0.205 F 
ATOM     74  C   UNL A   1      34.541  33.225  31.234  1.00  0.00     0.022 A 
BRANCH  72  75
ATOM     75  S   UNL A   1      33.913  34.239  28.765  1.00  0.00     0.127 S 
ATOM     76  O   UNL A   1      34.774  35.321  28.296  1.00  0.00    -0.237 OA
ATOM     77  O   UNL A   1      33.634  33.200  27.772  1.00  0.00    -0.237 OA
ATOM     78  O   UNL A   1      32.753  34.641  29.550  1.00  0.00    -0.744 OA
ENDBRANCH  72  75
ENDBRANCH  44  68
BRANCH  56  79
ATOM     79  C   UNL A   1      43.259  35.704  30.413  1.00  0.00     0.023 A 
ATOM     80  C   UNL A   1      43.650  36.007  31.732  1.00  0.00     0.012 A 
ATOM     81  C   UNL A   1      43.310  36.714  29.431  1.00  0.00     0.148 A 
ATOM     82  C   UNL A   1      44.054  37.297  32.076  1.00  0.00     0.002 A 
ATOM     83  C   UNL A   1      43.753  37.987  29.772  1.00  0.00     0.091 A 
ATOM     84  F   UNL A   1      42.913  36.418  28.184  1.00  0.00    -0.205 F 
ATOM     85  C   UNL A   1      44.116  38.284  31.095  1.00  0.00     0.022 A 
BRANCH  83  86
ATOM     86  S   UNL A   1      43.943  39.281  28.539  1.00  0.00     0.127 S 
ATOM     87  O   UNL A   1      44.540  40.359  29.323  1.00  0.00    -0.237 OA
ATOM     88  O   UNL A   1      44.845  38.666  27.564  1.00  0.00    -0.237 OA
ATOM     89  O   UNL A   1      42.600  39.532  28.031  1.00  0.00    -0.744 OA
ENDBRANCH  83  86
ENDBRANCH  56  79
ENDBRANCH  30  31
ENDBRANCH  23  25
ENDBRANCH  22  23
ENDBRANCH  21  22
ENDBRANCH   1  21
TORSDOF 17
ENDMDL
