MODEL 1
REMARK VINA RESULT:     -11.5      0.000      0.000
REMARK SMILES Cc1nc(CNC(=O)[C@H]2CCO[C@H]2C)sc1C(=O)OCCOC(=O)c1ccc(-c2c3nc(c(-c4cccc(S(=O)(=O)[O-])c4F)c4ccc([nH]4)c(-c4cccc(S(=O)(=O)[O-])c4F)c4nc(c(-c5cccc(S(=O)(=O)[O-])c5F)c5ccc2[nH]5)C=C4)C=C3)cc1
REMARK SMILES IDX 20 1 19 2 17 3 18 4 16 5 1 6 2 7 3 8 4 9 15 10 5 11 6 12
REMARK SMILES IDX 7 13 8 15 9 16 10 17 13 18 11 19 12 20 14 21 21 22 22 23
REMARK SMILES IDX 23 24 24 25 25 26 26 27 87 28 27 29 86 30 28 31 29 32 30 33
REMARK SMILES IDX 80 34 31 35 85 36 79 37 81 38 32 39 84 40 78 41 77 42 33 44
REMARK SMILES IDX 65 45 45 46 64 47 46 48 49 49 63 50 82 51 47 52 48 53 62 55
REMARK SMILES IDX 83 56 50 57 34 58 35 59 43 60 36 61 38 62 44 63 37 64 39 65
REMARK SMILES IDX 40 66 41 67 42 68 66 69 67 70 75 71 68 72 70 73 76 74 69 75
REMARK SMILES IDX 71 76 72 77 73 78 74 79 51 80 52 81 60 82 53 83 55 84 61 85
REMARK SMILES IDX 54 86 56 87 57 88 58 89 59 90
REMARK H PARENT 6 14 81 43 49 54
REMARK Flexibility Score: inf
ROOT
ATOM      1  C   UNL A   1      31.260  28.993  24.830  1.00  0.00     0.275 C 
ENDROOT
BRANCH   1   2
ATOM      2  O   UNL A   1      31.604  29.055  23.429  1.00  0.00    -0.458 OA
BRANCH   2   3
ATOM      3  C   UNL A   1      30.783  28.385  22.565  1.00  0.00     0.350 C 
ATOM      4  O   UNL A   1      30.028  28.941  21.781  1.00  0.00    -0.245 OA
BRANCH   3   5
ATOM      5  C   UNL A   1      31.005  26.953  22.645  1.00  0.00     0.135 A 
ATOM      6  C   UNL A   1      29.197  25.985  24.230  1.00  0.00     0.068 C 
ATOM      7  C   UNL A   1      30.426  25.939  23.393  1.00  0.00     0.063 A 
ATOM      8  N   UNL A   1      31.090  24.715  23.323  1.00  0.00    -0.244 NA
ATOM      9  C   UNL A   1      32.123  24.792  22.511  1.00  0.00     0.113 A 
ATOM     10  S   UNL A   1      32.204  26.252  21.618  1.00  0.00    -0.110 S 
BRANCH   9  11
ATOM     11  C   UNL A   1      33.163  23.734  22.268  1.00  0.00     0.183 C 
BRANCH  11  12
ATOM     12  N   UNL A   1      34.138  23.689  23.346  1.00  0.00    -0.349 N 
ATOM     13  C   UNL A   1      34.420  22.674  24.210  1.00  0.00     0.226 C 
ATOM     14  H   UNL A   1      34.670  24.507  23.467  1.00  0.00     0.163 HD
ATOM     15  O   UNL A   1      35.351  22.808  25.003  1.00  0.00    -0.275 OA
BRANCH  13  16
ATOM     16  C   UNL A   1      33.577  21.418  24.159  1.00  0.00     0.109 C 
ATOM     17  C   UNL A   1      34.182  20.225  24.873  1.00  0.00     0.044 C 
ATOM     18  C   UNL A   1      32.225  21.545  24.857  1.00  0.00     0.127 C 
ATOM     19  C   UNL A   1      32.972  19.337  25.059  1.00  0.00     0.161 C 
ATOM     20  O   UNL A   1      31.835  20.198  25.208  1.00  0.00    -0.378 OA
ATOM     21  C   UNL A   1      32.222  22.362  26.146  1.00  0.00     0.039 C 
ENDBRANCH  13  16
ENDBRANCH  11  12
ENDBRANCH   9  11
ENDBRANCH   3   5
ENDBRANCH   2   3
ENDBRANCH   1   2
BRANCH   1  22
ATOM     22  C   UNL A   1      31.634  30.286  25.562  1.00  0.00     0.275 C 
BRANCH  22  23
ATOM     23  O   UNL A   1      32.961  30.218  26.117  1.00  0.00    -0.458 OA
BRANCH  23  24
ATOM     24  C   UNL A   1      33.286  31.243  26.937  1.00  0.00     0.338 C 
ATOM     25  O   UNL A   1      32.562  32.160  27.289  1.00  0.00    -0.246 OA
BRANCH  24  26
ATOM     26  C   UNL A   1      34.617  31.021  27.516  1.00  0.00     0.060 A 
ATOM     27  C   UNL A   1      34.934  29.713  27.871  1.00  0.00     0.016 A 
ATOM     28  C   UNL A   1      35.491  32.063  27.821  1.00  0.00     0.016 A 
ATOM     29  C   UNL A   1      36.095  29.429  28.576  1.00  0.00     0.010 A 
ATOM     30  C   UNL A   1      36.688  31.771  28.494  1.00  0.00     0.010 A 
ATOM     31  C   UNL A   1      36.988  30.456  28.898  1.00  0.00    -0.014 A 
BRANCH  31  32
ATOM     32  C   UNL A   1      38.210  30.140  29.684  1.00  0.00     0.031 A 
ATOM     33  C   UNL A   1      39.254  29.214  29.123  1.00  0.00     0.074 A 
ATOM     34  C   UNL A   1      38.392  30.702  30.896  1.00  0.00     0.049 A 
ATOM     35  N   UNL A   1      40.338  28.750  29.690  1.00  0.00    -0.248 NA
ATOM     36  C   UNL A   1      39.053  28.745  27.743  1.00  0.00     0.031 C 
ATOM     37  C   UNL A   1      37.466  31.636  31.542  1.00  0.00     0.029 A 
ATOM     38  N   UNL A   1      39.410  30.563  31.807  1.00  0.00    -0.354 N 
ATOM     39  C   UNL A   1      40.917  27.892  28.763  1.00  0.00     0.074 A 
ATOM     40  C   UNL A   1      40.065  27.901  27.593  1.00  0.00     0.031 C 
ATOM     41  C   UNL A   1      37.953  31.979  32.744  1.00  0.00     0.029 A 
ATOM     42  C   UNL A   1      39.190  31.244  32.983  1.00  0.00     0.049 A 
ATOM     43  H   UNL A   1      40.219  30.028  31.636  1.00  0.00     0.167 HD
ATOM     44  C   UNL A   1      42.058  27.169  28.873  1.00  0.00     0.034 A 
ATOM     45  C   UNL A   1      39.880  31.243  34.140  1.00  0.00     0.034 A 
ATOM     46  C   UNL A   1      42.920  27.193  30.026  1.00  0.00     0.049 A 
ATOM     47  C   UNL A   1      41.129  30.413  34.244  1.00  0.00     0.074 A 
ATOM     48  C   UNL A   1      44.115  26.524  30.219  1.00  0.00     0.029 A 
ATOM     49  N   UNL A   1      42.678  27.920  31.182  1.00  0.00    -0.354 N 
ATOM     50  N   UNL A   1      41.697  29.661  33.334  1.00  0.00    -0.248 NA
ATOM     51  C   UNL A   1      41.845  30.449  35.527  1.00  0.00     0.031 C 
ATOM     52  C   UNL A   1      44.581  26.821  31.504  1.00  0.00     0.029 A 
ATOM     53  C   UNL A   1      43.695  27.708  32.097  1.00  0.00     0.049 A 
ATOM     54  H   UNL A   1      41.897  28.500  31.331  1.00  0.00     0.167 HD
ATOM     55  C   UNL A   1      42.852  29.159  33.920  1.00  0.00     0.074 A 
ATOM     56  C   UNL A   1      42.915  29.714  35.258  1.00  0.00     0.031 C 
ATOM     57  C   UNL A   1      43.771  28.305  33.406  1.00  0.00     0.034 A 
BRANCH  44  58
ATOM     58  C   UNL A   1      42.448  26.289  27.713  1.00  0.00     0.023 A 
ATOM     59  C   UNL A   1      43.326  26.777  26.724  1.00  0.00     0.012 A 
ATOM     60  C   UNL A   1      41.990  24.960  27.634  1.00  0.00     0.148 A 
ATOM     61  C   UNL A   1      43.713  25.967  25.657  1.00  0.00     0.002 A 
ATOM     62  C   UNL A   1      42.417  24.143  26.593  1.00  0.00     0.091 A 
ATOM     63  F   UNL A   1      41.141  24.519  28.574  1.00  0.00    -0.205 F 
ATOM     64  C   UNL A   1      43.268  24.648  25.596  1.00  0.00     0.022 A 
BRANCH  62  65
ATOM     65  S   UNL A   1      41.964  22.409  26.470  1.00  0.00     0.127 S 
ATOM     66  O   UNL A   1      40.507  22.491  26.370  1.00  0.00    -0.237 OA
ATOM     67  O   UNL A   1      42.637  22.002  25.236  1.00  0.00    -0.237 OA
ATOM     68  O   UNL A   1      42.470  21.773  27.679  1.00  0.00    -0.744 OA
ENDBRANCH  62  65
ENDBRANCH  44  58
BRANCH  45  69
ATOM     69  C   UNL A   1      39.398  32.054  35.295  1.00  0.00     0.023 A 
ATOM     70  C   UNL A   1      38.514  31.484  36.230  1.00  0.00     0.012 A 
ATOM     71  C   UNL A   1      39.828  33.383  35.480  1.00  0.00     0.148 A 
ATOM     72  C   UNL A   1      38.043  32.232  37.310  1.00  0.00     0.002 A 
ATOM     73  C   UNL A   1      39.404  34.102  36.591  1.00  0.00     0.091 A 
ATOM     74  F   UNL A   1      40.656  33.915  34.570  1.00  0.00    -0.205 F 
ATOM     75  C   UNL A   1      38.496  33.535  37.498  1.00  0.00     0.022 A 
BRANCH  73  76
ATOM     76  S   UNL A   1      40.044  35.734  36.983  1.00  0.00     0.127 S 
ATOM     77  O   UNL A   1      41.479  35.479  37.072  1.00  0.00    -0.237 OA
ATOM     78  O   UNL A   1      39.628  36.508  35.813  1.00  0.00    -0.237 OA
ATOM     79  O   UNL A   1      39.391  36.125  38.225  1.00  0.00    -0.744 OA
ENDBRANCH  73  76
ENDBRANCH  45  69
BRANCH  57  80
ATOM     80  C   UNL A   1      44.954  27.951  34.269  1.00  0.00     0.023 A 
ATOM     81  C   UNL A   1      46.112  28.753  34.243  1.00  0.00     0.012 A 
ATOM     82  C   UNL A   1      44.889  26.857  35.154  1.00  0.00     0.148 A 
ATOM     83  C   UNL A   1      47.201  28.450  35.061  1.00  0.00     0.002 A 
ATOM     84  C   UNL A   1      45.957  26.593  36.003  1.00  0.00     0.091 A 
ATOM     85  F   UNL A   1      43.785  26.095  35.150  1.00  0.00    -0.205 F 
ATOM     86  C   UNL A   1      47.118  27.379  35.948  1.00  0.00     0.022 A 
BRANCH  84  87
ATOM     87  S   UNL A   1      45.902  25.298  37.246  1.00  0.00     0.127 S 
ATOM     88  O   UNL A   1      47.212  25.439  37.880  1.00  0.00    -0.237 OA
ATOM     89  O   UNL A   1      44.773  25.713  38.077  1.00  0.00    -0.237 OA
ATOM     90  O   UNL A   1      45.693  24.051  36.521  1.00  0.00    -0.744 OA
ENDBRANCH  84  87
ENDBRANCH  57  80
ENDBRANCH  31  32
ENDBRANCH  24  26
ENDBRANCH  23  24
ENDBRANCH  22  23
ENDBRANCH   1  22
TORSDOF 17
ENDMDL
MODEL 2
REMARK VINA RESULT:     -11.1      1.538      1.927
REMARK SMILES Cc1nc(CNC(=O)[C@H]2CCO[C@H]2C)sc1C(=O)OCCOC(=O)c1ccc(-c2c3nc(c(-c4cccc(S(=O)(=O)[O-])c4F)c4ccc([nH]4)c(-c4cccc(S(=O)(=O)[O-])c4F)c4nc(c(-c5cccc(S(=O)(=O)[O-])c5F)c5ccc2[nH]5)C=C4)C=C3)cc1
REMARK SMILES IDX 20 1 19 2 17 3 18 4 16 5 1 6 2 7 3 8 4 9 15 10 5 11 6 12
REMARK SMILES IDX 7 13 8 15 9 16 10 17 13 18 11 19 12 20 14 21 21 22 22 23
REMARK SMILES IDX 23 24 24 25 25 26 26 27 87 28 27 29 86 30 28 31 29 32 30 33
REMARK SMILES IDX 80 34 31 35 85 36 79 37 81 38 32 39 84 40 78 41 77 42 33 44
REMARK SMILES IDX 65 45 45 46 64 47 46 48 49 49 63 50 82 51 47 52 48 53 62 55
REMARK SMILES IDX 83 56 50 57 34 58 35 59 43 60 36 61 38 62 44 63 37 64 39 65
REMARK SMILES IDX 40 66 41 67 42 68 66 69 67 70 75 71 68 72 70 73 76 74 69 75
REMARK SMILES IDX 71 76 72 77 73 78 74 79 51 80 52 81 60 82 53 83 55 84 61 85
REMARK SMILES IDX 54 86 56 87 57 88 58 89 59 90
REMARK H PARENT 6 14 81 43 49 54
REMARK Flexibility Score: inf
ROOT
ATOM      1  C   UNL A   1      31.798  28.284  25.436  1.00  0.00     0.275 C 
ENDROOT
BRANCH   1   2
ATOM      2  O   UNL A   1      30.692  27.803  24.643  1.00  0.00    -0.458 OA
BRANCH   2   3
ATOM      3  C   UNL A   1      30.914  27.660  23.302  1.00  0.00     0.350 C 
ATOM      4  O   UNL A   1      30.275  28.251  22.444  1.00  0.00    -0.245 OA
BRANCH   3   5
ATOM      5  C   UNL A   1      32.055  26.798  23.055  1.00  0.00     0.135 A 
ATOM      6  C   UNL A   1      33.928  28.277  22.043  1.00  0.00     0.068 C 
ATOM      7  C   UNL A   1      33.288  26.998  22.453  1.00  0.00     0.063 A 
ATOM      8  N   UNL A   1      34.019  25.832  22.227  1.00  0.00    -0.244 NA
ATOM      9  C   UNL A   1      33.371  24.781  22.682  1.00  0.00     0.113 A 
ATOM     10  S   UNL A   1      31.981  25.163  23.608  1.00  0.00    -0.110 S 
BRANCH   9  11
ATOM     11  C   UNL A   1      33.758  23.338  22.516  1.00  0.00     0.183 C 
BRANCH  11  12
ATOM     12  N   UNL A   1      34.782  22.949  23.472  1.00  0.00    -0.349 N 
ATOM     13  C   UNL A   1      34.859  21.830  24.244  1.00  0.00     0.226 C 
ATOM     14  H   UNL A   1      35.526  23.585  23.575  1.00  0.00     0.163 HD
ATOM     15  O   UNL A   1      35.862  21.648  24.933  1.00  0.00    -0.275 OA
BRANCH  13  16
ATOM     16  C   UNL A   1      33.706  20.850  24.223  1.00  0.00     0.109 C 
ATOM     17  C   UNL A   1      34.014  19.502  24.845  1.00  0.00     0.044 C 
ATOM     18  C   UNL A   1      32.493  21.296  25.035  1.00  0.00     0.127 C 
ATOM     19  C   UNL A   1      32.626  18.960  25.102  1.00  0.00     0.161 C 
ATOM     20  O   UNL A   1      31.778  20.085  25.374  1.00  0.00    -0.378 OA
ATOM     21  C   UNL A   1      32.804  22.013  26.346  1.00  0.00     0.039 C 
ENDBRANCH  13  16
ENDBRANCH  11  12
ENDBRANCH   9  11
ENDBRANCH   3   5
ENDBRANCH   2   3
ENDBRANCH   1   2
BRANCH   1  22
ATOM     22  C   UNL A   1      31.674  29.782  25.731  1.00  0.00     0.275 C 
BRANCH  22  23
ATOM     23  O   UNL A   1      32.963  30.421  25.791  1.00  0.00    -0.458 OA
BRANCH  23  24
ATOM     24  C   UNL A   1      33.138  31.247  26.848  1.00  0.00     0.338 C 
ATOM     25  O   UNL A   1      32.303  31.981  27.352  1.00  0.00    -0.246 OA
BRANCH  24  26
ATOM     26  C   UNL A   1      34.457  31.019  27.451  1.00  0.00     0.060 A 
ATOM     27  C   UNL A   1      34.759  29.712  27.820  1.00  0.00     0.016 A 
ATOM     28  C   UNL A   1      35.333  32.056  27.764  1.00  0.00     0.016 A 
ATOM     29  C   UNL A   1      35.905  29.424  28.547  1.00  0.00     0.010 A 
ATOM     30  C   UNL A   1      36.516  31.761  28.459  1.00  0.00     0.010 A 
ATOM     31  C   UNL A   1      36.800  30.446  28.877  1.00  0.00    -0.014 A 
BRANCH  31  32
ATOM     32  C   UNL A   1      38.006  30.127  29.686  1.00  0.00     0.031 A 
ATOM     33  C   UNL A   1      39.060  29.201  29.143  1.00  0.00     0.074 A 
ATOM     34  C   UNL A   1      38.166  30.687  30.902  1.00  0.00     0.049 A 
ATOM     35  N   UNL A   1      40.132  28.734  29.730  1.00  0.00    -0.248 NA
ATOM     36  C   UNL A   1      38.885  28.735  27.758  1.00  0.00     0.031 C 
ATOM     37  C   UNL A   1      37.229  31.620  31.532  1.00  0.00     0.029 A 
ATOM     38  N   UNL A   1      39.166  30.544  31.833  1.00  0.00    -0.354 N 
ATOM     39  C   UNL A   1      40.727  27.877  28.812  1.00  0.00     0.074 A 
ATOM     40  C   UNL A   1      39.898  27.890  27.626  1.00  0.00     0.031 C 
ATOM     41  C   UNL A   1      37.693  31.960  32.744  1.00  0.00     0.029 A 
ATOM     42  C   UNL A   1      38.924  31.223  33.006  1.00  0.00     0.049 A 
ATOM     43  H   UNL A   1      39.978  30.008  31.676  1.00  0.00     0.167 HD
ATOM     44  C   UNL A   1      41.865  27.152  28.942  1.00  0.00     0.034 A 
ATOM     45  C   UNL A   1      39.591  31.218  34.176  1.00  0.00     0.034 A 
ATOM     46  C   UNL A   1      42.705  27.173  30.111  1.00  0.00     0.049 A 
ATOM     47  C   UNL A   1      40.837  30.386  34.302  1.00  0.00     0.074 A 
ATOM     48  C   UNL A   1      43.895  26.502  30.326  1.00  0.00     0.029 A 
ATOM     49  N   UNL A   1      42.441  27.897  31.264  1.00  0.00    -0.354 N 
ATOM     50  N   UNL A   1      41.422  29.636  33.401  1.00  0.00    -0.248 NA
ATOM     51  C   UNL A   1      41.528  30.418  35.599  1.00  0.00     0.031 C 
ATOM     52  C   UNL A   1      44.336  26.795  31.621  1.00  0.00     0.029 A 
ATOM     53  C   UNL A   1      43.441  27.682  32.199  1.00  0.00     0.049 A 
ATOM     54  H   UNL A   1      41.659  28.479  31.399  1.00  0.00     0.167 HD
ATOM     55  C   UNL A   1      42.565  29.130  34.008  1.00  0.00     0.074 A 
ATOM     56  C   UNL A   1      42.603  29.682  35.348  1.00  0.00     0.031 C 
ATOM     57  C   UNL A   1      43.492  28.277  33.510  1.00  0.00     0.034 A 
BRANCH  44  58
ATOM     58  C   UNL A   1      42.276  26.275  27.788  1.00  0.00     0.023 A 
ATOM     59  C   UNL A   1      43.143  26.777  26.795  1.00  0.00     0.012 A 
ATOM     60  C   UNL A   1      41.850  24.934  27.717  1.00  0.00     0.148 A 
ATOM     61  C   UNL A   1      43.549  25.969  25.734  1.00  0.00     0.002 A 
ATOM     62  C   UNL A   1      42.297  24.121  26.682  1.00  0.00     0.091 A 
ATOM     63  F   UNL A   1      41.012  24.479  28.660  1.00  0.00    -0.205 F 
ATOM     64  C   UNL A   1      43.135  24.640  25.682  1.00  0.00     0.022 A 
BRANCH  62  65
ATOM     65  S   UNL A   1      41.885  22.376  26.571  1.00  0.00     0.127 S 
ATOM     66  O   UNL A   1      42.409  21.868  27.838  1.00  0.00    -0.237 OA
ATOM     67  O   UNL A   1      40.424  22.410  26.486  1.00  0.00    -0.237 OA
ATOM     68  O   UNL A   1      42.553  21.879  25.377  1.00  0.00    -0.744 OA
ENDBRANCH  62  65
ENDBRANCH  44  58
BRANCH  45  69
ATOM     69  C   UNL A   1      39.089  32.027  35.323  1.00  0.00     0.023 A 
ATOM     70  C   UNL A   1      39.209  33.429  35.296  1.00  0.00     0.012 A 
ATOM     71  C   UNL A   1      38.476  31.412  36.433  1.00  0.00     0.148 A 
ATOM     72  C   UNL A   1      38.755  34.202  36.366  1.00  0.00     0.002 A 
ATOM     73  C   UNL A   1      37.972  32.191  37.467  1.00  0.00     0.091 A 
ATOM     74  F   UNL A   1      38.388  30.075  36.450  1.00  0.00    -0.205 F 
ATOM     75  C   UNL A   1      38.127  33.586  37.445  1.00  0.00     0.022 A 
BRANCH  73  76
ATOM     76  S   UNL A   1      37.029  31.492  38.827  1.00  0.00     0.127 S 
ATOM     77  O   UNL A   1      35.849  32.353  38.845  1.00  0.00    -0.237 OA
ATOM     78  O   UNL A   1      36.789  30.128  38.356  1.00  0.00    -0.237 OA
ATOM     79  O   UNL A   1      37.896  31.582  39.994  1.00  0.00    -0.744 OA
ENDBRANCH  73  76
ENDBRANCH  45  69
BRANCH  57  80
ATOM     80  C   UNL A   1      44.658  27.919  34.395  1.00  0.00     0.023 A 
ATOM     81  C   UNL A   1      45.881  28.603  34.261  1.00  0.00     0.012 A 
ATOM     82  C   UNL A   1      44.516  26.946  35.404  1.00  0.00     0.148 A 
ATOM     83  C   UNL A   1      46.957  28.300  35.096  1.00  0.00     0.002 A 
ATOM     84  C   UNL A   1      45.574  26.686  36.265  1.00  0.00     0.091 A 
ATOM     85  F   UNL A   1      43.348  26.292  35.502  1.00  0.00    -0.205 F 
ATOM     86  C   UNL A   1      46.800  27.352  36.103  1.00  0.00     0.022 A 
BRANCH  84  87
ATOM     87  S   UNL A   1      45.432  25.555  37.652  1.00  0.00     0.127 S 
ATOM     88  O   UNL A   1      44.062  25.801  38.098  1.00  0.00    -0.237 OA
ATOM     89  O   UNL A   1      45.643  24.255  37.015  1.00  0.00    -0.237 OA
ATOM     90  O   UNL A   1      46.473  25.941  38.596  1.00  0.00    -0.744 OA
ENDBRANCH  84  87
ENDBRANCH  57  80
ENDBRANCH  31  32
ENDBRANCH  24  26
ENDBRANCH  23  24
ENDBRANCH  22  23
ENDBRANCH   1  22
TORSDOF 17
ENDMDL
MODEL 3
REMARK VINA RESULT:     -10.8      1.552      2.309
REMARK SMILES Cc1nc(CNC(=O)[C@H]2CCO[C@H]2C)sc1C(=O)OCCOC(=O)c1ccc(-c2c3nc(c(-c4cccc(S(=O)(=O)[O-])c4F)c4ccc([nH]4)c(-c4cccc(S(=O)(=O)[O-])c4F)c4nc(c(-c5cccc(S(=O)(=O)[O-])c5F)c5ccc2[nH]5)C=C4)C=C3)cc1
REMARK SMILES IDX 20 1 19 2 17 3 18 4 16 5 1 6 2 7 3 8 4 9 15 10 5 11 6 12
REMARK SMILES IDX 7 13 8 15 9 16 10 17 13 18 11 19 12 20 14 21 21 22 22 23
REMARK SMILES IDX 23 24 24 25 25 26 26 27 87 28 27 29 86 30 28 31 29 32 30 33
REMARK SMILES IDX 80 34 31 35 85 36 79 37 81 38 32 39 84 40 78 41 77 42 33 44
REMARK SMILES IDX 65 45 45 46 64 47 46 48 49 49 63 50 82 51 47 52 48 53 62 55
REMARK SMILES IDX 83 56 50 57 34 58 35 59 43 60 36 61 38 62 44 63 37 64 39 65
REMARK SMILES IDX 40 66 41 67 42 68 66 69 67 70 75 71 68 72 70 73 76 74 69 75
REMARK SMILES IDX 71 76 72 77 73 78 74 79 51 80 52 81 60 82 53 83 55 84 61 85
REMARK SMILES IDX 54 86 56 87 57 88 58 89 59 90
REMARK H PARENT 6 14 81 43 49 54
REMARK Flexibility Score: inf
ROOT
ATOM      1  C   UNL A   1      32.319  27.817  24.926  1.00  0.00     0.275 C 
ENDROOT
BRANCH   1   2
ATOM      2  O   UNL A   1      32.881  26.905  25.893  1.00  0.00    -0.458 OA
BRANCH   2   3
ATOM      3  C   UNL A   1      32.143  25.794  26.191  1.00  0.00     0.350 C 
ATOM      4  O   UNL A   1      31.064  25.831  26.764  1.00  0.00    -0.245 OA
BRANCH   3   5
ATOM      5  C   UNL A   1      32.768  24.598  25.655  1.00  0.00     0.135 A 
ATOM      6  C   UNL A   1      33.868  25.254  23.401  1.00  0.00     0.068 C 
ATOM      7  C   UNL A   1      33.414  24.314  24.461  1.00  0.00     0.063 A 
ATOM      8  N   UNL A   1      33.681  22.961  24.255  1.00  0.00    -0.244 NA
ATOM      9  C   UNL A   1      33.282  22.246  25.285  1.00  0.00     0.113 A 
ATOM     10  S   UNL A   1      32.792  23.178  26.637  1.00  0.00    -0.110 S 
BRANCH   9  11
ATOM     11  C   UNL A   1      33.272  20.746  25.395  1.00  0.00     0.183 C 
BRANCH  11  12
ATOM     12  N   UNL A   1      32.750  20.129  24.186  1.00  0.00    -0.349 N 
ATOM     13  C   UNL A   1      32.638  18.808  23.873  1.00  0.00     0.226 C 
ATOM     14  H   UNL A   1      32.432  20.754  23.496  1.00  0.00     0.163 HD
ATOM     15  O   UNL A   1      32.084  18.489  22.822  1.00  0.00    -0.275 OA
BRANCH  13  16
ATOM     16  C   UNL A   1      33.199  17.781  24.834  1.00  0.00     0.109 C 
ATOM     17  C   UNL A   1      32.241  16.661  25.188  1.00  0.00     0.044 C 
ATOM     18  C   UNL A   1      34.396  17.006  24.289  1.00  0.00     0.127 C 
ATOM     19  C   UNL A   1      33.187  15.612  25.728  1.00  0.00     0.161 C 
ATOM     20  O   UNL A   1      34.430  15.763  25.028  1.00  0.00    -0.378 OA
ATOM     21  C   UNL A   1      34.330  16.644  22.808  1.00  0.00     0.039 C 
ENDBRANCH  13  16
ENDBRANCH  11  12
ENDBRANCH   9  11
ENDBRANCH   3   5
ENDBRANCH   2   3
ENDBRANCH   1   2
BRANCH   1  22
ATOM     22  C   UNL A   1      32.744  29.264  25.198  1.00  0.00     0.275 C 
BRANCH  22  23
ATOM     23  O   UNL A   1      32.456  29.657  26.553  1.00  0.00    -0.458 OA
BRANCH  23  24
ATOM     24  C   UNL A   1      32.960  30.859  26.915  1.00  0.00     0.338 C 
ATOM     25  O   UNL A   1      32.365  31.924  26.948  1.00  0.00    -0.246 OA
BRANCH  24  26
ATOM     26  C   UNL A   1      34.317  30.695  27.450  1.00  0.00     0.060 A 
ATOM     27  C   UNL A   1      34.674  29.416  27.867  1.00  0.00     0.016 A 
ATOM     28  C   UNL A   1      35.182  31.767  27.658  1.00  0.00     0.016 A 
ATOM     29  C   UNL A   1      35.868  29.193  28.539  1.00  0.00     0.010 A 
ATOM     30  C   UNL A   1      36.410  31.537  28.297  1.00  0.00     0.010 A 
ATOM     31  C   UNL A   1      36.752  30.253  28.764  1.00  0.00    -0.014 A 
BRANCH  31  32
ATOM     32  C   UNL A   1      38.011  30.005  29.516  1.00  0.00     0.031 A 
ATOM     33  C   UNL A   1      39.084  29.128  28.931  1.00  0.00     0.074 A 
ATOM     34  C   UNL A   1      38.200  30.586  30.718  1.00  0.00     0.049 A 
ATOM     35  N   UNL A   1      40.205  28.724  29.469  1.00  0.00    -0.248 NA
ATOM     36  C   UNL A   1      38.867  28.638  27.560  1.00  0.00     0.031 C 
ATOM     37  C   UNL A   1      37.247  31.478  31.384  1.00  0.00     0.029 A 
ATOM     38  N   UNL A   1      39.250  30.505  31.600  1.00  0.00    -0.354 N 
ATOM     39  C   UNL A   1      40.799  27.887  28.531  1.00  0.00     0.074 A 
ATOM     40  C   UNL A   1      39.915  27.844  27.387  1.00  0.00     0.031 C 
ATOM     41  C   UNL A   1      37.751  31.855  32.569  1.00  0.00     0.029 A 
ATOM     42  C   UNL A   1      39.030  31.184  32.777  1.00  0.00     0.049 A 
ATOM     43  H   UNL A   1      40.079  30.010  31.409  1.00  0.00     0.167 HD
ATOM     44  C   UNL A   1      41.978  27.223  28.612  1.00  0.00     0.034 A 
ATOM     45  C   UNL A   1      39.752  31.228  33.913  1.00  0.00     0.034 A 
ATOM     46  C   UNL A   1      42.871  27.301  29.739  1.00  0.00     0.049 A 
ATOM     47  C   UNL A   1      41.044  30.462  33.986  1.00  0.00     0.074 A 
ATOM     48  C   UNL A   1      44.104  26.694  29.902  1.00  0.00     0.029 A 
ATOM     49  N   UNL A   1      42.626  28.024  30.897  1.00  0.00    -0.354 N 
ATOM     50  N   UNL A   1      41.622  29.732  33.065  1.00  0.00    -0.248 NA
ATOM     51  C   UNL A   1      41.794  30.545  35.247  1.00  0.00     0.031 C 
ATOM     52  C   UNL A   1      44.590  27.025  31.170  1.00  0.00     0.029 A 
ATOM     53  C   UNL A   1      43.680  27.871  31.783  1.00  0.00     0.049 A 
ATOM     54  H   UNL A   1      41.822  28.566  31.064  1.00  0.00     0.167 HD
ATOM     55  C   UNL A   1      42.818  29.293  33.620  1.00  0.00     0.074 A 
ATOM     56  C   UNL A   1      42.891  29.862  34.951  1.00  0.00     0.031 C 
ATOM     57  C   UNL A   1      43.763  28.482  33.085  1.00  0.00     0.034 A 
BRANCH  44  58
ATOM     58  C   UNL A   1      42.379  26.355  27.448  1.00  0.00     0.023 A 
ATOM     59  C   UNL A   1      43.186  26.883  26.419  1.00  0.00     0.012 A 
ATOM     60  C   UNL A   1      42.002  24.999  27.400  1.00  0.00     0.148 A 
ATOM     61  C   UNL A   1      43.582  26.085  25.347  1.00  0.00     0.002 A 
ATOM     62  C   UNL A   1      42.439  24.196  26.352  1.00  0.00     0.091 A 
ATOM     63  F   UNL A   1      41.219  24.518  28.377  1.00  0.00    -0.205 F 
ATOM     64  C   UNL A   1      43.218  24.741  25.318  1.00  0.00     0.022 A 
BRANCH  62  65
ATOM     65  S   UNL A   1      42.091  22.436  26.266  1.00  0.00     0.127 S 
ATOM     66  O   UNL A   1      42.829  22.048  25.064  1.00  0.00    -0.237 OA
ATOM     67  O   UNL A   1      42.667  21.948  27.519  1.00  0.00    -0.237 OA
ATOM     68  O   UNL A   1      40.643  22.316  26.172  1.00  0.00    -0.744 OA
ENDBRANCH  62  65
ENDBRANCH  44  58
BRANCH  45  69
ATOM     69  C   UNL A   1      39.264  32.023  35.076  1.00  0.00     0.023 A 
ATOM     70  C   UNL A   1      38.353  31.449  35.983  1.00  0.00     0.012 A 
ATOM     71  C   UNL A   1      39.713  33.341  35.296  1.00  0.00     0.148 A 
ATOM     72  C   UNL A   1      37.876  32.183  37.071  1.00  0.00     0.002 A 
ATOM     73  C   UNL A   1      39.282  34.044  36.414  1.00  0.00     0.091 A 
ATOM     74  F   UNL A   1      40.566  33.876  34.411  1.00  0.00    -0.205 F 
ATOM     75  C   UNL A   1      38.349  33.474  37.293  1.00  0.00     0.022 A 
BRANCH  73  76
ATOM     76  S   UNL A   1      39.942  35.656  36.850  1.00  0.00     0.127 S 
ATOM     77  O   UNL A   1      41.367  35.368  36.988  1.00  0.00    -0.237 OA
ATOM     78  O   UNL A   1      39.585  36.454  35.677  1.00  0.00    -0.237 OA
ATOM     79  O   UNL A   1      39.254  36.045  38.074  1.00  0.00    -0.744 OA
ENDBRANCH  73  76
ENDBRANCH  45  69
BRANCH  57  80
ATOM     80  C   UNL A   1      44.987  28.195  33.915  1.00  0.00     0.023 A 
ATOM     81  C   UNL A   1      46.104  29.049  33.844  1.00  0.00     0.012 A 
ATOM     82  C   UNL A   1      45.000  27.111  34.815  1.00  0.00     0.148 A 
ATOM     83  C   UNL A   1      47.231  28.808  34.632  1.00  0.00     0.002 A 
ATOM     84  C   UNL A   1      46.105  26.908  35.633  1.00  0.00     0.091 A 
ATOM     85  F   UNL A   1      43.934  26.299  34.854  1.00  0.00    -0.205 F 
ATOM     86  C   UNL A   1      47.225  27.747  35.533  1.00  0.00     0.022 A 
BRANCH  84  87
ATOM     87  S   UNL A   1      46.148  25.628  36.893  1.00  0.00     0.127 S 
ATOM     88  O   UNL A   1      46.236  24.416  36.081  1.00  0.00    -0.237 OA
ATOM     89  O   UNL A   1      47.368  25.960  37.629  1.00  0.00    -0.237 OA
ATOM     90  O   UNL A   1      44.919  25.776  37.660  1.00  0.00    -0.744 OA
ENDBRANCH  84  87
ENDBRANCH  57  80
ENDBRANCH  31  32
ENDBRANCH  24  26
ENDBRANCH  23  24
ENDBRANCH  22  23
ENDBRANCH   1  22
TORSDOF 17
ENDMDL
