MODEL 1
REMARK VINA RESULT:     -10.9      0.000      0.000
REMARK SMILES CC[N@@H+](C[C@@H](C)C(=O)OCCOC(=O)c1ccc(-c2c3nc(c(-c4cccc(S(=O)(=O)[O-])c4F)c4ccc([nH]4)c(-c4cccc(S(=O)(=O)[O-])c4F)c4nc(c(-c5cccc(S(=O)(=O)[O-])c5F)c5ccc2[nH]5)C=C4)C=C3)cc1)[C@@H]1CCC[C@H](S(C)(=O)=O)C1
REMARK SMILES IDX 10 1 9 2 7 3 8 4 5 5 6 6 4 7 3 8 2 10 1 11 78 12 79 13 87 14
REMARK SMILES IDX 80 15 82 16 81 17 83 18 84 19 85 20 86 21 11 22 12 23 13 24
REMARK SMILES IDX 14 25 15 26 16 27 77 28 17 29 76 30 18 31 19 32 20 33 70 34
REMARK SMILES IDX 21 35 75 36 69 37 71 38 22 39 74 40 68 41 67 42 23 44 55 45
REMARK SMILES IDX 35 46 54 47 36 48 39 49 53 50 72 51 37 52 38 53 52 55 73 56
REMARK SMILES IDX 40 57 24 58 25 59 33 60 26 61 28 62 34 63 27 64 29 65 30 66
REMARK SMILES IDX 31 67 32 68 56 69 57 70 65 71 58 72 60 73 66 74 59 75 61 76
REMARK SMILES IDX 62 77 63 78 64 79 41 80 42 81 50 82 43 83 45 84 51 85 44 86
REMARK SMILES IDX 46 87 47 88 48 89 49 90
REMARK H PARENT 3 9 71 43 39 54
REMARK Flexibility Score: inf
ROOT
ATOM      1  C   UNL A   1      31.250  29.486  24.934  1.00  0.00     0.274 C 
ENDROOT
BRANCH   1   2
ATOM      2  O   UNL A   1      31.097  28.062  24.782  1.00  0.00    -0.462 OA
BRANCH   2   3
ATOM      3  C   UNL A   1      30.197  27.674  23.843  1.00  0.00     0.314 C 
ATOM      4  O   UNL A   1      29.552  28.448  23.145  1.00  0.00    -0.252 OA
BRANCH   3   5
ATOM      5  C   UNL A   1      29.960  26.172  23.798  1.00  0.00     0.151 C 
ATOM      6  C   UNL A   1      29.632  25.783  25.238  1.00  0.00     0.026 C 
BRANCH   5   7
ATOM      7  C   UNL A   1      31.103  25.401  23.081  1.00  0.00     0.277 C 
BRANCH   7   8
ATOM      8  N   UNL A   1      32.536  25.561  23.456  1.00  0.00    -0.332 N 
ATOM      9  H   UNL A   1      32.495  26.343  24.110  1.00  0.00     0.348 HD
BRANCH   8  10
ATOM     10  C   UNL A   1      33.369  26.010  22.332  1.00  0.00     0.259 C 
ATOM     11  C   UNL A   1      33.528  27.523  22.195  1.00  0.00     0.071 C 
ENDBRANCH   8  10
BRANCH   8  12
ATOM     12  C   UNL A   1      33.150  24.629  24.421  1.00  0.00     0.185 C 
ATOM     13  C   UNL A   1      34.669  24.813  24.537  1.00  0.00     0.065 C 
ATOM     14  C   UNL A   1      32.643  23.180  24.238  1.00  0.00     0.084 C 
ATOM     15  C   UNL A   1      35.450  23.641  25.102  1.00  0.00     0.007 C 
ATOM     16  C   UNL A   1      33.508  22.113  24.916  1.00  0.00     0.114 C 
ATOM     17  C   UNL A   1      34.968  22.318  24.531  1.00  0.00     0.020 C 
BRANCH  16  18
ATOM     18  S   UNL A   1      32.896  20.470  24.483  1.00  0.00     0.150 S 
ATOM     19  C   UNL A   1      32.269  20.628  22.829  1.00  0.00     0.158 C 
ATOM     20  O   UNL A   1      34.045  19.585  24.406  1.00  0.00    -0.229 OA
ATOM     21  O   UNL A   1      31.766  20.142  25.329  1.00  0.00    -0.229 OA
ENDBRANCH  16  18
ENDBRANCH   8  12
ENDBRANCH   7   8
ENDBRANCH   5   7
ENDBRANCH   3   5
ENDBRANCH   2   3
ENDBRANCH   1   2
BRANCH   1  22
ATOM     22  C   UNL A   1      32.679  29.900  25.308  1.00  0.00     0.275 C 
BRANCH  22  23
ATOM     23  O   UNL A   1      32.881  29.990  26.730  1.00  0.00    -0.458 OA
BRANCH  23  24
ATOM     24  C   UNL A   1      33.393  31.163  27.162  1.00  0.00     0.338 C 
ATOM     25  O   UNL A   1      32.810  32.243  27.219  1.00  0.00    -0.246 OA
BRANCH  24  26
ATOM     26  C   UNL A   1      34.732  30.964  27.731  1.00  0.00     0.060 A 
ATOM     27  C   UNL A   1      35.067  29.681  28.184  1.00  0.00     0.016 A 
ATOM     28  C   UNL A   1      35.618  32.026  27.903  1.00  0.00     0.016 A 
ATOM     29  C   UNL A   1      36.287  29.443  28.802  1.00  0.00     0.010 A 
ATOM     30  C   UNL A   1      36.835  31.793  28.547  1.00  0.00     0.010 A 
ATOM     31  C   UNL A   1      37.168  30.505  29.009  1.00  0.00    -0.014 A 
BRANCH  31  32
ATOM     32  C   UNL A   1      38.391  30.307  29.814  1.00  0.00     0.031 A 
ATOM     33  C   UNL A   1      39.448  29.382  29.291  1.00  0.00     0.074 A 
ATOM     34  C   UNL A   1      38.536  30.925  31.000  1.00  0.00     0.049 A 
ATOM     35  N   UNL A   1      40.477  28.868  29.909  1.00  0.00    -0.248 NA
ATOM     36  C   UNL A   1      39.327  28.979  27.879  1.00  0.00     0.031 C 
ATOM     37  C   UNL A   1      37.606  31.903  31.564  1.00  0.00     0.029 A 
ATOM     38  N   UNL A   1      39.507  30.790  31.959  1.00  0.00    -0.354 N 
ATOM     39  C   UNL A   1      41.089  28.032  28.985  1.00  0.00     0.074 A 
ATOM     40  C   UNL A   1      40.332  28.123  27.755  1.00  0.00     0.031 C 
ATOM     41  C   UNL A   1      38.031  32.251  32.790  1.00  0.00     0.029 A 
ATOM     42  C   UNL A   1      39.226  31.478  33.117  1.00  0.00     0.049 A 
ATOM     43  H   UNL A   1      40.324  30.254  31.832  1.00  0.00     0.167 HD
ATOM     44  C   UNL A   1      42.184  27.255  29.154  1.00  0.00     0.034 A 
ATOM     45  C   UNL A   1      39.835  31.440  34.317  1.00  0.00     0.034 A 
ATOM     46  C   UNL A   1      42.940  27.205  30.374  1.00  0.00     0.049 A 
ATOM     47  C   UNL A   1      41.028  30.536  34.493  1.00  0.00     0.074 A 
ATOM     48  C   UNL A   1      44.057  26.444  30.666  1.00  0.00     0.029 A 
ATOM     49  N   UNL A   1      42.659  27.957  31.504  1.00  0.00    -0.354 N 
ATOM     50  N   UNL A   1      41.612  29.758  33.612  1.00  0.00    -0.248 NA
ATOM     51  C   UNL A   1      41.657  30.513  35.821  1.00  0.00     0.031 C 
ATOM     52  C   UNL A   1      44.450  26.735  31.976  1.00  0.00     0.029 A 
ATOM     53  C   UNL A   1      43.587  27.689  32.493  1.00  0.00     0.049 A 
ATOM     54  H   UNL A   1      41.908  28.589  31.591  1.00  0.00     0.167 HD
ATOM     55  C   UNL A   1      42.698  29.188  34.265  1.00  0.00     0.074 A 
ATOM     56  C   UNL A   1      42.697  29.717  35.615  1.00  0.00     0.031 C 
ATOM     57  C   UNL A   1      43.606  28.296  33.799  1.00  0.00     0.034 A 
BRANCH  44  58
ATOM     58  C   UNL A   1      42.632  26.413  27.991  1.00  0.00     0.023 A 
ATOM     59  C   UNL A   1      43.629  26.895  27.123  1.00  0.00     0.012 A 
ATOM     60  C   UNL A   1      42.097  25.126  27.785  1.00  0.00     0.148 A 
ATOM     61  C   UNL A   1      44.072  26.122  26.050  1.00  0.00     0.002 A 
ATOM     62  C   UNL A   1      42.569  24.345  26.735  1.00  0.00     0.091 A 
ATOM     63  F   UNL A   1      41.127  24.696  28.606  1.00  0.00    -0.205 F 
ATOM     64  C   UNL A   1      43.549  24.845  25.863  1.00  0.00     0.022 A 
BRANCH  62  65
ATOM     65  S   UNL A   1      42.007  22.662  26.455  1.00  0.00     0.127 S 
ATOM     66  O   UNL A   1      42.613  22.361  25.159  1.00  0.00    -0.237 OA
ATOM     67  O   UNL A   1      42.599  21.945  27.584  1.00  0.00    -0.237 OA
ATOM     68  O   UNL A   1      40.552  22.718  26.468  1.00  0.00    -0.744 OA
ENDBRANCH  62  65
ENDBRANCH  44  58
BRANCH  45  69
ATOM     69  C   UNL A   1      39.340  32.288  35.439  1.00  0.00     0.023 A 
ATOM     70  C   UNL A   1      38.383  31.763  36.328  1.00  0.00     0.012 A 
ATOM     71  C   UNL A   1      39.819  33.597  35.644  1.00  0.00     0.148 A 
ATOM     72  C   UNL A   1      37.893  32.533  37.384  1.00  0.00     0.002 A 
ATOM     73  C   UNL A   1      39.368  34.340  36.729  1.00  0.00     0.091 A 
ATOM     74  F   UNL A   1      40.712  34.093  34.775  1.00  0.00    -0.205 F 
ATOM     75  C   UNL A   1      38.394  33.815  37.592  1.00  0.00     0.022 A 
BRANCH  73  76
ATOM     76  S   UNL A   1      40.055  35.948  37.140  1.00  0.00     0.127 S 
ATOM     77  O   UNL A   1      41.467  35.630  37.335  1.00  0.00    -0.237 OA
ATOM     78  O   UNL A   1      39.759  36.726  35.936  1.00  0.00    -0.237 OA
ATOM     79  O   UNL A   1      39.329  36.386  38.325  1.00  0.00    -0.744 OA
ENDBRANCH  73  76
ENDBRANCH  45  69
BRANCH  57  80
ATOM     80  C   UNL A   1      44.719  27.883  34.723  1.00  0.00     0.023 A 
ATOM     81  C   UNL A   1      45.986  28.483  34.604  1.00  0.00     0.012 A 
ATOM     82  C   UNL A   1      44.470  26.982  35.777  1.00  0.00     0.148 A 
ATOM     83  C   UNL A   1      46.998  28.178  35.513  1.00  0.00     0.002 A 
ATOM     84  C   UNL A   1      45.468  26.716  36.703  1.00  0.00     0.091 A 
ATOM     85  F   UNL A   1      43.259  26.411  35.856  1.00  0.00    -0.205 F 
ATOM     86  C   UNL A   1      46.736  27.307  36.569  1.00  0.00     0.022 A 
BRANCH  84  87
ATOM     87  S   UNL A   1      45.190  25.684  38.147  1.00  0.00     0.127 S 
ATOM     88  O   UNL A   1      44.122  26.411  38.831  1.00  0.00    -0.237 OA
ATOM     89  O   UNL A   1      44.777  24.414  37.547  1.00  0.00    -0.237 OA
ATOM     90  O   UNL A   1      46.463  25.631  38.854  1.00  0.00    -0.744 OA
ENDBRANCH  84  87
ENDBRANCH  57  80
ENDBRANCH  31  32
ENDBRANCH  24  26
ENDBRANCH  23  24
ENDBRANCH  22  23
ENDBRANCH   1  22
TORSDOF 19
ENDMDL
MODEL 2
REMARK VINA RESULT:     -10.6      5.220      8.231
REMARK SMILES CC[N@@H+](C[C@@H](C)C(=O)OCCOC(=O)c1ccc(-c2c3nc(c(-c4cccc(S(=O)(=O)[O-])c4F)c4ccc([nH]4)c(-c4cccc(S(=O)(=O)[O-])c4F)c4nc(c(-c5cccc(S(=O)(=O)[O-])c5F)c5ccc2[nH]5)C=C4)C=C3)cc1)[C@@H]1CCC[C@H](S(C)(=O)=O)C1
REMARK SMILES IDX 10 1 9 2 7 3 8 4 5 5 6 6 4 7 3 8 2 10 1 11 78 12 79 13 87 14
REMARK SMILES IDX 80 15 82 16 81 17 83 18 84 19 85 20 86 21 11 22 12 23 13 24
REMARK SMILES IDX 14 25 15 26 16 27 77 28 17 29 76 30 18 31 19 32 20 33 70 34
REMARK SMILES IDX 21 35 75 36 69 37 71 38 22 39 74 40 68 41 67 42 23 44 55 45
REMARK SMILES IDX 35 46 54 47 36 48 39 49 53 50 72 51 37 52 38 53 52 55 73 56
REMARK SMILES IDX 40 57 24 58 25 59 33 60 26 61 28 62 34 63 27 64 29 65 30 66
REMARK SMILES IDX 31 67 32 68 56 69 57 70 65 71 58 72 60 73 66 74 59 75 61 76
REMARK SMILES IDX 62 77 63 78 64 79 41 80 42 81 50 82 43 83 45 84 51 85 44 86
REMARK SMILES IDX 46 87 47 88 48 89 49 90
REMARK H PARENT 3 9 71 43 39 54
REMARK Flexibility Score: inf
ROOT
ATOM      1  C   UNL A   1      37.558  19.658  24.959  1.00  0.00     0.274 C 
ENDROOT
BRANCH   1   2
ATOM      2  O   UNL A   1      37.010  20.895  25.453  1.00  0.00    -0.462 OA
BRANCH   2   3
ATOM      3  C   UNL A   1      35.917  21.348  24.790  1.00  0.00     0.314 C 
ATOM      4  O   UNL A   1      34.841  20.762  24.751  1.00  0.00    -0.252 OA
BRANCH   3   5
ATOM      5  C   UNL A   1      36.165  22.615  23.984  1.00  0.00     0.151 C 
ATOM      6  C   UNL A   1      36.801  23.591  24.973  1.00  0.00     0.026 C 
BRANCH   5   7
ATOM      7  C   UNL A   1      34.909  23.090  23.203  1.00  0.00     0.277 C 
BRANCH   7   8
ATOM      8  N   UNL A   1      33.578  23.258  23.850  1.00  0.00    -0.332 N 
ATOM      9  H   UNL A   1      33.586  22.509  24.542  1.00  0.00     0.348 HD
BRANCH   8  10
ATOM     10  C   UNL A   1      32.464  22.962  22.939  1.00  0.00     0.259 C 
ATOM     11  C   UNL A   1      32.150  21.480  22.745  1.00  0.00     0.071 C 
ENDBRANCH   8  10
BRANCH   8  12
ATOM     12  C   UNL A   1      33.373  24.334  24.839  1.00  0.00     0.185 C 
ATOM     13  C   UNL A   1      32.169  24.076  25.753  1.00  0.00     0.065 C 
ATOM     14  C   UNL A   1      33.468  25.739  24.201  1.00  0.00     0.084 C 
ATOM     15  C   UNL A   1      31.583  25.288  26.456  1.00  0.00     0.007 C 
ATOM     16  C   UNL A   1      32.885  26.867  25.058  1.00  0.00     0.114 C 
ATOM     17  C   UNL A   1      31.485  26.484  25.524  1.00  0.00     0.020 C 
BRANCH  16  18
ATOM     18  S   UNL A   1      32.910  28.414  24.126  1.00  0.00     0.150 S 
ATOM     19  C   UNL A   1      32.670  29.691  25.337  1.00  0.00     0.158 C 
ATOM     20  O   UNL A   1      34.255  28.586  23.606  1.00  0.00    -0.229 OA
ATOM     21  O   UNL A   1      31.763  28.457  23.240  1.00  0.00    -0.229 OA
ENDBRANCH  16  18
ENDBRANCH   8  12
ENDBRANCH   7   8
ENDBRANCH   5   7
ENDBRANCH   3   5
ENDBRANCH   2   3
ENDBRANCH   1   2
BRANCH   1  22
ATOM     22  C   UNL A   1      38.871  19.265  25.647  1.00  0.00     0.275 C 
BRANCH  22  23
ATOM     23  O   UNL A   1      39.795  20.363  25.761  1.00  0.00    -0.458 OA
BRANCH  23  24
ATOM     24  C   UNL A   1      40.398  20.482  26.963  1.00  0.00     0.338 C 
ATOM     25  O   UNL A   1      40.808  19.567  27.674  1.00  0.00    -0.246 OA
BRANCH  24  26
ATOM     26  C   UNL A   1      40.666  21.893  27.270  1.00  0.00     0.060 A 
ATOM     27  C   UNL A   1      40.013  22.866  26.502  1.00  0.00     0.016 A 
ATOM     28  C   UNL A   1      41.604  22.266  28.231  1.00  0.00     0.016 A 
ATOM     29  C   UNL A   1      40.280  24.215  26.689  1.00  0.00     0.010 A 
ATOM     30  C   UNL A   1      41.893  23.622  28.403  1.00  0.00     0.010 A 
ATOM     31  C   UNL A   1      41.242  24.599  27.625  1.00  0.00    -0.014 A 
BRANCH  31  32
ATOM     32  C   UNL A   1      41.663  26.012  27.718  1.00  0.00     0.031 A 
ATOM     33  C   UNL A   1      43.019  26.388  27.201  1.00  0.00     0.074 A 
ATOM     34  C   UNL A   1      40.855  26.930  28.277  1.00  0.00     0.049 A 
ATOM     35  N   UNL A   1      43.697  27.488  27.385  1.00  0.00    -0.248 NA
ATOM     36  C   UNL A   1      43.704  25.386  26.367  1.00  0.00     0.031 C 
ATOM     37  C   UNL A   1      39.489  26.686  28.739  1.00  0.00     0.029 A 
ATOM     38  N   UNL A   1      41.086  28.247  28.583  1.00  0.00    -0.354 N 
ATOM     39  C   UNL A   1      44.914  27.288  26.745  1.00  0.00     0.074 A 
ATOM     40  C   UNL A   1      44.874  25.971  26.148  1.00  0.00     0.031 C 
ATOM     41  C   UNL A   1      39.015  27.808  29.307  1.00  0.00     0.029 A 
ATOM     42  C   UNL A   1      40.063  28.824  29.300  1.00  0.00     0.049 A 
ATOM     43  H   UNL A   1      41.901  28.731  28.317  1.00  0.00     0.167 HD
ATOM     44  C   UNL A   1      45.970  28.131  26.670  1.00  0.00     0.034 A 
ATOM     45  C   UNL A   1      40.008  30.017  29.925  1.00  0.00     0.034 A 
ATOM     46  C   UNL A   1      45.975  29.449  27.242  1.00  0.00     0.049 A 
ATOM     47  C   UNL A   1      41.211  30.921  29.861  1.00  0.00     0.074 A 
ATOM     48  C   UNL A   1      46.993  30.385  27.242  1.00  0.00     0.029 A 
ATOM     49  N   UNL A   1      44.903  30.019  27.911  1.00  0.00    -0.354 N 
ATOM     50  N   UNL A   1      42.354  30.733  29.243  1.00  0.00    -0.248 NA
ATOM     51  C   UNL A   1      41.116  32.207  30.566  1.00  0.00     0.031 C 
ATOM     52  C   UNL A   1      46.535  31.523  27.914  1.00  0.00     0.029 A 
ATOM     53  C   UNL A   1      45.227  31.299  28.318  1.00  0.00     0.049 A 
ATOM     54  H   UNL A   1      44.037  29.577  28.073  1.00  0.00     0.167 HD
ATOM     55  C   UNL A   1      43.095  31.891  29.449  1.00  0.00     0.074 A 
ATOM     56  C   UNL A   1      42.268  32.779  30.242  1.00  0.00     0.031 C 
ATOM     57  C   UNL A   1      44.350  32.189  29.035  1.00  0.00     0.034 A 
BRANCH  44  58
ATOM     58  C   UNL A   1      47.193  27.658  25.934  1.00  0.00     0.023 A 
ATOM     59  C   UNL A   1      48.207  26.977  26.632  1.00  0.00     0.012 A 
ATOM     60  C   UNL A   1      47.317  27.850  24.544  1.00  0.00     0.148 A 
ATOM     61  C   UNL A   1      49.341  26.514  25.965  1.00  0.00     0.002 A 
ATOM     62  C   UNL A   1      48.433  27.353  23.878  1.00  0.00     0.091 A 
ATOM     63  F   UNL A   1      46.353  28.527  23.902  1.00  0.00    -0.205 F 
ATOM     64  C   UNL A   1      49.448  26.694  24.588  1.00  0.00     0.022 A 
BRANCH  62  65
ATOM     65  S   UNL A   1      48.627  27.475  22.096  1.00  0.00     0.127 S 
ATOM     66  O   UNL A   1      48.661  26.066  21.706  1.00  0.00    -0.237 OA
ATOM     67  O   UNL A   1      47.414  28.188  21.700  1.00  0.00    -0.237 OA
ATOM     68  O   UNL A   1      49.863  28.214  21.878  1.00  0.00    -0.744 OA
ENDBRANCH  62  65
ENDBRANCH  44  58
BRANCH  45  69
ATOM     69  C   UNL A   1      38.773  30.429  30.651  1.00  0.00     0.023 A 
ATOM     70  C   UNL A   1      38.651  30.137  32.023  1.00  0.00     0.012 A 
ATOM     71  C   UNL A   1      37.730  31.120  30.003  1.00  0.00     0.148 A 
ATOM     72  C   UNL A   1      37.505  30.502  32.730  1.00  0.00     0.002 A 
ATOM     73  C   UNL A   1      36.614  31.529  30.725  1.00  0.00     0.091 A 
ATOM     74  F   UNL A   1      37.848  31.368  28.690  1.00  0.00    -0.205 F 
ATOM     75  C   UNL A   1      36.493  31.208  32.086  1.00  0.00     0.022 A 
BRANCH  73  76
ATOM     76  S   UNL A   1      35.327  32.551  30.000  1.00  0.00     0.127 S 
ATOM     77  O   UNL A   1      34.836  31.695  28.923  1.00  0.00    -0.237 OA
ATOM     78  O   UNL A   1      34.401  32.722  31.120  1.00  0.00    -0.237 OA
ATOM     79  O   UNL A   1      35.995  33.778  29.586  1.00  0.00    -0.744 OA
ENDBRANCH  73  76
ENDBRANCH  45  69
BRANCH  57  80
ATOM     80  C   UNL A   1      44.891  33.554  29.364  1.00  0.00     0.023 A 
ATOM     81  C   UNL A   1      45.599  33.756  30.563  1.00  0.00     0.012 A 
ATOM     82  C   UNL A   1      44.790  34.602  28.428  1.00  0.00     0.148 A 
ATOM     83  C   UNL A   1      46.185  34.991  30.835  1.00  0.00     0.002 A 
ATOM     84  C   UNL A   1      45.413  35.815  28.686  1.00  0.00     0.091 A 
ATOM     85  F   UNL A   1      44.094  34.388  27.302  1.00  0.00    -0.205 F 
ATOM     86  C   UNL A   1      46.106  36.014  29.892  1.00  0.00     0.022 A 
BRANCH  84  87
ATOM     87  S   UNL A   1      45.443  37.154  27.489  1.00  0.00     0.127 S 
ATOM     88  O   UNL A   1      44.022  37.473  27.364  1.00  0.00    -0.237 OA
ATOM     89  O   UNL A   1      46.238  38.171  28.180  1.00  0.00    -0.237 OA
ATOM     90  O   UNL A   1      46.070  36.609  26.292  1.00  0.00    -0.744 OA
ENDBRANCH  84  87
ENDBRANCH  57  80
ENDBRANCH  31  32
ENDBRANCH  24  26
ENDBRANCH  23  24
ENDBRANCH  22  23
ENDBRANCH   1  22
TORSDOF 19
ENDMDL
MODEL 3
REMARK VINA RESULT:     -10.6      1.578      2.235
REMARK SMILES CC[N@@H+](C[C@@H](C)C(=O)OCCOC(=O)c1ccc(-c2c3nc(c(-c4cccc(S(=O)(=O)[O-])c4F)c4ccc([nH]4)c(-c4cccc(S(=O)(=O)[O-])c4F)c4nc(c(-c5cccc(S(=O)(=O)[O-])c5F)c5ccc2[nH]5)C=C4)C=C3)cc1)[C@@H]1CCC[C@H](S(C)(=O)=O)C1
REMARK SMILES IDX 10 1 9 2 7 3 8 4 5 5 6 6 4 7 3 8 2 10 1 11 78 12 79 13 87 14
REMARK SMILES IDX 80 15 82 16 81 17 83 18 84 19 85 20 86 21 11 22 12 23 13 24
REMARK SMILES IDX 14 25 15 26 16 27 77 28 17 29 76 30 18 31 19 32 20 33 70 34
REMARK SMILES IDX 21 35 75 36 69 37 71 38 22 39 74 40 68 41 67 42 23 44 55 45
REMARK SMILES IDX 35 46 54 47 36 48 39 49 53 50 72 51 37 52 38 53 52 55 73 56
REMARK SMILES IDX 40 57 24 58 25 59 33 60 26 61 28 62 34 63 27 64 29 65 30 66
REMARK SMILES IDX 31 67 32 68 56 69 57 70 65 71 58 72 60 73 66 74 59 75 61 76
REMARK SMILES IDX 62 77 63 78 64 79 41 80 42 81 50 82 43 83 45 84 51 85 44 86
REMARK SMILES IDX 46 87 47 88 48 89 49 90
REMARK H PARENT 3 9 71 43 39 54
REMARK Flexibility Score: inf
ROOT
ATOM      1  C   UNL A   1      31.450  29.647  25.923  1.00  0.00     0.274 C 
ENDROOT
BRANCH   1   2
ATOM      2  O   UNL A   1      31.250  29.758  24.501  1.00  0.00    -0.462 OA
BRANCH   2   3
ATOM      3  C   UNL A   1      31.818  28.774  23.759  1.00  0.00     0.314 C 
ATOM      4  O   UNL A   1      31.242  28.166  22.863  1.00  0.00    -0.252 OA
BRANCH   3   5
ATOM      5  C   UNL A   1      33.222  28.395  24.207  1.00  0.00     0.151 C 
ATOM      6  C   UNL A   1      34.108  28.668  22.993  1.00  0.00     0.026 C 
BRANCH   5   7
ATOM      7  C   UNL A   1      33.290  26.983  24.852  1.00  0.00     0.277 C 
BRANCH   7   8
ATOM      8  N   UNL A   1      32.506  25.827  24.335  1.00  0.00    -0.332 N 
ATOM      9  H   UNL A   1      32.149  26.193  23.452  1.00  0.00     0.348 HD
BRANCH   8  10
ATOM     10  C   UNL A   1      31.328  25.526  25.160  1.00  0.00     0.259 C 
ATOM     11  C   UNL A   1      31.339  26.126  26.565  1.00  0.00     0.071 C 
ENDBRANCH   8  10
BRANCH   8  12
ATOM     12  C   UNL A   1      33.205  24.684  23.715  1.00  0.00     0.185 C 
ATOM     13  C   UNL A   1      32.810  24.473  22.248  1.00  0.00     0.065 C 
ATOM     14  C   UNL A   1      33.191  23.431  24.621  1.00  0.00     0.084 C 
ATOM     15  C   UNL A   1      33.074  23.095  21.669  1.00  0.00     0.007 C 
ATOM     16  C   UNL A   1      33.535  22.123  23.902  1.00  0.00     0.114 C 
ATOM     17  C   UNL A   1      32.687  21.993  22.642  1.00  0.00     0.020 C 
BRANCH  16  18
ATOM     18  S   UNL A   1      33.318  20.732  25.033  1.00  0.00     0.150 S 
ATOM     19  C   UNL A   1      33.738  21.367  26.638  1.00  0.00     0.158 C 
ATOM     20  O   UNL A   1      31.900  20.420  25.071  1.00  0.00    -0.229 OA
ATOM     21  O   UNL A   1      34.293  19.705  24.721  1.00  0.00    -0.229 OA
ENDBRANCH  16  18
ENDBRANCH   8  12
ENDBRANCH   7   8
ENDBRANCH   5   7
ENDBRANCH   3   5
ENDBRANCH   2   3
ENDBRANCH   1   2
BRANCH   1  22
ATOM     22  C   UNL A   1      32.044  30.915  26.547  1.00  0.00     0.275 C 
BRANCH  22  23
ATOM     23  O   UNL A   1      33.462  30.813  26.778  1.00  0.00    -0.458 OA
BRANCH  23  24
ATOM     24  C   UNL A   1      33.991  31.802  27.531  1.00  0.00     0.338 C 
ATOM     25  O   UNL A   1      33.426  32.829  27.899  1.00  0.00    -0.246 OA
BRANCH  24  26
ATOM     26  C   UNL A   1      35.324  31.423  28.019  1.00  0.00     0.060 A 
ATOM     27  C   UNL A   1      35.517  30.100  28.434  1.00  0.00     0.016 A 
ATOM     28  C   UNL A   1      36.346  32.360  28.151  1.00  0.00     0.016 A 
ATOM     29  C   UNL A   1      36.729  29.696  28.977  1.00  0.00     0.010 A 
ATOM     30  C   UNL A   1      37.558  31.962  28.720  1.00  0.00     0.010 A 
ATOM     31  C   UNL A   1      37.750  30.634  29.145  1.00  0.00    -0.014 A 
BRANCH  31  32
ATOM     32  C   UNL A   1      38.981  30.266  29.874  1.00  0.00     0.031 A 
ATOM     33  C   UNL A   1      39.901  29.255  29.258  1.00  0.00     0.074 A 
ATOM     34  C   UNL A   1      39.251  30.809  31.074  1.00  0.00     0.049 A 
ATOM     35  N   UNL A   1      40.894  28.604  29.798  1.00  0.00    -0.248 NA
ATOM     36  C   UNL A   1      39.666  28.934  27.840  1.00  0.00     0.031 C 
ATOM     37  C   UNL A   1      38.466  31.856  31.726  1.00  0.00     0.029 A 
ATOM     38  N   UNL A   1      40.248  30.524  31.974  1.00  0.00    -0.354 N 
ATOM     39  C   UNL A   1      41.363  27.749  28.810  1.00  0.00     0.074 A 
ATOM     40  C   UNL A   1      40.562  27.980  27.628  1.00  0.00     0.031 C 
ATOM     41  C   UNL A   1      38.987  32.099  32.941  1.00  0.00     0.029 A 
ATOM     42  C   UNL A   1      40.102  31.185  33.171  1.00  0.00     0.049 A 
ATOM     43  H   UNL A   1      40.992  29.908  31.781  1.00  0.00     0.167 HD
ATOM     44  C   UNL A   1      42.371  26.850  28.888  1.00  0.00     0.034 A 
ATOM     45  C   UNL A   1      40.763  31.026  34.335  1.00  0.00     0.034 A 
ATOM     46  C   UNL A   1      43.177  26.661  30.063  1.00  0.00     0.049 A 
ATOM     47  C   UNL A   1      41.854  29.989  34.410  1.00  0.00     0.074 A 
ATOM     48  C   UNL A   1      44.214  25.770  30.263  1.00  0.00     0.029 A 
ATOM     49  N   UNL A   1      43.037  27.387  31.236  1.00  0.00    -0.354 N 
ATOM     50  N   UNL A   1      42.303  29.194  33.467  1.00  0.00    -0.248 NA
ATOM     51  C   UNL A   1      42.541  29.837  35.700  1.00  0.00     0.031 C 
ATOM     52  C   UNL A   1      44.701  25.956  31.561  1.00  0.00     0.029 A 
ATOM     53  C   UNL A   1      43.976  26.974  32.162  1.00  0.00     0.049 A 
ATOM     54  H   UNL A   1      42.367  28.093  31.388  1.00  0.00     0.167 HD
ATOM     55  C   UNL A   1      43.349  28.478  34.038  1.00  0.00     0.074 A 
ATOM     56  C   UNL A   1      43.474  28.941  35.405  1.00  0.00     0.031 C 
ATOM     57  C   UNL A   1      44.127  27.515  33.488  1.00  0.00     0.034 A 
BRANCH  44  58
ATOM     58  C   UNL A   1      42.665  26.018  27.670  1.00  0.00     0.023 A 
ATOM     59  C   UNL A   1      43.435  26.560  26.624  1.00  0.00     0.012 A 
ATOM     60  C   UNL A   1      42.215  24.686  27.582  1.00  0.00     0.148 A 
ATOM     61  C   UNL A   1      43.733  25.798  25.494  1.00  0.00     0.002 A 
ATOM     62  C   UNL A   1      42.548  23.920  26.470  1.00  0.00     0.091 A 
ATOM     63  F   UNL A   1      41.458  24.198  28.576  1.00  0.00    -0.205 F 
ATOM     64  C   UNL A   1      43.299  24.478  25.422  1.00  0.00     0.022 A 
BRANCH  62  65
ATOM     65  S   UNL A   1      42.092  22.189  26.317  1.00  0.00     0.127 S 
ATOM     66  O   UNL A   1      40.644  22.280  26.138  1.00  0.00    -0.237 OA
ATOM     67  O   UNL A   1      42.829  21.778  25.123  1.00  0.00    -0.237 OA
ATOM     68  O   UNL A   1      42.531  21.549  27.550  1.00  0.00    -0.744 OA
ENDBRANCH  62  65
ENDBRANCH  44  58
BRANCH  45  69
ATOM     69  C   UNL A   1      40.421  31.871  35.515  1.00  0.00     0.023 A 
ATOM     70  C   UNL A   1      41.264  32.944  35.860  1.00  0.00     0.012 A 
ATOM     71  C   UNL A   1      39.264  31.634  36.284  1.00  0.00     0.148 A 
ATOM     72  C   UNL A   1      40.976  33.750  36.963  1.00  0.00     0.002 A 
ATOM     73  C   UNL A   1      38.954  32.473  37.348  1.00  0.00     0.091 A 
ATOM     74  F   UNL A   1      38.484  30.593  35.958  1.00  0.00    -0.205 F 
ATOM     75  C   UNL A   1      39.817  33.523  37.699  1.00  0.00     0.022 A 
BRANCH  73  76
ATOM     76  S   UNL A   1      37.417  32.326  38.266  1.00  0.00     0.127 S 
ATOM     77  O   UNL A   1      36.478  33.025  37.392  1.00  0.00    -0.237 OA
ATOM     78  O   UNL A   1      37.234  30.876  38.332  1.00  0.00    -0.237 OA
ATOM     79  O   UNL A   1      37.676  32.953  39.555  1.00  0.00    -0.744 OA
ENDBRANCH  73  76
ENDBRANCH  45  69
BRANCH  57  80
ATOM     80  C   UNL A   1      45.232  26.940  34.333  1.00  0.00     0.023 A 
ATOM     81  C   UNL A   1      46.493  27.564  34.356  1.00  0.00     0.012 A 
ATOM     82  C   UNL A   1      44.978  25.848  35.186  1.00  0.00     0.148 A 
ATOM     83  C   UNL A   1      47.494  27.097  35.206  1.00  0.00     0.002 A 
ATOM     84  C   UNL A   1      45.965  25.417  36.061  1.00  0.00     0.091 A 
ATOM     85  F   UNL A   1      43.773  25.261  35.131  1.00  0.00    -0.205 F 
ATOM     86  C   UNL A   1      47.227  26.035  36.067  1.00  0.00     0.022 A 
BRANCH  84  87
ATOM     87  S   UNL A   1      45.678  24.120  37.270  1.00  0.00     0.127 S 
ATOM     88  O   UNL A   1      46.979  24.036  37.931  1.00  0.00    -0.237 OA
ATOM     89  O   UNL A   1      44.611  24.692  38.093  1.00  0.00    -0.237 OA
ATOM     90  O   UNL A   1      45.286  22.941  36.509  1.00  0.00    -0.744 OA
ENDBRANCH  84  87
ENDBRANCH  57  80
ENDBRANCH  31  32
ENDBRANCH  24  26
ENDBRANCH  23  24
ENDBRANCH  22  23
ENDBRANCH   1  22
TORSDOF 19
ENDMDL
