MODEL 1
REMARK VINA RESULT:     -11.6      0.000      0.000
REMARK SMILES C[N@H+]1CCO[C@](C)(C(=O)OCCOC(=O)c2ccc(-c3c4nc(c(-c5cccc(S(=O)(=O)[O-])c5F)c5ccc([nH]5)c(-c5cccc(S(=O)(=O)[O-])c5F)c5nc(c(-c6cccc(S(=O)(=O)[O-])c6F)c6ccc3[nH]6)C=C5)C=C4)cc2)C1
REMARK SMILES IDX 13 1 12 2 11 3 10 4 8 5 9 6 6 7 1 8 2 9 3 10 79 11 4 13 5 14
REMARK SMILES IDX 7 15 14 16 15 17 16 18 17 19 78 20 18 21 77 22 19 23 20 24
REMARK SMILES IDX 21 25 71 26 22 27 76 28 70 29 72 30 23 31 75 32 69 33 68 34
REMARK SMILES IDX 24 36 56 37 36 38 55 39 37 40 40 41 54 42 73 43 38 44 39 45
REMARK SMILES IDX 53 47 74 48 41 49 25 50 26 51 34 52 27 53 29 54 35 55 28 56
REMARK SMILES IDX 30 57 31 58 32 59 33 60 57 61 58 62 66 63 59 64 61 65 67 66
REMARK SMILES IDX 60 67 62 68 63 69 64 70 65 71 42 72 43 73 51 74 44 75 46 76
REMARK SMILES IDX 52 77 45 78 47 79 48 80 49 81 50 82
REMARK H PARENT 2 12 72 35 40 46
REMARK Flexibility Score: inf
ROOT
ATOM      1  O   UNL A   1      40.948  20.823  26.112  1.00  0.00    -0.458 OA
ENDROOT
BRANCH   1   2
ATOM      2  C   UNL A   1      40.963  19.514  26.709  1.00  0.00     0.275 C 
BRANCH   2   3
ATOM      3  C   UNL A   1      42.195  18.735  26.252  1.00  0.00     0.274 C 
BRANCH   3   4
ATOM      4  O   UNL A   1      42.789  19.336  25.082  1.00  0.00    -0.460 OA
BRANCH   4   5
ATOM      5  C   UNL A   1      44.145  19.203  24.976  1.00  0.00     0.344 C 
ATOM      6  O   UNL A   1      44.721  18.119  24.973  1.00  0.00    -0.249 OA
BRANCH   5   7
ATOM      7  C   UNL A   1      44.875  20.571  24.922  1.00  0.00     0.211 C 
ATOM      8  C   UNL A   1      46.020  23.344  26.263  1.00  0.00     0.332 C 
ATOM      9  N   UNL A   1      44.655  22.931  25.974  1.00  0.00    -0.333 N 
ATOM     10  C   UNL A   1      44.207  23.375  24.644  1.00  0.00     0.290 C 
ATOM     11  C   UNL A   1      44.413  21.479  26.097  1.00  0.00     0.310 C 
ATOM     12  H   UNL A   1      44.107  23.394  26.699  1.00  0.00     0.348 HD
ATOM     13  C   UNL A   1      44.802  22.540  23.501  1.00  0.00     0.223 C 
ATOM     14  O   UNL A   1      44.527  21.145  23.642  1.00  0.00    -0.353 OA
ATOM     15  C   UNL A   1      46.372  20.253  24.942  1.00  0.00     0.061 C 
ENDBRANCH   5   7
ENDBRANCH   4   5
ENDBRANCH   3   4
ENDBRANCH   2   3
ENDBRANCH   1   2
BRANCH   1  16
ATOM     16  C   UNL A   1      39.790  21.503  26.224  1.00  0.00     0.338 C 
ATOM     17  O   UNL A   1      38.675  21.137  25.856  1.00  0.00    -0.246 OA
BRANCH  16  18
ATOM     18  C   UNL A   1      40.011  22.780  26.911  1.00  0.00     0.060 A 
ATOM     19  C   UNL A   1      39.304  23.903  26.486  1.00  0.00     0.016 A 
ATOM     20  C   UNL A   1      41.034  22.906  27.851  1.00  0.00     0.016 A 
ATOM     21  C   UNL A   1      39.668  25.171  26.932  1.00  0.00     0.010 A 
ATOM     22  C   UNL A   1      41.364  24.175  28.340  1.00  0.00     0.010 A 
ATOM     23  C   UNL A   1      40.723  25.324  27.842  1.00  0.00    -0.014 A 
BRANCH  23  24
ATOM     24  C   UNL A   1      41.227  26.684  28.174  1.00  0.00     0.031 A 
ATOM     25  C   UNL A   1      42.636  27.068  27.795  1.00  0.00     0.074 A 
ATOM     26  C   UNL A   1      40.432  27.584  28.782  1.00  0.00     0.049 A 
ATOM     27  N   UNL A   1      43.290  28.172  28.051  1.00  0.00    -0.248 NA
ATOM     28  C   UNL A   1      43.414  26.077  27.033  1.00  0.00     0.031 C 
ATOM     29  C   UNL A   1      39.047  27.350  29.192  1.00  0.00     0.029 A 
ATOM     30  N   UNL A   1      40.678  28.881  29.163  1.00  0.00    -0.354 N 
ATOM     31  C   UNL A   1      44.570  27.984  27.542  1.00  0.00     0.074 A 
ATOM     32  C   UNL A   1      44.601  26.661  26.956  1.00  0.00     0.031 C 
ATOM     33  C   UNL A   1      38.562  28.467  29.758  1.00  0.00     0.029 A 
ATOM     34  C   UNL A   1      39.610  29.486  29.785  1.00  0.00     0.049 A 
ATOM     35  H   UNL A   1      41.536  29.335  29.006  1.00  0.00     0.167 HD
ATOM     36  C   UNL A   1      45.620  28.838  27.542  1.00  0.00     0.034 A 
ATOM     37  C   UNL A   1      39.489  30.716  30.322  1.00  0.00     0.034 A 
ATOM     38  C   UNL A   1      45.572  30.182  28.050  1.00  0.00     0.049 A 
ATOM     39  C   UNL A   1      40.655  31.666  30.255  1.00  0.00     0.074 A 
ATOM     40  C   UNL A   1      46.581  31.129  28.078  1.00  0.00     0.029 A 
ATOM     41  N   UNL A   1      44.447  30.780  28.595  1.00  0.00    -0.354 N 
ATOM     42  N   UNL A   1      41.836  31.489  29.716  1.00  0.00    -0.248 NA
ATOM     43  C   UNL A   1      40.462  33.000  30.848  1.00  0.00     0.031 C 
ATOM     44  C   UNL A   1      46.061  32.306  28.629  1.00  0.00     0.029 A 
ATOM     45  C   UNL A   1      44.730  32.089  28.945  1.00  0.00     0.049 A 
ATOM     46  H   UNL A   1      43.575  30.339  28.716  1.00  0.00     0.167 HD
ATOM     47  C   UNL A   1      42.516  32.690  29.879  1.00  0.00     0.074 A 
ATOM     48  C   UNL A   1      41.606  33.599  30.545  1.00  0.00     0.031 C 
ATOM     49  C   UNL A   1      43.789  33.004  29.535  1.00  0.00     0.034 A 
BRANCH  36  50
ATOM     50  C   UNL A   1      46.909  28.357  26.931  1.00  0.00     0.023 A 
ATOM     51  C   UNL A   1      47.979  27.991  27.771  1.00  0.00     0.012 A 
ATOM     52  C   UNL A   1      47.045  28.222  25.537  1.00  0.00     0.148 A 
ATOM     53  C   UNL A   1      49.175  27.520  27.231  1.00  0.00     0.002 A 
ATOM     54  C   UNL A   1      48.228  27.719  25.007  1.00  0.00     0.091 A 
ATOM     55  F   UNL A   1      46.027  28.604  24.751  1.00  0.00    -0.205 F 
ATOM     56  C   UNL A   1      49.296  27.375  25.851  1.00  0.00     0.022 A 
BRANCH  54  57
ATOM     57  S   UNL A   1      48.442  27.436  23.245  1.00  0.00     0.127 S 
ATOM     58  O   UNL A   1      49.808  27.912  23.031  1.00  0.00    -0.237 OA
ATOM     59  O   UNL A   1      48.279  25.986  23.136  1.00  0.00    -0.237 OA
ATOM     60  O   UNL A   1      47.393  28.209  22.593  1.00  0.00    -0.744 OA
ENDBRANCH  54  57
ENDBRANCH  36  50
BRANCH  37  61
ATOM     61  C   UNL A   1      38.188  31.142  30.911  1.00  0.00     0.023 A 
ATOM     62  C   UNL A   1      37.950  30.925  32.283  1.00  0.00     0.012 A 
ATOM     63  C   UNL A   1      37.205  31.787  30.139  1.00  0.00     0.148 A 
ATOM     64  C   UNL A   1      36.749  31.325  32.868  1.00  0.00     0.002 A 
ATOM     65  C   UNL A   1      36.032  32.232  30.740  1.00  0.00     0.091 A 
ATOM     66  F   UNL A   1      37.432  31.959  28.829  1.00  0.00    -0.205 F 
ATOM     67  C   UNL A   1      35.796  31.991  32.101  1.00  0.00     0.022 A 
BRANCH  65  68
ATOM     68  S   UNL A   1      34.826  33.214  29.840  1.00  0.00     0.127 S 
ATOM     69  O   UNL A   1      34.210  32.213  28.974  1.00  0.00    -0.237 OA
ATOM     70  O   UNL A   1      33.964  33.713  30.913  1.00  0.00    -0.237 OA
ATOM     71  O   UNL A   1      35.603  34.251  29.175  1.00  0.00    -0.744 OA
ENDBRANCH  65  68
ENDBRANCH  37  61
BRANCH  49  72
ATOM     72  C   UNL A   1      44.272  34.395  29.841  1.00  0.00     0.023 A 
ATOM     73  C   UNL A   1      44.946  34.642  31.053  1.00  0.00     0.012 A 
ATOM     74  C   UNL A   1      44.130  35.436  28.904  1.00  0.00     0.148 A 
ATOM     75  C   UNL A   1      45.450  35.911  31.338  1.00  0.00     0.002 A 
ATOM     76  C   UNL A   1      44.666  36.690  29.179  1.00  0.00     0.091 A 
ATOM     77  F   UNL A   1      43.464  35.192  27.766  1.00  0.00    -0.205 F 
ATOM     78  C   UNL A   1      45.320  36.931  30.398  1.00  0.00     0.022 A 
BRANCH  76  79
ATOM     79  S   UNL A   1      44.603  38.020  27.974  1.00  0.00     0.127 S 
ATOM     80  O   UNL A   1      43.164  38.198  27.794  1.00  0.00    -0.237 OA
ATOM     81  O   UNL A   1      45.268  39.122  28.673  1.00  0.00    -0.237 OA
ATOM     82  O   UNL A   1      45.335  37.524  26.816  1.00  0.00    -0.744 OA
ENDBRANCH  76  79
ENDBRANCH  49  72
ENDBRANCH  23  24
ENDBRANCH  16  18
ENDBRANCH   1  16
TORSDOF 14
ENDMDL
MODEL 2
REMARK VINA RESULT:     -11.4      5.311     12.809
REMARK SMILES C[N@H+]1CCO[C@](C)(C(=O)OCCOC(=O)c2ccc(-c3c4nc(c(-c5cccc(S(=O)(=O)[O-])c5F)c5ccc([nH]5)c(-c5cccc(S(=O)(=O)[O-])c5F)c5nc(c(-c6cccc(S(=O)(=O)[O-])c6F)c6ccc3[nH]6)C=C5)C=C4)cc2)C1
REMARK SMILES IDX 13 1 12 2 11 3 10 4 8 5 9 6 6 7 1 8 2 9 3 10 79 11 4 13 5 14
REMARK SMILES IDX 7 15 14 16 15 17 16 18 17 19 78 20 18 21 77 22 19 23 20 24
REMARK SMILES IDX 21 25 71 26 22 27 76 28 70 29 72 30 23 31 75 32 69 33 68 34
REMARK SMILES IDX 24 36 56 37 36 38 55 39 37 40 40 41 54 42 73 43 38 44 39 45
REMARK SMILES IDX 53 47 74 48 41 49 25 50 26 51 34 52 27 53 29 54 35 55 28 56
REMARK SMILES IDX 30 57 31 58 32 59 33 60 57 61 58 62 66 63 59 64 61 65 67 66
REMARK SMILES IDX 60 67 62 68 63 69 64 70 65 71 42 72 43 73 51 74 44 75 46 76
REMARK SMILES IDX 52 77 45 78 47 79 48 80 49 81 50 82
REMARK H PARENT 2 12 72 35 40 46
REMARK Flexibility Score: inf
ROOT
ATOM      1  O   UNL A   1      34.116  33.465  27.780  1.00  0.00    -0.458 OA
ENDROOT
BRANCH   1   2
ATOM      2  C   UNL A   1      32.839  34.103  27.955  1.00  0.00     0.275 C 
BRANCH   2   3
ATOM      3  C   UNL A   1      32.984  35.354  28.822  1.00  0.00     0.274 C 
BRANCH   3   4
ATOM      4  O   UNL A   1      32.591  35.093  30.185  1.00  0.00    -0.460 OA
BRANCH   4   5
ATOM      5  C   UNL A   1      33.014  36.010  31.106  1.00  0.00     0.344 C 
ATOM      6  O   UNL A   1      32.736  37.204  31.049  1.00  0.00    -0.249 OA
BRANCH   5   7
ATOM      7  C   UNL A   1      33.933  35.385  32.189  1.00  0.00     0.211 C 
ATOM      8  C   UNL A   1      36.857  34.544  33.432  1.00  0.00     0.332 C 
ATOM      9  N   UNL A   1      36.112  33.984  32.315  1.00  0.00    -0.333 N 
ATOM     10  C   UNL A   1      35.251  32.862  32.723  1.00  0.00     0.290 C 
ATOM     11  C   UNL A   1      35.295  34.963  31.568  1.00  0.00     0.310 C 
ATOM     12  H   UNL A   1      36.842  33.652  31.684  1.00  0.00     0.348 HD
ATOM     13  C   UNL A   1      33.984  33.317  33.462  1.00  0.00     0.223 C 
ATOM     14  O   UNL A   1      33.209  34.244  32.700  1.00  0.00    -0.353 OA
ATOM     15  C   UNL A   1      34.060  36.438  33.294  1.00  0.00     0.061 C 
ENDBRANCH   5   7
ENDBRANCH   4   5
ENDBRANCH   3   4
ENDBRANCH   2   3
ENDBRANCH   1   2
BRANCH   1  16
ATOM     16  C   UNL A   1      34.089  32.120  27.684  1.00  0.00     0.338 C 
ATOM     17  O   UNL A   1      33.125  31.416  27.389  1.00  0.00    -0.246 OA
BRANCH  16  18
ATOM     18  C   UNL A   1      35.421  31.562  27.943  1.00  0.00     0.060 A 
ATOM     19  C   UNL A   1      35.572  30.177  27.987  1.00  0.00     0.016 A 
ATOM     20  C   UNL A   1      36.475  32.398  28.310  1.00  0.00     0.016 A 
ATOM     21  C   UNL A   1      36.747  29.616  28.479  1.00  0.00     0.010 A 
ATOM     22  C   UNL A   1      37.676  31.833  28.752  1.00  0.00     0.010 A 
ATOM     23  C   UNL A   1      37.803  30.439  28.895  1.00  0.00    -0.014 A 
BRANCH  23  24
ATOM     24  C   UNL A   1      38.979  29.846  29.587  1.00  0.00     0.031 A 
ATOM     25  C   UNL A   1      39.314  30.282  30.992  1.00  0.00     0.074 A 
ATOM     26  C   UNL A   1      39.731  28.905  28.985  1.00  0.00     0.049 A 
ATOM     27  N   UNL A   1      40.329  29.942  31.744  1.00  0.00    -0.248 NA
ATOM     28  C   UNL A   1      38.388  31.230  31.633  1.00  0.00     0.031 C 
ATOM     29  C   UNL A   1      39.511  28.383  27.636  1.00  0.00     0.029 A 
ATOM     30  N   UNL A   1      40.834  28.220  29.433  1.00  0.00    -0.354 N 
ATOM     31  C   UNL A   1      40.201  30.680  32.915  1.00  0.00     0.074 A 
ATOM     32  C   UNL A   1      39.005  31.484  32.778  1.00  0.00     0.031 C 
ATOM     33  C   UNL A   1      40.444  27.453  27.368  1.00  0.00     0.029 A 
ATOM     34  C   UNL A   1      41.348  27.338  28.511  1.00  0.00     0.049 A 
ATOM     35  H   UNL A   1      41.220  28.347  30.328  1.00  0.00     0.167 HD
ATOM     36  C   UNL A   1      40.991  30.679  34.014  1.00  0.00     0.034 A 
ATOM     37  C   UNL A   1      42.428  26.533  28.574  1.00  0.00     0.034 A 
ATOM     38  C   UNL A   1      42.134  29.825  34.188  1.00  0.00     0.049 A 
ATOM     39  C   UNL A   1      43.255  26.508  29.831  1.00  0.00     0.074 A 
ATOM     40  C   UNL A   1      42.987  29.739  35.275  1.00  0.00     0.029 A 
ATOM     41  N   UNL A   1      42.569  28.889  33.264  1.00  0.00    -0.354 N 
ATOM     42  N   UNL A   1      43.080  27.170  30.948  1.00  0.00    -0.248 NA
ATOM     43  C   UNL A   1      44.416  25.603  29.847  1.00  0.00     0.031 C 
ATOM     44  C   UNL A   1      43.932  28.739  35.012  1.00  0.00     0.029 A 
ATOM     45  C   UNL A   1      43.666  28.207  33.761  1.00  0.00     0.049 A 
ATOM     46  H   UNL A   1      42.158  28.732  32.383  1.00  0.00     0.167 HD
ATOM     47  C   UNL A   1      44.087  26.745  31.807  1.00  0.00     0.074 A 
ATOM     48  C   UNL A   1      44.854  25.747  31.090  1.00  0.00     0.031 C 
ATOM     49  C   UNL A   1      44.370  27.162  33.065  1.00  0.00     0.034 A 
BRANCH  36  50
ATOM     50  C   UNL A   1      40.619  31.605  35.141  1.00  0.00     0.023 A 
ATOM     51  C   UNL A   1      41.355  32.790  35.333  1.00  0.00     0.012 A 
ATOM     52  C   UNL A   1      39.519  31.329  35.974  1.00  0.00     0.148 A 
ATOM     53  C   UNL A   1      41.016  33.677  36.355  1.00  0.00     0.002 A 
ATOM     54  C   UNL A   1      39.166  32.234  36.969  1.00  0.00     0.091 A 
ATOM     55  F   UNL A   1      38.849  30.180  35.795  1.00  0.00    -0.205 F 
ATOM     56  C   UNL A   1      39.917  33.404  37.165  1.00  0.00     0.022 A 
BRANCH  54  57
ATOM     57  S   UNL A   1      37.723  31.992  38.013  1.00  0.00     0.127 S 
ATOM     58  O   UNL A   1      38.242  32.363  39.328  1.00  0.00    -0.237 OA
ATOM     59  O   UNL A   1      36.762  32.941  37.447  1.00  0.00    -0.237 OA
ATOM     60  O   UNL A   1      37.351  30.593  37.849  1.00  0.00    -0.744 OA
ENDBRANCH  54  57
ENDBRANCH  36  50
BRANCH  37  61
ATOM     61  C   UNL A   1      42.748  25.633  27.430  1.00  0.00     0.023 A 
ATOM     62  C   UNL A   1      43.624  26.084  26.423  1.00  0.00     0.012 A 
ATOM     63  C   UNL A   1      42.223  24.330  27.348  1.00  0.00     0.148 A 
ATOM     64  C   UNL A   1      43.956  25.262  25.347  1.00  0.00     0.002 A 
ATOM     65  C   UNL A   1      42.600  23.495  26.301  1.00  0.00     0.091 A 
ATOM     66  F   UNL A   1      41.367  23.925  28.296  1.00  0.00    -0.205 F 
ATOM     67  C   UNL A   1      43.455  23.963  25.292  1.00  0.00     0.022 A 
BRANCH  65  68
ATOM     68  S   UNL A   1      42.100  21.770  26.244  1.00  0.00     0.127 S 
ATOM     69  O   UNL A   1      42.958  21.243  25.187  1.00  0.00    -0.237 OA
ATOM     70  O   UNL A   1      42.429  21.304  27.592  1.00  0.00    -0.237 OA
ATOM     71  O   UNL A   1      40.672  21.801  25.960  1.00  0.00    -0.744 OA
ENDBRANCH  65  68
ENDBRANCH  37  61
BRANCH  49  72
ATOM     72  C   UNL A   1      45.538  26.525  33.767  1.00  0.00     0.023 A 
ATOM     73  C   UNL A   1      46.806  27.133  33.690  1.00  0.00     0.012 A 
ATOM     74  C   UNL A   1      45.369  25.376  34.561  1.00  0.00     0.148 A 
ATOM     75  C   UNL A   1      47.894  26.592  34.374  1.00  0.00     0.002 A 
ATOM     76  C   UNL A   1      46.451  24.862  35.270  1.00  0.00     0.091 A 
ATOM     77  F   UNL A   1      44.161  24.794  34.605  1.00  0.00    -0.205 F 
ATOM     78  C   UNL A   1      47.715  25.464  35.171  1.00  0.00     0.022 A 
BRANCH  76  79
ATOM     79  S   UNL A   1      46.264  23.460  36.378  1.00  0.00     0.127 S 
ATOM     80  O   UNL A   1      45.242  23.940  37.304  1.00  0.00    -0.237 OA
ATOM     81  O   UNL A   1      45.816  22.394  35.478  1.00  0.00    -0.237 OA
ATOM     82  O   UNL A   1      47.589  23.241  36.945  1.00  0.00    -0.744 OA
ENDBRANCH  76  79
ENDBRANCH  49  72
ENDBRANCH  23  24
ENDBRANCH  16  18
ENDBRANCH   1  16
TORSDOF 14
ENDMDL
MODEL 3
REMARK VINA RESULT:     -10.9      0.393      7.982
REMARK SMILES C[N@H+]1CCO[C@](C)(C(=O)OCCOC(=O)c2ccc(-c3c4nc(c(-c5cccc(S(=O)(=O)[O-])c5F)c5ccc([nH]5)c(-c5cccc(S(=O)(=O)[O-])c5F)c5nc(c(-c6cccc(S(=O)(=O)[O-])c6F)c6ccc3[nH]6)C=C5)C=C4)cc2)C1
REMARK SMILES IDX 13 1 12 2 11 3 10 4 8 5 9 6 6 7 1 8 2 9 3 10 79 11 4 13 5 14
REMARK SMILES IDX 7 15 14 16 15 17 16 18 17 19 78 20 18 21 77 22 19 23 20 24
REMARK SMILES IDX 21 25 71 26 22 27 76 28 70 29 72 30 23 31 75 32 69 33 68 34
REMARK SMILES IDX 24 36 56 37 36 38 55 39 37 40 40 41 54 42 73 43 38 44 39 45
REMARK SMILES IDX 53 47 74 48 41 49 25 50 26 51 34 52 27 53 29 54 35 55 28 56
REMARK SMILES IDX 30 57 31 58 32 59 33 60 57 61 58 62 66 63 59 64 61 65 67 66
REMARK SMILES IDX 60 67 62 68 63 69 64 70 65 71 42 72 43 73 51 74 44 75 46 76
REMARK SMILES IDX 52 77 45 78 47 79 48 80 49 81 50 82
REMARK H PARENT 2 12 72 35 40 46
REMARK Flexibility Score: inf
ROOT
ATOM      1  O   UNL A   1      40.823  20.707  26.592  1.00  0.00    -0.458 OA
ENDROOT
BRANCH   1   2
ATOM      2  C   UNL A   1      40.618  19.360  26.132  1.00  0.00     0.275 C 
BRANCH   2   3
ATOM      3  C   UNL A   1      41.960  18.653  25.942  1.00  0.00     0.274 C 
BRANCH   3   4
ATOM      4  O   UNL A   1      42.755  19.303  24.929  1.00  0.00    -0.460 OA
BRANCH   4   5
ATOM      5  C   UNL A   1      44.108  19.156  25.058  1.00  0.00     0.344 C 
ATOM      6  O   UNL A   1      44.654  18.078  25.268  1.00  0.00    -0.249 OA
BRANCH   5   7
ATOM      7  C   UNL A   1      44.864  20.508  24.971  1.00  0.00     0.211 C 
ATOM      8  C   UNL A   1      46.065  23.289  26.245  1.00  0.00     0.332 C 
ATOM      9  N   UNL A   1      44.692  22.897  25.967  1.00  0.00    -0.333 N 
ATOM     10  C   UNL A   1      44.252  23.318  24.626  1.00  0.00     0.290 C 
ATOM     11  C   UNL A   1      44.421  21.453  26.124  1.00  0.00     0.310 C 
ATOM     12  H   UNL A   1      44.153  23.388  26.680  1.00  0.00     0.348 HD
ATOM     13  C   UNL A   1      44.830  22.444  23.504  1.00  0.00     0.223 C 
ATOM     14  O   UNL A   1      44.527  21.058  23.678  1.00  0.00    -0.353 OA
ATOM     15  C   UNL A   1      46.355  20.161  24.999  1.00  0.00     0.061 C 
ENDBRANCH   5   7
ENDBRANCH   4   5
ENDBRANCH   3   4
ENDBRANCH   2   3
ENDBRANCH   1   2
BRANCH   1  16
ATOM     16  C   UNL A   1      39.763  21.532  26.476  1.00  0.00     0.338 C 
ATOM     17  O   UNL A   1      38.669  21.269  25.979  1.00  0.00    -0.246 OA
BRANCH  16  18
ATOM     18  C   UNL A   1      40.060  22.835  27.080  1.00  0.00     0.060 A 
ATOM     19  C   UNL A   1      39.461  23.975  26.546  1.00  0.00     0.016 A 
ATOM     20  C   UNL A   1      41.054  22.951  28.052  1.00  0.00     0.016 A 
ATOM     21  C   UNL A   1      39.909  25.240  26.917  1.00  0.00     0.010 A 
ATOM     22  C   UNL A   1      41.466  24.223  28.464  1.00  0.00     0.010 A 
ATOM     23  C   UNL A   1      40.938  25.378  27.859  1.00  0.00    -0.014 A 
BRANCH  23  24
ATOM     24  C   UNL A   1      41.537  26.716  28.115  1.00  0.00     0.031 A 
ATOM     25  C   UNL A   1      40.725  27.770  28.824  1.00  0.00     0.074 A 
ATOM     26  C   UNL A   1      42.804  26.986  27.747  1.00  0.00     0.049 A 
ATOM     27  N   UNL A   1      41.031  29.017  29.083  1.00  0.00    -0.248 NA
ATOM     28  C   UNL A   1      39.388  27.375  29.299  1.00  0.00     0.031 C 
ATOM     29  C   UNL A   1      43.704  26.055  27.066  1.00  0.00     0.029 A 
ATOM     30  N   UNL A   1      43.553  28.128  27.894  1.00  0.00    -0.354 N 
ATOM     31  C   UNL A   1      39.908  29.568  29.688  1.00  0.00     0.074 A 
ATOM     32  C   UNL A   1      38.913  28.521  29.765  1.00  0.00     0.031 C 
ATOM     33  C   UNL A   1      44.887  26.658  26.863  1.00  0.00     0.029 A 
ATOM     34  C   UNL A   1      44.820  28.028  27.366  1.00  0.00     0.049 A 
ATOM     35  H   UNL A   1      43.217  28.940  28.336  1.00  0.00     0.167 HD
ATOM     36  C   UNL A   1      39.724  30.825  30.158  1.00  0.00     0.034 A 
ATOM     37  C   UNL A   1      45.811  28.939  27.288  1.00  0.00     0.034 A 
ATOM     38  C   UNL A   1      40.736  31.845  30.157  1.00  0.00     0.049 A 
ATOM     39  C   UNL A   1      45.599  30.310  27.871  1.00  0.00     0.074 A 
ATOM     40  C   UNL A   1      40.648  33.144  30.627  1.00  0.00     0.029 A 
ATOM     41  N   UNL A   1      42.028  31.676  29.689  1.00  0.00    -0.354 N 
ATOM     42  N   UNL A   1      44.551  30.791  28.492  1.00  0.00    -0.248 NA
ATOM     43  C   UNL A   1      46.720  31.259  27.766  1.00  0.00     0.031 C 
ATOM     44  C   UNL A   1      41.895  33.757  30.455  1.00  0.00     0.029 A 
ATOM     45  C   UNL A   1      42.756  32.839  29.875  1.00  0.00     0.049 A 
ATOM     46  H   UNL A   1      42.379  30.850  29.282  1.00  0.00     0.167 HD
ATOM     47  C   UNL A   1      44.892  32.083  28.875  1.00  0.00     0.074 A 
ATOM     48  C   UNL A   1      46.255  32.302  28.439  1.00  0.00     0.031 C 
ATOM     49  C   UNL A   1      44.136  33.015  29.505  1.00  0.00     0.034 A 
BRANCH  36  50
ATOM     50  C   UNL A   1      38.383  31.155  30.755  1.00  0.00     0.023 A 
ATOM     51  C   UNL A   1      38.130  30.839  32.104  1.00  0.00     0.012 A 
ATOM     52  C   UNL A   1      37.396  31.817  30.002  1.00  0.00     0.148 A 
ATOM     53  C   UNL A   1      36.904  31.155  32.689  1.00  0.00     0.002 A 
ATOM     54  C   UNL A   1      36.189  32.161  30.601  1.00  0.00     0.091 A 
ATOM     55  F   UNL A   1      37.643  32.083  28.710  1.00  0.00    -0.205 F 
ATOM     56  C   UNL A   1      35.939  31.824  31.941  1.00  0.00     0.022 A 
BRANCH  54  57
ATOM     57  S   UNL A   1      34.917  33.084  29.729  1.00  0.00     0.127 S 
ATOM     58  O   UNL A   1      34.024  33.465  30.821  1.00  0.00    -0.237 OA
ATOM     59  O   UNL A   1      35.675  34.192  29.146  1.00  0.00    -0.237 OA
ATOM     60  O   UNL A   1      34.362  32.158  28.750  1.00  0.00    -0.744 OA
ENDBRANCH  54  57
ENDBRANCH  36  50
BRANCH  37  61
ATOM     61  C   UNL A   1      47.121  28.556  26.689  1.00  0.00     0.023 A 
ATOM     62  C   UNL A   1      48.247  28.421  27.524  1.00  0.00     0.012 A 
ATOM     63  C   UNL A   1      47.253  28.293  25.312  1.00  0.00     0.148 A 
ATOM     64  C   UNL A   1      49.484  28.050  26.996  1.00  0.00     0.002 A 
ATOM     65  C   UNL A   1      48.476  27.871  24.801  1.00  0.00     0.091 A 
ATOM     66  F   UNL A   1      46.180  28.455  24.525  1.00  0.00    -0.205 F 
ATOM     67  C   UNL A   1      49.596  27.762  25.638  1.00  0.00     0.022 A 
BRANCH  65  68
ATOM     68  S   UNL A   1      48.654  27.354  23.090  1.00  0.00     0.127 S 
ATOM     69  O   UNL A   1      48.276  25.945  23.160  1.00  0.00    -0.237 OA
ATOM     70  O   UNL A   1      47.692  28.215  22.401  1.00  0.00    -0.237 OA
ATOM     71  O   UNL A   1      50.044  27.632  22.754  1.00  0.00    -0.744 OA
ENDBRANCH  65  68
ENDBRANCH  37  61
BRANCH  49  72
ATOM     72  C   UNL A   1      44.767  34.349  29.793  1.00  0.00     0.023 A 
ATOM     73  C   UNL A   1      45.491  34.528  30.988  1.00  0.00     0.012 A 
ATOM     74  C   UNL A   1      44.709  35.397  28.855  1.00  0.00     0.148 A 
ATOM     75  C   UNL A   1      46.129  35.739  31.255  1.00  0.00     0.002 A 
ATOM     76  C   UNL A   1      45.378  36.590  29.112  1.00  0.00     0.091 A 
ATOM     77  F   UNL A   1      43.995  35.220  27.734  1.00  0.00    -0.205 F 
ATOM     78  C   UNL A   1      46.082  36.765  30.314  1.00  0.00     0.022 A 
BRANCH  76  79
ATOM     79  S   UNL A   1      45.422  37.918  27.903  1.00  0.00     0.127 S 
ATOM     80  O   UNL A   1      46.342  38.865  28.527  1.00  0.00    -0.237 OA
ATOM     81  O   UNL A   1      45.951  37.252  26.710  1.00  0.00    -0.237 OA
ATOM     82  O   UNL A   1      44.040  38.362  27.771  1.00  0.00    -0.744 OA
ENDBRANCH  76  79
ENDBRANCH  49  72
ENDBRANCH  23  24
ENDBRANCH  16  18
ENDBRANCH   1  16
TORSDOF 14
ENDMDL
