MODEL 1
REMARK VINA RESULT:     -11.6      0.000      0.000
REMARK SMILES CCCc1c(C(=O)OCCOC(=O)c2ccc(-c3c4nc(c(-c5cccc(S(=O)(=O)[O-])c5F)c5ccc([nH]5)c(-c5cccc(S(=O)(=O)[O-])c5F)c5nc(c(-c6cccc(S(=O)(=O)[O-])c6F)c6ccc3[nH]6)C=C5)C=C4)cc2)nnn1-c1ccccc1[N+](=O)[O-]
REMARK SMILES IDX 10 1 9 2 8 3 6 4 7 5 5 6 4 7 79 8 77 9 78 10 3 11 2 12 1 13
REMARK SMILES IDX 80 14 81 15 85 16 82 17 84 18 83 19 86 20 87 21 88 22 11 23
REMARK SMILES IDX 12 24 13 25 14 26 15 27 76 28 16 29 75 30 17 31 18 32 19 33
REMARK SMILES IDX 69 34 20 35 74 36 68 37 70 38 21 39 73 40 67 41 66 42 22 44
REMARK SMILES IDX 54 45 34 46 53 47 35 48 38 49 52 50 71 51 36 52 37 53 51 55
REMARK SMILES IDX 72 56 39 57 23 58 24 59 32 60 25 61 27 62 33 63 26 64 28 65
REMARK SMILES IDX 29 66 30 67 31 68 55 69 56 70 64 71 57 72 59 73 65 74 58 75
REMARK SMILES IDX 60 76 61 77 62 78 63 79 40 80 41 81 49 82 42 83 44 84 50 85
REMARK SMILES IDX 43 86 45 87 46 88 47 89 48 90
REMARK H PARENT 70 43 38 54
REMARK Flexibility Score: inf
ROOT
ATOM      1  C   UNL A   1      33.169  30.450  27.450  1.00  0.00     0.275 C 
ENDROOT
BRANCH   1   2
ATOM      2  C   UNL A   1      33.117  29.118  26.714  1.00  0.00     0.275 C 
BRANCH   2   3
ATOM      3  O   UNL A   1      31.763  28.737  26.414  1.00  0.00    -0.457 OA
BRANCH   3   4
ATOM      4  C   UNL A   1      31.468  28.577  25.084  1.00  0.00     0.360 C 
ATOM      5  O   UNL A   1      31.447  29.502  24.283  1.00  0.00    -0.244 OA
BRANCH   4   6
ATOM      6  C   UNL A   1      31.237  27.185  24.703  1.00  0.00     0.194 A 
ATOM      7  C   UNL A   1      32.135  26.147  24.453  1.00  0.00     0.080 A 
ATOM      8  N   UNL A   1      31.295  25.056  24.300  1.00  0.00    -0.210 N 
ATOM      9  N   UNL A   1      29.959  26.732  24.462  1.00  0.00    -0.122 NA
ATOM     10  N   UNL A   1      30.028  25.464  24.097  1.00  0.00    -0.061 NA
BRANCH   7  11
ATOM     11  C   UNL A   1      33.632  26.143  24.365  1.00  0.00     0.059 C 
BRANCH  11  12
ATOM     12  C   UNL A   1      34.406  25.555  25.551  1.00  0.00     0.003 C 
ATOM     13  C   UNL A   1      35.093  24.230  25.255  1.00  0.00     0.004 C 
ENDBRANCH  11  12
ENDBRANCH   7  11
BRANCH   8  14
ATOM     14  C   UNL A   1      31.565  23.678  24.386  1.00  0.00     0.144 A 
ATOM     15  C   UNL A   1      31.916  23.000  23.209  1.00  0.00     0.036 A 
ATOM     16  C   UNL A   1      31.502  22.972  25.595  1.00  0.00     0.294 A 
ATOM     17  C   UNL A   1      32.273  21.650  23.265  1.00  0.00     0.003 A 
ATOM     18  C   UNL A   1      31.848  21.614  25.645  1.00  0.00     0.088 A 
ATOM     19  C   UNL A   1      32.248  20.962  24.479  1.00  0.00     0.007 A 
BRANCH  16  20
ATOM     20  N   UNL A   1      30.959  23.563  26.811  1.00  0.00     0.065 N 
ATOM     21  O   UNL A   1      31.618  24.469  27.338  1.00  0.00    -0.258 OA
ATOM     22  O   UNL A   1      29.899  23.105  27.253  1.00  0.00    -0.258 OA
ENDBRANCH  16  20
ENDBRANCH   8  14
ENDBRANCH   4   6
ENDBRANCH   3   4
ENDBRANCH   2   3
ENDBRANCH   1   2
BRANCH   1  23
ATOM     23  O   UNL A   1      34.443  31.073  27.308  1.00  0.00    -0.458 OA
BRANCH  23  24
ATOM     24  C   UNL A   1      35.098  31.289  28.472  1.00  0.00     0.338 C 
ATOM     25  O   UNL A   1      34.661  31.850  29.464  1.00  0.00    -0.246 OA
BRANCH  24  26
ATOM     26  C   UNL A   1      36.512  30.961  28.296  1.00  0.00     0.060 A 
ATOM     27  C   UNL A   1      36.824  29.705  27.764  1.00  0.00     0.016 A 
ATOM     28  C   UNL A   1      37.469  31.756  28.941  1.00  0.00     0.016 A 
ATOM     29  C   UNL A   1      38.072  29.175  28.016  1.00  0.00     0.010 A 
ATOM     30  C   UNL A   1      38.698  31.213  29.221  1.00  0.00     0.010 A 
ATOM     31  C   UNL A   1      38.961  29.909  28.804  1.00  0.00    -0.014 A 
BRANCH  31  32
ATOM     32  C   UNL A   1      40.245  29.328  29.131  1.00  0.00     0.031 A 
ATOM     33  C   UNL A   1      40.428  29.077  30.579  1.00  0.00     0.074 A 
ATOM     34  C   UNL A   1      41.078  28.886  28.170  1.00  0.00     0.049 A 
ATOM     35  N   UNL A   1      41.317  29.584  31.366  1.00  0.00    -0.248 NA
ATOM     36  C   UNL A   1      39.397  28.281  31.264  1.00  0.00     0.031 C 
ATOM     37  C   UNL A   1      40.800  28.797  26.732  1.00  0.00     0.029 A 
ATOM     38  N   UNL A   1      42.278  28.256  28.297  1.00  0.00    -0.354 N 
ATOM     39  C   UNL A   1      41.094  28.970  32.597  1.00  0.00     0.074 A 
ATOM     40  C   UNL A   1      39.785  28.384  32.534  1.00  0.00     0.031 C 
ATOM     41  C   UNL A   1      41.670  27.930  26.171  1.00  0.00     0.029 A 
ATOM     42  C   UNL A   1      42.619  27.495  27.183  1.00  0.00     0.049 A 
ATOM     43  H   UNL A   1      42.848  28.331  29.096  1.00  0.00     0.167 HD
ATOM     44  C   UNL A   1      42.119  28.722  33.455  1.00  0.00     0.034 A 
ATOM     45  C   UNL A   1      43.539  26.501  27.138  1.00  0.00     0.034 A 
ATOM     46  C   UNL A   1      43.274  29.528  33.147  1.00  0.00     0.049 A 
ATOM     47  C   UNL A   1      44.411  26.640  28.328  1.00  0.00     0.074 A 
ATOM     48  C   UNL A   1      43.514  30.881  33.009  1.00  0.00     0.029 A 
ATOM     49  N   UNL A   1      44.342  28.892  32.562  1.00  0.00    -0.354 N 
ATOM     50  N   UNL A   1      45.255  27.617  28.501  1.00  0.00    -0.248 NA
ATOM     51  C   UNL A   1      44.059  25.900  29.530  1.00  0.00     0.031 C 
ATOM     52  C   UNL A   1      44.471  30.983  31.959  1.00  0.00     0.029 A 
ATOM     53  C   UNL A   1      44.797  29.689  31.547  1.00  0.00     0.049 A 
ATOM     54  H   UNL A   1      44.714  28.020  32.826  1.00  0.00     0.167 HD
ATOM     55  C   UNL A   1      45.178  27.904  29.858  1.00  0.00     0.074 A 
ATOM     56  C   UNL A   1      44.535  26.736  30.455  1.00  0.00     0.031 C 
ATOM     57  C   UNL A   1      45.366  29.177  30.320  1.00  0.00     0.034 A 
BRANCH  44  58
ATOM     58  C   UNL A   1      42.224  27.475  34.308  1.00  0.00     0.023 A 
ATOM     59  C   UNL A   1      41.752  27.569  35.635  1.00  0.00     0.012 A 
ATOM     60  C   UNL A   1      42.999  26.334  33.988  1.00  0.00     0.148 A 
ATOM     61  C   UNL A   1      42.093  26.621  36.606  1.00  0.00     0.002 A 
ATOM     62  C   UNL A   1      43.261  25.349  34.933  1.00  0.00     0.091 A 
ATOM     63  F   UNL A   1      43.620  26.241  32.810  1.00  0.00    -0.205 F 
ATOM     64  C   UNL A   1      42.843  25.506  36.254  1.00  0.00     0.022 A 
BRANCH  62  65
ATOM     65  S   UNL A   1      44.176  23.863  34.505  1.00  0.00     0.127 S 
ATOM     66  O   UNL A   1      43.645  22.905  35.470  1.00  0.00    -0.237 OA
ATOM     67  O   UNL A   1      43.761  23.643  33.118  1.00  0.00    -0.237 OA
ATOM     68  O   UNL A   1      45.583  24.216  34.654  1.00  0.00    -0.744 OA
ENDBRANCH  62  65
ENDBRANCH  44  58
BRANCH  45  69
ATOM     69  C   UNL A   1      43.581  25.292  26.283  1.00  0.00     0.023 A 
ATOM     70  C   UNL A   1      44.593  25.167  25.311  1.00  0.00     0.012 A 
ATOM     71  C   UNL A   1      42.800  24.152  26.581  1.00  0.00     0.148 A 
ATOM     72  C   UNL A   1      44.839  23.943  24.678  1.00  0.00     0.002 A 
ATOM     73  C   UNL A   1      43.037  22.942  25.936  1.00  0.00     0.091 A 
ATOM     74  F   UNL A   1      41.891  24.226  27.561  1.00  0.00    -0.205 F 
ATOM     75  C   UNL A   1      44.065  22.830  24.994  1.00  0.00     0.022 A 
BRANCH  73  76
ATOM     76  S   UNL A   1      42.076  21.465  26.299  1.00  0.00     0.127 S 
ATOM     77  O   UNL A   1      40.723  21.882  25.927  1.00  0.00    -0.237 OA
ATOM     78  O   UNL A   1      42.682  20.483  25.406  1.00  0.00    -0.237 OA
ATOM     79  O   UNL A   1      42.251  21.221  27.726  1.00  0.00    -0.744 OA
ENDBRANCH  73  76
ENDBRANCH  45  69
BRANCH  57  80
ATOM     80  C   UNL A   1      45.951  30.196  29.374  1.00  0.00     0.023 A 
ATOM     81  C   UNL A   1      47.342  30.336  29.182  1.00  0.00     0.012 A 
ATOM     82  C   UNL A   1      45.078  30.926  28.547  1.00  0.00     0.148 A 
ATOM     83  C   UNL A   1      47.850  31.212  28.219  1.00  0.00     0.002 A 
ATOM     84  C   UNL A   1      45.588  31.759  27.557  1.00  0.00     0.091 A 
ATOM     85  F   UNL A   1      43.756  30.782  28.730  1.00  0.00    -0.205 F 
ATOM     86  C   UNL A   1      46.973  31.915  27.399  1.00  0.00     0.022 A 
BRANCH  84  87
ATOM     87  S   UNL A   1      44.502  32.584  26.392  1.00  0.00     0.127 S 
ATOM     88  O   UNL A   1      43.840  33.575  27.236  1.00  0.00    -0.237 OA
ATOM     89  O   UNL A   1      45.441  33.141  25.416  1.00  0.00    -0.237 OA
ATOM     90  O   UNL A   1      43.643  31.536  25.850  1.00  0.00    -0.744 OA
ENDBRANCH  84  87
ENDBRANCH  57  80
ENDBRANCH  31  32
ENDBRANCH  24  26
ENDBRANCH  23  24
ENDBRANCH   1  23
TORSDOF 18
ENDMDL
MODEL 2
REMARK VINA RESULT:     -11.4      1.683      2.125
REMARK SMILES CCCc1c(C(=O)OCCOC(=O)c2ccc(-c3c4nc(c(-c5cccc(S(=O)(=O)[O-])c5F)c5ccc([nH]5)c(-c5cccc(S(=O)(=O)[O-])c5F)c5nc(c(-c6cccc(S(=O)(=O)[O-])c6F)c6ccc3[nH]6)C=C5)C=C4)cc2)nnn1-c1ccccc1[N+](=O)[O-]
REMARK SMILES IDX 10 1 9 2 8 3 6 4 7 5 5 6 4 7 79 8 77 9 78 10 3 11 2 12 1 13
REMARK SMILES IDX 80 14 81 15 85 16 82 17 84 18 83 19 86 20 87 21 88 22 11 23
REMARK SMILES IDX 12 24 13 25 14 26 15 27 76 28 16 29 75 30 17 31 18 32 19 33
REMARK SMILES IDX 69 34 20 35 74 36 68 37 70 38 21 39 73 40 67 41 66 42 22 44
REMARK SMILES IDX 54 45 34 46 53 47 35 48 38 49 52 50 71 51 36 52 37 53 51 55
REMARK SMILES IDX 72 56 39 57 23 58 24 59 32 60 25 61 27 62 33 63 26 64 28 65
REMARK SMILES IDX 29 66 30 67 31 68 55 69 56 70 64 71 57 72 59 73 65 74 58 75
REMARK SMILES IDX 60 76 61 77 62 78 63 79 40 80 41 81 49 82 42 83 44 84 50 85
REMARK SMILES IDX 43 86 45 87 46 88 47 89 48 90
REMARK H PARENT 70 43 38 54
REMARK Flexibility Score: inf
ROOT
ATOM      1  C   UNL A   1      33.070  30.131  27.183  1.00  0.00     0.275 C 
ENDROOT
BRANCH   1   2
ATOM      2  C   UNL A   1      32.540  29.904  25.774  1.00  0.00     0.275 C 
BRANCH   2   3
ATOM      3  O   UNL A   1      31.487  28.925  25.761  1.00  0.00    -0.457 OA
BRANCH   3   4
ATOM      4  C   UNL A   1      30.969  28.621  24.528  1.00  0.00     0.360 C 
ATOM      5  O   UNL A   1      30.674  29.468  23.694  1.00  0.00    -0.244 OA
BRANCH   4   6
ATOM      6  C   UNL A   1      30.856  27.185  24.281  1.00  0.00     0.194 A 
ATOM      7  C   UNL A   1      31.837  26.199  24.171  1.00  0.00     0.080 A 
ATOM      8  N   UNL A   1      31.085  25.037  24.098  1.00  0.00    -0.210 N 
ATOM      9  N   UNL A   1      29.626  26.615  24.042  1.00  0.00    -0.122 NA
ATOM     10  N   UNL A   1      29.802  25.325  23.810  1.00  0.00    -0.061 NA
BRANCH   7  11
ATOM     11  C   UNL A   1      33.333  26.301  24.137  1.00  0.00     0.059 C 
BRANCH  11  12
ATOM     12  C   UNL A   1      34.089  25.990  25.434  1.00  0.00     0.003 C 
ATOM     13  C   UNL A   1      34.827  24.659  25.425  1.00  0.00     0.004 C 
ENDBRANCH  11  12
ENDBRANCH   7  11
BRANCH   8  14
ATOM     14  C   UNL A   1      31.451  23.699  24.334  1.00  0.00     0.144 A 
ATOM     15  C   UNL A   1      31.847  22.921  23.236  1.00  0.00     0.036 A 
ATOM     16  C   UNL A   1      31.437  23.128  25.613  1.00  0.00     0.294 A 
ATOM     17  C   UNL A   1      32.297  21.612  23.436  1.00  0.00     0.003 A 
ATOM     18  C   UNL A   1      31.876  21.811  25.810  1.00  0.00     0.088 A 
ATOM     19  C   UNL A   1      32.320  21.063  24.720  1.00  0.00     0.007 A 
BRANCH  16  20
ATOM     20  N   UNL A   1      30.855  23.810  26.761  1.00  0.00     0.065 N 
ATOM     21  O   UNL A   1      29.753  23.405  27.156  1.00  0.00    -0.258 OA
ATOM     22  O   UNL A   1      31.478  24.762  27.246  1.00  0.00    -0.258 OA
ENDBRANCH  16  20
ENDBRANCH   8  14
ENDBRANCH   4   6
ENDBRANCH   3   4
ENDBRANCH   2   3
ENDBRANCH   1   2
BRANCH   1  23
ATOM     23  O   UNL A   1      34.487  30.287  27.188  1.00  0.00    -0.458 OA
BRANCH  23  24
ATOM     24  C   UNL A   1      34.936  31.337  27.914  1.00  0.00     0.338 C 
ATOM     25  O   UNL A   1      34.595  32.502  27.802  1.00  0.00    -0.246 OA
BRANCH  24  26
ATOM     26  C   UNL A   1      36.087  30.913  28.711  1.00  0.00     0.060 A 
ATOM     27  C   UNL A   1      37.113  31.842  28.912  1.00  0.00     0.016 A 
ATOM     28  C   UNL A   1      36.260  29.545  28.962  1.00  0.00     0.016 A 
ATOM     29  C   UNL A   1      38.373  31.374  29.221  1.00  0.00     0.010 A 
ATOM     30  C   UNL A   1      37.520  29.078  29.235  1.00  0.00     0.010 A 
ATOM     31  C   UNL A   1      38.570  29.994  29.304  1.00  0.00    -0.014 A 
BRANCH  31  32
ATOM     32  C   UNL A   1      39.903  29.495  29.559  1.00  0.00     0.031 A 
ATOM     33  C   UNL A   1      40.317  29.613  30.976  1.00  0.00     0.074 A 
ATOM     34  C   UNL A   1      40.586  28.814  28.620  1.00  0.00     0.049 A 
ATOM     35  N   UNL A   1      41.306  30.288  31.461  1.00  0.00    -0.248 NA
ATOM     36  C   UNL A   1      39.427  29.030  31.993  1.00  0.00     0.031 C 
ATOM     37  C   UNL A   1      40.089  28.370  27.313  1.00  0.00     0.029 A 
ATOM     38  N   UNL A   1      41.807  28.217  28.709  1.00  0.00    -0.354 N 
ATOM     39  C   UNL A   1      41.295  30.006  32.825  1.00  0.00     0.074 A 
ATOM     40  C   UNL A   1      40.006  29.443  33.118  1.00  0.00     0.031 C 
ATOM     41  C   UNL A   1      40.882  27.377  26.857  1.00  0.00     0.029 A 
ATOM     42  C   UNL A   1      41.988  27.196  27.782  1.00  0.00     0.049 A 
ATOM     43  H   UNL A   1      42.493  28.482  29.364  1.00  0.00     0.167 HD
ATOM     44  C   UNL A   1      42.447  29.966  33.544  1.00  0.00     0.034 A 
ATOM     45  C   UNL A   1      42.915  26.209  27.843  1.00  0.00     0.034 A 
ATOM     46  C   UNL A   1      43.518  30.651  32.866  1.00  0.00     0.049 A 
ATOM     47  C   UNL A   1      43.959  26.629  28.806  1.00  0.00     0.074 A 
ATOM     48  C   UNL A   1      43.700  31.923  32.358  1.00  0.00     0.029 A 
ATOM     49  N   UNL A   1      44.497  29.873  32.298  1.00  0.00    -0.354 N 
ATOM     50  N   UNL A   1      44.794  27.606  28.593  1.00  0.00    -0.248 NA
ATOM     51  C   UNL A   1      43.818  26.220  30.195  1.00  0.00     0.031 C 
ATOM     52  C   UNL A   1      44.477  31.743  31.177  1.00  0.00     0.029 A 
ATOM     53  C   UNL A   1      44.767  30.382  31.057  1.00  0.00     0.049 A 
ATOM     54  H   UNL A   1      44.928  29.090  32.709  1.00  0.00     0.167 HD
ATOM     55  C   UNL A   1      44.924  28.225  29.830  1.00  0.00     0.074 A 
ATOM     56  C   UNL A   1      44.412  27.255  30.794  1.00  0.00     0.031 C 
ATOM     57  C   UNL A   1      45.150  29.570  29.923  1.00  0.00     0.034 A 
BRANCH  44  58
ATOM     58  C   UNL A   1      42.716  28.972  34.655  1.00  0.00     0.023 A 
ATOM     59  C   UNL A   1      43.291  29.480  35.840  1.00  0.00     0.012 A 
ATOM     60  C   UNL A   1      42.707  27.564  34.505  1.00  0.00     0.148 A 
ATOM     61  C   UNL A   1      43.889  28.640  36.785  1.00  0.00     0.002 A 
ATOM     62  C   UNL A   1      43.222  26.729  35.490  1.00  0.00     0.091 A 
ATOM     63  F   UNL A   1      42.333  27.004  33.352  1.00  0.00    -0.205 F 
ATOM     64  C   UNL A   1      43.849  27.262  36.615  1.00  0.00     0.022 A 
BRANCH  62  65
ATOM     65  S   UNL A   1      43.137  24.940  35.336  1.00  0.00     0.127 S 
ATOM     66  O   UNL A   1      43.846  24.510  36.537  1.00  0.00    -0.237 OA
ATOM     67  O   UNL A   1      41.692  24.705  35.349  1.00  0.00    -0.237 OA
ATOM     68  O   UNL A   1      43.776  24.628  34.063  1.00  0.00    -0.744 OA
ENDBRANCH  62  65
ENDBRANCH  44  58
BRANCH  45  69
ATOM     69  C   UNL A   1      42.852  24.824  27.322  1.00  0.00     0.023 A 
ATOM     70  C   UNL A   1      41.640  24.110  27.398  1.00  0.00     0.012 A 
ATOM     71  C   UNL A   1      43.890  24.290  26.524  1.00  0.00     0.148 A 
ATOM     72  C   UNL A   1      41.456  22.921  26.683  1.00  0.00     0.002 A 
ATOM     73  C   UNL A   1      43.707  23.098  25.828  1.00  0.00     0.091 A 
ATOM     74  F   UNL A   1      45.018  24.994  26.369  1.00  0.00    -0.205 F 
ATOM     75  C   UNL A   1      42.487  22.417  25.894  1.00  0.00     0.022 A 
BRANCH  73  76
ATOM     76  S   UNL A   1      44.997  22.395  24.790  1.00  0.00     0.127 S 
ATOM     77  O   UNL A   1      46.052  22.110  25.765  1.00  0.00    -0.237 OA
ATOM     78  O   UNL A   1      44.335  21.215  24.242  1.00  0.00    -0.237 OA
ATOM     79  O   UNL A   1      45.341  23.436  23.829  1.00  0.00    -0.744 OA
ENDBRANCH  73  76
ENDBRANCH  45  69
BRANCH  57  80
ATOM     80  C   UNL A   1      45.553  30.310  28.672  1.00  0.00     0.023 A 
ATOM     81  C   UNL A   1      44.605  30.885  27.798  1.00  0.00     0.012 A 
ATOM     82  C   UNL A   1      46.918  30.564  28.449  1.00  0.00     0.148 A 
ATOM     83  C   UNL A   1      45.011  31.658  26.706  1.00  0.00     0.002 A 
ATOM     84  C   UNL A   1      47.314  31.374  27.391  1.00  0.00     0.091 A 
ATOM     85  F   UNL A   1      47.813  30.020  29.289  1.00  0.00    -0.205 F 
ATOM     86  C   UNL A   1      46.365  31.911  26.509  1.00  0.00     0.022 A 
BRANCH  84  87
ATOM     87  S   UNL A   1      49.034  31.836  27.173  1.00  0.00     0.127 S 
ATOM     88  O   UNL A   1      48.946  32.876  26.151  1.00  0.00    -0.237 OA
ATOM     89  O   UNL A   1      49.409  32.318  28.504  1.00  0.00    -0.237 OA
ATOM     90  O   UNL A   1      49.720  30.611  26.775  1.00  0.00    -0.744 OA
ENDBRANCH  84  87
ENDBRANCH  57  80
ENDBRANCH  31  32
ENDBRANCH  24  26
ENDBRANCH  23  24
ENDBRANCH   1  23
TORSDOF 18
ENDMDL
MODEL 3
REMARK VINA RESULT:     -11.3      1.296      1.721
REMARK SMILES CCCc1c(C(=O)OCCOC(=O)c2ccc(-c3c4nc(c(-c5cccc(S(=O)(=O)[O-])c5F)c5ccc([nH]5)c(-c5cccc(S(=O)(=O)[O-])c5F)c5nc(c(-c6cccc(S(=O)(=O)[O-])c6F)c6ccc3[nH]6)C=C5)C=C4)cc2)nnn1-c1ccccc1[N+](=O)[O-]
REMARK SMILES IDX 10 1 9 2 8 3 6 4 7 5 5 6 4 7 79 8 77 9 78 10 3 11 2 12 1 13
REMARK SMILES IDX 80 14 81 15 85 16 82 17 84 18 83 19 86 20 87 21 88 22 11 23
REMARK SMILES IDX 12 24 13 25 14 26 15 27 76 28 16 29 75 30 17 31 18 32 19 33
REMARK SMILES IDX 69 34 20 35 74 36 68 37 70 38 21 39 73 40 67 41 66 42 22 44
REMARK SMILES IDX 54 45 34 46 53 47 35 48 38 49 52 50 71 51 36 52 37 53 51 55
REMARK SMILES IDX 72 56 39 57 23 58 24 59 32 60 25 61 27 62 33 63 26 64 28 65
REMARK SMILES IDX 29 66 30 67 31 68 55 69 56 70 64 71 57 72 59 73 65 74 58 75
REMARK SMILES IDX 60 76 61 77 62 78 63 79 40 80 41 81 49 82 42 83 44 84 50 85
REMARK SMILES IDX 43 86 45 87 46 88 47 89 48 90
REMARK H PARENT 70 43 38 54
REMARK Flexibility Score: inf
ROOT
ATOM      1  C   UNL A   1      33.459  31.228  27.019  1.00  0.00     0.275 C 
ENDROOT
BRANCH   1   2
ATOM      2  C   UNL A   1      32.258  30.324  27.265  1.00  0.00     0.275 C 
BRANCH   2   3
ATOM      3  O   UNL A   1      32.569  28.950  26.976  1.00  0.00    -0.457 OA
BRANCH   3   4
ATOM      4  C   UNL A   1      31.888  28.390  25.926  1.00  0.00     0.360 C 
ATOM      5  O   UNL A   1      31.325  29.049  25.061  1.00  0.00    -0.244 OA
BRANCH   4   6
ATOM      6  C   UNL A   1      31.946  26.930  25.907  1.00  0.00     0.194 A 
ATOM      7  C   UNL A   1      32.770  26.060  25.193  1.00  0.00     0.080 A 
ATOM      8  N   UNL A   1      32.438  24.826  25.730  1.00  0.00    -0.210 N 
ATOM      9  N   UNL A   1      31.038  26.188  26.629  1.00  0.00    -0.122 NA
ATOM     10  N   UNL A   1      31.278  24.906  26.409  1.00  0.00    -0.061 NA
BRANCH   7  11
ATOM     11  C   UNL A   1      33.779  26.324  24.115  1.00  0.00     0.059 C 
BRANCH  11  12
ATOM     12  C   UNL A   1      33.275  26.981  22.825  1.00  0.00     0.003 C 
ATOM     13  C   UNL A   1      33.886  28.345  22.536  1.00  0.00     0.004 C 
ENDBRANCH  11  12
ENDBRANCH   7  11
BRANCH   8  14
ATOM     14  C   UNL A   1      33.138  23.606  25.712  1.00  0.00     0.144 A 
ATOM     15  C   UNL A   1      33.927  23.282  26.825  1.00  0.00     0.036 A 
ATOM     16  C   UNL A   1      33.068  22.714  24.634  1.00  0.00     0.294 A 
ATOM     17  C   UNL A   1      34.572  22.043  26.884  1.00  0.00     0.003 A 
ATOM     18  C   UNL A   1      33.727  21.477  24.690  1.00  0.00     0.088 A 
ATOM     19  C   UNL A   1      34.465  21.140  25.825  1.00  0.00     0.007 A 
BRANCH  16  20
ATOM     20  N   UNL A   1      32.432  23.068  23.372  1.00  0.00     0.065 N 
ATOM     21  O   UNL A   1      31.194  23.100  23.357  1.00  0.00    -0.258 OA
ATOM     22  O   UNL A   1      33.160  23.281  22.397  1.00  0.00    -0.258 OA
ENDBRANCH  16  20
ENDBRANCH   8  14
ENDBRANCH   4   6
ENDBRANCH   3   4
ENDBRANCH   2   3
ENDBRANCH   1   2
BRANCH   1  23
ATOM     23  O   UNL A   1      34.632  30.719  27.648  1.00  0.00    -0.458 OA
BRANCH  23  24
ATOM     24  C   UNL A   1      35.523  31.663  28.028  1.00  0.00     0.338 C 
ATOM     25  O   UNL A   1      35.563  32.823  27.654  1.00  0.00    -0.246 OA
BRANCH  24  26
ATOM     26  C   UNL A   1      36.600  31.029  28.787  1.00  0.00     0.060 A 
ATOM     27  C   UNL A   1      37.721  31.808  29.095  1.00  0.00     0.016 A 
ATOM     28  C   UNL A   1      36.611  29.632  28.893  1.00  0.00     0.016 A 
ATOM     29  C   UNL A   1      38.913  31.169  29.364  1.00  0.00     0.010 A 
ATOM     30  C   UNL A   1      37.805  28.998  29.128  1.00  0.00     0.010 A 
ATOM     31  C   UNL A   1      38.950  29.774  29.304  1.00  0.00    -0.014 A 
BRANCH  31  32
ATOM     32  C   UNL A   1      40.212  29.101  29.517  1.00  0.00     0.031 A 
ATOM     33  C   UNL A   1      40.520  28.863  30.946  1.00  0.00     0.074 A 
ATOM     34  C   UNL A   1      40.909  28.578  28.490  1.00  0.00     0.049 A 
ATOM     35  N   UNL A   1      41.520  29.312  31.628  1.00  0.00    -0.248 NA
ATOM     36  C   UNL A   1      39.506  28.162  31.750  1.00  0.00     0.031 C 
ATOM     37  C   UNL A   1      40.481  28.485  27.090  1.00  0.00     0.029 A 
ATOM     38  N   UNL A   1      42.064  27.859  28.514  1.00  0.00    -0.354 N 
ATOM     39  C   UNL A   1      41.377  28.741  32.890  1.00  0.00     0.074 A 
ATOM     40  C   UNL A   1      40.026  28.257  32.972  1.00  0.00     0.031 C 
ATOM     41  C   UNL A   1      41.222  27.543  26.468  1.00  0.00     0.029 A 
ATOM     42  C   UNL A   1      42.232  27.053  27.391  1.00  0.00     0.049 A 
ATOM     43  H   UNL A   1      42.715  27.903  29.251  1.00  0.00     0.167 HD
ATOM     44  C   UNL A   1      42.461  28.428  33.648  1.00  0.00     0.034 A 
ATOM     45  C   UNL A   1      43.065  25.990  27.282  1.00  0.00     0.034 A 
ATOM     46  C   UNL A   1      43.636  29.136  33.208  1.00  0.00     0.049 A 
ATOM     47  C   UNL A   1      44.061  26.082  28.376  1.00  0.00     0.074 A 
ATOM     48  C   UNL A   1      43.963  30.463  33.012  1.00  0.00     0.029 A 
ATOM     49  N   UNL A   1      44.589  28.409  32.536  1.00  0.00    -0.354 N 
ATOM     50  N   UNL A   1      44.990  26.994  28.439  1.00  0.00    -0.248 NA
ATOM     51  C   UNL A   1      43.776  25.393  29.625  1.00  0.00     0.031 C 
ATOM     52  C   UNL A   1      44.815  30.472  31.870  1.00  0.00     0.029 A 
ATOM     53  C   UNL A   1      44.998  29.149  31.461  1.00  0.00     0.049 A 
ATOM     54  H   UNL A   1      44.918  27.515  32.784  1.00  0.00     0.167 HD
ATOM     55  C   UNL A   1      45.072  27.310  29.789  1.00  0.00     0.074 A 
ATOM     56  C   UNL A   1      44.405  26.207  30.476  1.00  0.00     0.031 C 
ATOM     57  C   UNL A   1      45.401  28.572  30.197  1.00  0.00     0.034 A 
BRANCH  44  58
ATOM     58  C   UNL A   1      42.556  27.193  34.519  1.00  0.00     0.023 A 
ATOM     59  C   UNL A   1      42.184  27.336  35.873  1.00  0.00     0.012 A 
ATOM     60  C   UNL A   1      43.242  26.004  34.171  1.00  0.00     0.148 A 
ATOM     61  C   UNL A   1      42.540  26.388  36.838  1.00  0.00     0.002 A 
ATOM     62  C   UNL A   1      43.515  25.023  35.116  1.00  0.00     0.091 A 
ATOM     63  F   UNL A   1      43.773  25.856  32.954  1.00  0.00    -0.205 F 
ATOM     64  C   UNL A   1      43.200  25.226  36.459  1.00  0.00     0.022 A 
BRANCH  62  65
ATOM     65  S   UNL A   1      44.314  23.479  34.658  1.00  0.00     0.127 S 
ATOM     66  O   UNL A   1      44.397  22.800  35.947  1.00  0.00    -0.237 OA
ATOM     67  O   UNL A   1      43.349  22.909  33.716  1.00  0.00    -0.237 OA
ATOM     68  O   UNL A   1      45.581  23.864  34.048  1.00  0.00    -0.744 OA
ENDBRANCH  62  65
ENDBRANCH  44  58
BRANCH  45  69
ATOM     69  C   UNL A   1      42.929  24.767  26.458  1.00  0.00     0.023 A 
ATOM     70  C   UNL A   1      43.912  24.469  25.494  1.00  0.00     0.012 A 
ATOM     71  C   UNL A   1      41.989  23.762  26.782  1.00  0.00     0.148 A 
ATOM     72  C   UNL A   1      43.976  23.206  24.894  1.00  0.00     0.002 A 
ATOM     73  C   UNL A   1      42.045  22.514  26.169  1.00  0.00     0.091 A 
ATOM     74  F   UNL A   1      41.100  23.994  27.756  1.00  0.00    -0.205 F 
ATOM     75  C   UNL A   1      43.046  22.227  25.234  1.00  0.00     0.022 A 
BRANCH  73  76
ATOM     76  S   UNL A   1      40.877  21.204  26.566  1.00  0.00     0.127 S 
ATOM     77  O   UNL A   1      40.812  21.286  28.026  1.00  0.00    -0.237 OA
ATOM     78  O   UNL A   1      39.674  21.652  25.873  1.00  0.00    -0.237 OA
ATOM     79  O   UNL A   1      41.480  19.974  26.066  1.00  0.00    -0.744 OA
ENDBRANCH  73  76
ENDBRANCH  45  69
BRANCH  57  80
ATOM     80  C   UNL A   1      45.963  29.525  29.172  1.00  0.00     0.023 A 
ATOM     81  C   UNL A   1      47.320  29.504  28.788  1.00  0.00     0.012 A 
ATOM     82  C   UNL A   1      45.075  30.360  28.470  1.00  0.00     0.148 A 
ATOM     83  C   UNL A   1      47.788  30.324  27.757  1.00  0.00     0.002 A 
ATOM     84  C   UNL A   1      45.536  31.137  27.413  1.00  0.00     0.091 A 
ATOM     85  F   UNL A   1      43.784  30.369  28.837  1.00  0.00    -0.205 F 
ATOM     86  C   UNL A   1      46.894  31.133  27.063  1.00  0.00     0.022 A 
BRANCH  84  87
ATOM     87  S   UNL A   1      44.401  32.095  26.405  1.00  0.00     0.127 S 
ATOM     88  O   UNL A   1      43.968  33.135  27.334  1.00  0.00    -0.237 OA
ATOM     89  O   UNL A   1      45.259  32.566  25.316  1.00  0.00    -0.237 OA
ATOM     90  O   UNL A   1      43.371  31.155  25.978  1.00  0.00    -0.744 OA
ENDBRANCH  84  87
ENDBRANCH  57  80
ENDBRANCH  31  32
ENDBRANCH  24  26
ENDBRANCH  23  24
ENDBRANCH   1  23
TORSDOF 18
ENDMDL
