MODEL 1
REMARK VINA RESULT:     -11.6      0.000      0.000
REMARK SMILES C[C@@H](C(=O)OCCOCCOC(=O)c1ccc(-c2c3nc(c(-c4cccc(S(=O)(=O)[O-])c4F)c4ccc([nH]4)c(-c4cccc(S(=O)(=O)[O-])c4F)c4nc(c(-c5cccc(S(=O)(=O)[O-])c5F)c5ccc2[nH]5)C=C4)C=C3)cc1)N1C(=O)/C(=C\c2ccc(OCc3ccccc3Cl)cc2)SC1=S
REMARK SMILES IDX 7 1 6 2 5 3 3 4 4 5 2 6 1 7 77 8 78 9 98 10 79 11 80 12
REMARK SMILES IDX 97 13 99 14 81 15 82 16 83 17 96 18 84 19 95 20 85 21 86 22
REMARK SMILES IDX 87 23 88 24 89 25 93 26 90 27 92 28 94 29 91 30 8 31 9 32
REMARK SMILES IDX 10 33 11 34 12 35 13 36 14 37 15 38 76 39 16 40 75 41 17 42
REMARK SMILES IDX 18 43 19 44 69 45 20 46 74 47 68 48 70 49 21 50 73 51 67 52
REMARK SMILES IDX 66 53 22 55 54 56 34 57 53 58 35 59 38 60 52 61 71 62 36 63
REMARK SMILES IDX 37 64 51 66 72 67 39 68 23 69 24 70 32 71 25 72 27 73 33 74
REMARK SMILES IDX 26 75 28 76 29 77 30 78 31 79 55 80 56 81 64 82 57 83 59 84
REMARK SMILES IDX 65 85 58 86 60 87 61 88 62 89 63 90 40 91 41 92 49 93 42 94
REMARK SMILES IDX 44 95 50 96 43 97 45 98 46 99 47 100 48 101
REMARK H PARENT 70 54 38 65
REMARK Flexibility Score: inf
ROOT
ATOM      1  C   UNL A   1      34.899  32.466  27.808  1.00  0.00     0.202 C 
ENDROOT
BRANCH   1   2
ATOM      2  C   UNL A   1      33.710  31.534  28.067  1.00  0.00     0.261 C 
BRANCH   2   3
ATOM      3  O   UNL A   1      33.095  31.053  26.861  1.00  0.00    -0.462 OA
BRANCH   3   4
ATOM      4  C   UNL A   1      33.309  29.735  26.598  1.00  0.00     0.329 C 
ATOM      5  O   UNL A   1      34.419  29.249  26.403  1.00  0.00    -0.250 OA
BRANCH   4   6
ATOM      6  C   UNL A   1      32.001  28.924  26.509  1.00  0.00     0.199 C 
ATOM      7  C   UNL A   1      31.762  28.048  27.744  1.00  0.00     0.044 C 
BRANCH   6   8
ATOM      8  N   UNL A   1      32.026  28.203  25.200  1.00  0.00    -0.279 N 
ATOM      9  C   UNL A   1      32.751  27.039  24.989  1.00  0.00     0.266 C 
ATOM     10  C   UNL A   1      31.436  28.745  24.064  1.00  0.00     0.149 C 
ATOM     11  O   UNL A   1      33.432  26.441  25.808  1.00  0.00    -0.268 OA
ATOM     12  C   UNL A   1      32.624  26.603  23.563  1.00  0.00     0.081 C 
ATOM     13  S   UNL A   1      32.043  27.926  22.628  1.00  0.00    -0.054 SA
ATOM     14  S   UNL A   1      30.286  29.952  23.951  1.00  0.00    -0.052 S 
ATOM     15  C   UNL A   1      32.752  25.378  23.032  1.00  0.00     0.029 C 
BRANCH  15  16
ATOM     16  C   UNL A   1      32.834  24.139  23.803  1.00  0.00    -0.024 A 
ATOM     17  C   UNL A   1      31.716  23.574  24.412  1.00  0.00     0.012 A 
ATOM     18  C   UNL A   1      34.088  23.533  23.965  1.00  0.00     0.012 A 
ATOM     19  C   UNL A   1      31.840  22.359  25.091  1.00  0.00     0.047 A 
ATOM     20  C   UNL A   1      34.212  22.324  24.651  1.00  0.00     0.047 A 
ATOM     21  C   UNL A   1      33.074  21.702  25.155  1.00  0.00     0.119 A 
BRANCH  21  22
ATOM     22  O   UNL A   1      33.011  20.423  25.629  1.00  0.00    -0.489 OA
BRANCH  22  23
ATOM     23  C   UNL A   1      32.505  19.387  24.771  1.00  0.00     0.267 C 
BRANCH  23  24
ATOM     24  C   UNL A   1      33.024  17.970  24.992  1.00  0.00     0.008 A 
ATOM     25  C   UNL A   1      32.166  16.878  25.223  1.00  0.00     0.009 A 
ATOM     26  C   UNL A   1      34.400  17.688  24.883  1.00  0.00     0.047 A 
ATOM     27  C   UNL A   1      32.646  15.568  25.312  1.00  0.00     0.001 A 
ATOM     28  C   UNL A   1      34.884  16.378  25.000  1.00  0.00     0.021 A 
ATOM     29  Cl  UNL A   1      35.568  18.930  24.583  1.00  0.00    -0.084 Cl
ATOM     30  C   UNL A   1      34.005  15.317  25.202  1.00  0.00     0.002 A 
ENDBRANCH  23  24
ENDBRANCH  22  23
ENDBRANCH  21  22
ENDBRANCH  15  16
ENDBRANCH   6   8
ENDBRANCH   4   6
ENDBRANCH   3   4
ENDBRANCH   2   3
ENDBRANCH   1   2
BRANCH   1  31
ATOM     31  O   UNL A   1      35.049  33.581  28.684  1.00  0.00    -0.374 OA
BRANCH  31  32
ATOM     32  C   UNL A   1      34.026  33.789  29.660  1.00  0.00     0.202 C 
BRANCH  32  33
ATOM     33  C   UNL A   1      34.474  33.839  31.123  1.00  0.00     0.261 C 
BRANCH  33  34
ATOM     34  O   UNL A   1      34.472  32.528  31.720  1.00  0.00    -0.460 OA
BRANCH  34  35
ATOM     35  C   UNL A   1      35.483  32.298  32.589  1.00  0.00     0.338 C 
ATOM     36  O   UNL A   1      35.500  32.565  33.785  1.00  0.00    -0.246 OA
BRANCH  35  37
ATOM     37  C   UNL A   1      36.530  31.480  31.949  1.00  0.00     0.060 A 
ATOM     38  C   UNL A   1      37.678  31.204  32.703  1.00  0.00     0.016 A 
ATOM     39  C   UNL A   1      36.429  31.044  30.626  1.00  0.00     0.016 A 
ATOM     40  C   UNL A   1      38.759  30.550  32.117  1.00  0.00     0.010 A 
ATOM     41  C   UNL A   1      37.518  30.393  30.037  1.00  0.00     0.010 A 
ATOM     42  C   UNL A   1      38.704  30.184  30.767  1.00  0.00    -0.014 A 
BRANCH  42  43
ATOM     43  C   UNL A   1      39.940  29.732  30.086  1.00  0.00     0.031 A 
ATOM     44  C   UNL A   1      41.072  30.708  29.911  1.00  0.00     0.074 A 
ATOM     45  C   UNL A   1      40.064  28.466  29.648  1.00  0.00     0.049 A 
ATOM     46  N   UNL A   1      42.236  30.532  29.341  1.00  0.00    -0.248 NA
ATOM     47  C   UNL A   1      40.864  32.064  30.447  1.00  0.00     0.031 C 
ATOM     48  C   UNL A   1      39.042  27.429  29.765  1.00  0.00     0.029 A 
ATOM     49  N   UNL A   1      41.100  27.847  28.995  1.00  0.00    -0.354 N 
ATOM     50  C   UNL A   1      42.889  31.757  29.428  1.00  0.00     0.074 A 
ATOM     51  C   UNL A   1      41.987  32.671  30.093  1.00  0.00     0.031 C 
ATOM     52  C   UNL A   1      39.489  26.308  29.173  1.00  0.00     0.029 A 
ATOM     53  C   UNL A   1      40.820  26.555  28.620  1.00  0.00     0.049 A 
ATOM     54  H   UNL A   1      41.962  28.286  28.813  1.00  0.00     0.167 HD
ATOM     55  C   UNL A   1      44.135  32.085  29.013  1.00  0.00     0.034 A 
ATOM     56  C   UNL A   1      41.546  25.680  27.895  1.00  0.00     0.034 A 
ATOM     57  C   UNL A   1      45.040  31.169  28.372  1.00  0.00     0.049 A 
ATOM     58  C   UNL A   1      42.921  26.076  27.425  1.00  0.00     0.074 A 
ATOM     59  C   UNL A   1      46.337  31.396  27.949  1.00  0.00     0.029 A 
ATOM     60  N   UNL A   1      44.737  29.855  28.049  1.00  0.00    -0.354 N 
ATOM     61  N   UNL A   1      43.569  27.199  27.620  1.00  0.00    -0.248 NA
ATOM     62  C   UNL A   1      43.680  25.071  26.665  1.00  0.00     0.031 C 
ATOM     63  C   UNL A   1      46.813  30.223  27.352  1.00  0.00     0.029 A 
ATOM     64  C   UNL A   1      45.820  29.260  27.425  1.00  0.00     0.049 A 
ATOM     65  H   UNL A   1      43.879  29.411  28.237  1.00  0.00     0.167 HD
ATOM     66  C   UNL A   1      44.822  27.024  27.040  1.00  0.00     0.074 A 
ATOM     67  C   UNL A   1      44.848  25.679  26.503  1.00  0.00     0.031 C 
ATOM     68  C   UNL A   1      45.851  27.903  26.944  1.00  0.00     0.034 A 
BRANCH  55  69
ATOM     69  C   UNL A   1      44.608  33.490  29.270  1.00  0.00     0.023 A 
ATOM     70  C   UNL A   1      45.164  33.819  30.523  1.00  0.00     0.012 A 
ATOM     71  C   UNL A   1      44.552  34.470  28.260  1.00  0.00     0.148 A 
ATOM     72  C   UNL A   1      45.629  35.109  30.777  1.00  0.00     0.002 A 
ATOM     73  C   UNL A   1      45.056  35.742  28.506  1.00  0.00     0.091 A 
ATOM     74  F   UNL A   1      43.997  34.145  27.084  1.00  0.00    -0.205 F 
ATOM     75  C   UNL A   1      45.586  36.065  29.766  1.00  0.00     0.022 A 
BRANCH  73  76
ATOM     76  S   UNL A   1      45.112  37.022  27.247  1.00  0.00     0.127 S 
ATOM     77  O   UNL A   1      45.873  36.360  26.188  1.00  0.00    -0.237 OA
ATOM     78  O   UNL A   1      43.694  37.221  26.945  1.00  0.00    -0.237 OA
ATOM     79  O   UNL A   1      45.766  38.166  27.868  1.00  0.00    -0.744 OA
ENDBRANCH  73  76
ENDBRANCH  55  69
BRANCH  56  80
ATOM     80  C   UNL A   1      40.994  24.329  27.594  1.00  0.00     0.023 A 
ATOM     81  C   UNL A   1      41.564  23.192  28.197  1.00  0.00     0.012 A 
ATOM     82  C   UNL A   1      39.892  24.169  26.732  1.00  0.00     0.148 A 
ATOM     83  C   UNL A   1      41.067  21.917  27.923  1.00  0.00     0.002 A 
ATOM     84  C   UNL A   1      39.364  22.903  26.508  1.00  0.00     0.091 A 
ATOM     85  F   UNL A   1      39.375  25.263  26.153  1.00  0.00    -0.205 F 
ATOM     86  C   UNL A   1      39.961  21.774  27.088  1.00  0.00     0.022 A 
BRANCH  84  87
ATOM     87  S   UNL A   1      37.863  22.644  25.557  1.00  0.00     0.127 S 
ATOM     88  O   UNL A   1      38.074  21.302  25.022  1.00  0.00    -0.237 OA
ATOM     89  O   UNL A   1      36.830  22.742  26.589  1.00  0.00    -0.237 OA
ATOM     90  O   UNL A   1      37.830  23.722  24.576  1.00  0.00    -0.744 OA
ENDBRANCH  84  87
ENDBRANCH  56  80
BRANCH  68  91
ATOM     91  C   UNL A   1      47.112  27.435  26.265  1.00  0.00     0.023 A 
ATOM     92  C   UNL A   1      48.037  26.644  26.974  1.00  0.00     0.012 A 
ATOM     93  C   UNL A   1      47.340  27.712  24.902  1.00  0.00     0.148 A 
ATOM     94  C   UNL A   1      49.185  26.160  26.345  1.00  0.00     0.002 A 
ATOM     95  C   UNL A   1      48.462  27.187  24.270  1.00  0.00     0.091 A 
ATOM     96  F   UNL A   1      46.457  28.482  24.249  1.00  0.00    -0.205 F 
ATOM     97  C   UNL A   1      49.391  26.421  24.992  1.00  0.00     0.022 A 
BRANCH  95  98
ATOM     98  S   UNL A   1      48.759  27.393  22.510  1.00  0.00     0.127 S 
ATOM     99  O   UNL A   1      48.709  26.012  22.036  1.00  0.00    -0.237 OA
ATOM    100  O   UNL A   1      47.625  28.222  22.098  1.00  0.00    -0.237 OA
ATOM    101  O   UNL A   1      50.056  28.048  22.397  1.00  0.00    -0.744 OA
ENDBRANCH  95  98
ENDBRANCH  68  91
ENDBRANCH  42  43
ENDBRANCH  35  37
ENDBRANCH  34  35
ENDBRANCH  33  34
ENDBRANCH  32  33
ENDBRANCH  31  32
ENDBRANCH   1  31
TORSDOF 22
ENDMDL
MODEL 2
REMARK VINA RESULT:     -11.4      5.262      7.877
REMARK SMILES C[C@@H](C(=O)OCCOCCOC(=O)c1ccc(-c2c3nc(c(-c4cccc(S(=O)(=O)[O-])c4F)c4ccc([nH]4)c(-c4cccc(S(=O)(=O)[O-])c4F)c4nc(c(-c5cccc(S(=O)(=O)[O-])c5F)c5ccc2[nH]5)C=C4)C=C3)cc1)N1C(=O)/C(=C\c2ccc(OCc3ccccc3Cl)cc2)SC1=S
REMARK SMILES IDX 7 1 6 2 5 3 3 4 4 5 2 6 1 7 77 8 78 9 98 10 79 11 80 12
REMARK SMILES IDX 97 13 99 14 81 15 82 16 83 17 96 18 84 19 95 20 85 21 86 22
REMARK SMILES IDX 87 23 88 24 89 25 93 26 90 27 92 28 94 29 91 30 8 31 9 32
REMARK SMILES IDX 10 33 11 34 12 35 13 36 14 37 15 38 76 39 16 40 75 41 17 42
REMARK SMILES IDX 18 43 19 44 69 45 20 46 74 47 68 48 70 49 21 50 73 51 67 52
REMARK SMILES IDX 66 53 22 55 54 56 34 57 53 58 35 59 38 60 52 61 71 62 36 63
REMARK SMILES IDX 37 64 51 66 72 67 39 68 23 69 24 70 32 71 25 72 27 73 33 74
REMARK SMILES IDX 26 75 28 76 29 77 30 78 31 79 55 80 56 81 64 82 57 83 59 84
REMARK SMILES IDX 65 85 58 86 60 87 61 88 62 89 63 90 40 91 41 92 49 93 42 94
REMARK SMILES IDX 44 95 50 96 43 97 45 98 46 99 47 100 48 101
REMARK H PARENT 70 54 38 65
REMARK Flexibility Score: inf
ROOT
ATOM      1  C   UNL A   1      31.447  27.904  26.998  1.00  0.00     0.202 C 
ENDROOT
BRANCH   1   2
ATOM      2  C   UNL A   1      31.119  26.625  26.220  1.00  0.00     0.261 C 
BRANCH   2   3
ATOM      3  O   UNL A   1      31.698  25.445  26.802  1.00  0.00    -0.462 OA
BRANCH   3   4
ATOM      4  C   UNL A   1      30.932  24.324  26.697  1.00  0.00     0.329 C 
ATOM      5  O   UNL A   1      29.714  24.313  26.848  1.00  0.00    -0.250 OA
BRANCH   4   6
ATOM      6  C   UNL A   1      31.766  23.055  26.432  1.00  0.00     0.199 C 
ATOM      7  C   UNL A   1      32.386  22.477  27.709  1.00  0.00     0.044 C 
BRANCH   6   8
ATOM      8  N   UNL A   1      32.729  23.389  25.340  1.00  0.00    -0.279 N 
ATOM      9  C   UNL A   1      34.082  23.604  25.562  1.00  0.00     0.266 C 
ATOM     10  C   UNL A   1      32.294  23.653  24.047  1.00  0.00     0.149 C 
ATOM     11  O   UNL A   1      34.670  23.536  26.630  1.00  0.00    -0.268 OA
ATOM     12  C   UNL A   1      34.760  23.984  24.282  1.00  0.00     0.081 C 
ATOM     13  S   UNL A   1      33.566  24.472  23.143  1.00  0.00    -0.054 SA
ATOM     14  S   UNL A   1      30.836  23.266  23.329  1.00  0.00    -0.052 S 
ATOM     15  C   UNL A   1      36.046  23.845  23.926  1.00  0.00     0.029 C 
BRANCH  15  16
ATOM     16  C   UNL A   1      37.038  23.069  24.668  1.00  0.00    -0.024 A 
ATOM     17  C   UNL A   1      37.183  21.695  24.488  1.00  0.00     0.012 A 
ATOM     18  C   UNL A   1      37.832  23.728  25.617  1.00  0.00     0.012 A 
ATOM     19  C   UNL A   1      38.185  21.010  25.182  1.00  0.00     0.047 A 
ATOM     20  C   UNL A   1      38.826  23.041  26.316  1.00  0.00     0.047 A 
ATOM     21  C   UNL A   1      39.047  21.694  26.046  1.00  0.00     0.119 A 
BRANCH  21  22
ATOM     22  O   UNL A   1      40.122  20.965  26.468  1.00  0.00    -0.489 OA
BRANCH  22  23
ATOM     23  C   UNL A   1      41.437  21.532  26.352  1.00  0.00     0.267 C 
BRANCH  23  24
ATOM     24  C   UNL A   1      42.585  20.591  26.001  1.00  0.00     0.008 A 
ATOM     25  C   UNL A   1      42.612  19.245  26.413  1.00  0.00     0.009 A 
ATOM     26  C   UNL A   1      43.633  21.023  25.165  1.00  0.00     0.047 A 
ATOM     27  C   UNL A   1      43.612  18.364  25.993  1.00  0.00     0.001 A 
ATOM     28  C   UNL A   1      44.651  20.146  24.766  1.00  0.00     0.021 A 
ATOM     29  Cl  UNL A   1      43.718  22.646  24.569  1.00  0.00    -0.084 Cl
ATOM     30  C   UNL A   1      44.633  18.814  25.170  1.00  0.00     0.002 A 
ENDBRANCH  23  24
ENDBRANCH  22  23
ENDBRANCH  21  22
ENDBRANCH  15  16
ENDBRANCH   6   8
ENDBRANCH   4   6
ENDBRANCH   3   4
ENDBRANCH   2   3
ENDBRANCH   1   2
BRANCH   1  31
ATOM     31  O   UNL A   1      31.493  29.120  26.255  1.00  0.00    -0.374 OA
BRANCH  31  32
ATOM     32  C   UNL A   1      32.714  29.863  26.292  1.00  0.00     0.202 C 
BRANCH  32  33
ATOM     33  C   UNL A   1      32.608  31.334  26.706  1.00  0.00     0.261 C 
BRANCH  33  34
ATOM     34  O   UNL A   1      33.245  31.570  27.976  1.00  0.00    -0.460 OA
BRANCH  34  35
ATOM     35  C   UNL A   1      34.223  32.504  27.955  1.00  0.00     0.338 C 
ATOM     36  O   UNL A   1      34.091  33.704  27.741  1.00  0.00    -0.246 OA
BRANCH  35  37
ATOM     37  C   UNL A   1      35.493  31.923  28.430  1.00  0.00     0.060 A 
ATOM     38  C   UNL A   1      35.443  30.635  28.977  1.00  0.00     0.016 A 
ATOM     39  C   UNL A   1      36.694  32.636  28.404  1.00  0.00     0.016 A 
ATOM     40  C   UNL A   1      36.577  30.079  29.564  1.00  0.00     0.010 A 
ATOM     41  C   UNL A   1      37.831  32.079  28.999  1.00  0.00     0.010 A 
ATOM     42  C   UNL A   1      37.766  30.818  29.620  1.00  0.00    -0.014 A 
BRANCH  42  43
ATOM     43  C   UNL A   1      38.881  30.334  30.468  1.00  0.00     0.031 A 
ATOM     44  C   UNL A   1      39.039  30.898  31.854  1.00  0.00     0.074 A 
ATOM     45  C   UNL A   1      39.730  29.391  30.020  1.00  0.00     0.049 A 
ATOM     46  N   UNL A   1      39.943  30.628  32.760  1.00  0.00    -0.248 NA
ATOM     47  C   UNL A   1      38.048  31.903  32.275  1.00  0.00     0.031 C 
ATOM     48  C   UNL A   1      39.676  28.766  28.701  1.00  0.00     0.029 A 
ATOM     49  N   UNL A   1      40.818  28.814  30.624  1.00  0.00    -0.354 N 
ATOM     50  C   UNL A   1      39.645  31.442  33.847  1.00  0.00     0.074 A 
ATOM     51  C   UNL A   1      38.486  32.228  33.482  1.00  0.00     0.031 C 
ATOM     52  C   UNL A   1      40.708  27.912  28.581  1.00  0.00     0.029 A 
ATOM     53  C   UNL A   1      41.504  27.946  29.808  1.00  0.00     0.049 A 
ATOM     54  H   UNL A   1      41.083  29.003  31.553  1.00  0.00     0.167 HD
ATOM     55  C   UNL A   1      40.265  31.515  35.047  1.00  0.00     0.034 A 
ATOM     56  C   UNL A   1      42.653  27.274  30.019  1.00  0.00     0.034 A 
ATOM     57  C   UNL A   1      41.405  30.718  35.417  1.00  0.00     0.049 A 
ATOM     58  C   UNL A   1      43.338  27.388  31.356  1.00  0.00     0.074 A 
ATOM     59  C   UNL A   1      42.080  30.691  36.624  1.00  0.00     0.029 A 
ATOM     60  N   UNL A   1      42.043  29.816  34.580  1.00  0.00    -0.354 N 
ATOM     61  N   UNL A   1      42.976  28.072  32.414  1.00  0.00    -0.248 NA
ATOM     62  C   UNL A   1      44.571  26.608  31.540  1.00  0.00     0.031 C 
ATOM     63  C   UNL A   1      43.142  29.787  36.509  1.00  0.00     0.029 A 
ATOM     64  C   UNL A   1      43.112  29.234  35.239  1.00  0.00     0.049 A 
ATOM     65  H   UNL A   1      41.776  29.620  33.653  1.00  0.00     0.167 HD
ATOM     66  C   UNL A   1      43.914  27.780  33.399  1.00  0.00     0.074 A 
ATOM     67  C   UNL A   1      44.850  26.840  32.817  1.00  0.00     0.031 C 
ATOM     68  C   UNL A   1      44.003  28.258  34.665  1.00  0.00     0.034 A 
BRANCH  55  69
ATOM     69  C   UNL A   1      39.704  32.470  36.066  1.00  0.00     0.023 A 
ATOM     70  C   UNL A   1      38.769  32.006  37.013  1.00  0.00     0.012 A 
ATOM     71  C   UNL A   1      40.137  33.809  36.121  1.00  0.00     0.148 A 
ATOM     72  C   UNL A   1      38.252  32.867  37.981  1.00  0.00     0.002 A 
ATOM     73  C   UNL A   1      39.649  34.650  37.114  1.00  0.00     0.091 A 
ATOM     74  F   UNL A   1      41.008  34.237  35.196  1.00  0.00    -0.205 F 
ATOM     75  C   UNL A   1      38.700  34.183  38.038  1.00  0.00     0.022 A 
BRANCH  73  76
ATOM     76  S   UNL A   1      40.219  36.341  37.316  1.00  0.00     0.127 S 
ATOM     77  O   UNL A   1      39.959  36.900  35.991  1.00  0.00    -0.237 OA
ATOM     78  O   UNL A   1      39.337  36.840  38.372  1.00  0.00    -0.237 OA
ATOM     79  O   UNL A   1      41.623  36.248  37.693  1.00  0.00    -0.744 OA
ENDBRANCH  73  76
ENDBRANCH  55  69
BRANCH  56  80
ATOM     80  C   UNL A   1      43.214  26.408  28.943  1.00  0.00     0.023 A 
ATOM     81  C   UNL A   1      42.852  25.048  28.882  1.00  0.00     0.012 A 
ATOM     82  C   UNL A   1      44.084  26.931  27.968  1.00  0.00     0.148 A 
ATOM     83  C   UNL A   1      43.371  24.219  27.887  1.00  0.00     0.002 A 
ATOM     84  C   UNL A   1      44.553  26.114  26.946  1.00  0.00     0.091 A 
ATOM     85  F   UNL A   1      44.432  28.223  28.055  1.00  0.00    -0.205 F 
ATOM     86  C   UNL A   1      44.212  24.754  26.914  1.00  0.00     0.022 A 
BRANCH  84  87
ATOM     87  S   UNL A   1      45.528  26.751  25.579  1.00  0.00     0.127 S 
ATOM     88  O   UNL A   1      44.642  27.772  25.029  1.00  0.00    -0.237 OA
ATOM     89  O   UNL A   1      46.712  27.267  26.268  1.00  0.00    -0.237 OA
ATOM     90  O   UNL A   1      45.791  25.606  24.718  1.00  0.00    -0.744 OA
ENDBRANCH  84  87
ENDBRANCH  56  80
BRANCH  68  91
ATOM     91  C   UNL A   1      45.130  27.753  35.529  1.00  0.00     0.023 A 
ATOM     92  C   UNL A   1      46.282  28.543  35.708  1.00  0.00     0.012 A 
ATOM     93  C   UNL A   1      45.011  26.534  36.226  1.00  0.00     0.148 A 
ATOM     94  C   UNL A   1      47.313  28.114  36.544  1.00  0.00     0.002 A 
ATOM     95  C   UNL A   1      46.021  26.136  37.094  1.00  0.00     0.091 A 
ATOM     96  F   UNL A   1      43.915  25.788  36.028  1.00  0.00    -0.205 F 
ATOM     97  C   UNL A   1      47.177  26.918  37.246  1.00  0.00     0.022 A 
BRANCH  95  98
ATOM     98  S   UNL A   1      45.890  24.658  38.108  1.00  0.00     0.127 S 
ATOM     99  O   UNL A   1      44.730  24.970  38.940  1.00  0.00    -0.237 OA
ATOM    100  O   UNL A   1      45.661  23.614  37.109  1.00  0.00    -0.237 OA
ATOM    101  O   UNL A   1      47.158  24.546  38.817  1.00  0.00    -0.744 OA
ENDBRANCH  95  98
ENDBRANCH  68  91
ENDBRANCH  42  43
ENDBRANCH  35  37
ENDBRANCH  34  35
ENDBRANCH  33  34
ENDBRANCH  32  33
ENDBRANCH  31  32
ENDBRANCH   1  31
TORSDOF 22
ENDMDL
MODEL 3
REMARK VINA RESULT:     -11.2      5.334      9.715
REMARK SMILES C[C@@H](C(=O)OCCOCCOC(=O)c1ccc(-c2c3nc(c(-c4cccc(S(=O)(=O)[O-])c4F)c4ccc([nH]4)c(-c4cccc(S(=O)(=O)[O-])c4F)c4nc(c(-c5cccc(S(=O)(=O)[O-])c5F)c5ccc2[nH]5)C=C4)C=C3)cc1)N1C(=O)/C(=C\c2ccc(OCc3ccccc3Cl)cc2)SC1=S
REMARK SMILES IDX 7 1 6 2 5 3 3 4 4 5 2 6 1 7 77 8 78 9 98 10 79 11 80 12
REMARK SMILES IDX 97 13 99 14 81 15 82 16 83 17 96 18 84 19 95 20 85 21 86 22
REMARK SMILES IDX 87 23 88 24 89 25 93 26 90 27 92 28 94 29 91 30 8 31 9 32
REMARK SMILES IDX 10 33 11 34 12 35 13 36 14 37 15 38 76 39 16 40 75 41 17 42
REMARK SMILES IDX 18 43 19 44 69 45 20 46 74 47 68 48 70 49 21 50 73 51 67 52
REMARK SMILES IDX 66 53 22 55 54 56 34 57 53 58 35 59 38 60 52 61 71 62 36 63
REMARK SMILES IDX 37 64 51 66 72 67 39 68 23 69 24 70 32 71 25 72 27 73 33 74
REMARK SMILES IDX 26 75 28 76 29 77 30 78 31 79 55 80 56 81 64 82 57 83 59 84
REMARK SMILES IDX 65 85 58 86 60 87 61 88 62 89 63 90 40 91 41 92 49 93 42 94
REMARK SMILES IDX 44 95 50 96 43 97 45 98 46 99 47 100 48 101
REMARK H PARENT 70 54 38 65
REMARK Flexibility Score: inf
ROOT
ATOM      1  C   UNL A   1      32.289  28.865  26.274  1.00  0.00     0.202 C 
ENDROOT
BRANCH   1   2
ATOM      2  C   UNL A   1      32.807  27.473  25.894  1.00  0.00     0.261 C 
BRANCH   2   3
ATOM      3  O   UNL A   1      32.269  26.425  26.717  1.00  0.00    -0.462 OA
BRANCH   3   4
ATOM      4  C   UNL A   1      31.329  25.650  26.110  1.00  0.00     0.329 C 
ATOM      5  O   UNL A   1      30.259  26.079  25.687  1.00  0.00    -0.250 OA
BRANCH   4   6
ATOM      6  C   UNL A   1      31.722  24.160  26.066  1.00  0.00     0.199 C 
ATOM      7  C   UNL A   1      32.252  23.648  27.410  1.00  0.00     0.044 C 
BRANCH   6   8
ATOM      8  N   UNL A   1      32.642  23.988  24.901  1.00  0.00    -0.279 N 
ATOM      9  C   UNL A   1      34.023  24.079  25.006  1.00  0.00     0.266 C 
ATOM     10  C   UNL A   1      32.155  23.874  23.605  1.00  0.00     0.149 C 
ATOM     11  O   UNL A   1      34.670  24.283  26.022  1.00  0.00    -0.268 OA
ATOM     12  C   UNL A   1      34.654  23.927  23.656  1.00  0.00     0.081 C 
ATOM     13  S   UNL A   1      33.451  24.175  22.450  1.00  0.00    -0.054 SA
ATOM     14  S   UNL A   1      30.616  23.474  23.092  1.00  0.00    -0.052 S 
ATOM     15  C   UNL A   1      35.887  23.509  23.335  1.00  0.00     0.029 C 
BRANCH  15  16
ATOM     16  C   UNL A   1      36.827  22.890  24.267  1.00  0.00    -0.024 A 
ATOM     17  C   UNL A   1      37.038  21.513  24.295  1.00  0.00     0.012 A 
ATOM     18  C   UNL A   1      37.500  23.710  25.184  1.00  0.00     0.012 A 
ATOM     19  C   UNL A   1      37.990  20.978  25.168  1.00  0.00     0.047 A 
ATOM     20  C   UNL A   1      38.443  23.173  26.062  1.00  0.00     0.047 A 
ATOM     21  C   UNL A   1      38.737  21.814  26.005  1.00  0.00     0.119 A 
BRANCH  21  22
ATOM     22  O   UNL A   1      39.790  21.202  26.623  1.00  0.00    -0.489 OA
BRANCH  22  23
ATOM     23  C   UNL A   1      41.124  21.487  26.171  1.00  0.00     0.267 C 
BRANCH  23  24
ATOM     24  C   UNL A   1      41.942  22.495  26.972  1.00  0.00     0.008 A 
ATOM     25  C   UNL A   1      41.756  22.692  28.353  1.00  0.00     0.009 A 
ATOM     26  C   UNL A   1      42.989  23.212  26.361  1.00  0.00     0.047 A 
ATOM     27  C   UNL A   1      42.587  23.535  29.097  1.00  0.00     0.001 A 
ATOM     28  C   UNL A   1      43.805  24.079  27.101  1.00  0.00     0.021 A 
ATOM     29  Cl  UNL A   1      43.344  23.054  24.673  1.00  0.00    -0.084 Cl
ATOM     30  C   UNL A   1      43.610  24.230  28.471  1.00  0.00     0.002 A 
ENDBRANCH  23  24
ENDBRANCH  22  23
ENDBRANCH  21  22
ENDBRANCH  15  16
ENDBRANCH   6   8
ENDBRANCH   4   6
ENDBRANCH   3   4
ENDBRANCH   2   3
ENDBRANCH   1   2
BRANCH   1  31
ATOM     31  O   UNL A   1      33.249  29.917  26.337  1.00  0.00    -0.374 OA
BRANCH  31  32
ATOM     32  C   UNL A   1      33.419  30.573  27.596  1.00  0.00     0.202 C 
BRANCH  32  33
ATOM     33  C   UNL A   1      33.986  31.995  27.558  1.00  0.00     0.261 C 
BRANCH  33  34
ATOM     34  O   UNL A   1      32.984  32.971  27.902  1.00  0.00    -0.460 OA
BRANCH  34  35
ATOM     35  C   UNL A   1      33.462  34.092  28.489  1.00  0.00     0.338 C 
ATOM     36  O   UNL A   1      33.000  35.224  28.401  1.00  0.00    -0.246 OA
BRANCH  35  37
ATOM     37  C   UNL A   1      34.533  33.750  29.444  1.00  0.00     0.060 A 
ATOM     38  C   UNL A   1      35.825  34.202  29.147  1.00  0.00     0.016 A 
ATOM     39  C   UNL A   1      34.301  32.955  30.569  1.00  0.00     0.016 A 
ATOM     40  C   UNL A   1      36.903  33.805  29.933  1.00  0.00     0.010 A 
ATOM     41  C   UNL A   1      35.387  32.552  31.355  1.00  0.00     0.010 A 
ATOM     42  C   UNL A   1      36.696  32.939  31.014  1.00  0.00    -0.014 A 
BRANCH  42  43
ATOM     43  C   UNL A   1      37.866  32.316  31.679  1.00  0.00     0.031 A 
ATOM     44  C   UNL A   1      38.567  31.173  30.998  1.00  0.00     0.074 A 
ATOM     45  C   UNL A   1      38.311  32.775  32.863  1.00  0.00     0.049 A 
ATOM     46  N   UNL A   1      39.599  30.477  31.399  1.00  0.00    -0.248 NA
ATOM     47  C   UNL A   1      38.032  30.756  29.690  1.00  0.00     0.031 C 
ATOM     48  C   UNL A   1      37.720  33.878  33.617  1.00  0.00     0.029 A 
ATOM     49  N   UNL A   1      39.353  32.349  33.648  1.00  0.00    -0.354 N 
ATOM     50  C   UNL A   1      39.823  29.528  30.409  1.00  0.00     0.074 A 
ATOM     51  C   UNL A   1      38.812  29.726  29.395  1.00  0.00     0.031 C 
ATOM     52  C   UNL A   1      38.390  34.023  34.774  1.00  0.00     0.029 A 
ATOM     53  C   UNL A   1      39.443  33.011  34.849  1.00  0.00     0.049 A 
ATOM     54  H   UNL A   1      39.977  31.637  33.376  1.00  0.00     0.167 HD
ATOM     55  C   UNL A   1      40.797  28.590  30.338  1.00  0.00     0.034 A 
ATOM     56  C   UNL A   1      40.267  32.809  35.896  1.00  0.00     0.034 A 
ATOM     57  C   UNL A   1      41.816  28.407  31.337  1.00  0.00     0.049 A 
ATOM     58  C   UNL A   1      41.329  31.744  35.804  1.00  0.00     0.074 A 
ATOM     59  C   UNL A   1      42.868  27.509  31.338  1.00  0.00     0.029 A 
ATOM     60  N   UNL A   1      41.902  29.127  32.519  1.00  0.00    -0.354 N 
ATOM     61  N   UNL A   1      41.602  30.934  34.809  1.00  0.00    -0.248 NA
ATOM     62  C   UNL A   1      42.219  31.589  36.964  1.00  0.00     0.031 C 
ATOM     63  C   UNL A   1      43.581  27.673  32.532  1.00  0.00     0.029 A 
ATOM     64  C   UNL A   1      42.985  28.688  33.261  1.00  0.00     0.049 A 
ATOM     65  H   UNL A   1      41.285  29.844  32.789  1.00  0.00     0.167 HD
ATOM     66  C   UNL A   1      42.714  30.199  35.208  1.00  0.00     0.074 A 
ATOM     67  C   UNL A   1      43.075  30.674  36.528  1.00  0.00     0.031 C 
ATOM     68  C   UNL A   1      43.366  29.209  34.549  1.00  0.00     0.034 A 
BRANCH  55  69
ATOM     69  C   UNL A   1      40.826  27.705  29.121  1.00  0.00     0.023 A 
ATOM     70  C   UNL A   1      39.926  26.624  29.025  1.00  0.00     0.012 A 
ATOM     71  C   UNL A   1      41.704  27.970  28.052  1.00  0.00     0.148 A 
ATOM     72  C   UNL A   1      39.919  25.804  27.898  1.00  0.00     0.002 A 
ATOM     73  C   UNL A   1      41.663  27.173  26.914  1.00  0.00     0.091 A 
ATOM     74  F   UNL A   1      42.569  28.987  28.173  1.00  0.00    -0.205 F 
ATOM     75  C   UNL A   1      40.778  26.085  26.840  1.00  0.00     0.022 A 
BRANCH  73  76
ATOM     76  S   UNL A   1      42.678  27.498  25.468  1.00  0.00     0.127 S 
ATOM     77  O   UNL A   1      42.172  28.801  25.040  1.00  0.00    -0.237 OA
ATOM     78  O   UNL A   1      44.025  27.524  26.036  1.00  0.00    -0.237 OA
ATOM     79  O   UNL A   1      42.428  26.396  24.549  1.00  0.00    -0.744 OA
ENDBRANCH  73  76
ENDBRANCH  55  69
BRANCH  56  80
ATOM     80  C   UNL A   1      40.138  33.657  37.115  1.00  0.00     0.023 A 
ATOM     81  C   UNL A   1      39.181  33.330  38.094  1.00  0.00     0.012 A 
ATOM     82  C   UNL A   1      40.976  34.771  37.318  1.00  0.00     0.148 A 
ATOM     83  C   UNL A   1      39.039  34.115  39.240  1.00  0.00     0.002 A 
ATOM     84  C   UNL A   1      40.869  35.515  38.487  1.00  0.00     0.091 A 
ATOM     85  F   UNL A   1      41.868  35.076  36.365  1.00  0.00    -0.205 F 
ATOM     86  C   UNL A   1      39.890  35.200  39.440  1.00  0.00     0.022 A 
BRANCH  84  87
ATOM     87  S   UNL A   1      42.012  36.841  38.887  1.00  0.00     0.127 S 
ATOM     88  O   UNL A   1      41.153  37.767  39.619  1.00  0.00    -0.237 OA
ATOM     89  O   UNL A   1      43.008  36.146  39.704  1.00  0.00    -0.237 OA
ATOM     90  O   UNL A   1      42.519  37.321  37.608  1.00  0.00    -0.744 OA
ENDBRANCH  84  87
ENDBRANCH  56  80
BRANCH  68  91
ATOM     91  C   UNL A   1      44.563  28.588  35.223  1.00  0.00     0.023 A 
ATOM     92  C   UNL A   1      45.820  29.220  35.137  1.00  0.00     0.012 A 
ATOM     93  C   UNL A   1      44.426  27.424  36.005  1.00  0.00     0.148 A 
ATOM     94  C   UNL A   1      46.927  28.687  35.797  1.00  0.00     0.002 A 
ATOM     95  C   UNL A   1      45.523  26.925  36.697  1.00  0.00     0.091 A 
ATOM     96  F   UNL A   1      43.226  26.828  36.059  1.00  0.00    -0.205 F 
ATOM     97  C   UNL A   1      46.776  27.548  36.585  1.00  0.00     0.022 A 
BRANCH  95  98
ATOM     98  S   UNL A   1      45.401  25.520  37.810  1.00  0.00     0.127 S 
ATOM     99  O   UNL A   1      45.241  24.410  36.872  1.00  0.00    -0.237 OA
ATOM    100  O   UNL A   1      46.691  25.555  38.499  1.00  0.00    -0.237 OA
ATOM    101  O   UNL A   1      44.253  25.787  38.667  1.00  0.00    -0.744 OA
ENDBRANCH  95  98
ENDBRANCH  68  91
ENDBRANCH  42  43
ENDBRANCH  35  37
ENDBRANCH  34  35
ENDBRANCH  33  34
ENDBRANCH  32  33
ENDBRANCH  31  32
ENDBRANCH   1  31
TORSDOF 22
ENDMDL
