MODEL 1
REMARK VINA RESULT:     -11.5      0.000      0.000
REMARK SMILES CCc1cc(S(F)(F)(F)(F)F)cc2c1O[C@@H](C(F)(F)F)C(C(=O)OCCOCCOC(=O)c1ccc(-c3c4nc(c(-c5cccc(S(=O)(=O)[O-])c5F)c5ccc([nH]5)c(-c5cccc(S(=O)(=O)[O-])c5F)c5nc(c(-c6cccc(S(=O)(=O)[O-])c6F)c6ccc3[nH]6)C=C5)C=C4)cc1)=C2
REMARK SMILES IDX 28 1 27 2 26 3 25 4 24 5 22 6 23 7 21 8 3 9 4 10 14 11 5 12
REMARK SMILES IDX 13 13 15 14 12 15 96 16 16 17 2 18 1 19 6 20 7 21 8 22 9 23
REMARK SMILES IDX 10 24 11 25 17 26 18 27 19 28 20 29 29 30 30 31 31 32 32 33
REMARK SMILES IDX 33 34 34 35 95 36 35 37 94 38 36 39 37 40 38 41 88 42 39 43
REMARK SMILES IDX 93 44 87 45 89 46 40 47 92 48 86 49 85 50 41 52 73 53 53 54
REMARK SMILES IDX 72 55 54 56 57 57 71 58 90 59 55 60 56 61 70 63 91 64 58 65
REMARK SMILES IDX 42 66 43 67 51 68 44 69 46 70 52 71 45 72 47 73 48 74 49 75
REMARK SMILES IDX 50 76 74 77 75 78 83 79 76 80 78 81 84 82 77 83 79 84 80 85
REMARK SMILES IDX 81 86 82 87 59 88 60 89 68 90 61 91 63 92 69 93 62 94 64 95
REMARK SMILES IDX 65 96 66 97 67 98
REMARK H PARENT 89 51 57 62
REMARK Flexibility Score: inf
ROOT
ATOM      1  C   UNL A   1      32.527  31.856  27.491  1.00  0.00     0.202 C 
ENDROOT
BRANCH   1   2
ATOM      2  O   UNL A   1      33.690  31.067  27.288  1.00  0.00    -0.374 OA
BRANCH   2   3
ATOM      3  C   UNL A   1      33.324  29.698  27.197  1.00  0.00     0.202 C 
BRANCH   3   4
ATOM      4  C   UNL A   1      31.819  29.587  27.016  1.00  0.00     0.261 C 
BRANCH   4   5
ATOM      5  O   UNL A   1      31.507  28.358  26.379  1.00  0.00    -0.460 OA
BRANCH   5   6
ATOM      6  C   UNL A   1      31.942  28.117  25.049  1.00  0.00     0.338 C 
ATOM      7  O   UNL A   1      31.917  29.056  24.193  1.00  0.00    -0.246 OA
BRANCH   6   8
ATOM      8  C   UNL A   1      32.438  26.737  24.650  1.00  0.00     0.087 C 
ATOM      9  C   UNL A   1      33.487  22.761  23.915  1.00  0.00    -0.004 A 
ATOM     10  C   UNL A   1      34.768  22.321  24.199  1.00  0.00     0.032 A 
ATOM     11  C   UNL A   1      33.153  24.059  24.217  1.00  0.00     0.131 A 
ATOM     12  C   UNL A   1      35.688  23.158  24.774  1.00  0.00     0.108 A 
ATOM     13  C   UNL A   1      34.062  24.937  24.780  1.00  0.00     0.019 A 
ATOM     14  O   UNL A   1      31.849  24.448  24.033  1.00  0.00    -0.475 OA
ATOM     15  C   UNL A   1      35.338  24.462  25.056  1.00  0.00     0.036 A 
ATOM     16  C   UNL A   1      33.601  26.278  25.096  1.00  0.00     0.027 C 
ATOM     17  C   UNL A   1      31.611  25.850  23.728  1.00  0.00     0.316 C 
BRANCH   9  18
ATOM     18  C   UNL A   1      32.453  21.853  23.269  1.00  0.00     0.036 C 
ATOM     19  C   UNL A   1      32.524  20.474  23.902  1.00  0.00     0.009 C 
ENDBRANCH   9  18
BRANCH  12  20
ATOM     20  S   UNL A   1      37.351  22.556  25.159  1.00  0.00     0.310 S 
ATOM     21  F   UNL A   1      36.790  21.312  25.968  1.00  0.00    -0.094 F 
ATOM     22  F   UNL A   1      37.298  23.368  26.508  1.00  0.00    -0.094 F 
ATOM     23  F   UNL A   1      38.782  22.047  25.489  1.00  0.00    -0.094 F 
ATOM     24  F   UNL A   1      37.329  21.638  23.874  1.00  0.00    -0.094 F 
ATOM     25  F   UNL A   1      35.855  22.975  24.867  1.00  0.00    -0.094 F 
ENDBRANCH  12  20
BRANCH  17  26
ATOM     26  C   UNL A   1      30.136  26.159  23.934  1.00  0.00     0.430 C 
ATOM     27  F   UNL A   1      29.404  25.142  23.488  1.00  0.00    -0.167 F 
ATOM     28  F   UNL A   1      29.899  26.342  25.230  1.00  0.00    -0.167 F 
ATOM     29  F   UNL A   1      29.817  27.263  23.264  1.00  0.00    -0.167 F 
ENDBRANCH  17  26
ENDBRANCH   6   8
ENDBRANCH   5   6
ENDBRANCH   4   5
ENDBRANCH   3   4
ENDBRANCH   2   3
ENDBRANCH   1   2
BRANCH   1  30
ATOM     30  C   UNL A   1      32.806  33.289  27.067  1.00  0.00     0.261 C 
BRANCH  30  31
ATOM     31  O   UNL A   1      32.345  34.179  28.072  1.00  0.00    -0.460 OA
BRANCH  31  32
ATOM     32  C   UNL A   1      33.277  34.880  28.882  1.00  0.00     0.338 C 
ATOM     33  O   UNL A   1      33.130  36.125  29.090  1.00  0.00    -0.246 OA
BRANCH  32  34
ATOM     34  C   UNL A   1      34.453  34.139  29.500  1.00  0.00     0.060 A 
ATOM     35  C   UNL A   1      34.218  33.285  30.564  1.00  0.00     0.016 A 
ATOM     36  C   UNL A   1      35.676  34.318  29.016  1.00  0.00     0.016 A 
ATOM     37  C   UNL A   1      35.391  32.878  31.243  1.00  0.00     0.010 A 
ATOM     38  C   UNL A   1      36.766  33.778  29.655  1.00  0.00     0.010 A 
ATOM     39  C   UNL A   1      36.613  32.971  30.749  1.00  0.00    -0.014 A 
BRANCH  39  40
ATOM     40  C   UNL A   1      37.784  32.220  31.362  1.00  0.00     0.031 A 
ATOM     41  C   UNL A   1      38.291  31.121  30.667  1.00  0.00     0.074 A 
ATOM     42  C   UNL A   1      38.283  32.668  32.572  1.00  0.00     0.049 A 
ATOM     43  N   UNL A   1      39.326  30.350  31.007  1.00  0.00    -0.248 NA
ATOM     44  C   UNL A   1      37.740  30.621  29.398  1.00  0.00     0.031 C 
ATOM     45  C   UNL A   1      37.782  33.783  33.274  1.00  0.00     0.029 A 
ATOM     46  N   UNL A   1      39.322  32.141  33.305  1.00  0.00    -0.354 N 
ATOM     47  C   UNL A   1      39.522  29.408  30.083  1.00  0.00     0.074 A 
ATOM     48  C   UNL A   1      38.501  29.564  29.038  1.00  0.00     0.031 C 
ATOM     49  C   UNL A   1      38.502  33.917  34.419  1.00  0.00     0.029 A 
ATOM     50  C   UNL A   1      39.465  32.890  34.451  1.00  0.00     0.049 A 
ATOM     51  H   UNL A   1      39.870  31.362  33.052  1.00  0.00     0.167 HD
ATOM     52  C   UNL A   1      40.513  28.424  30.070  1.00  0.00     0.034 A 
ATOM     53  C   UNL A   1      40.375  32.705  35.480  1.00  0.00     0.034 A 
ATOM     54  C   UNL A   1      41.451  28.266  31.077  1.00  0.00     0.049 A 
ATOM     55  C   UNL A   1      41.330  31.686  35.495  1.00  0.00     0.074 A 
ATOM     56  C   UNL A   1      42.462  27.284  31.075  1.00  0.00     0.029 A 
ATOM     57  N   UNL A   1      41.578  29.000  32.235  1.00  0.00    -0.354 N 
ATOM     58  N   UNL A   1      41.551  30.768  34.552  1.00  0.00    -0.248 NA
ATOM     59  C   UNL A   1      42.278  31.459  36.593  1.00  0.00     0.031 C 
ATOM     60  C   UNL A   1      43.182  27.420  32.221  1.00  0.00     0.029 A 
ATOM     61  C   UNL A   1      42.632  28.488  32.957  1.00  0.00     0.049 A 
ATOM     62  H   UNL A   1      41.012  29.761  32.501  1.00  0.00     0.167 HD
ATOM     63  C   UNL A   1      42.560  29.972  34.913  1.00  0.00     0.074 A 
ATOM     64  C   UNL A   1      43.038  30.401  36.234  1.00  0.00     0.031 C 
ATOM     65  C   UNL A   1      43.104  28.909  34.191  1.00  0.00     0.034 A 
BRANCH  52  66
ATOM     66  C   UNL A   1      40.565  27.475  28.884  1.00  0.00     0.023 A 
ATOM     67  C   UNL A   1      39.656  26.432  28.851  1.00  0.00     0.012 A 
ATOM     68  C   UNL A   1      41.402  27.692  27.875  1.00  0.00     0.148 A 
ATOM     69  C   UNL A   1      39.903  25.487  27.827  1.00  0.00     0.002 A 
ATOM     70  C   UNL A   1      41.496  26.794  26.838  1.00  0.00     0.091 A 
ATOM     71  F   UNL A   1      42.158  28.786  27.869  1.00  0.00    -0.205 F 
ATOM     72  C   UNL A   1      40.667  25.708  26.773  1.00  0.00     0.022 A 
BRANCH  70  73
ATOM     73  S   UNL A   1      42.732  27.054  25.542  1.00  0.00     0.127 S 
ATOM     74  O   UNL A   1      42.278  28.192  24.626  1.00  0.00    -0.237 OA
ATOM     75  O   UNL A   1      44.073  27.416  26.182  1.00  0.00    -0.237 OA
ATOM     76  O   UNL A   1      42.906  25.620  24.626  1.00  0.00    -0.744 OA
ENDBRANCH  70  73
ENDBRANCH  52  66
BRANCH  53  77
ATOM     77  C   UNL A   1      40.333  33.665  36.657  1.00  0.00     0.023 A 
ATOM     78  C   UNL A   1      41.061  34.841  36.579  1.00  0.00     0.012 A 
ATOM     79  C   UNL A   1      39.679  33.332  37.764  1.00  0.00     0.148 A 
ATOM     80  C   UNL A   1      41.276  35.465  37.831  1.00  0.00     0.002 A 
ATOM     81  C   UNL A   1      39.830  34.068  38.914  1.00  0.00     0.091 A 
ATOM     82  F   UNL A   1      38.869  32.277  37.758  1.00  0.00    -0.205 F 
ATOM     83  C   UNL A   1      40.583  35.209  38.925  1.00  0.00     0.022 A 
BRANCH  81  84
ATOM     84  S   UNL A   1      39.021  33.519  40.437  1.00  0.00     0.127 S 
ATOM     85  O   UNL A   1      39.357  34.489  41.572  1.00  0.00    -0.237 OA
ATOM     86  O   UNL A   1      37.506  33.487  40.226  1.00  0.00    -0.237 OA
ATOM     87  O   UNL A   1      39.573  31.953  40.844  1.00  0.00    -0.744 OA
ENDBRANCH  81  84
ENDBRANCH  53  77
BRANCH  65  88
ATOM     88  C   UNL A   1      44.287  28.167  34.793  1.00  0.00     0.023 A 
ATOM     89  C   UNL A   1      45.562  28.668  34.591  1.00  0.00     0.012 A 
ATOM     90  C   UNL A   1      44.084  27.061  35.500  1.00  0.00     0.148 A 
ATOM     91  C   UNL A   1      46.594  27.763  34.937  1.00  0.00     0.002 A 
ATOM     92  C   UNL A   1      45.145  26.296  35.921  1.00  0.00     0.091 A 
ATOM     93  F   UNL A   1      42.844  26.689  35.801  1.00  0.00    -0.205 F 
ATOM     94  C   UNL A   1      46.433  26.701  35.704  1.00  0.00     0.022 A 
BRANCH  92  95
ATOM     95  S   UNL A   1      44.833  24.732  36.775  1.00  0.00     0.127 S 
ATOM     96  O   UNL A   1      44.122  25.008  38.102  1.00  0.00    -0.237 OA
ATOM     97  O   UNL A   1      43.950  23.840  35.899  1.00  0.00    -0.237 OA
ATOM     98  O   UNL A   1      46.318  23.941  37.079  1.00  0.00    -0.744 OA
ENDBRANCH  92  95
ENDBRANCH  65  88
ENDBRANCH  39  40
ENDBRANCH  32  34
ENDBRANCH  31  32
ENDBRANCH  30  31
ENDBRANCH   1  30
TORSDOF 20
ENDMDL
MODEL 2
REMARK VINA RESULT:     -11.4      5.574      9.837
REMARK SMILES CCc1cc(S(F)(F)(F)(F)F)cc2c1O[C@@H](C(F)(F)F)C(C(=O)OCCOCCOC(=O)c1ccc(-c3c4nc(c(-c5cccc(S(=O)(=O)[O-])c5F)c5ccc([nH]5)c(-c5cccc(S(=O)(=O)[O-])c5F)c5nc(c(-c6cccc(S(=O)(=O)[O-])c6F)c6ccc3[nH]6)C=C5)C=C4)cc1)=C2
REMARK SMILES IDX 28 1 27 2 26 3 25 4 24 5 22 6 23 7 21 8 3 9 4 10 14 11 5 12
REMARK SMILES IDX 13 13 15 14 12 15 96 16 16 17 2 18 1 19 6 20 7 21 8 22 9 23
REMARK SMILES IDX 10 24 11 25 17 26 18 27 19 28 20 29 29 30 30 31 31 32 32 33
REMARK SMILES IDX 33 34 34 35 95 36 35 37 94 38 36 39 37 40 38 41 88 42 39 43
REMARK SMILES IDX 93 44 87 45 89 46 40 47 92 48 86 49 85 50 41 52 73 53 53 54
REMARK SMILES IDX 72 55 54 56 57 57 71 58 90 59 55 60 56 61 70 63 91 64 58 65
REMARK SMILES IDX 42 66 43 67 51 68 44 69 46 70 52 71 45 72 47 73 48 74 49 75
REMARK SMILES IDX 50 76 74 77 75 78 83 79 76 80 78 81 84 82 77 83 79 84 80 85
REMARK SMILES IDX 81 86 82 87 59 88 60 89 68 90 61 91 63 92 69 93 62 94 64 95
REMARK SMILES IDX 65 96 66 97 67 98
REMARK H PARENT 89 51 57 62
REMARK Flexibility Score: inf
ROOT
ATOM      1  C   UNL A   1      38.739  20.105  24.970  1.00  0.00     0.202 C 
ENDROOT
BRANCH   1   2
ATOM      2  O   UNL A   1      37.651  19.196  24.886  1.00  0.00    -0.374 OA
BRANCH   2   3
ATOM      3  C   UNL A   1      36.428  19.908  25.004  1.00  0.00     0.202 C 
BRANCH   3   4
ATOM      4  C   UNL A   1      36.655  21.367  24.644  1.00  0.00     0.261 C 
BRANCH   4   5
ATOM      5  O   UNL A   1      35.433  22.078  24.756  1.00  0.00    -0.460 OA
BRANCH   5   6
ATOM      6  C   UNL A   1      35.135  23.127  23.845  1.00  0.00     0.338 C 
ATOM      7  O   UNL A   1      35.756  23.202  22.739  1.00  0.00    -0.246 OA
BRANCH   6   8
ATOM      8  C   UNL A   1      34.074  24.158  24.193  1.00  0.00     0.087 C 
ATOM      9  C   UNL A   1      31.125  27.081  24.646  1.00  0.00    -0.004 A 
ATOM     10  C   UNL A   1      31.429  28.278  25.269  1.00  0.00     0.032 A 
ATOM     11  C   UNL A   1      32.127  26.160  24.462  1.00  0.00     0.131 A 
ATOM     12  C   UNL A   1      32.705  28.547  25.693  1.00  0.00     0.108 A 
ATOM     13  C   UNL A   1      33.421  26.389  24.894  1.00  0.00     0.019 A 
ATOM     14  O   UNL A   1      31.835  25.026  23.744  1.00  0.00    -0.475 OA
ATOM     15  C   UNL A   1      33.694  27.603  25.512  1.00  0.00     0.036 A 
ATOM     16  C   UNL A   1      34.417  25.368  24.618  1.00  0.00     0.027 C 
ATOM     17  C   UNL A   1      32.593  23.826  24.061  1.00  0.00     0.316 C 
BRANCH   9  18
ATOM     18  C   UNL A   1      29.716  26.759  24.176  1.00  0.00     0.036 C 
ATOM     19  C   UNL A   1      29.304  27.744  23.096  1.00  0.00     0.009 C 
ENDBRANCH   9  18
BRANCH  12  20
ATOM     20  S   UNL A   1      33.087  30.129  26.485  1.00  0.00     0.310 S 
ATOM     21  F   UNL A   1      32.480  29.661  27.873  1.00  0.00    -0.094 F 
ATOM     22  F   UNL A   1      31.645  30.633  26.103  1.00  0.00    -0.094 F 
ATOM     23  F   UNL A   1      33.416  31.491  27.158  1.00  0.00    -0.094 F 
ATOM     24  F   UNL A   1      34.473  29.558  26.982  1.00  0.00    -0.094 F 
ATOM     25  F   UNL A   1      32.725  28.704  25.905  1.00  0.00    -0.094 F 
ENDBRANCH  12  20
BRANCH  17  26
ATOM     26  C   UNL A   1      32.410  22.813  22.942  1.00  0.00     0.430 C 
ATOM     27  F   UNL A   1      33.010  23.256  21.841  1.00  0.00    -0.167 F 
ATOM     28  F   UNL A   1      32.947  21.651  23.304  1.00  0.00    -0.167 F 
ATOM     29  F   UNL A   1      31.112  22.646  22.703  1.00  0.00    -0.167 F 
ENDBRANCH  17  26
ENDBRANCH   6   8
ENDBRANCH   5   6
ENDBRANCH   4   5
ENDBRANCH   3   4
ENDBRANCH   2   3
ENDBRANCH   1   2
BRANCH   1  30
ATOM     30  C   UNL A   1      39.649  19.701  26.118  1.00  0.00     0.261 C 
BRANCH  30  31
ATOM     31  O   UNL A   1      40.658  18.825  25.639  1.00  0.00    -0.460 OA
BRANCH  31  32
ATOM     32  C   UNL A   1      42.026  19.120  25.877  1.00  0.00     0.338 C 
ATOM     33  O   UNL A   1      42.897  18.197  25.808  1.00  0.00    -0.246 OA
BRANCH  32  34
ATOM     34  C   UNL A   1      42.449  20.540  26.216  1.00  0.00     0.060 A 
ATOM     35  C   UNL A   1      42.394  20.956  27.536  1.00  0.00     0.016 A 
ATOM     36  C   UNL A   1      42.863  21.356  25.254  1.00  0.00     0.016 A 
ATOM     37  C   UNL A   1      42.526  22.355  27.702  1.00  0.00     0.010 A 
ATOM     38  C   UNL A   1      43.103  22.682  25.517  1.00  0.00     0.010 A 
ATOM     39  C   UNL A   1      43.011  23.176  26.789  1.00  0.00    -0.014 A 
BRANCH  39  40
ATOM     40  C   UNL A   1      43.444  24.592  27.133  1.00  0.00     0.031 A 
ATOM     41  C   UNL A   1      44.797  24.912  27.001  1.00  0.00     0.074 A 
ATOM     42  C   UNL A   1      42.476  25.484  27.556  1.00  0.00     0.049 A 
ATOM     43  N   UNL A   1      45.378  26.094  27.216  1.00  0.00    -0.248 NA
ATOM     44  C   UNL A   1      45.834  23.955  26.585  1.00  0.00     0.031 C 
ATOM     45  C   UNL A   1      41.107  25.171  27.682  1.00  0.00     0.029 A 
ATOM     46  N   UNL A   1      42.642  26.801  27.924  1.00  0.00    -0.354 N 
ATOM     47  C   UNL A   1      46.686  26.015  26.967  1.00  0.00     0.074 A 
ATOM     48  C   UNL A   1      46.999  24.638  26.564  1.00  0.00     0.031 C 
ATOM     49  C   UNL A   1      40.462  26.279  28.132  1.00  0.00     0.029 A 
ATOM     50  C   UNL A   1      41.414  27.304  28.292  1.00  0.00     0.049 A 
ATOM     51  H   UNL A   1      43.493  27.297  27.923  1.00  0.00     0.167 HD
ATOM     52  C   UNL A   1      47.631  27.039  27.059  1.00  0.00     0.034 A 
ATOM     53  C   UNL A   1      41.121  28.580  28.747  1.00  0.00     0.034 A 
ATOM     54  C   UNL A   1      47.329  28.327  27.471  1.00  0.00     0.049 A 
ATOM     55  C   UNL A   1      42.075  29.589  28.894  1.00  0.00     0.074 A 
ATOM     56  C   UNL A   1      48.269  29.373  27.562  1.00  0.00     0.029 A 
ATOM     57  N   UNL A   1      46.107  28.823  27.863  1.00  0.00    -0.354 N 
ATOM     58  N   UNL A   1      43.376  29.521  28.607  1.00  0.00    -0.248 NA
ATOM     59  C   UNL A   1      41.782  30.934  29.406  1.00  0.00     0.031 C 
ATOM     60  C   UNL A   1      47.622  30.482  28.011  1.00  0.00     0.029 A 
ATOM     61  C   UNL A   1      46.268  30.146  28.209  1.00  0.00     0.049 A 
ATOM     62  H   UNL A   1      45.261  28.318  27.891  1.00  0.00     0.167 HD
ATOM     63  C   UNL A   1      43.964  30.692  28.862  1.00  0.00     0.074 A 
ATOM     64  C   UNL A   1      42.948  31.616  29.386  1.00  0.00     0.031 C 
ATOM     65  C   UNL A   1      45.306  31.029  28.675  1.00  0.00     0.034 A 
BRANCH  52  66
ATOM     66  C   UNL A   1      49.070  26.723  26.685  1.00  0.00     0.023 A 
ATOM     67  C   UNL A   1      49.825  25.992  27.586  1.00  0.00     0.012 A 
ATOM     68  C   UNL A   1      49.556  27.067  25.498  1.00  0.00     0.148 A 
ATOM     69  C   UNL A   1      51.199  25.917  27.255  1.00  0.00     0.002 A 
ATOM     70  C   UNL A   1      50.876  26.842  25.190  1.00  0.00     0.091 A 
ATOM     71  F   UNL A   1      48.758  27.637  24.599  1.00  0.00    -0.205 F 
ATOM     72  C   UNL A   1      51.697  26.177  26.059  1.00  0.00     0.022 A 
BRANCH  70  73
ATOM     73  S   UNL A   1      51.539  27.433  23.613  1.00  0.00     0.127 S 
ATOM     74  O   UNL A   1      53.000  26.998  23.480  1.00  0.00    -0.237 OA
ATOM     75  O   UNL A   1      50.722  26.841  22.463  1.00  0.00    -0.237 OA
ATOM     76  O   UNL A   1      51.445  29.139  23.560  1.00  0.00    -0.744 OA
ENDBRANCH  70  73
ENDBRANCH  52  66
BRANCH  53  77
ATOM     77  C   UNL A   1      39.678  28.900  29.104  1.00  0.00     0.023 A 
ATOM     78  C   UNL A   1      38.809  29.260  28.087  1.00  0.00     0.012 A 
ATOM     79  C   UNL A   1      39.295  28.915  30.376  1.00  0.00     0.148 A 
ATOM     80  C   UNL A   1      37.632  29.903  28.541  1.00  0.00     0.002 A 
ATOM     81  C   UNL A   1      38.074  29.434  30.733  1.00  0.00     0.091 A 
ATOM     82  F   UNL A   1      40.102  28.421  31.312  1.00  0.00    -0.205 F 
ATOM     83  C   UNL A   1      37.189  29.864  29.785  1.00  0.00     0.022 A 
BRANCH  81  84
ATOM     84  S   UNL A   1      37.633  29.551  32.484  1.00  0.00     0.127 S 
ATOM     85  O   UNL A   1      36.296  30.283  32.625  1.00  0.00    -0.237 OA
ATOM     86  O   UNL A   1      37.509  28.145  33.073  1.00  0.00    -0.237 OA
ATOM     87  O   UNL A   1      38.847  30.415  33.322  1.00  0.00    -0.744 OA
ENDBRANCH  81  84
ENDBRANCH  53  77
BRANCH  65  88
ATOM     88  C   UNL A   1      45.738  32.449  29.002  1.00  0.00     0.023 A 
ATOM     89  C   UNL A   1      46.255  32.718  30.258  1.00  0.00     0.012 A 
ATOM     90  C   UNL A   1      45.618  33.404  28.087  1.00  0.00     0.148 A 
ATOM     91  C   UNL A   1      46.352  34.098  30.555  1.00  0.00     0.002 A 
ATOM     92  C   UNL A   1      45.859  34.718  28.412  1.00  0.00     0.091 A 
ATOM     93  F   UNL A   1      45.259  33.088  26.846  1.00  0.00    -0.205 F 
ATOM     94  C   UNL A   1      46.316  35.062  29.654  1.00  0.00     0.022 A 
BRANCH  92  95
ATOM     95  S   UNL A   1      45.568  36.009  27.178  1.00  0.00     0.127 S 
ATOM     96  O   UNL A   1      44.126  35.915  26.673  1.00  0.00    -0.237 OA
ATOM     97  O   UNL A   1      45.797  37.383  27.813  1.00  0.00    -0.237 OA
ATOM     98  O   UNL A   1      46.646  35.800  25.868  1.00  0.00    -0.744 OA
ENDBRANCH  92  95
ENDBRANCH  65  88
ENDBRANCH  39  40
ENDBRANCH  32  34
ENDBRANCH  31  32
ENDBRANCH  30  31
ENDBRANCH   1  30
TORSDOF 20
ENDMDL
MODEL 3
REMARK VINA RESULT:     -11.0      1.413      7.303
REMARK SMILES CCc1cc(S(F)(F)(F)(F)F)cc2c1O[C@@H](C(F)(F)F)C(C(=O)OCCOCCOC(=O)c1ccc(-c3c4nc(c(-c5cccc(S(=O)(=O)[O-])c5F)c5ccc([nH]5)c(-c5cccc(S(=O)(=O)[O-])c5F)c5nc(c(-c6cccc(S(=O)(=O)[O-])c6F)c6ccc3[nH]6)C=C5)C=C4)cc1)=C2
REMARK SMILES IDX 28 1 27 2 26 3 25 4 24 5 22 6 23 7 21 8 3 9 4 10 14 11 5 12
REMARK SMILES IDX 13 13 15 14 12 15 96 16 16 17 2 18 1 19 6 20 7 21 8 22 9 23
REMARK SMILES IDX 10 24 11 25 17 26 18 27 19 28 20 29 29 30 30 31 31 32 32 33
REMARK SMILES IDX 33 34 34 35 95 36 35 37 94 38 36 39 37 40 38 41 88 42 39 43
REMARK SMILES IDX 93 44 87 45 89 46 40 47 92 48 86 49 85 50 41 52 73 53 53 54
REMARK SMILES IDX 72 55 54 56 57 57 71 58 90 59 55 60 56 61 70 63 91 64 58 65
REMARK SMILES IDX 42 66 43 67 51 68 44 69 46 70 52 71 45 72 47 73 48 74 49 75
REMARK SMILES IDX 50 76 74 77 75 78 83 79 76 80 78 81 84 82 77 83 79 84 80 85
REMARK SMILES IDX 81 86 82 87 59 88 60 89 68 90 61 91 63 92 69 93 62 94 64 95
REMARK SMILES IDX 65 96 66 97 67 98
REMARK H PARENT 89 51 57 62
REMARK Flexibility Score: inf
ROOT
ATOM      1  C   UNL A   1      32.737  32.429  27.328  1.00  0.00     0.202 C 
ENDROOT
BRANCH   1   2
ATOM      2  O   UNL A   1      33.814  31.642  27.815  1.00  0.00    -0.374 OA
BRANCH   2   3
ATOM      3  C   UNL A   1      33.543  30.268  27.577  1.00  0.00     0.202 C 
BRANCH   3   4
ATOM      4  C   UNL A   1      32.204  30.132  26.870  1.00  0.00     0.261 C 
BRANCH   4   5
ATOM      5  O   UNL A   1      32.040  28.796  26.420  1.00  0.00    -0.460 OA
BRANCH   5   6
ATOM      6  C   UNL A   1      32.360  28.454  25.079  1.00  0.00     0.338 C 
ATOM      7  O   UNL A   1      32.430  29.361  24.192  1.00  0.00    -0.246 OA
BRANCH   6   8
ATOM      8  C   UNL A   1      32.618  27.004  24.705  1.00  0.00     0.087 C 
ATOM      9  C   UNL A   1      33.058  22.895  24.097  1.00  0.00    -0.004 A 
ATOM     10  C   UNL A   1      34.308  22.311  24.207  1.00  0.00     0.032 A 
ATOM     11  C   UNL A   1      32.934  24.238  24.355  1.00  0.00     0.131 A 
ATOM     12  C   UNL A   1      35.402  23.051  24.571  1.00  0.00     0.108 A 
ATOM     13  C   UNL A   1      34.019  25.021  24.706  1.00  0.00     0.019 A 
ATOM     14  O   UNL A   1      31.671  24.780  24.352  1.00  0.00    -0.475 OA
ATOM     15  C   UNL A   1      35.258  24.402  24.812  1.00  0.00     0.036 A 
ATOM     16  C   UNL A   1      33.777  26.424  24.996  1.00  0.00     0.027 C 
ATOM     17  C   UNL A   1      31.553  26.183  23.989  1.00  0.00     0.316 C 
BRANCH   9  18
ATOM     18  C   UNL A   1      31.834  22.094  23.687  1.00  0.00     0.036 C 
ATOM     19  C   UNL A   1      32.116  21.369  22.382  1.00  0.00     0.009 C 
ENDBRANCH   9  18
BRANCH  12  20
ATOM     20  S   UNL A   1      37.024  22.263  24.732  1.00  0.00     0.310 S 
ATOM     21  F   UNL A   1      36.391  20.810  24.783  1.00  0.00    -0.094 F 
ATOM     22  F   UNL A   1      36.857  22.314  26.298  1.00  0.00    -0.094 F 
ATOM     23  F   UNL A   1      38.419  21.593  24.874  1.00  0.00    -0.094 F 
ATOM     24  F   UNL A   1      37.109  22.093  23.165  1.00  0.00    -0.094 F 
ATOM     25  F   UNL A   1      35.560  22.839  24.574  1.00  0.00    -0.094 F 
ENDBRANCH  12  20
BRANCH  17  26
ATOM     26  C   UNL A   1      30.178  26.688  24.401  1.00  0.00     0.430 C 
ATOM     27  F   UNL A   1      29.244  25.884  23.902  1.00  0.00    -0.167 F 
ATOM     28  F   UNL A   1      30.091  26.700  25.728  1.00  0.00    -0.167 F 
ATOM     29  F   UNL A   1      30.000  27.920  23.933  1.00  0.00    -0.167 F 
ENDBRANCH  17  26
ENDBRANCH   6   8
ENDBRANCH   5   6
ENDBRANCH   4   5
ENDBRANCH   3   4
ENDBRANCH   2   3
ENDBRANCH   1   2
BRANCH   1  30
ATOM     30  C   UNL A   1      33.000  33.895  27.635  1.00  0.00     0.261 C 
BRANCH  30  31
ATOM     31  O   UNL A   1      32.483  34.210  28.918  1.00  0.00    -0.460 OA
BRANCH  31  32
ATOM     32  C   UNL A   1      33.325  34.800  29.898  1.00  0.00     0.338 C 
ATOM     33  O   UNL A   1      33.055  35.954  30.357  1.00  0.00    -0.246 OA
BRANCH  32  34
ATOM     34  C   UNL A   1      34.549  34.050  30.397  1.00  0.00     0.060 A 
ATOM     35  C   UNL A   1      34.376  33.017  31.303  1.00  0.00     0.016 A 
ATOM     36  C   UNL A   1      35.757  34.390  29.963  1.00  0.00     0.016 A 
ATOM     37  C   UNL A   1      35.576  32.586  31.917  1.00  0.00     0.010 A 
ATOM     38  C   UNL A   1      36.883  33.829  30.515  1.00  0.00     0.010 A 
ATOM     39  C   UNL A   1      36.787  32.843  31.458  1.00  0.00    -0.014 A 
BRANCH  39  40
ATOM     40  C   UNL A   1      38.009  32.084  31.950  1.00  0.00     0.031 A 
ATOM     41  C   UNL A   1      38.585  32.485  33.157  1.00  0.00     0.074 A 
ATOM     42  C   UNL A   1      38.481  31.038  31.177  1.00  0.00     0.049 A 
ATOM     43  N   UNL A   1      39.631  31.938  33.780  1.00  0.00    -0.248 NA
ATOM     44  C   UNL A   1      38.106  33.618  33.964  1.00  0.00     0.031 C 
ATOM     45  C   UNL A   1      37.899  30.622  29.963  1.00  0.00     0.029 A 
ATOM     46  N   UNL A   1      39.566  30.228  31.424  1.00  0.00    -0.354 N 
ATOM     47  C   UNL A   1      39.877  32.586  34.921  1.00  0.00     0.074 A 
ATOM     48  C   UNL A   1      38.904  33.678  35.052  1.00  0.00     0.031 C 
ATOM     49  C   UNL A   1      38.631  29.585  29.479  1.00  0.00     0.029 A 
ATOM     50  C   UNL A   1      39.681  29.333  30.383  1.00  0.00     0.049 A 
ATOM     51  H   UNL A   1      40.158  30.279  32.209  1.00  0.00     0.167 HD
ATOM     52  C   UNL A   1      40.873  32.306  35.858  1.00  0.00     0.034 A 
ATOM     53  C   UNL A   1      40.640  28.347  30.212  1.00  0.00     0.034 A 
ATOM     54  C   UNL A   1      41.806  31.292  35.708  1.00  0.00     0.049 A 
ATOM     55  C   UNL A   1      41.672  28.105  31.120  1.00  0.00     0.074 A 
ATOM     56  C   UNL A   1      42.813  30.992  36.647  1.00  0.00     0.029 A 
ATOM     57  N   UNL A   1      41.936  30.414  34.656  1.00  0.00    -0.354 N 
ATOM     58  N   UNL A   1      41.894  28.726  32.280  1.00  0.00    -0.248 NA
ATOM     59  C   UNL A   1      42.713  27.086  30.934  1.00  0.00     0.031 C 
ATOM     60  C   UNL A   1      43.544  29.953  36.163  1.00  0.00     0.029 A 
ATOM     61  C   UNL A   1      43.007  29.588  34.913  1.00  0.00     0.049 A 
ATOM     62  H   UNL A   1      41.360  30.382  33.857  1.00  0.00     0.167 HD
ATOM     63  C   UNL A   1      42.965  28.206  32.882  1.00  0.00     0.074 A 
ATOM     64  C   UNL A   1      43.512  27.147  32.022  1.00  0.00     0.031 C 
ATOM     65  C   UNL A   1      43.507  28.569  34.117  1.00  0.00     0.034 A 
BRANCH  52  66
ATOM     66  C   UNL A   1      40.938  33.161  37.113  1.00  0.00     0.023 A 
ATOM     67  C   UNL A   1      40.086  32.842  38.156  1.00  0.00     0.012 A 
ATOM     68  C   UNL A   1      41.840  34.129  37.231  1.00  0.00     0.148 A 
ATOM     69  C   UNL A   1      40.067  33.802  39.196  1.00  0.00     0.002 A 
ATOM     70  C   UNL A   1      41.850  34.945  38.338  1.00  0.00     0.091 A 
ATOM     71  F   UNL A   1      42.741  34.312  36.270  1.00  0.00    -0.205 F 
ATOM     72  C   UNL A   1      40.994  34.723  39.382  1.00  0.00     0.022 A 
BRANCH  70  73
ATOM     73  S   UNL A   1      43.010  36.331  38.414  1.00  0.00     0.127 S 
ATOM     74  O   UNL A   1      44.444  35.800  38.346  1.00  0.00    -0.237 OA
ATOM     75  O   UNL A   1      42.757  37.273  37.235  1.00  0.00    -0.237 OA
ATOM     76  O   UNL A   1      42.786  37.181  39.881  1.00  0.00    -0.744 OA
ENDBRANCH  70  73
ENDBRANCH  52  66
BRANCH  53  77
ATOM     77  C   UNL A   1      40.564  27.481  28.965  1.00  0.00     0.023 A 
ATOM     78  C   UNL A   1      39.696  26.401  28.961  1.00  0.00     0.012 A 
ATOM     79  C   UNL A   1      41.378  27.714  27.942  1.00  0.00     0.148 A 
ATOM     80  C   UNL A   1      39.970  25.450  27.949  1.00  0.00     0.002 A 
ATOM     81  C   UNL A   1      41.494  26.804  26.919  1.00  0.00     0.091 A 
ATOM     82  F   UNL A   1      42.088  28.838  27.908  1.00  0.00    -0.205 F 
ATOM     83  C   UNL A   1      40.711  25.685  26.881  1.00  0.00     0.022 A 
BRANCH  81  84
ATOM     84  S   UNL A   1      42.702  27.093  25.602  1.00  0.00     0.127 S 
ATOM     85  O   UNL A   1      42.246  28.274  24.743  1.00  0.00    -0.237 OA
ATOM     86  O   UNL A   1      44.065  27.408  26.221  1.00  0.00    -0.237 OA
ATOM     87  O   UNL A   1      42.828  25.694  24.627  1.00  0.00    -0.744 OA
ENDBRANCH  81  84
ENDBRANCH  53  77
BRANCH  65  88
ATOM     88  C   UNL A   1      44.717  27.799  34.620  1.00  0.00     0.023 A 
ATOM     89  C   UNL A   1      45.983  28.248  34.279  1.00  0.00     0.012 A 
ATOM     90  C   UNL A   1      44.549  26.718  35.373  1.00  0.00     0.148 A 
ATOM     91  C   UNL A   1      47.013  27.314  34.545  1.00  0.00     0.002 A 
ATOM     92  C   UNL A   1      45.620  25.926  35.708  1.00  0.00     0.091 A 
ATOM     93  F   UNL A   1      43.333  26.400  35.805  1.00  0.00    -0.205 F 
ATOM     94  C   UNL A   1      46.893  26.278  35.354  1.00  0.00     0.022 A 
BRANCH  92  95
ATOM     95  S   UNL A   1      45.342  24.394  36.632  1.00  0.00     0.127 S 
ATOM     96  O   UNL A   1      44.485  23.443  35.794  1.00  0.00    -0.237 OA
ATOM     97  O   UNL A   1      46.688  23.733  36.940  1.00  0.00    -0.237 OA
ATOM     98  O   UNL A   1      44.534  24.750  38.096  1.00  0.00    -0.744 OA
ENDBRANCH  92  95
ENDBRANCH  65  88
ENDBRANCH  39  40
ENDBRANCH  32  34
ENDBRANCH  31  32
ENDBRANCH  30  31
ENDBRANCH   1  30
TORSDOF 20
ENDMDL
