MODEL 1
REMARK VINA RESULT:     -11.7      0.000      0.000
REMARK SMILES Cc1ccc(-c2cc([C@@H](C)C(=O)OCCOCCOC(=O)c3ccc(-c4c5nc(c(-c6cccc(S(=O)(=O)[O-])c6F)c6ccc([nH]6)c(-c6cccc(S(=O)(=O)[O-])c6F)c6nc(c(-c7cccc(S(=O)(=O)[O-])c7F)c7ccc4[nH]7)C=C6)C=C5)cc3)ccc2C[C@H]2CCCC2=O)cc1
REMARK SMILES IDX 16 1 15 2 14 3 13 4 11 5 12 6 9 7 10 8 8 9 6 10 7 11 87 12
REMARK SMILES IDX 86 13 85 14 5 15 1 16 2 17 3 18 96 19 4 20 95 21 88 22 89 23
REMARK SMILES IDX 90 24 93 25 91 26 92 27 94 28 17 29 18 30 19 31 20 32 21 33
REMARK SMILES IDX 22 34 23 35 84 36 24 37 83 38 25 39 26 40 27 41 77 42 28 43
REMARK SMILES IDX 82 44 76 45 78 46 29 47 81 48 75 49 74 50 30 52 62 53 42 54
REMARK SMILES IDX 61 55 43 56 46 57 60 58 79 59 44 60 45 61 59 63 80 64 47 65
REMARK SMILES IDX 31 66 32 67 40 68 33 69 35 70 41 71 34 72 36 73 37 74 38 75
REMARK SMILES IDX 39 76 63 77 64 78 72 79 65 80 67 81 73 82 66 83 68 84 69 85
REMARK SMILES IDX 70 86 71 87 48 88 49 89 57 90 50 91 52 92 58 93 51 94 53 95
REMARK SMILES IDX 54 96 55 97 56 98
REMARK H PARENT 78 51 46 62
REMARK Flexibility Score: inf
ROOT
ATOM      1  O   UNL A   1      33.963  30.109  27.003  1.00  0.00    -0.374 OA
ENDROOT
BRANCH   1   2
ATOM      2  C   UNL A   1      33.576  28.855  27.521  1.00  0.00     0.202 C 
BRANCH   2   3
ATOM      3  C   UNL A   1      32.129  28.665  27.201  1.00  0.00     0.261 C 
BRANCH   3   4
ATOM      4  O   UNL A   1      31.934  27.895  25.987  1.00  0.00    -0.463 OA
BRANCH   4   5
ATOM      5  C   UNL A   1      31.751  28.497  24.765  1.00  0.00     0.313 C 
ATOM      6  O   UNL A   1      30.851  29.240  24.445  1.00  0.00    -0.252 OA
BRANCH   5   7
ATOM      7  C   UNL A   1      32.916  28.138  23.839  1.00  0.00     0.126 C 
ATOM      8  C   UNL A   1      32.896  28.958  22.556  1.00  0.00     0.025 C 
BRANCH   7   9
ATOM      9  C   UNL A   1      32.945  26.627  23.637  1.00  0.00    -0.033 A 
ATOM     10  C   UNL A   1      33.976  24.479  24.207  1.00  0.00    -0.015 A 
ATOM     11  C   UNL A   1      34.014  25.887  24.147  1.00  0.00     0.013 A 
ATOM     12  C   UNL A   1      32.791  23.800  23.832  1.00  0.00    -0.039 A 
ATOM     13  C   UNL A   1      31.741  24.551  23.279  1.00  0.00     0.004 A 
ATOM     14  C   UNL A   1      31.835  25.934  23.140  1.00  0.00     0.005 A 
BRANCH  10  15
ATOM     15  C   UNL A   1      35.234  23.793  24.524  1.00  0.00    -0.018 A 
ATOM     16  C   UNL A   1      38.801  21.694  25.744  1.00  0.00     0.044 C 
ATOM     17  C   UNL A   1      37.563  22.414  25.307  1.00  0.00    -0.051 A 
ATOM     18  C   UNL A   1      37.024  23.407  26.127  1.00  0.00     0.004 A 
ATOM     19  C   UNL A   1      36.929  22.106  24.097  1.00  0.00     0.004 A 
ATOM     20  C   UNL A   1      35.868  24.080  25.743  1.00  0.00     0.009 A 
ATOM     21  C   UNL A   1      35.773  22.790  23.710  1.00  0.00     0.009 A 
ENDBRANCH  10  15
BRANCH  12  22
ATOM     22  C   UNL A   1      32.640  22.290  23.883  1.00  0.00     0.047 C 
BRANCH  22  23
ATOM     23  C   UNL A   1      32.383  21.581  25.220  1.00  0.00     0.060 C 
ATOM     24  C   UNL A   1      33.509  20.720  25.794  1.00  0.00     0.012 C 
ATOM     25  C   UNL A   1      32.029  22.500  26.365  1.00  0.00     0.136 C 
ATOM     26  C   UNL A   1      34.046  21.458  27.005  1.00  0.00     0.009 C 
ATOM     27  C   UNL A   1      32.921  22.314  27.560  1.00  0.00     0.076 C 
ATOM     28  O   UNL A   1      31.074  23.269  26.345  1.00  0.00    -0.299 OA
ENDBRANCH  22  23
ENDBRANCH  12  22
ENDBRANCH   7   9
ENDBRANCH   5   7
ENDBRANCH   4   5
ENDBRANCH   3   4
ENDBRANCH   2   3
ENDBRANCH   1   2
BRANCH   1  29
ATOM     29  C   UNL A   1      34.273  31.109  27.945  1.00  0.00     0.202 C 
BRANCH  29  30
ATOM     30  C   UNL A   1      33.448  32.387  27.760  1.00  0.00     0.261 C 
BRANCH  30  31
ATOM     31  O   UNL A   1      34.240  33.553  28.065  1.00  0.00    -0.460 OA
BRANCH  31  32
ATOM     32  C   UNL A   1      34.253  33.920  29.382  1.00  0.00     0.338 C 
ATOM     33  O   UNL A   1      33.322  34.478  29.940  1.00  0.00    -0.246 OA
BRANCH  32  34
ATOM     34  C   UNL A   1      35.627  33.751  29.945  1.00  0.00     0.060 A 
ATOM     35  C   UNL A   1      36.759  33.855  29.120  1.00  0.00     0.016 A 
ATOM     36  C   UNL A   1      35.751  33.179  31.208  1.00  0.00     0.016 A 
ATOM     37  C   UNL A   1      37.960  33.222  29.483  1.00  0.00     0.010 A 
ATOM     38  C   UNL A   1      36.881  32.442  31.490  1.00  0.00     0.010 A 
ATOM     39  C   UNL A   1      37.984  32.424  30.619  1.00  0.00    -0.014 A 
BRANCH  39  40
ATOM     40  C   UNL A   1      39.080  31.553  31.056  1.00  0.00     0.031 A 
ATOM     41  C   UNL A   1      39.169  30.236  30.397  1.00  0.00     0.074 A 
ATOM     42  C   UNL A   1      40.164  32.015  31.727  1.00  0.00     0.049 A 
ATOM     43  N   UNL A   1      40.049  29.345  30.681  1.00  0.00    -0.248 NA
ATOM     44  C   UNL A   1      38.242  29.812  29.352  1.00  0.00     0.031 C 
ATOM     45  C   UNL A   1      41.555  31.582  31.556  1.00  0.00     0.029 A 
ATOM     46  N   UNL A   1      40.276  33.023  32.684  1.00  0.00    -0.354 N 
ATOM     47  C   UNL A   1      40.040  28.425  29.661  1.00  0.00     0.074 A 
ATOM     48  C   UNL A   1      38.839  28.704  28.913  1.00  0.00     0.031 C 
ATOM     49  C   UNL A   1      42.324  32.145  32.502  1.00  0.00     0.029 A 
ATOM     50  C   UNL A   1      41.441  32.818  33.431  1.00  0.00     0.049 A 
ATOM     51  H   UNL A   1      39.637  33.760  32.815  1.00  0.00     0.167 HD
ATOM     52  C   UNL A   1      41.145  27.647  29.489  1.00  0.00     0.034 A 
ATOM     53  C   UNL A   1      41.397  32.720  34.784  1.00  0.00     0.034 A 
ATOM     54  C   UNL A   1      42.151  27.924  30.550  1.00  0.00     0.049 A 
ATOM     55  C   UNL A   1      41.844  31.343  35.193  1.00  0.00     0.074 A 
ATOM     56  C   UNL A   1      43.351  28.621  30.582  1.00  0.00     0.029 A 
ATOM     57  N   UNL A   1      41.804  27.731  31.892  1.00  0.00    -0.354 N 
ATOM     58  N   UNL A   1      42.278  30.443  34.356  1.00  0.00    -0.248 NA
ATOM     59  C   UNL A   1      41.828  30.857  36.558  1.00  0.00     0.031 C 
ATOM     60  C   UNL A   1      43.709  28.847  31.948  1.00  0.00     0.029 A 
ATOM     61  C   UNL A   1      42.751  28.265  32.765  1.00  0.00     0.049 A 
ATOM     62  H   UNL A   1      40.985  27.272  32.186  1.00  0.00     0.167 HD
ATOM     63  C   UNL A   1      42.407  29.233  34.967  1.00  0.00     0.074 A 
ATOM     64  C   UNL A   1      42.205  29.579  36.373  1.00  0.00     0.031 C 
ATOM     65  C   UNL A   1      42.603  28.089  34.226  1.00  0.00     0.034 A 
BRANCH  52  66
ATOM     66  C   UNL A   1      41.433  26.869  28.205  1.00  0.00     0.023 A 
ATOM     67  C   UNL A   1      41.071  27.477  26.985  1.00  0.00     0.012 A 
ATOM     68  C   UNL A   1      41.997  25.570  28.092  1.00  0.00     0.148 A 
ATOM     69  C   UNL A   1      41.174  26.820  25.750  1.00  0.00     0.002 A 
ATOM     70  C   UNL A   1      42.032  24.883  26.871  1.00  0.00     0.091 A 
ATOM     71  F   UNL A   1      42.610  25.011  29.137  1.00  0.00    -0.205 F 
ATOM     72  C   UNL A   1      41.621  25.509  25.696  1.00  0.00     0.022 A 
BRANCH  70  73
ATOM     73  S   UNL A   1      42.530  23.151  26.745  1.00  0.00     0.127 S 
ATOM     74  O   UNL A   1      41.602  22.491  27.667  1.00  0.00    -0.237 OA
ATOM     75  O   UNL A   1      42.291  22.853  25.334  1.00  0.00    -0.237 OA
ATOM     76  O   UNL A   1      43.922  23.099  27.176  1.00  0.00    -0.744 OA
ENDBRANCH  70  73
ENDBRANCH  52  66
BRANCH  53  77
ATOM     77  C   UNL A   1      40.308  33.570  35.371  1.00  0.00     0.023 A 
ATOM     78  C   UNL A   1      38.992  33.032  35.338  1.00  0.00     0.012 A 
ATOM     79  C   UNL A   1      40.602  34.556  36.331  1.00  0.00     0.148 A 
ATOM     80  C   UNL A   1      38.049  33.362  36.317  1.00  0.00     0.002 A 
ATOM     81  C   UNL A   1      39.669  34.849  37.328  1.00  0.00     0.091 A 
ATOM     82  F   UNL A   1      41.810  35.133  36.303  1.00  0.00    -0.205 F 
ATOM     83  C   UNL A   1      38.407  34.230  37.341  1.00  0.00     0.022 A 
BRANCH  81  84
ATOM     84  S   UNL A   1      40.088  35.882  38.741  1.00  0.00     0.127 S 
ATOM     85  O   UNL A   1      38.888  35.759  39.564  1.00  0.00    -0.237 OA
ATOM     86  O   UNL A   1      41.271  35.209  39.282  1.00  0.00    -0.237 OA
ATOM     87  O   UNL A   1      40.353  37.202  38.188  1.00  0.00    -0.744 OA
ENDBRANCH  81  84
ENDBRANCH  53  77
BRANCH  65  88
ATOM     88  C   UNL A   1      42.632  26.668  34.786  1.00  0.00     0.023 A 
ATOM     89  C   UNL A   1      41.528  26.067  35.414  1.00  0.00     0.012 A 
ATOM     90  C   UNL A   1      43.789  25.848  34.676  1.00  0.00     0.148 A 
ATOM     91  C   UNL A   1      41.523  24.734  35.835  1.00  0.00     0.002 A 
ATOM     92  C   UNL A   1      43.767  24.504  35.036  1.00  0.00     0.091 A 
ATOM     93  F   UNL A   1      44.955  26.373  34.282  1.00  0.00    -0.205 F 
ATOM     94  C   UNL A   1      42.631  23.941  35.615  1.00  0.00     0.022 A 
BRANCH  92  95
ATOM     95  S   UNL A   1      45.161  23.413  34.735  1.00  0.00     0.127 S 
ATOM     96  O   UNL A   1      45.230  23.426  33.274  1.00  0.00    -0.237 OA
ATOM     97  O   UNL A   1      46.250  24.125  35.404  1.00  0.00    -0.237 OA
ATOM     98  O   UNL A   1      44.811  22.137  35.341  1.00  0.00    -0.744 OA
ENDBRANCH  92  95
ENDBRANCH  65  88
ENDBRANCH  39  40
ENDBRANCH  32  34
ENDBRANCH  31  32
ENDBRANCH  30  31
ENDBRANCH  29  30
ENDBRANCH   1  29
TORSDOF 21
ENDMDL
MODEL 2
REMARK VINA RESULT:     -10.6      5.464     10.937
REMARK SMILES Cc1ccc(-c2cc([C@@H](C)C(=O)OCCOCCOC(=O)c3ccc(-c4c5nc(c(-c6cccc(S(=O)(=O)[O-])c6F)c6ccc([nH]6)c(-c6cccc(S(=O)(=O)[O-])c6F)c6nc(c(-c7cccc(S(=O)(=O)[O-])c7F)c7ccc4[nH]7)C=C6)C=C5)cc3)ccc2C[C@H]2CCCC2=O)cc1
REMARK SMILES IDX 16 1 15 2 14 3 13 4 11 5 12 6 9 7 10 8 8 9 6 10 7 11 87 12
REMARK SMILES IDX 86 13 85 14 5 15 1 16 2 17 3 18 96 19 4 20 95 21 88 22 89 23
REMARK SMILES IDX 90 24 93 25 91 26 92 27 94 28 17 29 18 30 19 31 20 32 21 33
REMARK SMILES IDX 22 34 23 35 84 36 24 37 83 38 25 39 26 40 27 41 77 42 28 43
REMARK SMILES IDX 82 44 76 45 78 46 29 47 81 48 75 49 74 50 30 52 62 53 42 54
REMARK SMILES IDX 61 55 43 56 46 57 60 58 79 59 44 60 45 61 59 63 80 64 47 65
REMARK SMILES IDX 31 66 32 67 40 68 33 69 35 70 41 71 34 72 36 73 37 74 38 75
REMARK SMILES IDX 39 76 63 77 64 78 72 79 65 80 67 81 73 82 66 83 68 84 69 85
REMARK SMILES IDX 70 86 71 87 48 88 49 89 57 90 50 91 52 92 58 93 51 94 53 95
REMARK SMILES IDX 54 96 55 97 56 98
REMARK H PARENT 78 51 46 62
REMARK Flexibility Score: inf
ROOT
ATOM      1  O   UNL A   1      41.704  18.841  25.961  1.00  0.00    -0.374 OA
ENDROOT
BRANCH   1   2
ATOM      2  C   UNL A   1      41.338  19.976  26.715  1.00  0.00     0.202 C 
BRANCH   2   3
ATOM      3  C   UNL A   1      40.678  20.940  25.784  1.00  0.00     0.261 C 
BRANCH   3   4
ATOM      4  O   UNL A   1      39.467  21.503  26.347  1.00  0.00    -0.463 OA
BRANCH   4   5
ATOM      5  C   UNL A   1      38.384  21.829  25.566  1.00  0.00     0.313 C 
ATOM      6  O   UNL A   1      37.768  21.094  24.829  1.00  0.00    -0.252 OA
BRANCH   5   7
ATOM      7  C   UNL A   1      38.004  23.293  25.805  1.00  0.00     0.126 C 
ATOM      8  C   UNL A   1      38.941  23.970  26.796  1.00  0.00     0.025 C 
BRANCH   7   9
ATOM      9  C   UNL A   1      36.523  23.371  26.161  1.00  0.00    -0.033 A 
ATOM     10  C   UNL A   1      34.331  24.363  25.702  1.00  0.00    -0.015 A 
ATOM     11  C   UNL A   1      35.737  24.384  25.607  1.00  0.00     0.013 A 
ATOM     12  C   UNL A   1      33.691  23.242  26.287  1.00  0.00    -0.039 A 
ATOM     13  C   UNL A   1      34.493  22.254  26.881  1.00  0.00     0.004 A 
ATOM     14  C   UNL A   1      35.883  22.341  26.859  1.00  0.00     0.005 A 
BRANCH  10  15
ATOM     15  C   UNL A   1      33.619  25.585  25.310  1.00  0.00    -0.018 A 
ATOM     16  C   UNL A   1      31.397  29.009  23.910  1.00  0.00     0.044 C 
ATOM     17  C   UNL A   1      32.163  27.823  24.411  1.00  0.00    -0.051 A 
ATOM     18  C   UNL A   1      32.995  27.126  23.533  1.00  0.00     0.004 A 
ATOM     19  C   UNL A   1      32.054  27.392  25.739  1.00  0.00     0.004 A 
ATOM     20  C   UNL A   1      33.706  26.015  23.977  1.00  0.00     0.009 A 
ATOM     21  C   UNL A   1      32.776  26.281  26.184  1.00  0.00     0.009 A 
ENDBRANCH  10  15
BRANCH  12  22
ATOM     22  C   UNL A   1      32.184  23.112  26.416  1.00  0.00     0.047 C 
BRANCH  22  23
ATOM     23  C   UNL A   1      31.350  22.574  25.245  1.00  0.00     0.060 C 
ATOM     24  C   UNL A   1      31.103  23.510  24.061  1.00  0.00     0.012 C 
ATOM     25  C   UNL A   1      31.902  21.328  24.595  1.00  0.00     0.136 C 
ATOM     26  C   UNL A   1      31.924  22.973  22.904  1.00  0.00     0.009 C 
ATOM     27  C   UNL A   1      32.089  21.478  23.112  1.00  0.00     0.076 C 
ATOM     28  O   UNL A   1      32.113  20.285  25.203  1.00  0.00    -0.299 OA
ENDBRANCH  22  23
ENDBRANCH  12  22
ENDBRANCH   7   9
ENDBRANCH   5   7
ENDBRANCH   4   5
ENDBRANCH   3   4
ENDBRANCH   2   3
ENDBRANCH   1   2
BRANCH   1  29
ATOM     29  C   UNL A   1      43.002  18.841  25.414  1.00  0.00     0.202 C 
BRANCH  29  30
ATOM     30  C   UNL A   1      43.912  19.914  26.022  1.00  0.00     0.261 C 
BRANCH  30  31
ATOM     31  O   UNL A   1      45.002  20.221  25.130  1.00  0.00    -0.460 OA
BRANCH  31  32
ATOM     32  C   UNL A   1      44.859  21.375  24.410  1.00  0.00     0.338 C 
ATOM     33  O   UNL A   1      44.534  21.403  23.234  1.00  0.00    -0.246 OA
BRANCH  32  34
ATOM     34  C   UNL A   1      45.376  22.535  25.197  1.00  0.00     0.060 A 
ATOM     35  C   UNL A   1      45.255  22.563  26.597  1.00  0.00     0.016 A 
ATOM     36  C   UNL A   1      45.677  23.708  24.512  1.00  0.00     0.016 A 
ATOM     37  C   UNL A   1      45.251  23.791  27.281  1.00  0.00     0.010 A 
ATOM     38  C   UNL A   1      45.529  24.912  25.167  1.00  0.00     0.010 A 
ATOM     39  C   UNL A   1      45.280  24.970  26.550  1.00  0.00    -0.014 A 
BRANCH  39  40
ATOM     40  C   UNL A   1      45.107  26.330  27.070  1.00  0.00     0.031 A 
ATOM     41  C   UNL A   1      43.731  26.865  27.056  1.00  0.00     0.074 A 
ATOM     42  C   UNL A   1      46.030  26.941  27.855  1.00  0.00     0.049 A 
ATOM     43  N   UNL A   1      43.411  28.044  27.450  1.00  0.00    -0.248 NA
ATOM     44  C   UNL A   1      42.590  26.092  26.575  1.00  0.00     0.031 C 
ATOM     45  C   UNL A   1      45.768  27.809  29.008  1.00  0.00     0.029 A 
ATOM     46  N   UNL A   1      47.422  26.880  27.832  1.00  0.00    -0.354 N 
ATOM     47  C   UNL A   1      42.047  28.062  27.612  1.00  0.00     0.074 A 
ATOM     48  C   UNL A   1      41.575  26.863  26.966  1.00  0.00     0.031 C 
ATOM     49  C   UNL A   1      46.918  28.356  29.433  1.00  0.00     0.029 A 
ATOM     50  C   UNL A   1      47.941  28.011  28.468  1.00  0.00     0.049 A 
ATOM     51  H   UNL A   1      47.956  26.156  27.430  1.00  0.00     0.167 HD
ATOM     52  C   UNL A   1      41.510  29.016  28.422  1.00  0.00     0.034 A 
ATOM     53  C   UNL A   1      48.822  28.828  27.836  1.00  0.00     0.034 A 
ATOM     54  C   UNL A   1      42.570  29.934  28.924  1.00  0.00     0.049 A 
ATOM     55  C   UNL A   1      48.200  30.187  27.667  1.00  0.00     0.074 A 
ATOM     56  C   UNL A   1      43.219  30.081  30.142  1.00  0.00     0.029 A 
ATOM     57  N   UNL A   1      43.341  30.659  28.009  1.00  0.00    -0.354 N 
ATOM     58  N   UNL A   1      47.030  30.514  28.142  1.00  0.00    -0.248 NA
ATOM     59  C   UNL A   1      48.821  31.280  26.946  1.00  0.00     0.031 C 
ATOM     60  C   UNL A   1      44.382  30.889  29.942  1.00  0.00     0.029 A 
ATOM     61  C   UNL A   1      44.440  31.269  28.610  1.00  0.00     0.049 A 
ATOM     62  H   UNL A   1      43.132  30.727  27.049  1.00  0.00     0.167 HD
ATOM     63  C   UNL A   1      46.630  31.723  27.660  1.00  0.00     0.074 A 
ATOM     64  C   UNL A   1      47.840  32.201  26.993  1.00  0.00     0.031 C 
ATOM     65  C   UNL A   1      45.331  32.149  27.821  1.00  0.00     0.034 A 
BRANCH  52  66
ATOM     66  C   UNL A   1      40.094  28.936  28.992  1.00  0.00     0.023 A 
ATOM     67  C   UNL A   1      39.024  29.153  28.097  1.00  0.00     0.012 A 
ATOM     68  C   UNL A   1      39.719  28.704  30.341  1.00  0.00     0.148 A 
ATOM     69  C   UNL A   1      37.688  29.223  28.516  1.00  0.00     0.002 A 
ATOM     70  C   UNL A   1      38.393  28.847  30.776  1.00  0.00     0.091 A 
ATOM     71  F   UNL A   1      40.611  28.234  31.215  1.00  0.00    -0.205 F 
ATOM     72  C   UNL A   1      37.374  29.106  29.862  1.00  0.00     0.022 A 
BRANCH  70  73
ATOM     73  S   UNL A   1      37.931  28.782  32.521  1.00  0.00     0.127 S 
ATOM     74  O   UNL A   1      38.946  29.636  33.146  1.00  0.00    -0.237 OA
ATOM     75  O   UNL A   1      36.586  29.353  32.515  1.00  0.00    -0.237 OA
ATOM     76  O   UNL A   1      38.023  27.380  32.911  1.00  0.00    -0.744 OA
ENDBRANCH  70  73
ENDBRANCH  52  66
BRANCH  53  77
ATOM     77  C   UNL A   1      49.703  28.071  26.886  1.00  0.00     0.023 A 
ATOM     78  C   UNL A   1      49.143  27.743  25.622  1.00  0.00     0.012 A 
ATOM     79  C   UNL A   1      51.105  28.132  27.000  1.00  0.00     0.148 A 
ATOM     80  C   UNL A   1      49.945  27.620  24.482  1.00  0.00     0.002 A 
ATOM     81  C   UNL A   1      51.895  28.050  25.851  1.00  0.00     0.091 A 
ATOM     82  F   UNL A   1      51.638  28.346  28.209  1.00  0.00    -0.205 F 
ATOM     83  C   UNL A   1      51.315  27.827  24.590  1.00  0.00     0.022 A 
BRANCH  81  84
ATOM     84  S   UNL A   1      53.659  28.403  25.890  1.00  0.00     0.127 S 
ATOM     85  O   UNL A   1      53.722  29.490  26.863  1.00  0.00    -0.237 OA
ATOM     86  O   UNL A   1      54.223  27.133  26.354  1.00  0.00    -0.237 OA
ATOM     87  O   UNL A   1      54.013  28.748  24.521  1.00  0.00    -0.744 OA
ENDBRANCH  81  84
ENDBRANCH  53  77
BRANCH  65  88
ATOM     88  C   UNL A   1      44.735  33.419  27.215  1.00  0.00     0.023 A 
ATOM     89  C   UNL A   1      44.219  33.478  25.910  1.00  0.00     0.012 A 
ATOM     90  C   UNL A   1      44.641  34.626  27.961  1.00  0.00     0.148 A 
ATOM     91  C   UNL A   1      43.584  34.610  25.392  1.00  0.00     0.002 A 
ATOM     92  C   UNL A   1      43.954  35.733  27.473  1.00  0.00     0.091 A 
ATOM     93  F   UNL A   1      45.274  34.747  29.133  1.00  0.00    -0.205 F 
ATOM     94  C   UNL A   1      43.420  35.727  26.185  1.00  0.00     0.022 A 
BRANCH  92  95
ATOM     95  S   UNL A   1      43.671  37.197  28.472  1.00  0.00     0.127 S 
ATOM     96  O   UNL A   1      44.954  37.887  28.347  1.00  0.00    -0.237 OA
ATOM     97  O   UNL A   1      42.562  37.836  27.763  1.00  0.00    -0.237 OA
ATOM     98  O   UNL A   1      43.339  36.716  29.805  1.00  0.00    -0.744 OA
ENDBRANCH  92  95
ENDBRANCH  65  88
ENDBRANCH  39  40
ENDBRANCH  32  34
ENDBRANCH  31  32
ENDBRANCH  30  31
ENDBRANCH  29  30
ENDBRANCH   1  29
TORSDOF 21
ENDMDL
MODEL 3
REMARK VINA RESULT:     -10.5      5.402     11.042
REMARK SMILES Cc1ccc(-c2cc([C@@H](C)C(=O)OCCOCCOC(=O)c3ccc(-c4c5nc(c(-c6cccc(S(=O)(=O)[O-])c6F)c6ccc([nH]6)c(-c6cccc(S(=O)(=O)[O-])c6F)c6nc(c(-c7cccc(S(=O)(=O)[O-])c7F)c7ccc4[nH]7)C=C6)C=C5)cc3)ccc2C[C@H]2CCCC2=O)cc1
REMARK SMILES IDX 16 1 15 2 14 3 13 4 11 5 12 6 9 7 10 8 8 9 6 10 7 11 87 12
REMARK SMILES IDX 86 13 85 14 5 15 1 16 2 17 3 18 96 19 4 20 95 21 88 22 89 23
REMARK SMILES IDX 90 24 93 25 91 26 92 27 94 28 17 29 18 30 19 31 20 32 21 33
REMARK SMILES IDX 22 34 23 35 84 36 24 37 83 38 25 39 26 40 27 41 77 42 28 43
REMARK SMILES IDX 82 44 76 45 78 46 29 47 81 48 75 49 74 50 30 52 62 53 42 54
REMARK SMILES IDX 61 55 43 56 46 57 60 58 79 59 44 60 45 61 59 63 80 64 47 65
REMARK SMILES IDX 31 66 32 67 40 68 33 69 35 70 41 71 34 72 36 73 37 74 38 75
REMARK SMILES IDX 39 76 63 77 64 78 72 79 65 80 67 81 73 82 66 83 68 84 69 85
REMARK SMILES IDX 70 86 71 87 48 88 49 89 57 90 50 91 52 92 58 93 51 94 53 95
REMARK SMILES IDX 54 96 55 97 56 98
REMARK H PARENT 78 51 46 62
REMARK Flexibility Score: inf
ROOT
ATOM      1  O   UNL A   1      42.553  19.750  26.865  1.00  0.00    -0.374 OA
ENDROOT
BRANCH   1   2
ATOM      2  C   UNL A   1      41.265  20.061  27.347  1.00  0.00     0.202 C 
BRANCH   2   3
ATOM      3  C   UNL A   1      41.113  21.546  27.300  1.00  0.00     0.261 C 
BRANCH   3   4
ATOM      4  O   UNL A   1      39.722  21.954  27.266  1.00  0.00    -0.463 OA
BRANCH   4   5
ATOM      5  C   UNL A   1      39.001  21.986  26.097  1.00  0.00     0.313 C 
ATOM      6  O   UNL A   1      38.876  21.092  25.292  1.00  0.00    -0.252 OA
BRANCH   5   7
ATOM      7  C   UNL A   1      38.297  23.340  25.967  1.00  0.00     0.126 C 
ATOM      8  C   UNL A   1      38.609  24.258  27.141  1.00  0.00     0.025 C 
BRANCH   7   9
ATOM      9  C   UNL A   1      36.813  23.106  25.709  1.00  0.00    -0.033 A 
ATOM     10  C   UNL A   1      34.938  21.530  25.675  1.00  0.00    -0.015 A 
ATOM     11  C   UNL A   1      36.322  21.799  25.665  1.00  0.00     0.013 A 
ATOM     12  C   UNL A   1      34.023  22.600  25.830  1.00  0.00    -0.039 A 
ATOM     13  C   UNL A   1      34.526  23.911  25.825  1.00  0.00     0.004 A 
ATOM     14  C   UNL A   1      35.893  24.161  25.719  1.00  0.00     0.005 A 
BRANCH  10  15
ATOM     15  C   UNL A   1      34.527  20.152  25.379  1.00  0.00    -0.018 A 
ATOM     16  C   UNL A   1      33.060  16.226  24.354  1.00  0.00     0.044 C 
ATOM     17  C   UNL A   1      33.583  17.585  24.704  1.00  0.00    -0.051 A 
ATOM     18  C   UNL A   1      32.751  18.489  25.366  1.00  0.00     0.004 A 
ATOM     19  C   UNL A   1      34.888  17.971  24.371  1.00  0.00     0.004 A 
ATOM     20  C   UNL A   1      33.216  19.760  25.690  1.00  0.00     0.009 A 
ATOM     21  C   UNL A   1      35.355  19.246  24.706  1.00  0.00     0.009 A 
ENDBRANCH  10  15
BRANCH  12  22
ATOM     22  C   UNL A   1      32.517  22.414  25.876  1.00  0.00     0.047 C 
BRANCH  22  23
ATOM     23  C   UNL A   1      31.635  22.936  24.733  1.00  0.00     0.060 C 
ATOM     24  C   UNL A   1      31.120  24.372  24.834  1.00  0.00     0.012 C 
ATOM     25  C   UNL A   1      32.279  22.892  23.368  1.00  0.00     0.136 C 
ATOM     26  C   UNL A   1      31.867  25.176  23.786  1.00  0.00     0.009 C 
ATOM     27  C   UNL A   1      32.266  24.224  22.673  1.00  0.00     0.076 C 
ATOM     28  O   UNL A   1      32.706  21.863  22.855  1.00  0.00    -0.299 OA
ENDBRANCH  22  23
ENDBRANCH  12  22
ENDBRANCH   7   9
ENDBRANCH   5   7
ENDBRANCH   4   5
ENDBRANCH   3   4
ENDBRANCH   2   3
ENDBRANCH   1   2
BRANCH   1  29
ATOM     29  C   UNL A   1      42.628  18.769  25.858  1.00  0.00     0.202 C 
BRANCH  29  30
ATOM     30  C   UNL A   1      43.893  18.880  25.000  1.00  0.00     0.261 C 
BRANCH  30  31
ATOM     31  O   UNL A   1      44.918  19.616  25.698  1.00  0.00    -0.460 OA
BRANCH  31  32
ATOM     32  C   UNL A   1      45.642  20.483  24.927  1.00  0.00     0.338 C 
ATOM     33  O   UNL A   1      46.693  20.188  24.380  1.00  0.00    -0.246 OA
BRANCH  32  34
ATOM     34  C   UNL A   1      45.084  21.863  25.051  1.00  0.00     0.060 A 
ATOM     35  C   UNL A   1      45.547  22.901  24.224  1.00  0.00     0.016 A 
ATOM     36  C   UNL A   1      44.350  22.172  26.192  1.00  0.00     0.016 A 
ATOM     37  C   UNL A   1      45.435  24.239  24.640  1.00  0.00     0.010 A 
ATOM     38  C   UNL A   1      44.373  23.469  26.660  1.00  0.00     0.010 A 
ATOM     39  C   UNL A   1      44.945  24.512  25.909  1.00  0.00    -0.014 A 
BRANCH  39  40
ATOM     40  C   UNL A   1      44.919  25.816  26.579  1.00  0.00     0.031 A 
ATOM     41  C   UNL A   1      43.608  26.492  26.639  1.00  0.00     0.074 A 
ATOM     42  C   UNL A   1      45.901  26.234  27.416  1.00  0.00     0.049 A 
ATOM     43  N   UNL A   1      43.416  27.648  27.165  1.00  0.00    -0.248 NA
ATOM     44  C   UNL A   1      42.391  25.904  26.089  1.00  0.00     0.031 C 
ATOM     45  C   UNL A   1      45.733  26.991  28.660  1.00  0.00     0.029 A 
ATOM     46  N   UNL A   1      47.279  26.027  27.369  1.00  0.00    -0.354 N 
ATOM     47  C   UNL A   1      42.062  27.794  27.344  1.00  0.00     0.074 A 
ATOM     48  C   UNL A   1      41.464  26.731  26.575  1.00  0.00     0.031 C 
ATOM     49  C   UNL A   1      46.936  27.362  29.129  1.00  0.00     0.029 A 
ATOM     50  C   UNL A   1      47.916  27.019  28.121  1.00  0.00     0.049 A 
ATOM     51  H   UNL A   1      47.732  25.300  26.884  1.00  0.00     0.167 HD
ATOM     52  C   UNL A   1      41.630  28.704  28.261  1.00  0.00     0.034 A 
ATOM     53  C   UNL A   1      48.880  27.802  27.573  1.00  0.00     0.034 A 
ATOM     54  C   UNL A   1      42.782  29.442  28.849  1.00  0.00     0.049 A 
ATOM     55  C   UNL A   1      48.407  29.231  27.562  1.00  0.00     0.074 A 
ATOM     56  C   UNL A   1      43.443  29.382  30.067  1.00  0.00     0.029 A 
ATOM     57  N   UNL A   1      43.627  30.177  28.010  1.00  0.00    -0.354 N 
ATOM     58  N   UNL A   1      47.279  29.625  28.084  1.00  0.00    -0.248 NA
ATOM     59  C   UNL A   1      49.142  30.324  26.959  1.00  0.00     0.031 C 
ATOM     60  C   UNL A   1      44.686  30.078  29.945  1.00  0.00     0.029 A 
ATOM     61  C   UNL A   1      44.785  30.596  28.662  1.00  0.00     0.049 A 
ATOM     62  H   UNL A   1      43.427  30.374  27.066  1.00  0.00     0.167 HD
ATOM     63  C   UNL A   1      47.012  30.916  27.743  1.00  0.00     0.074 A 
ATOM     64  C   UNL A   1      48.266  31.333  27.119  1.00  0.00     0.031 C 
ATOM     65  C   UNL A   1      45.765  31.458  27.965  1.00  0.00     0.034 A 
BRANCH  52  66
ATOM     66  C   UNL A   1      40.214  28.713  28.835  1.00  0.00     0.023 A 
ATOM     67  C   UNL A   1      39.154  28.961  27.936  1.00  0.00     0.012 A 
ATOM     68  C   UNL A   1      39.831  28.536  30.190  1.00  0.00     0.148 A 
ATOM     69  C   UNL A   1      37.824  29.111  28.355  1.00  0.00     0.002 A 
ATOM     70  C   UNL A   1      38.516  28.759  30.623  1.00  0.00     0.091 A 
ATOM     71  F   UNL A   1      40.700  28.043  31.075  1.00  0.00    -0.205 F 
ATOM     72  C   UNL A   1      37.509  29.046  29.703  1.00  0.00     0.022 A 
BRANCH  70  73
ATOM     73  S   UNL A   1      38.056  28.764  32.370  1.00  0.00     0.127 S 
ATOM     74  O   UNL A   1      38.191  27.351  32.734  1.00  0.00    -0.237 OA
ATOM     75  O   UNL A   1      39.067  29.638  32.962  1.00  0.00    -0.237 OA
ATOM     76  O   UNL A   1      36.684  29.255  32.424  1.00  0.00    -0.744 OA
ENDBRANCH  70  73
ENDBRANCH  52  66
BRANCH  53  77
ATOM     77  C   UNL A   1      49.675  27.066  26.535  1.00  0.00     0.023 A 
ATOM     78  C   UNL A   1      49.256  27.219  25.185  1.00  0.00     0.012 A 
ATOM     79  C   UNL A   1      51.009  26.690  26.782  1.00  0.00     0.148 A 
ATOM     80  C   UNL A   1      50.170  27.138  24.128  1.00  0.00     0.002 A 
ATOM     81  C   UNL A   1      51.922  26.652  25.726  1.00  0.00     0.091 A 
ATOM     82  F   UNL A   1      51.380  26.452  28.046  1.00  0.00    -0.205 F 
ATOM     83  C   UNL A   1      51.512  26.907  24.406  1.00  0.00     0.022 A 
BRANCH  81  84
ATOM     84  S   UNL A   1      53.688  26.459  26.011  1.00  0.00     0.127 S 
ATOM     85  O   UNL A   1      54.062  27.794  26.471  1.00  0.00    -0.237 OA
ATOM     86  O   UNL A   1      53.728  25.423  27.046  1.00  0.00    -0.237 OA
ATOM     87  O   UNL A   1      54.243  26.045  24.731  1.00  0.00    -0.744 OA
ENDBRANCH  81  84
ENDBRANCH  53  77
BRANCH  65  88
ATOM     88  C   UNL A   1      45.310  32.843  27.510  1.00  0.00     0.023 A 
ATOM     89  C   UNL A   1      45.212  33.214  26.159  1.00  0.00     0.012 A 
ATOM     90  C   UNL A   1      44.924  33.844  28.444  1.00  0.00     0.148 A 
ATOM     91  C   UNL A   1      44.700  34.446  25.741  1.00  0.00     0.002 A 
ATOM     92  C   UNL A   1      44.356  35.045  28.033  1.00  0.00     0.091 A 
ATOM     93  F   UNL A   1      45.164  33.678  29.750  1.00  0.00    -0.205 F 
ATOM     94  C   UNL A   1      44.239  35.349  26.678  1.00  0.00     0.022 A 
BRANCH  92  95
ATOM     95  S   UNL A   1      43.700  36.240  29.201  1.00  0.00     0.127 S 
ATOM     96  O   UNL A   1      42.840  35.395  30.029  1.00  0.00    -0.237 OA
ATOM     97  O   UNL A   1      44.916  36.710  29.866  1.00  0.00    -0.237 OA
ATOM     98  O   UNL A   1      43.018  37.249  28.405  1.00  0.00    -0.744 OA
ENDBRANCH  92  95
ENDBRANCH  65  88
ENDBRANCH  39  40
ENDBRANCH  32  34
ENDBRANCH  31  32
ENDBRANCH  30  31
ENDBRANCH  29  30
ENDBRANCH   1  29
TORSDOF 21
ENDMDL
