MODEL 1
REMARK VINA RESULT:     -10.9      0.000      0.000
REMARK SMILES NC(=O)C[C@H](NC(=O)C1(c2ccccc2)CCN(C(=O)[C@@H]2CCC[NH2+]2)CC1)C(=O)OCCOCCOC(=O)c1ccc(-c2c3nc(c(-c4cccc(S(=O)(=O)[O-])c4F)c4ccc([nH]4)c(-c4cccc(S(=O)(=O)[O-])c4F)c4nc(c(-c5cccc(S(=O)(=O)[O-])c5F)c5ccc2[nH]5)C=C4)C=C3)cc1
REMARK SMILES IDX 33 1 32 2 31 3 30 4 28 5 29 6 5 7 4 8 2 9 1 10 3 13 6 14
REMARK SMILES IDX 7 15 8 17 9 18 16 19 27 20 17 21 26 22 18 23 19 24 20 25
REMARK SMILES IDX 10 26 11 27 15 28 12 29 14 30 13 31 21 32 22 33 25 34 23 35
REMARK SMILES IDX 24 36 34 39 35 40 36 41 37 42 38 43 39 44 40 45 101 46 41 47
REMARK SMILES IDX 100 48 42 49 43 50 44 51 94 52 45 53 99 54 93 55 95 56 46 57
REMARK SMILES IDX 98 58 92 59 91 60 47 62 79 63 59 64 78 65 60 66 63 67 77 68
REMARK SMILES IDX 96 69 61 70 62 71 76 73 97 74 64 75 48 76 49 77 57 78 50 79
REMARK SMILES IDX 52 80 58 81 51 82 53 83 54 84 55 85 56 86 80 87 81 88 89 89
REMARK SMILES IDX 82 90 84 91 90 92 83 93 85 94 86 95 87 96 88 97 65 98 66 99
REMARK SMILES IDX 74 100 67 101 69 102 75 103 68 104 70 105 71 106 72 107
REMARK SMILES IDX 73 108
REMARK H PARENT 1 11 1 12 6 16 25 37 25 38 95 61 63 72
REMARK Flexibility Score: inf
ROOT
ATOM      1  O   UNL A   1      31.480  31.139  26.497  1.00  0.00    -0.374 OA
ENDROOT
BRANCH   1   2
ATOM      2  C   UNL A   1      32.213  30.164  27.237  1.00  0.00     0.202 C 
BRANCH   2   3
ATOM      3  C   UNL A   1      31.714  28.595  27.141  1.00  0.00     0.261 C 
BRANCH   3   4
ATOM      4  O   UNL A   1      30.719  27.631  25.669  1.00  0.00    -0.462 OA
BRANCH   4   5
ATOM      5  C   UNL A   1      30.095  26.781  24.778  1.00  0.00     0.329 C 
ATOM      6  O   UNL A   1      29.459  27.137  23.778  1.00  0.00    -0.250 OA
BRANCH   5   7
ATOM      7  C   UNL A   1      30.264  25.254  25.076  1.00  0.00     0.201 C 
BRANCH   7   8
ATOM      8  C   UNL A   1      30.827  25.137  26.500  1.00  0.00     0.136 C 
BRANCH   8   9
ATOM      9  C   UNL A   1      30.620  23.776  27.125  1.00  0.00     0.220 C 
ATOM     10  N   UNL A   1      29.342  23.310  27.215  1.00  0.00    -0.370 N 
ATOM     11  H   UNL A   1      29.168  22.427  27.615  1.00  0.00     0.159 HD
ATOM     12  H   UNL A   1      28.595  23.855  26.879  1.00  0.00     0.159 HD
ATOM     13  O   UNL A   1      31.542  23.107  27.579  1.00  0.00    -0.275 OA
ENDBRANCH   8   9
ENDBRANCH   7   8
BRANCH   7  14
ATOM     14  N   UNL A   1      30.738  24.112  24.237  1.00  0.00    -0.342 N 
ATOM     15  C   UNL A   1      31.912  23.448  24.053  1.00  0.00     0.231 C 
ATOM     16  H   UNL A   1      30.017  23.747  23.674  1.00  0.00     0.164 HD
ATOM     17  O   UNL A   1      31.799  22.251  23.769  1.00  0.00    -0.274 OA
BRANCH  15  18
ATOM     18  C   UNL A   1      33.285  24.145  24.024  1.00  0.00     0.077 C 
ATOM     19  C   UNL A   1      34.109  23.550  22.848  1.00  0.00     0.043 C 
ATOM     20  C   UNL A   1      34.034  23.926  25.366  1.00  0.00     0.043 C 
ATOM     21  C   UNL A   1      34.744  22.190  23.127  1.00  0.00     0.121 C 
ATOM     22  C   UNL A   1      34.625  22.516  25.523  1.00  0.00     0.121 C 
ATOM     23  N   UNL A   1      35.482  22.218  24.383  1.00  0.00    -0.337 N 
ATOM     24  C   UNL A   1      36.863  22.082  24.342  1.00  0.00     0.280 C 
ATOM     25  O   UNL A   1      37.431  21.964  23.244  1.00  0.00    -0.268 OA
BRANCH  18  26
ATOM     26  C   UNL A   1      33.052  25.608  23.705  1.00  0.00    -0.032 A 
ATOM     27  C   UNL A   1      32.384  26.124  22.105  1.00  0.00     0.005 A 
ATOM     28  C   UNL A   1      33.796  26.857  24.811  1.00  0.00     0.005 A 
ATOM     29  C   UNL A   1      32.487  27.850  21.586  1.00  0.00     0.000 A 
ATOM     30  C   UNL A   1      33.933  28.581  24.265  1.00  0.00     0.000 A 
ATOM     31  C   UNL A   1      33.227  29.078  22.676  1.00  0.00     0.000 A 
ENDBRANCH  18  26
BRANCH  24  32
ATOM     32  C   UNL A   1      37.753  22.037  25.602  1.00  0.00     0.272 C 
ATOM     33  C   UNL A   1      38.275  23.354  26.123  1.00  0.00     0.081 C 
ATOM     34  N   UNL A   1      38.945  21.169  25.507  1.00  0.00    -0.336 N 
ATOM     35  C   UNL A   1      39.321  22.906  27.133  1.00  0.00     0.068 C 
ATOM     36  C   UNL A   1      39.792  21.538  26.652  1.00  0.00     0.261 C 
ATOM     37  H   UNL A   1      39.438  21.336  24.630  1.00  0.00     0.346 HD
ATOM     38  H   UNL A   1      38.695  20.179  25.523  1.00  0.00     0.346 HD
ENDBRANCH  24  32
ENDBRANCH  15  18
ENDBRANCH   7  14
ENDBRANCH   5   7
ENDBRANCH   4   5
ENDBRANCH   3   4
ENDBRANCH   2   3
ENDBRANCH   1   2
BRANCH   1  39
ATOM     39  C   UNL A   1      31.652  32.528  26.697  1.00  0.00     0.202 C 
BRANCH  39  40
ATOM     40  C   UNL A   1      32.743  33.068  27.624  1.00  0.00     0.261 C 
BRANCH  40  41
ATOM     41  O   UNL A   1      32.340  34.065  28.560  1.00  0.00    -0.460 OA
BRANCH  41  42
ATOM     42  C   UNL A   1      33.175  35.099  28.792  1.00  0.00     0.338 C 
ATOM     43  O   UNL A   1      33.014  36.257  28.460  1.00  0.00    -0.246 OA
BRANCH  42  44
ATOM     44  C   UNL A   1      34.283  34.575  29.622  1.00  0.00     0.060 A 
ATOM     45  C   UNL A   1      35.591  34.562  29.130  1.00  0.00     0.016 A 
ATOM     46  C   UNL A   1      34.020  34.085  30.899  1.00  0.00     0.016 A 
ATOM     47  C   UNL A   1      36.626  34.009  29.903  1.00  0.00     0.010 A 
ATOM     48  C   UNL A   1      35.062  33.572  31.669  1.00  0.00     0.010 A 
ATOM     49  C   UNL A   1      36.368  33.476  31.176  1.00  0.00    -0.014 A 
BRANCH  49  50
ATOM     50  C   UNL A   1      37.415  32.737  31.947  1.00  0.00     0.031 A 
ATOM     51  C   UNL A   1      38.143  31.560  31.328  1.00  0.00     0.074 A 
ATOM     52  C   UNL A   1      37.710  33.070  33.221  1.00  0.00     0.049 A 
ATOM     53  N   UNL A   1      39.158  30.875  31.798  1.00  0.00    -0.248 NA
ATOM     54  C   UNL A   1      37.653  31.069  30.030  1.00  0.00     0.031 C 
ATOM     55  C   UNL A   1      37.013  34.076  34.020  1.00  0.00     0.029 A 
ATOM     56  N   UNL A   1      38.676  32.582  34.071  1.00  0.00    -0.354 N 
ATOM     57  C   UNL A   1      39.400  29.862  30.873  1.00  0.00     0.074 A 
ATOM     58  C   UNL A   1      38.389  29.984  29.848  1.00  0.00     0.031 C 
ATOM     59  C   UNL A   1      37.588  34.148  35.233  1.00  0.00     0.029 A 
ATOM     60  C   UNL A   1      38.703  33.204  35.297  1.00  0.00     0.049 A 
ATOM     61  H   UNL A   1      39.292  31.855  33.825  1.00  0.00     0.167 HD
ATOM     62  C   UNL A   1      40.401  28.949  30.835  1.00  0.00     0.034 A 
ATOM     63  C   UNL A   1      39.548  33.061  36.341  1.00  0.00     0.034 A 
ATOM     64  C   UNL A   1      41.463  28.871  31.802  1.00  0.00     0.049 A 
ATOM     65  C   UNL A   1      40.725  32.125  36.235  1.00  0.00     0.074 A 
ATOM     66  C   UNL A   1      42.598  28.078  31.771  1.00  0.00     0.029 A 
ATOM     67  N   UNL A   1      41.523  29.609  32.970  1.00  0.00    -0.354 N 
ATOM     68  N   UNL A   1      41.075  31.348  35.240  1.00  0.00    -0.248 NA
ATOM     69  C   UNL A   1      41.657  32.091  37.374  1.00  0.00     0.031 C 
ATOM     70  C   UNL A   1      43.344  28.337  32.927  1.00  0.00     0.029 A 
ATOM     71  C   UNL A   1      42.674  29.294  33.670  1.00  0.00     0.049 A 
ATOM     72  H   UNL A   1      40.846  30.263  33.260  1.00  0.00     0.167 HD
ATOM     73  C   UNL A   1      42.286  30.770  35.613  1.00  0.00     0.074 A 
ATOM     74  C   UNL A   1      42.618  31.297  36.920  1.00  0.00     0.031 C 
ATOM     75  C   UNL A   1      43.044  29.871  34.937  1.00  0.00     0.034 A 
BRANCH  62  76
ATOM     76  C   UNL A   1      40.457  28.022  29.646  1.00  0.00     0.023 A 
ATOM     77  C   UNL A   1      39.570  26.925  29.588  1.00  0.00     0.012 A 
ATOM     78  C   UNL A   1      41.332  28.258  28.567  1.00  0.00     0.148 A 
ATOM     79  C   UNL A   1      39.585  26.052  28.502  1.00  0.00     0.002 A 
ATOM     80  C   UNL A   1      41.305  27.410  27.464  1.00  0.00     0.091 A 
ATOM     81  F   UNL A   1      42.181  29.292  28.642  1.00  0.00    -0.205 F 
ATOM     82  C   UNL A   1      40.445  26.300  27.437  1.00  0.00     0.022 A 
BRANCH  80  83
ATOM     83  S   UNL A   1      42.306  27.706  26.001  1.00  0.00     0.127 S 
ATOM     84  O   UNL A   1      43.637  27.320  26.468  1.00  0.00    -0.237 OA
ATOM     85  O   UNL A   1      41.713  26.790  25.026  1.00  0.00    -0.237 OA
ATOM     86  O   UNL A   1      42.131  29.116  25.683  1.00  0.00    -0.744 OA
ENDBRANCH  80  83
ENDBRANCH  62  76
BRANCH  63  87
ATOM     87  C   UNL A   1      39.394  33.935  37.538  1.00  0.00     0.023 A 
ATOM     88  C   UNL A   1      39.902  35.250  37.493  1.00  0.00     0.012 A 
ATOM     89  C   UNL A   1      38.735  33.492  38.699  1.00  0.00     0.148 A 
ATOM     90  C   UNL A   1      39.783  36.097  38.593  1.00  0.00     0.002 A 
ATOM     91  C   UNL A   1      38.578  34.359  39.776  1.00  0.00     0.091 A 
ATOM     92  F   UNL A   1      38.268  32.235  38.724  1.00  0.00    -0.205 F 
ATOM     93  C   UNL A   1      39.114  35.656  39.731  1.00  0.00     0.022 A 
BRANCH  91  94
ATOM     94  S   UNL A   1      37.628  33.922  41.236  1.00  0.00     0.127 S 
ATOM     95  O   UNL A   1      38.518  32.974  41.900  1.00  0.00    -0.237 OA
ATOM     96  O   UNL A   1      37.494  35.217  41.906  1.00  0.00    -0.237 OA
ATOM     97  O   UNL A   1      36.375  33.371  40.738  1.00  0.00    -0.744 OA
ENDBRANCH  91  94
ENDBRANCH  63  87
BRANCH  75  98
ATOM     98  C   UNL A   1      44.335  29.412  35.565  1.00  0.00     0.023 A 
ATOM     99  C   UNL A   1      45.538  30.073  35.249  1.00  0.00     0.012 A 
ATOM    100  C   UNL A   1      44.345  28.389  36.535  1.00  0.00     0.148 A 
ATOM    101  C   UNL A   1      46.734  29.705  35.866  1.00  0.00     0.002 A 
ATOM    102  C   UNL A   1      45.534  28.056  37.177  1.00  0.00     0.091 A 
ATOM    103  F   UNL A   1      43.194  27.758  36.812  1.00  0.00    -0.205 F 
ATOM    104  C   UNL A   1      46.730  28.707  36.837  1.00  0.00     0.022 A 
BRANCH 102 105
ATOM    105  S   UNL A   1      45.605  26.844  38.503  1.00  0.00     0.127 S 
ATOM    106  O   UNL A   1      47.028  26.852  38.838  1.00  0.00    -0.237 OA
ATOM    107  O   UNL A   1      44.737  27.439  39.519  1.00  0.00    -0.237 OA
ATOM    108  O   UNL A   1      45.100  25.602  37.933  1.00  0.00    -0.744 OA
ENDBRANCH 102 105
ENDBRANCH  75  98
ENDBRANCH  49  50
ENDBRANCH  42  44
ENDBRANCH  41  42
ENDBRANCH  40  41
ENDBRANCH  39  40
ENDBRANCH   1  39
TORSDOF 23
ENDMDL
MODEL 2
REMARK VINA RESULT:     -10.4      6.346     13.275
REMARK SMILES NC(=O)C[C@H](NC(=O)C1(c2ccccc2)CCN(C(=O)[C@@H]2CCC[NH2+]2)CC1)C(=O)OCCOCCOC(=O)c1ccc(-c2c3nc(c(-c4cccc(S(=O)(=O)[O-])c4F)c4ccc([nH]4)c(-c4cccc(S(=O)(=O)[O-])c4F)c4nc(c(-c5cccc(S(=O)(=O)[O-])c5F)c5ccc2[nH]5)C=C4)C=C3)cc1
REMARK SMILES IDX 33 1 32 2 31 3 30 4 28 5 29 6 5 7 4 8 2 9 1 10 3 13 6 14
REMARK SMILES IDX 7 15 8 17 9 18 16 19 27 20 17 21 26 22 18 23 19 24 20 25
REMARK SMILES IDX 10 26 11 27 15 28 12 29 14 30 13 31 21 32 22 33 25 34 23 35
REMARK SMILES IDX 24 36 34 39 35 40 36 41 37 42 38 43 39 44 40 45 101 46 41 47
REMARK SMILES IDX 100 48 42 49 43 50 44 51 94 52 45 53 99 54 93 55 95 56 46 57
REMARK SMILES IDX 98 58 92 59 91 60 47 62 79 63 59 64 78 65 60 66 63 67 77 68
REMARK SMILES IDX 96 69 61 70 62 71 76 73 97 74 64 75 48 76 49 77 57 78 50 79
REMARK SMILES IDX 52 80 58 81 51 82 53 83 54 84 55 85 56 86 80 87 81 88 89 89
REMARK SMILES IDX 82 90 84 91 90 92 83 93 85 94 86 95 87 96 88 97 65 98 66 99
REMARK SMILES IDX 74 100 67 101 69 102 75 103 68 104 70 105 71 106 72 107
REMARK SMILES IDX 73 108
REMARK H PARENT 1 11 1 12 6 16 25 37 25 38 95 61 63 72
REMARK Flexibility Score: inf
ROOT
ATOM      1  O   UNL A   1      48.722  21.298  36.277  1.00  0.00    -0.374 OA
ENDROOT
BRANCH   1   2
ATOM      2  C   UNL A   1      47.548  20.798  35.640  1.00  0.00     0.202 C 
BRANCH   2   3
ATOM      3  C   UNL A   1      46.090  21.183  36.309  1.00  0.00     0.261 C 
BRANCH   3   4
ATOM      4  O   UNL A   1      44.803  22.674  35.858  1.00  0.00    -0.462 OA
BRANCH   4   5
ATOM      5  C   UNL A   1      43.769  23.525  35.517  1.00  0.00     0.329 C 
ATOM      6  O   UNL A   1      43.351  23.715  34.369  1.00  0.00    -0.250 OA
BRANCH   5   7
ATOM      7  C   UNL A   1      43.080  24.255  36.716  1.00  0.00     0.201 C 
BRANCH   7   8
ATOM      8  C   UNL A   1      41.813  24.924  36.163  1.00  0.00     0.136 C 
BRANCH   8   9
ATOM      9  C   UNL A   1      40.862  25.404  37.236  1.00  0.00     0.220 C 
ATOM     10  N   UNL A   1      40.248  24.461  38.003  1.00  0.00    -0.370 N 
ATOM     11  H   UNL A   1      39.622  24.735  38.713  1.00  0.00     0.159 HD
ATOM     12  H   UNL A   1      40.431  23.506  37.850  1.00  0.00     0.159 HD
ATOM     13  O   UNL A   1      40.601  26.590  37.409  1.00  0.00    -0.275 OA
ENDBRANCH   8   9
ENDBRANCH   7   8
BRANCH   7  14
ATOM     14  N   UNL A   1      43.626  25.047  37.860  1.00  0.00    -0.342 N 
ATOM     15  C   UNL A   1      44.090  26.313  38.046  1.00  0.00     0.231 C 
ATOM     16  H   UNL A   1      43.659  24.518  38.690  1.00  0.00     0.164 HD
ATOM     17  O   UNL A   1      43.893  26.784  39.172  1.00  0.00    -0.274 OA
BRANCH  15  18
ATOM     18  C   UNL A   1      44.948  27.064  37.011  1.00  0.00     0.077 C 
ATOM     19  C   UNL A   1      45.882  26.036  36.315  1.00  0.00     0.043 C 
ATOM     20  C   UNL A   1      45.789  28.170  37.700  1.00  0.00     0.043 C 
ATOM     21  C   UNL A   1      47.114  25.632  37.122  1.00  0.00     0.121 C 
ATOM     22  C   UNL A   1      46.999  27.632  38.481  1.00  0.00     0.121 C 
ATOM     23  N   UNL A   1      47.821  26.813  37.601  1.00  0.00    -0.337 N 
ATOM     24  C   UNL A   1      49.089  27.073  37.099  1.00  0.00     0.280 C 
ATOM     25  O   UNL A   1      49.574  26.313  36.245  1.00  0.00    -0.268 OA
BRANCH  18  26
ATOM     26  C   UNL A   1      44.014  27.604  35.946  1.00  0.00    -0.032 A 
ATOM     27  C   UNL A   1      42.696  28.772  36.359  1.00  0.00     0.005 A 
ATOM     28  C   UNL A   1      44.004  26.779  34.316  1.00  0.00     0.005 A 
ATOM     29  C   UNL A   1      41.360  29.092  35.188  1.00  0.00     0.000 A 
ATOM     30  C   UNL A   1      42.635  27.074  33.163  1.00  0.00     0.000 A 
ATOM     31  C   UNL A   1      41.348  28.273  33.584  1.00  0.00     0.000 A 
ENDBRANCH  18  26
BRANCH  24  32
ATOM     32  C   UNL A   1      49.964  28.255  37.565  1.00  0.00     0.272 C 
ATOM     33  C   UNL A   1      49.484  29.644  37.221  1.00  0.00     0.081 C 
ATOM     34  N   UNL A   1      51.371  28.219  37.116  1.00  0.00    -0.336 N 
ATOM     35  C   UNL A   1      50.704  30.494  37.547  1.00  0.00     0.068 C 
ATOM     36  C   UNL A   1      51.903  29.566  37.381  1.00  0.00     0.261 C 
ATOM     37  H   UNL A   1      51.422  28.005  36.120  1.00  0.00     0.346 HD
ATOM     38  H   UNL A   1      51.906  27.498  37.602  1.00  0.00     0.346 HD
ENDBRANCH  24  32
ENDBRANCH  15  18
ENDBRANCH   7  14
ENDBRANCH   5   7
ENDBRANCH   4   5
ENDBRANCH   3   4
ENDBRANCH   2   3
ENDBRANCH   1   2
BRANCH   1  39
ATOM     39  C   UNL A   1      49.971  20.641  36.187  1.00  0.00     0.202 C 
BRANCH  39  40
ATOM     40  C   UNL A   1      50.971  20.983  35.080  1.00  0.00     0.261 C 
BRANCH  40  41
ATOM     41  O   UNL A   1      50.514  21.880  34.071  1.00  0.00    -0.460 OA
BRANCH  41  42
ATOM     42  C   UNL A   1      51.038  23.123  34.036  1.00  0.00     0.338 C 
ATOM     43  O   UNL A   1      52.179  23.442  34.311  1.00  0.00    -0.246 OA
BRANCH  42  44
ATOM     44  C   UNL A   1      49.987  24.016  33.499  1.00  0.00     0.060 A 
ATOM     45  C   UNL A   1      50.290  24.946  32.502  1.00  0.00     0.016 A 
ATOM     46  C   UNL A   1      48.688  23.934  33.997  1.00  0.00     0.016 A 
ATOM     47  C   UNL A   1      49.299  25.828  32.040  1.00  0.00     0.010 A 
ATOM     48  C   UNL A   1      47.707  24.792  33.505  1.00  0.00     0.010 A 
ATOM     49  C   UNL A   1      47.996  25.783  32.561  1.00  0.00    -0.014 A 
BRANCH  49  50
ATOM     50  C   UNL A   1      46.971  26.814  32.209  1.00  0.00     0.031 A 
ATOM     51  C   UNL A   1      46.039  26.606  31.032  1.00  0.00     0.074 A 
ATOM     52  C   UNL A   1      46.874  27.969  32.901  1.00  0.00     0.049 A 
ATOM     53  N   UNL A   1      45.015  27.330  30.648  1.00  0.00    -0.248 NA
ATOM     54  C   UNL A   1      46.306  25.454  30.154  1.00  0.00     0.031 C 
ATOM     55  C   UNL A   1      47.778  28.399  33.967  1.00  0.00     0.029 A 
ATOM     56  N   UNL A   1      45.968  28.999  32.797  1.00  0.00    -0.354 N 
ATOM     57  C   UNL A   1      44.544  26.742  29.477  1.00  0.00     0.074 A 
ATOM     58  C   UNL A   1      45.430  25.640  29.179  1.00  0.00     0.031 C 
ATOM     59  C   UNL A   1      47.366  29.591  34.435  1.00  0.00     0.029 A 
ATOM     60  C   UNL A   1      46.164  30.006  33.714  1.00  0.00     0.049 A 
ATOM     61  H   UNL A   1      45.245  29.015  32.130  1.00  0.00     0.167 HD
ATOM     62  C   UNL A   1      43.445  27.041  28.742  1.00  0.00     0.034 A 
ATOM     63  C   UNL A   1      45.442  31.117  33.972  1.00  0.00     0.034 A 
ATOM     64  C   UNL A   1      42.507  28.079  29.074  1.00  0.00     0.049 A 
ATOM     65  C   UNL A   1      44.158  31.372  33.223  1.00  0.00     0.074 A 
ATOM     66  C   UNL A   1      41.291  28.364  28.476  1.00  0.00     0.029 A 
ATOM     67  N   UNL A   1      42.677  29.001  30.091  1.00  0.00    -0.354 N 
ATOM     68  N   UNL A   1      43.600  30.662  32.274  1.00  0.00    -0.248 NA
ATOM     69  C   UNL A   1      43.374  32.552  33.624  1.00  0.00     0.031 C 
ATOM     70  C   UNL A   1      40.727  29.464  29.133  1.00  0.00     0.029 A 
ATOM     71  C   UNL A   1      41.590  29.857  30.141  1.00  0.00     0.049 A 
ATOM     72  H   UNL A   1      43.457  29.042  30.692  1.00  0.00     0.167 HD
ATOM     73  C   UNL A   1      42.384  31.281  31.997  1.00  0.00     0.074 A 
ATOM     74  C   UNL A   1      42.278  32.416  32.889  1.00  0.00     0.031 C 
ATOM     75  C   UNL A   1      41.448  30.944  31.074  1.00  0.00     0.034 A 
BRANCH  62  76
ATOM     76  C   UNL A   1      43.136  26.160  27.557  1.00  0.00     0.023 A 
ATOM     77  C   UNL A   1      43.481  26.604  26.263  1.00  0.00     0.012 A 
ATOM     78  C   UNL A   1      42.563  24.883  27.717  1.00  0.00     0.148 A 
ATOM     79  C   UNL A   1      43.220  25.816  25.144  1.00  0.00     0.002 A 
ATOM     80  C   UNL A   1      42.352  24.081  26.599  1.00  0.00     0.091 A 
ATOM     81  F   UNL A   1      42.223  24.480  28.948  1.00  0.00    -0.205 F 
ATOM     82  C   UNL A   1      42.665  24.551  25.313  1.00  0.00     0.022 A 
BRANCH  80  83
ATOM     83  S   UNL A   1      41.733  22.399  26.726  1.00  0.00     0.127 S 
ATOM     84  O   UNL A   1      42.623  21.830  27.737  1.00  0.00    -0.237 OA
ATOM     85  O   UNL A   1      40.355  22.605  27.175  1.00  0.00    -0.237 OA
ATOM     86  O   UNL A   1      41.850  21.833  25.390  1.00  0.00    -0.744 OA
ENDBRANCH  80  83
ENDBRANCH  62  76
BRANCH  63  87
ATOM     87  C   UNL A   1      45.842  32.011  35.095  1.00  0.00     0.023 A 
ATOM     88  C   UNL A   1      46.821  33.000  34.865  1.00  0.00     0.012 A 
ATOM     89  C   UNL A   1      45.253  31.909  36.368  1.00  0.00     0.148 A 
ATOM     90  C   UNL A   1      47.227  33.852  35.890  1.00  0.00     0.002 A 
ATOM     91  C   UNL A   1      45.630  32.794  37.374  1.00  0.00     0.091 A 
ATOM     92  F   UNL A   1      44.333  30.955  36.568  1.00  0.00    -0.205 F 
ATOM     93  C   UNL A   1      46.626  33.756  37.142  1.00  0.00     0.022 A 
BRANCH  91  94
ATOM     94  S   UNL A   1      44.828  32.826  38.981  1.00  0.00     0.127 S 
ATOM     95  O   UNL A   1      45.465  33.980  39.610  1.00  0.00    -0.237 OA
ATOM     96  O   UNL A   1      43.425  33.019  38.614  1.00  0.00    -0.237 OA
ATOM     97  O   UNL A   1      45.117  31.535  39.590  1.00  0.00    -0.744 OA
ENDBRANCH  91  94
ENDBRANCH  63  87
BRANCH  75  98
ATOM     98  C   UNL A   1      40.198  31.781  30.989  1.00  0.00     0.023 A 
ATOM     99  C   UNL A   1      40.226  33.008  30.297  1.00  0.00     0.012 A 
ATOM    100  C   UNL A   1      38.976  31.313  31.514  1.00  0.00     0.148 A 
ATOM    101  C   UNL A   1      39.065  33.768  30.152  1.00  0.00     0.002 A 
ATOM    102  C   UNL A   1      37.814  32.056  31.328  1.00  0.00     0.091 A 
ATOM    103  F   UNL A   1      38.969  30.152  32.185  1.00  0.00    -0.205 F 
ATOM    104  C   UNL A   1      37.859  33.288  30.657  1.00  0.00     0.022 A 
BRANCH 102 105
ATOM    105  S   UNL A   1      36.201  31.473  31.867  1.00  0.00     0.127 S 
ATOM    106  O   UNL A   1      36.311  31.591  33.320  1.00  0.00    -0.237 OA
ATOM    107  O   UNL A   1      35.295  32.437  31.245  1.00  0.00    -0.237 OA
ATOM    108  O   UNL A   1      36.079  30.114  31.355  1.00  0.00    -0.744 OA
ENDBRANCH 102 105
ENDBRANCH  75  98
ENDBRANCH  49  50
ENDBRANCH  42  44
ENDBRANCH  41  42
ENDBRANCH  40  41
ENDBRANCH  39  40
ENDBRANCH   1  39
TORSDOF 23
ENDMDL
MODEL 3
REMARK VINA RESULT:     -10.2      5.246      9.999
REMARK SMILES NC(=O)C[C@H](NC(=O)C1(c2ccccc2)CCN(C(=O)[C@@H]2CCC[NH2+]2)CC1)C(=O)OCCOCCOC(=O)c1ccc(-c2c3nc(c(-c4cccc(S(=O)(=O)[O-])c4F)c4ccc([nH]4)c(-c4cccc(S(=O)(=O)[O-])c4F)c4nc(c(-c5cccc(S(=O)(=O)[O-])c5F)c5ccc2[nH]5)C=C4)C=C3)cc1
REMARK SMILES IDX 33 1 32 2 31 3 30 4 28 5 29 6 5 7 4 8 2 9 1 10 3 13 6 14
REMARK SMILES IDX 7 15 8 17 9 18 16 19 27 20 17 21 26 22 18 23 19 24 20 25
REMARK SMILES IDX 10 26 11 27 15 28 12 29 14 30 13 31 21 32 22 33 25 34 23 35
REMARK SMILES IDX 24 36 34 39 35 40 36 41 37 42 38 43 39 44 40 45 101 46 41 47
REMARK SMILES IDX 100 48 42 49 43 50 44 51 94 52 45 53 99 54 93 55 95 56 46 57
REMARK SMILES IDX 98 58 92 59 91 60 47 62 79 63 59 64 78 65 60 66 63 67 77 68
REMARK SMILES IDX 96 69 61 70 62 71 76 73 97 74 64 75 48 76 49 77 57 78 50 79
REMARK SMILES IDX 52 80 58 81 51 82 53 83 54 84 55 85 56 86 80 87 81 88 89 89
REMARK SMILES IDX 82 90 84 91 90 92 83 93 85 94 86 95 87 96 88 97 65 98 66 99
REMARK SMILES IDX 74 100 67 101 69 102 75 103 68 104 70 105 71 106 72 107
REMARK SMILES IDX 73 108
REMARK H PARENT 1 11 1 12 6 16 25 37 25 38 95 61 63 72
REMARK Flexibility Score: inf
ROOT
ATOM      1  O   UNL A   1      38.377  22.574  25.244  1.00  0.00    -0.374 OA
ENDROOT
BRANCH   1   2
ATOM      2  C   UNL A   1      36.953  22.610  25.311  1.00  0.00     0.202 C 
BRANCH   2   3
ATOM      3  C   UNL A   1      36.124  22.790  23.897  1.00  0.00     0.261 C 
BRANCH   3   4
ATOM      4  O   UNL A   1      34.141  22.680  23.526  1.00  0.00    -0.462 OA
BRANCH   4   5
ATOM      5  C   UNL A   1      32.781  22.826  23.335  1.00  0.00     0.329 C 
ATOM      6  O   UNL A   1      31.922  21.994  23.656  1.00  0.00    -0.250 OA
BRANCH   5   7
ATOM      7  C   UNL A   1      32.335  24.181  22.695  1.00  0.00     0.201 C 
BRANCH   7   8
ATOM      8  C   UNL A   1      33.596  24.837  22.113  1.00  0.00     0.136 C 
BRANCH   8   9
ATOM      9  C   UNL A   1      33.307  26.021  21.218  1.00  0.00     0.220 C 
ATOM     10  N   UNL A   1      32.538  25.806  20.113  1.00  0.00    -0.370 N 
ATOM     11  H   UNL A   1      32.328  26.552  19.507  1.00  0.00     0.159 HD
ATOM     12  H   UNL A   1      32.192  24.904  19.923  1.00  0.00     0.159 HD
ATOM     13  O   UNL A   1      33.763  27.140  21.429  1.00  0.00    -0.275 OA
ENDBRANCH   8   9
ENDBRANCH   7   8
BRANCH   7  14
ATOM     14  N   UNL A   1      31.363  25.228  23.133  1.00  0.00    -0.342 N 
ATOM     15  C   UNL A   1      31.393  26.319  23.948  1.00  0.00     0.231 C 
ATOM     16  H   UNL A   1      30.474  25.096  22.730  1.00  0.00     0.164 HD
ATOM     17  O   UNL A   1      30.641  27.243  23.616  1.00  0.00    -0.274 OA
BRANCH  15  18
ATOM     18  C   UNL A   1      32.164  26.362  25.280  1.00  0.00     0.077 C 
ATOM     19  C   UNL A   1      31.356  27.232  26.283  1.00  0.00     0.043 C 
ATOM     20  C   UNL A   1      33.579  26.964  25.071  1.00  0.00     0.043 C 
ATOM     21  C   UNL A   1      31.497  28.740  26.091  1.00  0.00     0.121 C 
ATOM     22  C   UNL A   1      33.583  28.490  24.887  1.00  0.00     0.121 C 
ATOM     23  N   UNL A   1      32.902  29.117  26.013  1.00  0.00    -0.337 N 
ATOM     24  C   UNL A   1      33.436  29.893  27.033  1.00  0.00     0.280 C 
ATOM     25  O   UNL A   1      32.713  30.225  27.987  1.00  0.00    -0.268 OA
BRANCH  18  26
ATOM     26  C   UNL A   1      32.193  24.954  25.840  1.00  0.00    -0.032 A 
ATOM     27  C   UNL A   1      30.671  24.104  26.321  1.00  0.00     0.005 A 
ATOM     28  C   UNL A   1      33.805  24.273  26.364  1.00  0.00     0.005 A 
ATOM     29  C   UNL A   1      30.739  22.618  27.343  1.00  0.00     0.000 A 
ATOM     30  C   UNL A   1      33.863  22.804  27.425  1.00  0.00     0.000 A 
ATOM     31  C   UNL A   1      32.329  21.951  27.864  1.00  0.00     0.000 A 
ENDBRANCH  18  26
BRANCH  24  32
ATOM     32  C   UNL A   1      34.891  30.407  27.041  1.00  0.00     0.272 C 
ATOM     33  C   UNL A   1      35.949  29.466  27.564  1.00  0.00     0.081 C 
ATOM     34  N   UNL A   1      35.114  31.672  27.771  1.00  0.00    -0.336 N 
ATOM     35  C   UNL A   1      37.151  30.388  27.709  1.00  0.00     0.068 C 
ATOM     36  C   UNL A   1      36.572  31.781  27.930  1.00  0.00     0.261 C 
ATOM     37  H   UNL A   1      34.656  31.643  28.682  1.00  0.00     0.346 HD
ATOM     38  H   UNL A   1      34.725  32.472  27.270  1.00  0.00     0.346 HD
ENDBRANCH  24  32
ENDBRANCH  15  18
ENDBRANCH   7  14
ENDBRANCH   5   7
ENDBRANCH   4   5
ENDBRANCH   3   4
ENDBRANCH   2   3
ENDBRANCH   1   2
BRANCH   1  39
ATOM     39  C   UNL A   1      39.165  21.908  26.212  1.00  0.00     0.202 C 
BRANCH  39  40
ATOM     40  C   UNL A   1      40.173  22.668  27.076  1.00  0.00     0.261 C 
BRANCH  40  41
ATOM     41  O   UNL A   1      40.433  24.019  26.703  1.00  0.00    -0.460 OA
BRANCH  41  42
ATOM     42  C   UNL A   1      41.718  24.418  26.603  1.00  0.00     0.338 C 
ATOM     43  O   UNL A   1      42.622  23.836  26.035  1.00  0.00    -0.246 OA
BRANCH  42  44
ATOM     44  C   UNL A   1      41.800  25.756  27.230  1.00  0.00     0.060 A 
ATOM     45  C   UNL A   1      41.397  26.894  26.527  1.00  0.00     0.016 A 
ATOM     46  C   UNL A   1      42.291  25.883  28.528  1.00  0.00     0.016 A 
ATOM     47  C   UNL A   1      41.534  28.165  27.110  1.00  0.00     0.010 A 
ATOM     48  C   UNL A   1      42.388  27.147  29.108  1.00  0.00     0.010 A 
ATOM     49  C   UNL A   1      42.063  28.311  28.402  1.00  0.00    -0.014 A 
BRANCH  49  50
ATOM     50  C   UNL A   1      42.372  29.656  28.980  1.00  0.00     0.031 A 
ATOM     51  C   UNL A   1      41.361  30.371  29.854  1.00  0.00     0.074 A 
ATOM     52  C   UNL A   1      43.536  30.283  28.707  1.00  0.00     0.049 A 
ATOM     53  N   UNL A   1      41.497  31.483  30.536  1.00  0.00    -0.248 NA
ATOM     54  C   UNL A   1      40.016  29.780  29.955  1.00  0.00     0.031 C 
ATOM     55  C   UNL A   1      44.559  29.810  27.776  1.00  0.00     0.029 A 
ATOM     56  N   UNL A   1      44.047  31.467  29.189  1.00  0.00    -0.354 N 
ATOM     57  C   UNL A   1      40.255  31.736  31.112  1.00  0.00     0.074 A 
ATOM     58  C   UNL A   1      39.363  30.698  30.651  1.00  0.00     0.031 C 
ATOM     59  C   UNL A   1      45.583  30.680  27.772  1.00  0.00     0.029 A 
ATOM     60  C   UNL A   1      45.299  31.767  28.708  1.00  0.00     0.049 A 
ATOM     61  H   UNL A   1      43.561  32.045  29.820  1.00  0.00     0.167 HD
ATOM     62  C   UNL A   1      39.891  32.701  31.991  1.00  0.00     0.034 A 
ATOM     63  C   UNL A   1      46.141  32.779  29.011  1.00  0.00     0.034 A 
ATOM     64  C   UNL A   1      40.789  33.690  32.525  1.00  0.00     0.049 A 
ATOM     65  C   UNL A   1      45.767  33.777  30.078  1.00  0.00     0.074 A 
ATOM     66  C   UNL A   1      40.552  34.616  33.528  1.00  0.00     0.029 A 
ATOM     67  N   UNL A   1      42.092  33.882  32.104  1.00  0.00    -0.354 N 
ATOM     68  N   UNL A   1      44.671  33.852  30.791  1.00  0.00    -0.248 NA
ATOM     69  C   UNL A   1      46.773  34.795  30.422  1.00  0.00     0.031 C 
ATOM     70  C   UNL A   1      41.716  35.371  33.710  1.00  0.00     0.029 A 
ATOM     71  C   UNL A   1      42.676  34.910  32.825  1.00  0.00     0.049 A 
ATOM     72  H   UNL A   1      42.540  33.363  31.397  1.00  0.00     0.167 HD
ATOM     73  C   UNL A   1      44.873  34.891  31.695  1.00  0.00     0.074 A 
ATOM     74  C   UNL A   1      46.202  35.408  31.451  1.00  0.00     0.031 C 
ATOM     75  C   UNL A   1      44.023  35.380  32.634  1.00  0.00     0.034 A 
BRANCH  62  76
ATOM     76  C   UNL A   1      38.478  32.671  32.518  1.00  0.00     0.023 A 
ATOM     77  C   UNL A   1      38.224  32.063  33.766  1.00  0.00     0.012 A 
ATOM     78  C   UNL A   1      37.418  33.284  31.823  1.00  0.00     0.148 A 
ATOM     79  C   UNL A   1      36.933  32.022  34.291  1.00  0.00     0.002 A 
ATOM     80  C   UNL A   1      36.141  33.284  32.378  1.00  0.00     0.091 A 
ATOM     81  F   UNL A   1      37.669  33.843  30.630  1.00  0.00    -0.205 F 
ATOM     82  C   UNL A   1      35.895  32.641  33.602  1.00  0.00     0.022 A 
BRANCH  80  83
ATOM     83  S   UNL A   1      34.761  34.141  31.611  1.00  0.00     0.127 S 
ATOM     84  O   UNL A   1      34.914  33.758  30.208  1.00  0.00    -0.237 OA
ATOM     85  O   UNL A   1      33.607  33.541  32.284  1.00  0.00    -0.237 OA
ATOM     86  O   UNL A   1      34.960  35.553  31.906  1.00  0.00    -0.744 OA
ENDBRANCH  80  83
ENDBRANCH  62  76
BRANCH  63  87
ATOM     87  C   UNL A   1      47.495  32.820  28.390  1.00  0.00     0.023 A 
ATOM     88  C   UNL A   1      48.463  31.881  28.802  1.00  0.00     0.012 A 
ATOM     89  C   UNL A   1      47.824  33.754  27.391  1.00  0.00     0.148 A 
ATOM     90  C   UNL A   1      49.744  31.889  28.250  1.00  0.00     0.002 A 
ATOM     91  C   UNL A   1      49.088  33.727  26.811  1.00  0.00     0.091 A 
ATOM     92  F   UNL A   1      46.892  34.644  27.022  1.00  0.00    -0.205 F 
ATOM     93  C   UNL A   1      50.054  32.806  27.249  1.00  0.00     0.022 A 
BRANCH  91  94
ATOM     94  S   UNL A   1      49.542  34.786  25.433  1.00  0.00     0.127 S 
ATOM     95  O   UNL A   1      50.632  34.031  24.822  1.00  0.00    -0.237 OA
ATOM     96  O   UNL A   1      48.301  34.818  24.657  1.00  0.00    -0.237 OA
ATOM     97  O   UNL A   1      49.912  36.064  26.026  1.00  0.00    -0.744 OA
ENDBRANCH  91  94
ENDBRANCH  63  87
BRANCH  75  98
ATOM     98  C   UNL A   1      44.500  36.513  33.505  1.00  0.00     0.023 A 
ATOM     99  C   UNL A   1      45.237  36.234  34.673  1.00  0.00     0.012 A 
ATOM    100  C   UNL A   1      44.298  37.855  33.121  1.00  0.00     0.148 A 
ATOM    101  C   UNL A   1      45.741  37.270  35.459  1.00  0.00     0.002 A 
ATOM    102  C   UNL A   1      44.841  38.882  33.888  1.00  0.00     0.091 A 
ATOM    103  F   UNL A   1      43.580  38.105  32.016  1.00  0.00    -0.205 F 
ATOM    104  C   UNL A   1      45.553  38.591  35.062  1.00  0.00     0.022 A 
BRANCH 102 105
ATOM    105  S   UNL A   1      44.724  40.610  33.404  1.00  0.00     0.127 S 
ATOM    106  O   UNL A   1      45.406  40.604  32.111  1.00  0.00    -0.237 OA
ATOM    107  O   UNL A   1      43.278  40.817  33.328  1.00  0.00    -0.237 OA
ATOM    108  O   UNL A   1      45.386  41.364  34.460  1.00  0.00    -0.744 OA
ENDBRANCH 102 105
ENDBRANCH  75  98
ENDBRANCH  49  50
ENDBRANCH  42  44
ENDBRANCH  41  42
ENDBRANCH  40  41
ENDBRANCH  39  40
ENDBRANCH   1  39
TORSDOF 23
ENDMDL
