MODEL 1
REMARK VINA RESULT:     -10.0      0.000      0.000
REMARK SMILES Cc1cc(C)cc(-c2ccc([C@@H](C)C(=O)OCCOCCOC(=O)c3ccc(-c4c5nc(c(-c6cccc(S(=O)(=O)[O-])c6F)c6ccc([nH]6)c(-c6cccc(S(=O)(=O)[O-])c6F)c6nc(c(-c7cccc(S(=O)(=O)[O-])c7F)c7ccc4[nH]7)C=C6)C=C5)cc3)cc2F)c1
REMARK SMILES IDX 20 1 19 2 18 3 17 4 16 5 14 6 15 7 12 8 13 9 11 10 8 11 9 12
REMARK SMILES IDX 89 13 10 14 88 15 90 16 7 17 1 18 2 19 3 20 91 21 4 22 5 23
REMARK SMILES IDX 6 24 21 25 22 26 23 27 24 28 25 29 26 30 87 31 27 32 86 33
REMARK SMILES IDX 28 34 29 35 30 36 80 37 31 38 85 39 79 40 81 41 32 42 84 43
REMARK SMILES IDX 78 44 77 45 33 47 65 48 45 49 64 50 46 51 49 52 63 53 82 54
REMARK SMILES IDX 47 55 48 56 62 58 83 59 50 60 34 61 35 62 43 63 36 64 38 65
REMARK SMILES IDX 44 66 37 67 39 68 40 69 41 70 42 71 66 72 67 73 75 74 68 75
REMARK SMILES IDX 70 76 76 77 69 78 71 79 72 80 73 81 74 82 51 83 52 84 60 85
REMARK SMILES IDX 53 86 55 87 61 88 54 89 56 90 57 91 58 92 59 93
REMARK H PARENT 81 46 49 57
REMARK Flexibility Score: inf
ROOT
ATOM      1  C   UNL A   1      42.122  19.713  26.454  1.00  0.00     0.202 C 
ENDROOT
BRANCH   1   2
ATOM      2  O   UNL A   1      42.648  19.388  25.167  1.00  0.00    -0.374 OA
BRANCH   2   3
ATOM      3  C   UNL A   1      43.963  18.833  25.122  1.00  0.00     0.202 C 
BRANCH   3   4
ATOM      4  C   UNL A   1      45.067  19.744  24.575  1.00  0.00     0.261 C 
BRANCH   4   5
ATOM      5  O   UNL A   1      45.595  20.606  25.599  1.00  0.00    -0.463 OA
BRANCH   5   6
ATOM      6  C   UNL A   1      45.591  21.935  25.320  1.00  0.00     0.313 C 
ATOM      7  O   UNL A   1      46.528  22.542  24.808  1.00  0.00    -0.252 OA
BRANCH   6   8
ATOM      8  C   UNL A   1      44.308  22.642  25.728  1.00  0.00     0.126 C 
ATOM      9  C   UNL A   1      43.924  23.652  24.649  1.00  0.00     0.025 C 
BRANCH   8  10
ATOM     10  C   UNL A   1      44.241  23.243  27.128  1.00  0.00    -0.031 A 
ATOM     11  C   UNL A   1      44.283  24.157  29.835  1.00  0.00     0.017 A 
ATOM     12  C   UNL A   1      43.132  23.577  29.277  1.00  0.00     0.012 A 
ATOM     13  C   UNL A   1      45.388  24.317  28.992  1.00  0.00     0.131 A 
ATOM     14  C   UNL A   1      43.109  23.128  27.946  1.00  0.00     0.005 A 
ATOM     15  C   UNL A   1      45.375  23.872  27.667  1.00  0.00     0.044 A 
ATOM     16  F   UNL A   1      46.521  24.870  29.456  1.00  0.00    -0.206 F 
BRANCH  11  17
ATOM     17  C   UNL A   1      44.333  24.517  31.265  1.00  0.00    -0.015 A 
ATOM     18  C   UNL A   1      44.171  22.864  34.712  1.00  0.00     0.044 C 
ATOM     19  C   UNL A   1      44.268  23.902  33.633  1.00  0.00    -0.050 A 
ATOM     20  C   UNL A   1      44.409  25.251  33.984  1.00  0.00     0.006 A 
ATOM     21  C   UNL A   1      44.226  23.546  32.275  1.00  0.00     0.012 A 
ATOM     22  C   UNL A   1      44.506  26.239  33.000  1.00  0.00    -0.050 A 
ATOM     23  C   UNL A   1      44.657  27.678  33.398  1.00  0.00     0.044 C 
ATOM     24  C   UNL A   1      44.474  25.862  31.651  1.00  0.00     0.012 A 
ENDBRANCH  11  17
ENDBRANCH   8  10
ENDBRANCH   6   8
ENDBRANCH   5   6
ENDBRANCH   4   5
ENDBRANCH   3   4
ENDBRANCH   2   3
ENDBRANCH   1   2
BRANCH   1  25
ATOM     25  C   UNL A   1      40.731  20.358  26.489  1.00  0.00     0.261 C 
BRANCH  25  26
ATOM     26  O   UNL A   1      40.770  21.765  26.195  1.00  0.00    -0.460 OA
BRANCH  26  27
ATOM     27  C   UNL A   1      39.566  22.385  26.202  1.00  0.00     0.338 C 
ATOM     28  O   UNL A   1      38.474  21.881  25.973  1.00  0.00    -0.246 OA
BRANCH  27  29
ATOM     29  C   UNL A   1      39.710  23.760  26.716  1.00  0.00     0.060 A 
ATOM     30  C   UNL A   1      40.221  24.728  25.841  1.00  0.00     0.016 A 
ATOM     31  C   UNL A   1      39.416  24.085  28.041  1.00  0.00     0.016 A 
ATOM     32  C   UNL A   1      40.478  26.018  26.301  1.00  0.00     0.010 A 
ATOM     33  C   UNL A   1      39.686  25.378  28.503  1.00  0.00     0.010 A 
ATOM     34  C   UNL A   1      40.246  26.341  27.644  1.00  0.00    -0.014 A 
BRANCH  34  35
ATOM     35  C   UNL A   1      40.691  27.653  28.174  1.00  0.00     0.031 A 
ATOM     36  C   UNL A   1      42.158  27.973  28.211  1.00  0.00     0.074 A 
ATOM     37  C   UNL A   1      39.791  28.552  28.614  1.00  0.00     0.049 A 
ATOM     38  N   UNL A   1      42.760  29.040  28.670  1.00  0.00    -0.248 NA
ATOM     39  C   UNL A   1      43.070  26.961  27.653  1.00  0.00     0.031 C 
ATOM     40  C   UNL A   1      38.342  28.364  28.607  1.00  0.00     0.029 A 
ATOM     41  N   UNL A   1      39.970  29.794  29.169  1.00  0.00    -0.354 N 
ATOM     42  C   UNL A   1      44.118  28.821  28.479  1.00  0.00     0.074 A 
ATOM     43  C   UNL A   1      44.256  27.515  27.871  1.00  0.00     0.031 C 
ATOM     44  C   UNL A   1      37.761  29.446  29.155  1.00  0.00     0.029 A 
ATOM     45  C   UNL A   1      38.798  30.387  29.576  1.00  0.00     0.049 A 
ATOM     46  H   UNL A   1      40.852  30.220  29.267  1.00  0.00     0.167 HD
ATOM     47  C   UNL A   1      45.156  29.641  28.768  1.00  0.00     0.034 A 
ATOM     48  C   UNL A   1      38.586  31.547  30.229  1.00  0.00     0.034 A 
ATOM     49  C   UNL A   1      45.016  30.946  29.356  1.00  0.00     0.049 A 
ATOM     50  C   UNL A   1      39.761  32.425  30.575  1.00  0.00     0.074 A 
ATOM     51  C   UNL A   1      46.009  31.859  29.665  1.00  0.00     0.029 A 
ATOM     52  N   UNL A   1      43.812  31.523  29.730  1.00  0.00    -0.354 N 
ATOM     53  N   UNL A   1      41.032  32.242  30.311  1.00  0.00    -0.248 NA
ATOM     54  C   UNL A   1      39.471  33.682  31.282  1.00  0.00     0.031 C 
ATOM     55  C   UNL A   1      45.408  32.979  30.245  1.00  0.00     0.029 A 
ATOM     56  C   UNL A   1      44.038  32.777  30.272  1.00  0.00     0.049 A 
ATOM     57  H   UNL A   1      42.928  31.103  29.626  1.00  0.00     0.167 HD
ATOM     58  C   UNL A   1      41.688  33.375  30.785  1.00  0.00     0.074 A 
ATOM     59  C   UNL A   1      40.672  34.244  31.340  1.00  0.00     0.031 C 
ATOM     60  C   UNL A   1      43.014  33.660  30.771  1.00  0.00     0.034 A 
BRANCH  47  61
ATOM     61  C   UNL A   1      46.543  29.172  28.418  1.00  0.00     0.023 A 
ATOM     62  C   UNL A   1      47.109  29.546  27.183  1.00  0.00     0.012 A 
ATOM     63  C   UNL A   1      47.317  28.441  29.341  1.00  0.00     0.148 A 
ATOM     64  C   UNL A   1      48.417  29.185  26.863  1.00  0.00     0.002 A 
ATOM     65  C   UNL A   1      48.633  28.120  29.033  1.00  0.00     0.091 A 
ATOM     66  F   UNL A   1      46.750  28.076  30.500  1.00  0.00    -0.205 F 
ATOM     67  C   UNL A   1      49.182  28.483  27.792  1.00  0.00     0.022 A 
BRANCH  65  68
ATOM     68  S   UNL A   1      49.725  27.290  30.192  1.00  0.00     0.127 S 
ATOM     69  O   UNL A   1      50.151  28.399  31.044  1.00  0.00    -0.237 OA
ATOM     70  O   UNL A   1      48.822  26.337  30.838  1.00  0.00    -0.237 OA
ATOM     71  O   UNL A   1      50.777  26.681  29.389  1.00  0.00    -0.744 OA
ENDBRANCH  65  68
ENDBRANCH  47  61
BRANCH  48  72
ATOM     72  C   UNL A   1      37.193  31.964  30.553  1.00  0.00     0.023 A 
ATOM     73  C   UNL A   1      36.696  31.764  31.855  1.00  0.00     0.012 A 
ATOM     74  C   UNL A   1      36.380  32.606  29.598  1.00  0.00     0.148 A 
ATOM     75  C   UNL A   1      35.409  32.181  32.197  1.00  0.00     0.002 A 
ATOM     76  C   UNL A   1      35.121  33.072  29.961  1.00  0.00     0.091 A 
ATOM     77  F   UNL A   1      36.866  32.771  28.359  1.00  0.00    -0.205 F 
ATOM     78  C   UNL A   1      34.628  32.847  31.255  1.00  0.00     0.022 A 
BRANCH  76  79
ATOM     79  S   UNL A   1      34.104  34.062  28.860  1.00  0.00     0.127 S 
ATOM     80  O   UNL A   1      35.052  35.074  28.404  1.00  0.00    -0.237 OA
ATOM     81  O   UNL A   1      33.714  33.079  27.849  1.00  0.00    -0.237 OA
ATOM     82  O   UNL A   1      33.001  34.553  29.676  1.00  0.00    -0.744 OA
ENDBRANCH  76  79
ENDBRANCH  48  72
BRANCH  60  83
ATOM     83  C   UNL A   1      43.463  34.981  31.343  1.00  0.00     0.023 A 
ATOM     84  C   UNL A   1      43.912  35.048  32.676  1.00  0.00     0.012 A 
ATOM     85  C   UNL A   1      43.550  36.126  30.525  1.00  0.00     0.148 A 
ATOM     86  C   UNL A   1      44.419  36.240  33.194  1.00  0.00     0.002 A 
ATOM     87  C   UNL A   1      44.101  37.296  31.033  1.00  0.00     0.091 A 
ATOM     88  F   UNL A   1      43.101  36.045  29.264  1.00  0.00    -0.205 F 
ATOM     89  C   UNL A   1      44.527  37.358  32.370  1.00  0.00     0.022 A 
BRANCH  87  90
ATOM     90  S   UNL A   1      44.373  38.753  30.016  1.00  0.00     0.127 S 
ATOM     91  O   UNL A   1      44.623  39.779  31.027  1.00  0.00    -0.237 OA
ATOM     92  O   UNL A   1      45.549  38.371  29.233  1.00  0.00    -0.237 OA
ATOM     93  O   UNL A   1      43.158  38.927  29.233  1.00  0.00    -0.744 OA
ENDBRANCH  87  90
ENDBRANCH  60  83
ENDBRANCH  34  35
ENDBRANCH  27  29
ENDBRANCH  26  27
ENDBRANCH  25  26
ENDBRANCH   1  25
TORSDOF 19
ENDMDL
MODEL 2
REMARK VINA RESULT:      -9.8      1.866      7.800
REMARK SMILES Cc1cc(C)cc(-c2ccc([C@@H](C)C(=O)OCCOCCOC(=O)c3ccc(-c4c5nc(c(-c6cccc(S(=O)(=O)[O-])c6F)c6ccc([nH]6)c(-c6cccc(S(=O)(=O)[O-])c6F)c6nc(c(-c7cccc(S(=O)(=O)[O-])c7F)c7ccc4[nH]7)C=C6)C=C5)cc3)cc2F)c1
REMARK SMILES IDX 20 1 19 2 18 3 17 4 16 5 14 6 15 7 12 8 13 9 11 10 8 11 9 12
REMARK SMILES IDX 89 13 10 14 88 15 90 16 7 17 1 18 2 19 3 20 91 21 4 22 5 23
REMARK SMILES IDX 6 24 21 25 22 26 23 27 24 28 25 29 26 30 87 31 27 32 86 33
REMARK SMILES IDX 28 34 29 35 30 36 80 37 31 38 85 39 79 40 81 41 32 42 84 43
REMARK SMILES IDX 78 44 77 45 33 47 65 48 45 49 64 50 46 51 49 52 63 53 82 54
REMARK SMILES IDX 47 55 48 56 62 58 83 59 50 60 34 61 35 62 43 63 36 64 38 65
REMARK SMILES IDX 44 66 37 67 39 68 40 69 41 70 42 71 66 72 67 73 75 74 68 75
REMARK SMILES IDX 70 76 76 77 69 78 71 79 72 80 73 81 74 82 51 83 52 84 60 85
REMARK SMILES IDX 53 86 55 87 61 88 54 89 56 90 57 91 58 92 59 93
REMARK H PARENT 81 46 49 57
REMARK Flexibility Score: inf
ROOT
ATOM      1  C   UNL A   1      41.540  19.870  26.477  1.00  0.00     0.202 C 
ENDROOT
BRANCH   1   2
ATOM      2  O   UNL A   1      42.143  19.271  25.330  1.00  0.00    -0.374 OA
BRANCH   2   3
ATOM      3  C   UNL A   1      43.495  18.826  25.461  1.00  0.00     0.202 C 
BRANCH   3   4
ATOM      4  C   UNL A   1      44.540  19.576  24.631  1.00  0.00     0.261 C 
BRANCH   4   5
ATOM      5  O   UNL A   1      45.415  20.358  25.465  1.00  0.00    -0.463 OA
BRANCH   5   6
ATOM      6  C   UNL A   1      45.381  21.701  25.269  1.00  0.00     0.313 C 
ATOM      7  O   UNL A   1      46.295  22.356  24.774  1.00  0.00    -0.252 OA
BRANCH   6   8
ATOM      8  C   UNL A   1      44.097  22.358  25.749  1.00  0.00     0.126 C 
ATOM      9  C   UNL A   1      43.598  23.329  24.682  1.00  0.00     0.025 C 
BRANCH   8  10
ATOM     10  C   UNL A   1      44.094  22.982  27.141  1.00  0.00    -0.031 A 
ATOM     11  C   UNL A   1      44.259  23.939  29.829  1.00  0.00     0.017 A 
ATOM     12  C   UNL A   1      43.082  23.358  29.330  1.00  0.00     0.012 A 
ATOM     13  C   UNL A   1      45.328  24.079  28.936  1.00  0.00     0.131 A 
ATOM     14  C   UNL A   1      42.999  22.888  28.009  1.00  0.00     0.005 A 
ATOM     15  C   UNL A   1      45.255  23.612  27.620  1.00  0.00     0.044 A 
ATOM     16  F   UNL A   1      46.483  24.631  29.341  1.00  0.00    -0.206 F 
BRANCH  11  17
ATOM     17  C   UNL A   1      44.374  24.321  31.248  1.00  0.00    -0.015 A 
ATOM     18  C   UNL A   1      44.946  27.425  33.411  1.00  0.00     0.044 C 
ATOM     19  C   UNL A   1      44.719  26.002  32.994  1.00  0.00    -0.050 A 
ATOM     20  C   UNL A   1      44.612  25.005  33.972  1.00  0.00     0.006 A 
ATOM     21  C   UNL A   1      44.604  25.651  31.639  1.00  0.00     0.012 A 
ATOM     22  C   UNL A   1      44.395  23.672  33.612  1.00  0.00    -0.050 A 
ATOM     23  C   UNL A   1      44.283  22.618  34.675  1.00  0.00     0.044 C 
ATOM     24  C   UNL A   1      44.272  23.344  32.255  1.00  0.00     0.012 A 
ENDBRANCH  11  17
ENDBRANCH   8  10
ENDBRANCH   6   8
ENDBRANCH   5   6
ENDBRANCH   4   5
ENDBRANCH   3   4
ENDBRANCH   2   3
ENDBRANCH   1   2
BRANCH   1  25
ATOM     25  C   UNL A   1      40.259  20.680  26.242  1.00  0.00     0.261 C 
BRANCH  25  26
ATOM     26  O   UNL A   1      40.472  22.096  26.377  1.00  0.00    -0.460 OA
BRANCH  26  27
ATOM     27  C   UNL A   1      39.362  22.858  26.237  1.00  0.00     0.338 C 
ATOM     28  O   UNL A   1      38.272  22.503  25.805  1.00  0.00    -0.246 OA
BRANCH  27  29
ATOM     29  C   UNL A   1      39.573  24.176  26.863  1.00  0.00     0.060 A 
ATOM     30  C   UNL A   1      40.235  25.152  26.106  1.00  0.00     0.016 A 
ATOM     31  C   UNL A   1      39.193  24.436  28.181  1.00  0.00     0.016 A 
ATOM     32  C   UNL A   1      40.557  26.381  26.680  1.00  0.00     0.010 A 
ATOM     33  C   UNL A   1      39.527  25.667  28.757  1.00  0.00     0.010 A 
ATOM     34  C   UNL A   1      40.237  26.631  28.020  1.00  0.00    -0.014 A 
BRANCH  34  35
ATOM     35  C   UNL A   1      40.740  27.861  28.681  1.00  0.00     0.031 A 
ATOM     36  C   UNL A   1      39.761  28.906  29.135  1.00  0.00     0.074 A 
ATOM     37  C   UNL A   1      42.060  28.039  28.877  1.00  0.00     0.049 A 
ATOM     38  N   UNL A   1      39.990  30.066  29.693  1.00  0.00    -0.248 NA
ATOM     39  C   UNL A   1      38.333  28.604  28.938  1.00  0.00     0.031 C 
ATOM     40  C   UNL A   1      43.103  27.087  28.502  1.00  0.00     0.029 A 
ATOM     41  N   UNL A   1      42.745  29.095  29.426  1.00  0.00    -0.354 N 
ATOM     42  C   UNL A   1      38.743  30.643  29.895  1.00  0.00     0.074 A 
ATOM     43  C   UNL A   1      37.758  29.711  29.390  1.00  0.00     0.031 C 
ATOM     44  C   UNL A   1      44.301  27.612  28.811  1.00  0.00     0.029 A 
ATOM     45  C   UNL A   1      44.111  28.946  29.379  1.00  0.00     0.049 A 
ATOM     46  H   UNL A   1      42.301  29.883  29.815  1.00  0.00     0.167 HD
ATOM     47  C   UNL A   1      38.444  31.834  30.465  1.00  0.00     0.034 A 
ATOM     48  C   UNL A   1      45.096  29.795  29.736  1.00  0.00     0.034 A 
ATOM     49  C   UNL A   1      39.424  32.752  30.982  1.00  0.00     0.049 A 
ATOM     50  C   UNL A   1      44.738  31.132  30.332  1.00  0.00     0.074 A 
ATOM     51  C   UNL A   1      39.214  33.973  31.598  1.00  0.00     0.029 A 
ATOM     52  N   UNL A   1      40.795  32.555  30.941  1.00  0.00    -0.354 N 
ATOM     53  N   UNL A   1      43.552  31.626  30.595  1.00  0.00    -0.248 NA
ATOM     54  C   UNL A   1      45.852  32.015  30.710  1.00  0.00     0.031 C 
ATOM     55  C   UNL A   1      40.459  34.524  31.910  1.00  0.00     0.029 A 
ATOM     56  C   UNL A   1      41.445  33.634  31.515  1.00  0.00     0.049 A 
ATOM     57  H   UNL A   1      41.241  31.765  30.559  1.00  0.00     0.167 HD
ATOM     58  C   UNL A   1      43.777  32.859  31.200  1.00  0.00     0.074 A 
ATOM     59  C   UNL A   1      45.213  33.030  31.277  1.00  0.00     0.031 C 
ATOM     60  C   UNL A   1      42.874  33.771  31.639  1.00  0.00     0.034 A 
BRANCH  47  61
ATOM     61  C   UNL A   1      36.991  32.206  30.600  1.00  0.00     0.023 A 
ATOM     62  C   UNL A   1      36.330  31.983  31.823  1.00  0.00     0.012 A 
ATOM     63  C   UNL A   1      36.308  32.854  29.552  1.00  0.00     0.148 A 
ATOM     64  C   UNL A   1      35.005  32.382  31.998  1.00  0.00     0.002 A 
ATOM     65  C   UNL A   1      35.002  33.287  29.747  1.00  0.00     0.091 A 
ATOM     66  F   UNL A   1      36.950  33.036  28.388  1.00  0.00    -0.205 F 
ATOM     67  C   UNL A   1      34.346  33.043  30.965  1.00  0.00     0.022 A 
BRANCH  65  68
ATOM     68  S   UNL A   1      34.095  34.219  28.508  1.00  0.00     0.127 S 
ATOM     69  O   UNL A   1      34.068  33.277  27.390  1.00  0.00    -0.237 OA
ATOM     70  O   UNL A   1      32.802  34.424  29.163  1.00  0.00    -0.237 OA
ATOM     71  O   UNL A   1      34.860  35.437  28.280  1.00  0.00    -0.744 OA
ENDBRANCH  65  68
ENDBRANCH  47  61
BRANCH  48  72
ATOM     72  C   UNL A   1      46.517  29.377  29.580  1.00  0.00     0.023 A 
ATOM     73  C   UNL A   1      47.129  28.617  30.595  1.00  0.00     0.012 A 
ATOM     74  C   UNL A   1      47.246  29.680  28.413  1.00  0.00     0.148 A 
ATOM     75  C   UNL A   1      48.447  28.178  30.458  1.00  0.00     0.002 A 
ATOM     76  C   UNL A   1      48.538  29.189  28.257  1.00  0.00     0.091 A 
ATOM     77  F   UNL A   1      46.650  30.419  27.467  1.00  0.00    -0.205 F 
ATOM     78  C   UNL A   1      49.145  28.452  29.284  1.00  0.00     0.022 A 
BRANCH  76  79
ATOM     79  S   UNL A   1      49.461  29.371  26.726  1.00  0.00     0.127 S 
ATOM     80  O   UNL A   1      49.487  30.821  26.562  1.00  0.00    -0.237 OA
ATOM     81  O   UNL A   1      50.745  28.765  27.078  1.00  0.00    -0.237 OA
ATOM     82  O   UNL A   1      48.706  28.635  25.721  1.00  0.00    -0.744 OA
ENDBRANCH  76  79
ENDBRANCH  48  72
BRANCH  60  83
ATOM     83  C   UNL A   1      43.392  35.034  32.278  1.00  0.00     0.023 A 
ATOM     84  C   UNL A   1      43.734  36.136  31.470  1.00  0.00     0.012 A 
ATOM     85  C   UNL A   1      43.428  35.167  33.681  1.00  0.00     0.148 A 
ATOM     86  C   UNL A   1      44.125  37.344  32.048  1.00  0.00     0.002 A 
ATOM     87  C   UNL A   1      43.771  36.388  34.250  1.00  0.00     0.091 A 
ATOM     88  F   UNL A   1      43.115  34.101  34.432  1.00  0.00    -0.205 F 
ATOM     89  C   UNL A   1      44.130  37.475  33.435  1.00  0.00     0.022 A 
BRANCH  87  90
ATOM     90  S   UNL A   1      43.706  36.677  36.022  1.00  0.00     0.127 S 
ATOM     91  O   UNL A   1      44.092  38.085  36.109  1.00  0.00    -0.237 OA
ATOM     92  O   UNL A   1      42.301  36.410  36.330  1.00  0.00    -0.237 OA
ATOM     93  O   UNL A   1      44.643  35.733  36.616  1.00  0.00    -0.744 OA
ENDBRANCH  87  90
ENDBRANCH  60  83
ENDBRANCH  34  35
ENDBRANCH  27  29
ENDBRANCH  26  27
ENDBRANCH  25  26
ENDBRANCH   1  25
TORSDOF 19
ENDMDL
MODEL 3
REMARK VINA RESULT:      -9.8      0.315      7.736
REMARK SMILES Cc1cc(C)cc(-c2ccc([C@@H](C)C(=O)OCCOCCOC(=O)c3ccc(-c4c5nc(c(-c6cccc(S(=O)(=O)[O-])c6F)c6ccc([nH]6)c(-c6cccc(S(=O)(=O)[O-])c6F)c6nc(c(-c7cccc(S(=O)(=O)[O-])c7F)c7ccc4[nH]7)C=C6)C=C5)cc3)cc2F)c1
REMARK SMILES IDX 20 1 19 2 18 3 17 4 16 5 14 6 15 7 12 8 13 9 11 10 8 11 9 12
REMARK SMILES IDX 89 13 10 14 88 15 90 16 7 17 1 18 2 19 3 20 91 21 4 22 5 23
REMARK SMILES IDX 6 24 21 25 22 26 23 27 24 28 25 29 26 30 87 31 27 32 86 33
REMARK SMILES IDX 28 34 29 35 30 36 80 37 31 38 85 39 79 40 81 41 32 42 84 43
REMARK SMILES IDX 78 44 77 45 33 47 65 48 45 49 64 50 46 51 49 52 63 53 82 54
REMARK SMILES IDX 47 55 48 56 62 58 83 59 50 60 34 61 35 62 43 63 36 64 38 65
REMARK SMILES IDX 44 66 37 67 39 68 40 69 41 70 42 71 66 72 67 73 75 74 68 75
REMARK SMILES IDX 70 76 76 77 69 78 71 79 72 80 73 81 74 82 51 83 52 84 60 85
REMARK SMILES IDX 53 86 55 87 61 88 54 89 56 90 57 91 58 92 59 93
REMARK H PARENT 81 46 49 57
REMARK Flexibility Score: inf
ROOT
ATOM      1  C   UNL A   1      41.797  19.727  26.560  1.00  0.00     0.202 C 
ENDROOT
BRANCH   1   2
ATOM      2  O   UNL A   1      42.366  19.300  25.322  1.00  0.00    -0.374 OA
BRANCH   2   3
ATOM      3  C   UNL A   1      43.707  18.811  25.356  1.00  0.00     0.202 C 
BRANCH   3   4
ATOM      4  C   UNL A   1      44.750  19.632  24.592  1.00  0.00     0.261 C 
BRANCH   4   5
ATOM      5  O   UNL A   1      45.557  20.422  25.484  1.00  0.00    -0.463 OA
BRANCH   5   6
ATOM      6  C   UNL A   1      45.529  21.764  25.282  1.00  0.00     0.313 C 
ATOM      7  O   UNL A   1      46.460  22.418  24.819  1.00  0.00    -0.252 OA
BRANCH   6   8
ATOM      8  C   UNL A   1      44.227  22.421  25.712  1.00  0.00     0.126 C 
ATOM      9  C   UNL A   1      43.756  23.373  24.614  1.00  0.00     0.025 C 
BRANCH   8  10
ATOM     10  C   UNL A   1      44.177  23.066  27.093  1.00  0.00    -0.031 A 
ATOM     11  C   UNL A   1      44.244  24.059  29.772  1.00  0.00     0.017 A 
ATOM     12  C   UNL A   1      43.073  23.510  29.224  1.00  0.00     0.012 A 
ATOM     13  C   UNL A   1      45.359  24.149  28.931  1.00  0.00     0.131 A 
ATOM     14  C   UNL A   1      43.038  23.022  27.908  1.00  0.00     0.005 A 
ATOM     15  C   UNL A   1      45.334  23.665  27.620  1.00  0.00     0.044 A 
ATOM     16  F   UNL A   1      46.511  24.669  29.385  1.00  0.00    -0.206 F 
BRANCH  11  17
ATOM     17  C   UNL A   1      44.302  24.460  31.190  1.00  0.00    -0.015 A 
ATOM     18  C   UNL A   1      44.697  27.604  33.334  1.00  0.00     0.044 C 
ATOM     19  C   UNL A   1      44.534  26.169  32.926  1.00  0.00    -0.050 A 
ATOM     20  C   UNL A   1      44.434  25.179  33.911  1.00  0.00     0.006 A 
ATOM     21  C   UNL A   1      44.472  25.801  31.573  1.00  0.00     0.012 A 
ATOM     22  C   UNL A   1      44.276  23.835  33.560  1.00  0.00    -0.050 A 
ATOM     23  C   UNL A   1      44.172  22.789  34.631  1.00  0.00     0.044 C 
ATOM     24  C   UNL A   1      44.206  23.489  32.204  1.00  0.00     0.012 A 
ENDBRANCH  11  17
ENDBRANCH   8  10
ENDBRANCH   6   8
ENDBRANCH   5   6
ENDBRANCH   4   5
ENDBRANCH   3   4
ENDBRANCH   2   3
ENDBRANCH   1   2
BRANCH   1  25
ATOM     25  C   UNL A   1      40.436  20.433  26.489  1.00  0.00     0.261 C 
BRANCH  25  26
ATOM     26  O   UNL A   1      40.555  21.820  26.128  1.00  0.00    -0.460 OA
BRANCH  26  27
ATOM     27  C   UNL A   1      39.396  22.520  26.156  1.00  0.00     0.338 C 
ATOM     28  O   UNL A   1      38.272  22.098  25.911  1.00  0.00    -0.246 OA
BRANCH  27  29
ATOM     29  C   UNL A   1      39.632  23.863  26.715  1.00  0.00     0.060 A 
ATOM     30  C   UNL A   1      40.174  24.833  25.862  1.00  0.00     0.016 A 
ATOM     31  C   UNL A   1      39.391  24.154  28.059  1.00  0.00     0.016 A 
ATOM     32  C   UNL A   1      40.517  26.089  26.360  1.00  0.00     0.010 A 
ATOM     33  C   UNL A   1      39.747  25.412  28.559  1.00  0.00     0.010 A 
ATOM     34  C   UNL A   1      40.339  26.373  27.720  1.00  0.00    -0.014 A 
BRANCH  34  35
ATOM     35  C   UNL A   1      40.872  27.638  28.284  1.00  0.00     0.031 A 
ATOM     36  C   UNL A   1      39.915  28.667  28.817  1.00  0.00     0.074 A 
ATOM     37  C   UNL A   1      42.198  27.862  28.325  1.00  0.00     0.049 A 
ATOM     38  N   UNL A   1      40.167  29.850  29.312  1.00  0.00    -0.248 NA
ATOM     39  C   UNL A   1      38.485  28.316  28.792  1.00  0.00     0.031 C 
ATOM     40  C   UNL A   1      43.224  26.931  27.860  1.00  0.00     0.029 A 
ATOM     41  N   UNL A   1      42.905  28.954  28.763  1.00  0.00    -0.354 N 
ATOM     42  C   UNL A   1      38.931  30.395  29.638  1.00  0.00     0.074 A 
ATOM     43  C   UNL A   1      37.928  29.418  29.275  1.00  0.00     0.031 C 
ATOM     44  C   UNL A   1      44.431  27.501  28.017  1.00  0.00     0.029 A 
ATOM     45  C   UNL A   1      44.261  28.846  28.565  1.00  0.00     0.049 A 
ATOM     46  H   UNL A   1      42.481  29.741  29.177  1.00  0.00     0.167 HD
ATOM     47  C   UNL A   1      38.658  31.594  30.205  1.00  0.00     0.034 A 
ATOM     48  C   UNL A   1      45.251  29.735  28.783  1.00  0.00     0.034 A 
ATOM     49  C   UNL A   1      39.659  32.557  30.582  1.00  0.00     0.049 A 
ATOM     50  C   UNL A   1      44.918  31.079  29.379  1.00  0.00     0.074 A 
ATOM     51  C   UNL A   1      39.478  33.791  31.183  1.00  0.00     0.029 A 
ATOM     52  N   UNL A   1      41.022  32.400  30.390  1.00  0.00    -0.354 N 
ATOM     53  N   UNL A   1      43.753  31.545  29.760  1.00  0.00    -0.248 NA
ATOM     54  C   UNL A   1      46.036  32.007  29.603  1.00  0.00     0.031 C 
ATOM     55  C   UNL A   1      40.731  34.389  31.336  1.00  0.00     0.029 A 
ATOM     56  C   UNL A   1      41.696  33.517  30.856  1.00  0.00     0.049 A 
ATOM     57  H   UNL A   1      41.449  31.613  29.983  1.00  0.00     0.167 HD
ATOM     58  C   UNL A   1      44.003  32.803  30.301  1.00  0.00     0.074 A 
ATOM     59  C   UNL A   1      45.431  33.020  30.211  1.00  0.00     0.031 C 
ATOM     60  C   UNL A   1      43.124  33.700  30.814  1.00  0.00     0.034 A 
BRANCH  47  61
ATOM     61  C   UNL A   1      37.218  31.926  30.493  1.00  0.00     0.023 A 
ATOM     62  C   UNL A   1      36.690  31.667  31.773  1.00  0.00     0.012 A 
ATOM     63  C   UNL A   1      36.417  32.573  29.531  1.00  0.00     0.148 A 
ATOM     64  C   UNL A   1      35.381  32.028  32.088  1.00  0.00     0.002 A 
ATOM     65  C   UNL A   1      35.127  32.968  29.866  1.00  0.00     0.091 A 
ATOM     66  F   UNL A   1      36.931  32.789  28.312  1.00  0.00    -0.205 F 
ATOM     67  C   UNL A   1      34.604  32.689  31.139  1.00  0.00     0.022 A 
BRANCH  65  68
ATOM     68  S   UNL A   1      34.076  33.895  28.742  1.00  0.00     0.127 S 
ATOM     69  O   UNL A   1      33.492  32.827  27.934  1.00  0.00    -0.237 OA
ATOM     70  O   UNL A   1      33.141  34.545  29.661  1.00  0.00    -0.237 OA
ATOM     71  O   UNL A   1      34.957  34.808  28.027  1.00  0.00    -0.744 OA
ENDBRANCH  65  68
ENDBRANCH  47  61
BRANCH  48  72
ATOM     72  C   UNL A   1      46.659  29.356  28.480  1.00  0.00     0.023 A 
ATOM     73  C   UNL A   1      47.236  29.758  27.260  1.00  0.00     0.012 A 
ATOM     74  C   UNL A   1      47.445  28.651  29.413  1.00  0.00     0.148 A 
ATOM     75  C   UNL A   1      48.566  29.451  26.968  1.00  0.00     0.002 A 
ATOM     76  C   UNL A   1      48.785  28.401  29.141  1.00  0.00     0.091 A 
ATOM     77  F   UNL A   1      46.871  28.264  30.561  1.00  0.00    -0.205 F 
ATOM     78  C   UNL A   1      49.343  28.786  27.912  1.00  0.00     0.022 A 
BRANCH  76  79
ATOM     79  S   UNL A   1      49.898  27.678  30.352  1.00  0.00     0.127 S 
ATOM     80  O   UNL A   1      49.383  28.233  31.601  1.00  0.00    -0.237 OA
ATOM     81  O   UNL A   1      49.655  26.248  30.164  1.00  0.00    -0.237 OA
ATOM     82  O   UNL A   1      51.234  28.115  29.970  1.00  0.00    -0.744 OA
ENDBRANCH  76  79
ENDBRANCH  48  72
BRANCH  60  83
ATOM     83  C   UNL A   1      43.668  34.999  31.354  1.00  0.00     0.023 A 
ATOM     84  C   UNL A   1      44.194  35.046  32.660  1.00  0.00     0.012 A 
ATOM     85  C   UNL A   1      43.763  36.137  30.528  1.00  0.00     0.148 A 
ATOM     86  C   UNL A   1      44.787  36.213  33.143  1.00  0.00     0.002 A 
ATOM     87  C   UNL A   1      44.399  37.280  30.999  1.00  0.00     0.091 A 
ATOM     88  F   UNL A   1      43.241  36.077  29.294  1.00  0.00    -0.205 F 
ATOM     89  C   UNL A   1      44.902  37.323  32.310  1.00  0.00     0.022 A 
BRANCH  87  90
ATOM     90  S   UNL A   1      44.683  38.721  29.962  1.00  0.00     0.127 S 
ATOM     91  O   UNL A   1      45.695  38.224  29.032  1.00  0.00    -0.237 OA
ATOM     92  O   UNL A   1      43.364  38.941  29.368  1.00  0.00    -0.237 OA
ATOM     93  O   UNL A   1      45.123  39.779  30.861  1.00  0.00    -0.744 OA
ENDBRANCH  87  90
ENDBRANCH  60  83
ENDBRANCH  34  35
ENDBRANCH  27  29
ENDBRANCH  26  27
ENDBRANCH  25  26
ENDBRANCH   1  25
TORSDOF 19
ENDMDL
