MODEL 1
REMARK VINA RESULT:     -11.1      0.000      0.000
REMARK SMILES CCc1cccc(-c2ccc([C@@H](C)C(=O)OCCOCCOC(=O)c3ccc(-c4c5nc(c(-c6cccc(S(=O)(=O)[O-])c6F)c6ccc([nH]6)c(-c6cccc(S(=O)(=O)[O-])c6F)c6nc(c(-c7cccc(S(=O)(=O)[O-])c7F)c7ccc4[nH]7)C=C6)C=C5)cc3)cc2)c1
REMARK SMILES IDX 19 1 18 2 17 3 16 4 14 5 15 6 12 7 13 8 11 9 8 10 9 11 89 12
REMARK SMILES IDX 10 13 88 14 7 15 3 16 4 17 90 18 5 19 6 20 2 21 1 22 20 23
REMARK SMILES IDX 21 24 22 25 23 26 24 27 25 28 26 29 87 30 27 31 86 32 28 33
REMARK SMILES IDX 29 34 30 35 80 36 31 37 85 38 79 39 81 40 32 41 84 42 78 43
REMARK SMILES IDX 77 44 33 46 65 47 45 48 64 49 46 50 49 51 63 52 82 53 47 54
REMARK SMILES IDX 48 55 62 57 83 58 50 59 34 60 35 61 43 62 36 63 38 64 44 65
REMARK SMILES IDX 37 66 39 67 40 68 41 69 42 70 66 71 67 72 75 73 68 74 70 75
REMARK SMILES IDX 76 76 69 77 71 78 72 79 73 80 74 81 51 82 52 83 60 84 53 85
REMARK SMILES IDX 55 86 61 87 54 88 56 89 57 90 58 91 59 92
REMARK H PARENT 81 45 49 56
REMARK Flexibility Score: inf
ROOT
ATOM      1  O   UNL A   1      35.146  22.894  24.520  1.00  0.00    -0.374 OA
ENDROOT
BRANCH   1   2
ATOM      2  C   UNL A   1      35.062  23.633  25.740  1.00  0.00     0.202 C 
BRANCH   2   3
ATOM      3  C   UNL A   1      34.898  25.150  25.600  1.00  0.00     0.261 C 
BRANCH   3   4
ATOM      4  O   UNL A   1      33.780  25.478  24.755  1.00  0.00    -0.463 OA
BRANCH   4   5
ATOM      5  C   UNL A   1      32.635  25.836  25.388  1.00  0.00     0.313 C 
ATOM      6  O   UNL A   1      32.565  26.689  26.270  1.00  0.00    -0.252 OA
BRANCH   5   7
ATOM      7  C   UNL A   1      31.411  25.057  24.932  1.00  0.00     0.126 C 
ATOM      8  C   UNL A   1      30.266  25.288  25.914  1.00  0.00     0.025 C 
BRANCH   7   9
ATOM      9  C   UNL A   1      31.594  23.580  24.595  1.00  0.00    -0.034 A 
ATOM     10  C   UNL A   1      32.149  20.829  24.081  1.00  0.00    -0.018 A 
ATOM     11  C   UNL A   1      32.104  21.771  23.042  1.00  0.00     0.009 A 
ATOM     12  C   UNL A   1      31.870  21.283  25.378  1.00  0.00     0.009 A 
ATOM     13  C   UNL A   1      31.833  23.125  23.293  1.00  0.00     0.005 A 
ATOM     14  C   UNL A   1      31.595  22.632  25.632  1.00  0.00     0.005 A 
BRANCH  10  15
ATOM     15  C   UNL A   1      32.532  19.424  23.836  1.00  0.00    -0.018 A 
ATOM     16  C   UNL A   1      33.478  17.291  24.615  1.00  0.00    -0.048 A 
ATOM     17  C   UNL A   1      33.348  16.776  23.320  1.00  0.00     0.004 A 
ATOM     18  C   UNL A   1      33.077  18.619  24.854  1.00  0.00     0.012 A 
ATOM     19  C   UNL A   1      32.810  17.553  22.297  1.00  0.00     0.001 A 
ATOM     20  C   UNL A   1      32.404  18.863  22.554  1.00  0.00     0.009 A 
BRANCH  16  21
ATOM     21  C   UNL A   1      34.105  16.437  25.693  1.00  0.00     0.032 C 
ATOM     22  C   UNL A   1      35.447  15.820  25.320  1.00  0.00     0.009 C 
ENDBRANCH  16  21
ENDBRANCH  10  15
ENDBRANCH   7   9
ENDBRANCH   5   7
ENDBRANCH   4   5
ENDBRANCH   3   4
ENDBRANCH   2   3
ENDBRANCH   1   2
BRANCH   1  23
ATOM     23  C   UNL A   1      35.582  21.537  24.612  1.00  0.00     0.202 C 
BRANCH  23  24
ATOM     24  C   UNL A   1      36.708  21.244  25.611  1.00  0.00     0.261 C 
BRANCH  24  25
ATOM     25  O   UNL A   1      38.013  21.447  25.042  1.00  0.00    -0.460 OA
BRANCH  25  26
ATOM     26  C   UNL A   1      39.045  21.196  25.880  1.00  0.00     0.338 C 
ATOM     27  O   UNL A   1      39.660  20.143  25.997  1.00  0.00    -0.246 OA
BRANCH  26  28
ATOM     28  C   UNL A   1      39.480  22.439  26.543  1.00  0.00     0.060 A 
ATOM     29  C   UNL A   1      38.895  23.636  26.110  1.00  0.00     0.016 A 
ATOM     30  C   UNL A   1      40.488  22.452  27.509  1.00  0.00     0.016 A 
ATOM     31  C   UNL A   1      39.358  24.856  26.596  1.00  0.00     0.010 A 
ATOM     32  C   UNL A   1      40.957  23.681  27.991  1.00  0.00     0.010 A 
ATOM     33  C   UNL A   1      40.422  24.889  27.508  1.00  0.00    -0.014 A 
BRANCH  33  34
ATOM     34  C   UNL A   1      41.057  26.189  27.836  1.00  0.00     0.031 A 
ATOM     35  C   UNL A   1      42.483  26.432  27.420  1.00  0.00     0.074 A 
ATOM     36  C   UNL A   1      40.366  27.153  28.470  1.00  0.00     0.049 A 
ATOM     37  N   UNL A   1      43.231  27.489  27.607  1.00  0.00    -0.248 NA
ATOM     38  C   UNL A   1      43.155  25.342  26.692  1.00  0.00     0.031 C 
ATOM     39  C   UNL A   1      38.979  27.042  28.920  1.00  0.00     0.029 A 
ATOM     40  N   UNL A   1      40.748  28.412  28.865  1.00  0.00    -0.354 N 
ATOM     41  C   UNL A   1      44.463  27.188  27.037  1.00  0.00     0.074 A 
ATOM     42  C   UNL A   1      44.370  25.842  26.514  1.00  0.00     0.031 C 
ATOM     43  C   UNL A   1      38.638  28.172  29.563  1.00  0.00     0.029 A 
ATOM     44  C   UNL A   1      39.784  29.079  29.583  1.00  0.00     0.049 A 
ATOM     45  H   UNL A   1      41.628  28.799  28.653  1.00  0.00     0.167 HD
ATOM     46  C   UNL A   1      45.565  27.969  26.935  1.00  0.00     0.034 A 
ATOM     47  C   UNL A   1      39.830  30.276  30.203  1.00  0.00     0.034 A 
ATOM     48  C   UNL A   1      45.655  29.312  27.440  1.00  0.00     0.049 A 
ATOM     49  C   UNL A   1      41.076  31.115  30.095  1.00  0.00     0.074 A 
ATOM     50  C   UNL A   1      46.724  30.188  27.369  1.00  0.00     0.029 A 
ATOM     51  N   UNL A   1      44.640  29.974  28.112  1.00  0.00    -0.354 N 
ATOM     52  N   UNL A   1      42.194  30.858  29.457  1.00  0.00    -0.248 NA
ATOM     53  C   UNL A   1      41.057  32.427  30.760  1.00  0.00     0.031 C 
ATOM     54  C   UNL A   1      46.359  31.376  28.011  1.00  0.00     0.029 A 
ATOM     55  C   UNL A   1      45.056  31.246  28.463  1.00  0.00     0.049 A 
ATOM     56  H   UNL A   1      43.754  29.594  28.312  1.00  0.00     0.167 HD
ATOM     57  C   UNL A   1      42.993  31.986  29.614  1.00  0.00     0.074 A 
ATOM     58  C   UNL A   1      42.222  32.939  30.387  1.00  0.00     0.031 C 
ATOM     59  C   UNL A   1      44.257  32.208  29.177  1.00  0.00     0.034 A 
BRANCH  46  60
ATOM     60  C   UNL A   1      46.755  27.406  26.204  1.00  0.00     0.023 A 
ATOM     61  C   UNL A   1      46.855  27.585  24.809  1.00  0.00     0.012 A 
ATOM     62  C   UNL A   1      47.803  26.770  26.897  1.00  0.00     0.148 A 
ATOM     63  C   UNL A   1      47.967  27.119  24.110  1.00  0.00     0.002 A 
ATOM     64  C   UNL A   1      48.927  26.342  26.199  1.00  0.00     0.091 A 
ATOM     65  F   UNL A   1      47.679  26.592  28.219  1.00  0.00    -0.205 F 
ATOM     66  C   UNL A   1      49.007  26.508  24.807  1.00  0.00     0.022 A 
BRANCH  64  67
ATOM     67  S   UNL A   1      50.352  25.609  27.010  1.00  0.00     0.127 S 
ATOM     68  O   UNL A   1      51.260  25.402  25.881  1.00  0.00    -0.237 OA
ATOM     69  O   UNL A   1      50.760  26.669  27.933  1.00  0.00    -0.237 OA
ATOM     70  O   UNL A   1      49.871  24.394  27.652  1.00  0.00    -0.744 OA
ENDBRANCH  64  67
ENDBRANCH  46  60
BRANCH  47  71
ATOM     71  C   UNL A   1      38.647  30.765  30.968  1.00  0.00     0.023 A 
ATOM     72  C   UNL A   1      38.577  30.558  32.359  1.00  0.00     0.012 A 
ATOM     73  C   UNL A   1      37.590  31.435  30.320  1.00  0.00     0.148 A 
ATOM     74  C   UNL A   1      37.461  30.975  33.084  1.00  0.00     0.002 A 
ATOM     75  C   UNL A   1      36.508  31.899  31.058  1.00  0.00     0.091 A 
ATOM     76  F   UNL A   1      37.661  31.602  28.991  1.00  0.00    -0.205 F 
ATOM     77  C   UNL A   1      36.431  31.655  32.437  1.00  0.00     0.022 A 
BRANCH  75  78
ATOM     78  S   UNL A   1      35.212  32.899  30.317  1.00  0.00     0.127 S 
ATOM     79  O   UNL A   1      35.977  34.003  29.745  1.00  0.00    -0.237 OA
ATOM     80  O   UNL A   1      34.634  31.977  29.339  1.00  0.00    -0.237 OA
ATOM     81  O   UNL A   1      34.315  33.243  31.413  1.00  0.00    -0.744 OA
ENDBRANCH  75  78
ENDBRANCH  47  71
BRANCH  59  82
ATOM     82  C   UNL A   1      44.882  33.543  29.485  1.00  0.00     0.023 A 
ATOM     83  C   UNL A   1      45.567  33.729  30.703  1.00  0.00     0.012 A 
ATOM     84  C   UNL A   1      44.860  34.586  28.538  1.00  0.00     0.148 A 
ATOM     85  C   UNL A   1      46.190  34.944  30.987  1.00  0.00     0.002 A 
ATOM     86  C   UNL A   1      45.523  35.778  28.808  1.00  0.00     0.091 A 
ATOM     87  F   UNL A   1      44.189  34.397  27.392  1.00  0.00    -0.205 F 
ATOM     88  C   UNL A   1      46.179  35.962  30.036  1.00  0.00     0.022 A 
BRANCH  86  89
ATOM     89  S   UNL A   1      45.638  37.110  27.608  1.00  0.00     0.127 S 
ATOM     90  O   UNL A   1      46.667  37.960  28.202  1.00  0.00    -0.237 OA
ATOM     91  O   UNL A   1      46.055  36.402  26.397  1.00  0.00    -0.237 OA
ATOM     92  O   UNL A   1      44.306  37.696  27.534  1.00  0.00    -0.744 OA
ENDBRANCH  86  89
ENDBRANCH  59  82
ENDBRANCH  33  34
ENDBRANCH  26  28
ENDBRANCH  25  26
ENDBRANCH  24  25
ENDBRANCH  23  24
ENDBRANCH   1  23
TORSDOF 20
ENDMDL
MODEL 2
REMARK VINA RESULT:     -11.1      2.102      5.016
REMARK SMILES CCc1cccc(-c2ccc([C@@H](C)C(=O)OCCOCCOC(=O)c3ccc(-c4c5nc(c(-c6cccc(S(=O)(=O)[O-])c6F)c6ccc([nH]6)c(-c6cccc(S(=O)(=O)[O-])c6F)c6nc(c(-c7cccc(S(=O)(=O)[O-])c7F)c7ccc4[nH]7)C=C6)C=C5)cc3)cc2)c1
REMARK SMILES IDX 19 1 18 2 17 3 16 4 14 5 15 6 12 7 13 8 11 9 8 10 9 11 89 12
REMARK SMILES IDX 10 13 88 14 7 15 3 16 4 17 90 18 5 19 6 20 2 21 1 22 20 23
REMARK SMILES IDX 21 24 22 25 23 26 24 27 25 28 26 29 87 30 27 31 86 32 28 33
REMARK SMILES IDX 29 34 30 35 80 36 31 37 85 38 79 39 81 40 32 41 84 42 78 43
REMARK SMILES IDX 77 44 33 46 65 47 45 48 64 49 46 50 49 51 63 52 82 53 47 54
REMARK SMILES IDX 48 55 62 57 83 58 50 59 34 60 35 61 43 62 36 63 38 64 44 65
REMARK SMILES IDX 37 66 39 67 40 68 41 69 42 70 66 71 67 72 75 73 68 74 70 75
REMARK SMILES IDX 76 76 69 77 71 78 72 79 73 80 74 81 51 82 52 83 60 84 53 85
REMARK SMILES IDX 55 86 61 87 54 88 56 89 57 90 58 91 59 92
REMARK H PARENT 81 45 49 56
REMARK Flexibility Score: inf
ROOT
ATOM      1  O   UNL A   1      34.989  21.522  25.334  1.00  0.00    -0.374 OA
ENDROOT
BRANCH   1   2
ATOM      2  C   UNL A   1      33.845  21.536  24.478  1.00  0.00     0.202 C 
BRANCH   2   3
ATOM      3  C   UNL A   1      32.512  21.898  25.140  1.00  0.00     0.261 C 
BRANCH   3   4
ATOM      4  O   UNL A   1      31.968  23.110  24.588  1.00  0.00    -0.463 OA
BRANCH   4   5
ATOM      5  C   UNL A   1      31.076  23.775  25.365  1.00  0.00     0.313 C 
ATOM      6  O   UNL A   1      30.443  23.268  26.287  1.00  0.00    -0.252 OA
BRANCH   5   7
ATOM      7  C   UNL A   1      30.890  25.234  24.975  1.00  0.00     0.126 C 
ATOM      8  C   UNL A   1      30.822  25.349  23.455  1.00  0.00     0.025 C 
BRANCH   7   9
ATOM      9  C   UNL A   1      31.838  26.259  25.590  1.00  0.00    -0.034 A 
ATOM     10  C   UNL A   1      33.450  28.347  26.679  1.00  0.00    -0.018 A 
ATOM     11  C   UNL A   1      33.857  27.626  25.546  1.00  0.00     0.009 A 
ATOM     12  C   UNL A   1      32.239  27.975  27.281  1.00  0.00     0.009 A 
ATOM     13  C   UNL A   1      33.065  26.600  25.008  1.00  0.00     0.005 A 
ATOM     14  C   UNL A   1      31.448  26.950  26.749  1.00  0.00     0.005 A 
BRANCH  10  15
ATOM     15  C   UNL A   1      34.230  29.493  27.188  1.00  0.00    -0.018 A 
ATOM     16  C   UNL A   1      34.378  31.849  27.880  1.00  0.00    -0.048 A 
ATOM     17  C   UNL A   1      35.758  31.692  28.067  1.00  0.00     0.004 A 
ATOM     18  C   UNL A   1      33.631  30.744  27.429  1.00  0.00     0.012 A 
ATOM     19  C   UNL A   1      36.371  30.463  27.836  1.00  0.00     0.001 A 
ATOM     20  C   UNL A   1      35.613  29.374  27.403  1.00  0.00     0.009 A 
BRANCH  16  21
ATOM     21  C   UNL A   1      33.750  33.206  28.097  1.00  0.00     0.032 C 
ATOM     22  C   UNL A   1      34.694  34.386  27.904  1.00  0.00     0.009 C 
ENDBRANCH  16  21
ENDBRANCH  10  15
ENDBRANCH   7   9
ENDBRANCH   5   7
ENDBRANCH   4   5
ENDBRANCH   3   4
ENDBRANCH   2   3
ENDBRANCH   1   2
BRANCH   1  23
ATOM     23  C   UNL A   1      36.054  20.639  24.979  1.00  0.00     0.202 C 
BRANCH  23  24
ATOM     24  C   UNL A   1      37.451  21.260  24.859  1.00  0.00     0.261 C 
BRANCH  24  25
ATOM     25  O   UNL A   1      37.867  21.913  26.071  1.00  0.00    -0.460 OA
BRANCH  25  26
ATOM     26  C   UNL A   1      39.183  21.792  26.360  1.00  0.00     0.338 C 
ATOM     27  O   UNL A   1      39.916  20.852  26.078  1.00  0.00    -0.246 OA
BRANCH  26  28
ATOM     28  C   UNL A   1      39.700  23.052  26.925  1.00  0.00     0.060 A 
ATOM     29  C   UNL A   1      39.203  24.247  26.391  1.00  0.00     0.016 A 
ATOM     30  C   UNL A   1      40.702  23.073  27.899  1.00  0.00     0.016 A 
ATOM     31  C   UNL A   1      39.748  25.468  26.782  1.00  0.00     0.010 A 
ATOM     32  C   UNL A   1      41.253  24.301  28.285  1.00  0.00     0.010 A 
ATOM     33  C   UNL A   1      40.806  25.501  27.700  1.00  0.00    -0.014 A 
BRANCH  33  34
ATOM     34  C   UNL A   1      41.530  26.775  27.930  1.00  0.00     0.031 A 
ATOM     35  C   UNL A   1      42.945  26.914  27.434  1.00  0.00     0.074 A 
ATOM     36  C   UNL A   1      40.927  27.809  28.545  1.00  0.00     0.049 A 
ATOM     37  N   UNL A   1      43.760  27.932  27.530  1.00  0.00    -0.248 NA
ATOM     38  C   UNL A   1      43.516  25.751  26.733  1.00  0.00     0.031 C 
ATOM     39  C   UNL A   1      39.561  27.801  29.066  1.00  0.00     0.029 A 
ATOM     40  N   UNL A   1      41.399  29.060  28.855  1.00  0.00    -0.354 N 
ATOM     41  C   UNL A   1      44.942  27.532  26.919  1.00  0.00     0.074 A 
ATOM     42  C   UNL A   1      44.746  26.169  26.472  1.00  0.00     0.031 C 
ATOM     43  C   UNL A   1      39.316  28.980  29.664  1.00  0.00     0.029 A 
ATOM     44  C   UNL A   1      40.511  29.818  29.582  1.00  0.00     0.049 A 
ATOM     45  H   UNL A   1      42.287  29.385  28.581  1.00  0.00     0.167 HD
ATOM     46  C   UNL A   1      46.079  28.241  26.723  1.00  0.00     0.034 A 
ATOM     47  C   UNL A   1      40.656  31.039  30.136  1.00  0.00     0.034 A 
ATOM     48  C   UNL A   1      46.270  29.600  27.153  1.00  0.00     0.049 A 
ATOM     49  C   UNL A   1      41.941  31.797  29.925  1.00  0.00     0.074 A 
ATOM     50  C   UNL A   1      47.382  30.407  26.986  1.00  0.00     0.029 A 
ATOM     51  N   UNL A   1      45.329  30.352  27.838  1.00  0.00    -0.354 N 
ATOM     52  N   UNL A   1      43.008  31.444  29.249  1.00  0.00    -0.248 NA
ATOM     53  C   UNL A   1      42.029  33.139  30.521  1.00  0.00     0.031 C 
ATOM     54  C   UNL A   1      47.117  31.644  27.581  1.00  0.00     0.029 A 
ATOM     55  C   UNL A   1      45.834  31.614  28.101  1.00  0.00     0.049 A 
ATOM     56  H   UNL A   1      44.435  30.036  28.098  1.00  0.00     0.167 HD
ATOM     57  C   UNL A   1      43.876  32.530  29.309  1.00  0.00     0.074 A 
ATOM     58  C   UNL A   1      43.201  33.563  30.067  1.00  0.00     0.031 C 
ATOM     59  C   UNL A   1      45.127  32.655  28.801  1.00  0.00     0.034 A 
BRANCH  46  60
ATOM     60  C   UNL A   1      47.197  27.574  25.967  1.00  0.00     0.023 A 
ATOM     61  C   UNL A   1      47.240  27.683  24.562  1.00  0.00     0.012 A 
ATOM     62  C   UNL A   1      48.238  26.907  26.641  1.00  0.00     0.148 A 
ATOM     63  C   UNL A   1      48.287  27.118  23.836  1.00  0.00     0.002 A 
ATOM     64  C   UNL A   1      49.300  26.380  25.914  1.00  0.00     0.091 A 
ATOM     65  F   UNL A   1      48.169  26.797  27.975  1.00  0.00    -0.205 F 
ATOM     66  C   UNL A   1      49.322  26.477  24.513  1.00  0.00     0.022 A 
BRANCH  64  67
ATOM     67  S   UNL A   1      50.717  25.598  26.694  1.00  0.00     0.127 S 
ATOM     68  O   UNL A   1      51.589  25.355  25.544  1.00  0.00    -0.237 OA
ATOM     69  O   UNL A   1      51.185  26.646  27.602  1.00  0.00    -0.237 OA
ATOM     70  O   UNL A   1      50.208  24.404  27.353  1.00  0.00    -0.744 OA
ENDBRANCH  64  67
ENDBRANCH  46  60
BRANCH  47  71
ATOM     71  C   UNL A   1      39.542  31.634  30.930  1.00  0.00     0.023 A 
ATOM     72  C   UNL A   1      38.539  32.379  30.281  1.00  0.00     0.012 A 
ATOM     73  C   UNL A   1      39.475  31.466  32.327  1.00  0.00     0.148 A 
ATOM     74  C   UNL A   1      37.511  32.975  31.012  1.00  0.00     0.002 A 
ATOM     75  C   UNL A   1      38.417  32.013  33.041  1.00  0.00     0.091 A 
ATOM     76  F   UNL A   1      40.452  30.774  32.932  1.00  0.00    -0.205 F 
ATOM     77  C   UNL A   1      37.443  32.784  32.390  1.00  0.00     0.022 A 
BRANCH  75  78
ATOM     78  S   UNL A   1      38.189  31.695  34.795  1.00  0.00     0.127 S 
ATOM     79  O   UNL A   1      38.101  30.238  34.826  1.00  0.00    -0.237 OA
ATOM     80  O   UNL A   1      39.415  32.251  35.369  1.00  0.00    -0.237 OA
ATOM     81  O   UNL A   1      36.979  32.417  35.165  1.00  0.00    -0.744 OA
ENDBRANCH  75  78
ENDBRANCH  47  71
BRANCH  59  82
ATOM     82  C   UNL A   1      45.841  33.964  29.010  1.00  0.00     0.023 A 
ATOM     83  C   UNL A   1      46.687  34.129  30.125  1.00  0.00     0.012 A 
ATOM     84  C   UNL A   1      45.737  35.002  28.062  1.00  0.00     0.148 A 
ATOM     85  C   UNL A   1      47.391  35.319  30.311  1.00  0.00     0.002 A 
ATOM     86  C   UNL A   1      46.478  36.166  28.229  1.00  0.00     0.091 A 
ATOM     87  F   UNL A   1      44.915  34.833  27.016  1.00  0.00    -0.205 F 
ATOM     88  C   UNL A   1      47.296  36.331  29.358  1.00  0.00     0.022 A 
BRANCH  86  89
ATOM     89  S   UNL A   1      46.489  37.484  27.008  1.00  0.00     0.127 S 
ATOM     90  O   UNL A   1      47.357  38.473  27.643  1.00  0.00    -0.237 OA
ATOM     91  O   UNL A   1      47.070  36.822  25.840  1.00  0.00    -0.237 OA
ATOM     92  O   UNL A   1      45.098  37.886  26.843  1.00  0.00    -0.744 OA
ENDBRANCH  86  89
ENDBRANCH  59  82
ENDBRANCH  33  34
ENDBRANCH  26  28
ENDBRANCH  25  26
ENDBRANCH  24  25
ENDBRANCH  23  24
ENDBRANCH   1  23
TORSDOF 20
ENDMDL
MODEL 3
REMARK VINA RESULT:     -10.9      0.427      7.747
REMARK SMILES CCc1cccc(-c2ccc([C@@H](C)C(=O)OCCOCCOC(=O)c3ccc(-c4c5nc(c(-c6cccc(S(=O)(=O)[O-])c6F)c6ccc([nH]6)c(-c6cccc(S(=O)(=O)[O-])c6F)c6nc(c(-c7cccc(S(=O)(=O)[O-])c7F)c7ccc4[nH]7)C=C6)C=C5)cc3)cc2)c1
REMARK SMILES IDX 19 1 18 2 17 3 16 4 14 5 15 6 12 7 13 8 11 9 8 10 9 11 89 12
REMARK SMILES IDX 10 13 88 14 7 15 3 16 4 17 90 18 5 19 6 20 2 21 1 22 20 23
REMARK SMILES IDX 21 24 22 25 23 26 24 27 25 28 26 29 87 30 27 31 86 32 28 33
REMARK SMILES IDX 29 34 30 35 80 36 31 37 85 38 79 39 81 40 32 41 84 42 78 43
REMARK SMILES IDX 77 44 33 46 65 47 45 48 64 49 46 50 49 51 63 52 82 53 47 54
REMARK SMILES IDX 48 55 62 57 83 58 50 59 34 60 35 61 43 62 36 63 38 64 44 65
REMARK SMILES IDX 37 66 39 67 40 68 41 69 42 70 66 71 67 72 75 73 68 74 70 75
REMARK SMILES IDX 76 76 69 77 71 78 72 79 73 80 74 81 51 82 52 83 60 84 53 85
REMARK SMILES IDX 55 86 61 87 54 88 56 89 57 90 58 91 59 92
REMARK H PARENT 81 45 49 56
REMARK Flexibility Score: inf
ROOT
ATOM      1  O   UNL A   1      35.221  22.944  24.597  1.00  0.00    -0.374 OA
ENDROOT
BRANCH   1   2
ATOM      2  C   UNL A   1      35.147  23.471  25.923  1.00  0.00     0.202 C 
BRANCH   2   3
ATOM      3  C   UNL A   1      34.869  24.973  26.036  1.00  0.00     0.261 C 
BRANCH   3   4
ATOM      4  O   UNL A   1      33.955  25.413  25.014  1.00  0.00    -0.463 OA
BRANCH   4   5
ATOM      5  C   UNL A   1      32.800  25.978  25.447  1.00  0.00     0.313 C 
ATOM      6  O   UNL A   1      32.739  26.968  26.172  1.00  0.00    -0.252 OA
BRANCH   5   7
ATOM      7  C   UNL A   1      31.548  25.254  24.977  1.00  0.00     0.126 C 
ATOM      8  C   UNL A   1      30.410  25.515  25.961  1.00  0.00     0.025 C 
BRANCH   7   9
ATOM      9  C   UNL A   1      31.674  23.776  24.620  1.00  0.00    -0.034 A 
ATOM     10  C   UNL A   1      32.125  21.014  24.062  1.00  0.00    -0.018 A 
ATOM     11  C   UNL A   1      32.093  21.970  23.035  1.00  0.00     0.009 A 
ATOM     12  C   UNL A   1      31.887  21.461  25.370  1.00  0.00     0.009 A 
ATOM     13  C   UNL A   1      31.872  23.330  23.307  1.00  0.00     0.005 A 
ATOM     14  C   UNL A   1      31.663  22.816  25.645  1.00  0.00     0.005 A 
BRANCH  10  15
ATOM     15  C   UNL A   1      32.456  19.601  23.792  1.00  0.00    -0.018 A 
ATOM     16  C   UNL A   1      33.272  17.407  24.549  1.00  0.00    -0.048 A 
ATOM     17  C   UNL A   1      33.174  16.933  23.235  1.00  0.00     0.004 A 
ATOM     18  C   UNL A   1      32.921  18.745  24.809  1.00  0.00     0.012 A 
ATOM     19  C   UNL A   1      32.716  17.761  22.214  1.00  0.00     0.001 A 
ATOM     20  C   UNL A   1      32.358  19.081  22.491  1.00  0.00     0.009 A 
BRANCH  16  21
ATOM     21  C   UNL A   1      33.814  16.497  25.627  1.00  0.00     0.032 C 
ATOM     22  C   UNL A   1      35.158  15.855  25.306  1.00  0.00     0.009 C 
ENDBRANCH  16  21
ENDBRANCH  10  15
ENDBRANCH   7   9
ENDBRANCH   5   7
ENDBRANCH   4   5
ENDBRANCH   3   4
ENDBRANCH   2   3
ENDBRANCH   1   2
BRANCH   1  23
ATOM     23  C   UNL A   1      35.569  21.564  24.466  1.00  0.00     0.202 C 
BRANCH  23  24
ATOM     24  C   UNL A   1      36.660  21.040  25.407  1.00  0.00     0.261 C 
BRANCH  24  25
ATOM     25  O   UNL A   1      37.977  21.461  25.011  1.00  0.00    -0.460 OA
BRANCH  25  26
ATOM     26  C   UNL A   1      38.965  21.131  25.873  1.00  0.00     0.338 C 
ATOM     27  O   UNL A   1      39.484  20.030  26.012  1.00  0.00    -0.246 OA
BRANCH  26  28
ATOM     28  C   UNL A   1      39.491  22.338  26.536  1.00  0.00     0.060 A 
ATOM     29  C   UNL A   1      38.987  23.574  26.111  1.00  0.00     0.016 A 
ATOM     30  C   UNL A   1      40.506  22.278  27.493  1.00  0.00     0.016 A 
ATOM     31  C   UNL A   1      39.538  24.758  26.597  1.00  0.00     0.010 A 
ATOM     32  C   UNL A   1      41.063  23.469  27.974  1.00  0.00     0.010 A 
ATOM     33  C   UNL A   1      40.609  24.714  27.499  1.00  0.00    -0.014 A 
BRANCH  33  34
ATOM     34  C   UNL A   1      41.336  25.965  27.826  1.00  0.00     0.031 A 
ATOM     35  C   UNL A   1      40.614  27.060  28.566  1.00  0.00     0.074 A 
ATOM     36  C   UNL A   1      42.632  26.115  27.495  1.00  0.00     0.049 A 
ATOM     37  N   UNL A   1      41.055  28.231  28.946  1.00  0.00    -0.248 NA
ATOM     38  C   UNL A   1      39.211  26.798  28.929  1.00  0.00     0.031 C 
ATOM     39  C   UNL A   1      43.442  25.128  26.783  1.00  0.00     0.029 A 
ATOM     40  N   UNL A   1      43.487  27.170  27.697  1.00  0.00    -0.354 N 
ATOM     41  C   UNL A   1      39.984  28.852  29.578  1.00  0.00     0.074 A 
ATOM     42  C   UNL A   1      38.865  27.937  29.512  1.00  0.00     0.031 C 
ATOM     43  C   UNL A   1      44.667  25.639  26.574  1.00  0.00     0.029 A 
ATOM     44  C   UNL A   1      44.724  26.992  27.124  1.00  0.00     0.049 A 
ATOM     45  H   UNL A   1      43.238  27.976  28.205  1.00  0.00     0.167 HD
ATOM     46  C   UNL A   1      39.940  30.065  30.180  1.00  0.00     0.034 A 
ATOM     47  C   UNL A   1      45.773  27.835  27.035  1.00  0.00     0.034 A 
ATOM     48  C   UNL A   1      41.055  30.969  30.260  1.00  0.00     0.049 A 
ATOM     49  C   UNL A   1      45.691  29.188  27.693  1.00  0.00     0.074 A 
ATOM     50  C   UNL A   1      41.112  32.213  30.865  1.00  0.00     0.029 A 
ATOM     51  N   UNL A   1      42.307  30.731  29.717  1.00  0.00    -0.354 N 
ATOM     52  N   UNL A   1      44.706  29.714  28.381  1.00  0.00    -0.248 NA
ATOM     53  C   UNL A   1      46.879  30.050  27.596  1.00  0.00     0.031 C 
ATOM     54  C   UNL A   1      42.396  32.732  30.675  1.00  0.00     0.029 A 
ATOM     55  C   UNL A   1      43.144  31.804  29.971  1.00  0.00     0.049 A 
ATOM     56  H   UNL A   1      42.563  29.920  29.222  1.00  0.00     0.167 HD
ATOM     57  C   UNL A   1      45.167  30.949  28.826  1.00  0.00     0.074 A 
ATOM     58  C   UNL A   1      46.529  31.083  28.351  1.00  0.00     0.031 C 
ATOM     59  C   UNL A   1      44.517  31.897  29.546  1.00  0.00     0.034 A 
BRANCH  46  60
ATOM     60  C   UNL A   1      38.652  30.467  30.848  1.00  0.00     0.023 A 
ATOM     61  C   UNL A   1      38.470  30.188  32.218  1.00  0.00     0.012 A 
ATOM     62  C   UNL A   1      37.660  31.180  30.149  1.00  0.00     0.148 A 
ATOM     63  C   UNL A   1      37.310  30.591  32.877  1.00  0.00     0.002 A 
ATOM     64  C   UNL A   1      36.522  31.613  30.822  1.00  0.00     0.091 A 
ATOM     65  F   UNL A   1      37.843  31.417  28.843  1.00  0.00    -0.205 F 
ATOM     66  C   UNL A   1      36.342  31.312  32.182  1.00  0.00     0.022 A 
BRANCH  64  67
ATOM     67  S   UNL A   1      35.250  32.610  30.038  1.00  0.00     0.127 S 
ATOM     68  O   UNL A   1      34.293  32.780  31.131  1.00  0.00    -0.237 OA
ATOM     69  O   UNL A   1      35.987  33.823  29.680  1.00  0.00    -0.237 OA
ATOM     70  O   UNL A   1      34.769  31.833  28.905  1.00  0.00    -0.744 OA
ENDBRANCH  64  67
ENDBRANCH  46  60
BRANCH  47  71
ATOM     71  C   UNL A   1      47.007  27.415  26.310  1.00  0.00     0.023 A 
ATOM     72  C   UNL A   1      47.165  27.741  24.949  1.00  0.00     0.012 A 
ATOM     73  C   UNL A   1      48.024  26.693  26.964  1.00  0.00     0.148 A 
ATOM     74  C   UNL A   1      48.295  27.324  24.244  1.00  0.00     0.002 A 
ATOM     75  C   UNL A   1      49.173  26.331  26.272  1.00  0.00     0.091 A 
ATOM     76  F   UNL A   1      47.846  26.370  28.254  1.00  0.00    -0.205 F 
ATOM     77  C   UNL A   1      49.304  26.628  24.908  1.00  0.00     0.022 A 
BRANCH  75  78
ATOM     78  S   UNL A   1      50.571  25.555  27.091  1.00  0.00     0.127 S 
ATOM     79  O   UNL A   1      50.951  26.575  28.064  1.00  0.00    -0.237 OA
ATOM     80  O   UNL A   1      49.963  24.353  27.663  1.00  0.00    -0.237 OA
ATOM     81  O   UNL A   1      51.538  25.287  26.034  1.00  0.00    -0.744 OA
ENDBRANCH  75  78
ENDBRANCH  47  71
BRANCH  59  82
ATOM     82  C   UNL A   1      45.274  33.150  29.902  1.00  0.00     0.023 A 
ATOM     83  C   UNL A   1      45.992  33.213  31.113  1.00  0.00     0.012 A 
ATOM     84  C   UNL A   1      45.338  34.233  29.003  1.00  0.00     0.148 A 
ATOM     85  C   UNL A   1      46.734  34.347  31.438  1.00  0.00     0.002 A 
ATOM     86  C   UNL A   1      46.117  35.342  29.313  1.00  0.00     0.091 A 
ATOM     87  F   UNL A   1      44.634  34.162  27.863  1.00  0.00    -0.205 F 
ATOM     88  C   UNL A   1      46.807  35.405  30.535  1.00  0.00     0.022 A 
BRANCH  86  89
ATOM     89  S   UNL A   1      46.342  36.710  28.172  1.00  0.00     0.127 S 
ATOM     90  O   UNL A   1      46.410  36.019  26.886  1.00  0.00    -0.237 OA
ATOM     91  O   UNL A   1      45.123  37.493  28.381  1.00  0.00    -0.237 OA
ATOM     92  O   UNL A   1      47.568  37.380  28.588  1.00  0.00    -0.744 OA
ENDBRANCH  86  89
ENDBRANCH  59  82
ENDBRANCH  33  34
ENDBRANCH  26  28
ENDBRANCH  25  26
ENDBRANCH  24  25
ENDBRANCH  23  24
ENDBRANCH   1  23
TORSDOF 20
ENDMDL
